MODEL 1
REMARK VINA RESULT:     -11.6      0.000      0.000
REMARK SMILES O=C(Cn1c(=O)n(Cc2cccnc2)c(=O)c2sccc21)NCCCCNC(=O)c1ccc(-c2c3nc(c(-c4ccccc4)c4ccc([nH]4)c(-c4ccccc4)c4nc(c(-c5ccccc5)c5ccc2[nH]5)C=C4)C=C3)cc1
REMARK SMILES IDX 24 1 23 2 22 3 1 4 2 5 3 7 4 8 5 9 21 10 6 11 7 12 17 13
REMARK SMILES IDX 20 14 15 15 18 16 19 17 16 18 8 19 9 20 10 21 14 22 11 23
REMARK SMILES IDX 13 24 12 25 25 26 26 27 27 28 28 29 29 31 30 32 31 33 77 34
REMARK SMILES IDX 32 35 76 36 33 37 34 38 35 39 70 40 36 41 75 42 69 43 71 44
REMARK SMILES IDX 37 45 74 46 68 47 67 48 38 50 60 51 45 52 59 53 46 54 49 55
REMARK SMILES IDX 58 56 72 57 47 58 48 59 57 61 73 62 50 63 39 64 40 65 44 66
REMARK SMILES IDX 41 67 43 68 42 69 61 70 62 71 66 72 63 73 65 74 64 75 51 76
REMARK SMILES IDX 52 77 56 78 53 79 55 80 54 81
REMARK H PARENT 22 6 27 30 71 49 49 60
REMARK Flexibility Score: inf
ROOT
ATOM      1  C   UNL A   1      40.976  21.427  26.100  1.00  0.00     0.023 C 
ENDROOT
BRANCH   1   2
ATOM      2  C   UNL A   1      39.627  21.843  26.701  1.00  0.00     0.116 C 
BRANCH   2   3
ATOM      3  N   UNL A   1      38.575  22.029  25.718  1.00  0.00    -0.355 N 
ATOM      4  O   UNL A   1      37.819  24.004  26.589  1.00  0.00    -0.273 OA
ATOM      5  C   UNL A   1      37.774  23.155  25.699  1.00  0.00     0.240 C 
ATOM      6  H   UNL A   1      38.426  21.329  25.041  1.00  0.00     0.163 HD
BRANCH   5   7
ATOM      7  C   UNL A   1      36.657  23.164  24.648  1.00  0.00     0.227 C 
BRANCH   7   8
ATOM      8  N   UNL A   1      35.306  22.902  25.157  1.00  0.00    -0.283 N 
ATOM      9  C   UNL A   1      34.976  21.561  25.423  1.00  0.00     0.332 A 
ATOM     10  C   UNL A   1      34.352  23.906  25.331  1.00  0.00     0.070 A 
ATOM     11  O   UNL A   1      35.824  20.670  25.334  1.00  0.00    -0.247 OA
ATOM     12  N   UNL A   1      33.648  21.275  25.755  1.00  0.00    -0.254 N 
ATOM     13  C   UNL A   1      33.062  23.566  25.627  1.00  0.00     0.116 A 
ATOM     14  C   UNL A   1      34.503  25.321  25.223  1.00  0.00     0.039 A 
ATOM     15  C   UNL A   1      32.603  22.208  25.725  1.00  0.00     0.274 A 
ATOM     16  S   UNL A   1      32.050  24.905  25.868  1.00  0.00    -0.136 S 
ATOM     17  C   UNL A   1      33.331  25.988  25.523  1.00  0.00     0.068 A 
ATOM     18  O   UNL A   1      31.423  21.889  25.771  1.00  0.00    -0.268 OA
BRANCH  12  19
ATOM     19  C   UNL A   1      33.293  19.881  26.024  1.00  0.00     0.168 C 
BRANCH  19  20
ATOM     20  C   UNL A   1      33.166  19.039  24.774  1.00  0.00    -0.010 A 
ATOM     21  C   UNL A   1      33.903  17.869  24.571  1.00  0.00     0.009 A 
ATOM     22  C   UNL A   1      32.351  19.439  23.726  1.00  0.00     0.116 A 
ATOM     23  C   UNL A   1      33.809  17.188  23.354  1.00  0.00     0.020 A 
ATOM     24  N   UNL A   1      32.222  18.791  22.548  1.00  0.00    -0.264 NA
ATOM     25  C   UNL A   1      32.969  17.688  22.377  1.00  0.00     0.111 A 
ENDBRANCH  19  20
ENDBRANCH  12  19
ENDBRANCH   7   8
ENDBRANCH   5   7
ENDBRANCH   2   3
ENDBRANCH   1   2
BRANCH   1  26
ATOM     26  C   UNL A   1      41.308  19.928  26.116  1.00  0.00     0.023 C 
BRANCH  26  27
ATOM     27  C   UNL A   1      42.682  19.572  26.668  1.00  0.00     0.116 C 
BRANCH  27  28
ATOM     28  N   UNL A   1      43.714  19.422  25.648  1.00  0.00    -0.352 N 
ATOM     29  C   UNL A   1      44.292  20.424  24.887  1.00  0.00     0.251 C 
ATOM     30  H   UNL A   1      44.037  18.508  25.484  1.00  0.00     0.163 HD
ATOM     31  O   UNL A   1      44.842  20.163  23.823  1.00  0.00    -0.269 OA
BRANCH  29  32
ATOM     32  C   UNL A   1      44.225  21.822  25.365  1.00  0.00     0.039 A 
ATOM     33  C   UNL A   1      43.551  22.802  24.634  1.00  0.00     0.014 A 
ATOM     34  C   UNL A   1      44.845  22.152  26.571  1.00  0.00     0.014 A 
ATOM     35  C   UNL A   1      43.433  24.082  25.173  1.00  0.00     0.010 A 
ATOM     36  C   UNL A   1      44.612  23.372  27.166  1.00  0.00     0.010 A 
ATOM     37  C   UNL A   1      43.936  24.357  26.462  1.00  0.00    -0.014 A 
BRANCH  37  38
ATOM     38  C   UNL A   1      43.616  25.626  27.119  1.00  0.00     0.031 A 
ATOM     39  C   UNL A   1      44.541  26.734  26.758  1.00  0.00     0.074 A 
ATOM     40  C   UNL A   1      42.515  25.880  27.863  1.00  0.00     0.049 A 
ATOM     41  N   UNL A   1      45.450  27.252  27.513  1.00  0.00    -0.248 NA
ATOM     42  C   UNL A   1      44.574  27.214  25.366  1.00  0.00     0.031 C 
ATOM     43  C   UNL A   1      41.347  25.026  28.096  1.00  0.00     0.029 A 
ATOM     44  N   UNL A   1      42.171  27.030  28.512  1.00  0.00    -0.354 N 
ATOM     45  C   UNL A   1      46.029  28.274  26.773  1.00  0.00     0.074 A 
ATOM     46  C   UNL A   1      45.579  28.093  25.415  1.00  0.00     0.031 C 
ATOM     47  C   UNL A   1      40.340  25.767  28.614  1.00  0.00     0.029 A 
ATOM     48  C   UNL A   1      40.838  27.096  28.918  1.00  0.00     0.049 A 
ATOM     49  H   UNL A   1      42.812  27.758  28.678  1.00  0.00     0.167 HD
ATOM     50  C   UNL A   1      46.614  29.334  27.396  1.00  0.00     0.031 A 
ATOM     51  C   UNL A   1      40.193  28.169  29.450  1.00  0.00     0.031 A 
ATOM     52  C   UNL A   1      46.860  29.060  28.791  1.00  0.00     0.049 A 
ATOM     53  C   UNL A   1      41.221  29.073  29.999  1.00  0.00     0.074 A 
ATOM     54  C   UNL A   1      47.541  28.079  29.487  1.00  0.00     0.029 A 
ATOM     55  N   UNL A   1      46.006  29.639  29.702  1.00  0.00    -0.354 N 
ATOM     56  N   UNL A   1      41.944  28.782  31.042  1.00  0.00    -0.248 NA
ATOM     57  C   UNL A   1      41.760  30.094  29.116  1.00  0.00     0.031 C 
ATOM     58  C   UNL A   1      46.711  27.784  30.607  1.00  0.00     0.029 A 
ATOM     59  C   UNL A   1      45.625  28.660  30.579  1.00  0.00     0.049 A 
ATOM     60  H   UNL A   1      45.722  30.581  29.719  1.00  0.00     0.167 HD
ATOM     61  C   UNL A   1      43.213  29.221  30.705  1.00  0.00     0.074 A 
ATOM     62  C   UNL A   1      43.023  30.101  29.551  1.00  0.00     0.031 C 
ATOM     63  C   UNL A   1      44.324  28.602  31.199  1.00  0.00     0.031 A 
BRANCH  50  64
ATOM     64  C   UNL A   1      46.527  30.749  26.879  1.00  0.00    -0.014 A 
ATOM     65  C   UNL A   1      47.675  31.561  26.962  1.00  0.00     0.009 A 
ATOM     66  C   UNL A   1      45.308  31.403  26.623  1.00  0.00     0.009 A 
ATOM     67  C   UNL A   1      47.586  32.956  26.905  1.00  0.00     0.001 A 
ATOM     68  C   UNL A   1      45.223  32.793  26.518  1.00  0.00     0.001 A 
ATOM     69  C   UNL A   1      46.357  33.571  26.696  1.00  0.00     0.000 A 
ENDBRANCH  50  64
BRANCH  51  70
ATOM     70  C   UNL A   1      38.794  28.625  29.277  1.00  0.00    -0.014 A 
ATOM     71  C   UNL A   1      37.938  28.845  30.368  1.00  0.00     0.009 A 
ATOM     72  C   UNL A   1      38.397  29.148  28.041  1.00  0.00     0.009 A 
ATOM     73  C   UNL A   1      36.744  29.571  30.219  1.00  0.00     0.001 A 
ATOM     74  C   UNL A   1      37.202  29.858  27.882  1.00  0.00     0.001 A 
ATOM     75  C   UNL A   1      36.378  30.081  28.977  1.00  0.00     0.000 A 
ENDBRANCH  51  70
BRANCH  63  76
ATOM     76  C   UNL A   1      44.165  27.583  32.298  1.00  0.00    -0.014 A 
ATOM     77  C   UNL A   1      44.109  26.197  32.064  1.00  0.00     0.009 A 
ATOM     78  C   UNL A   1      44.300  28.032  33.619  1.00  0.00     0.009 A 
ATOM     79  C   UNL A   1      44.193  25.292  33.129  1.00  0.00     0.001 A 
ATOM     80  C   UNL A   1      44.404  27.130  34.678  1.00  0.00     0.001 A 
ATOM     81  C   UNL A   1      44.355  25.759  34.433  1.00  0.00     0.000 A 
ENDBRANCH  63  76
ENDBRANCH  37  38
ENDBRANCH  29  32
ENDBRANCH  27  28
ENDBRANCH  26  27
ENDBRANCH   1  26
TORSDOF 14
ENDMDL
MODEL 2
REMARK VINA RESULT:     -11.5      4.837     10.026
REMARK SMILES O=C(Cn1c(=O)n(Cc2cccnc2)c(=O)c2sccc21)NCCCCNC(=O)c1ccc(-c2c3nc(c(-c4ccccc4)c4ccc([nH]4)c(-c4ccccc4)c4nc(c(-c5ccccc5)c5ccc2[nH]5)C=C4)C=C3)cc1
REMARK SMILES IDX 24 1 23 2 22 3 1 4 2 5 3 7 4 8 5 9 21 10 6 11 7 12 17 13
REMARK SMILES IDX 20 14 15 15 18 16 19 17 16 18 8 19 9 20 10 21 14 22 11 23
REMARK SMILES IDX 13 24 12 25 25 26 26 27 27 28 28 29 29 31 30 32 31 33 77 34
REMARK SMILES IDX 32 35 76 36 33 37 34 38 35 39 70 40 36 41 75 42 69 43 71 44
REMARK SMILES IDX 37 45 74 46 68 47 67 48 38 50 60 51 45 52 59 53 46 54 49 55
REMARK SMILES IDX 58 56 72 57 47 58 48 59 57 61 73 62 50 63 39 64 40 65 44 66
REMARK SMILES IDX 41 67 43 68 42 69 61 70 62 71 66 72 63 73 65 74 64 75 51 76
REMARK SMILES IDX 52 77 56 78 53 79 55 80 54 81
REMARK H PARENT 22 6 27 30 71 49 49 60
REMARK Flexibility Score: inf
ROOT
ATOM      1  C   UNL A   1      39.456  33.991  33.260  1.00  0.00     0.023 C 
ENDROOT
BRANCH   1   2
ATOM      2  C   UNL A   1      38.516  33.226  34.201  1.00  0.00     0.116 C 
BRANCH   2   3
ATOM      3  N   UNL A   1      37.252  32.848  33.594  1.00  0.00    -0.355 N 
ATOM      4  O   UNL A   1      36.237  34.868  33.944  1.00  0.00    -0.273 OA
ATOM      5  C   UNL A   1      36.207  33.740  33.451  1.00  0.00     0.240 C 
ATOM      6  H   UNL A   1      37.136  31.924  33.274  1.00  0.00     0.163 HD
BRANCH   5   7
ATOM      7  C   UNL A   1      34.912  33.165  32.864  1.00  0.00     0.227 C 
BRANCH   7   8
ATOM      8  N   UNL A   1      34.704  33.406  31.432  1.00  0.00    -0.283 N 
ATOM      9  C   UNL A   1      35.242  32.458  30.543  1.00  0.00     0.332 A 
ATOM     10  C   UNL A   1      34.054  34.539  30.939  1.00  0.00     0.070 A 
ATOM     11  O   UNL A   1      35.765  31.422  30.960  1.00  0.00    -0.247 OA
ATOM     12  N   UNL A   1      35.193  32.752  29.176  1.00  0.00    -0.254 N 
ATOM     13  C   UNL A   1      34.062  34.790  29.596  1.00  0.00     0.116 A 
ATOM     14  C   UNL A   1      33.353  35.557  31.652  1.00  0.00     0.039 A 
ATOM     15  C   UNL A   1      34.755  33.970  28.641  1.00  0.00     0.274 A 
ATOM     16  S   UNL A   1      33.174  36.168  29.161  1.00  0.00    -0.136 S 
ATOM     17  C   UNL A   1      32.795  36.490  30.801  1.00  0.00     0.068 A 
ATOM     18  O   UNL A   1      34.955  34.298  27.479  1.00  0.00    -0.268 OA
BRANCH  12  19
ATOM     19  C   UNL A   1      35.758  31.775  28.244  1.00  0.00     0.168 C 
BRANCH  19  20
ATOM     20  C   UNL A   1      34.761  30.736  27.782  1.00  0.00    -0.010 A 
ATOM     21  C   UNL A   1      35.122  29.419  27.486  1.00  0.00     0.009 A 
ATOM     22  C   UNL A   1      33.434  31.072  27.559  1.00  0.00     0.116 A 
ATOM     23  C   UNL A   1      34.171  28.533  26.974  1.00  0.00     0.020 A 
ATOM     24  N   UNL A   1      32.487  30.232  27.086  1.00  0.00    -0.264 NA
ATOM     25  C   UNL A   1      32.879  28.984  26.784  1.00  0.00     0.111 A 
ENDBRANCH  19  20
ENDBRANCH  12  19
ENDBRANCH   7   8
ENDBRANCH   5   7
ENDBRANCH   2   3
ENDBRANCH   1   2
BRANCH   1  26
ATOM     26  C   UNL A   1      40.877  34.267  33.775  1.00  0.00     0.023 C 
BRANCH  26  27
ATOM     27  C   UNL A   1      41.930  34.473  32.695  1.00  0.00     0.116 C 
BRANCH  27  28
ATOM     28  N   UNL A   1      41.385  34.841  31.393  1.00  0.00    -0.352 N 
ATOM     29  C   UNL A   1      41.444  34.104  30.221  1.00  0.00     0.251 C 
ATOM     30  H   UNL A   1      40.924  35.708  31.340  1.00  0.00     0.163 HD
ATOM     31  O   UNL A   1      41.311  34.650  29.132  1.00  0.00    -0.269 OA
BRANCH  29  32
ATOM     32  C   UNL A   1      41.683  32.647  30.298  1.00  0.00     0.039 A 
ATOM     33  C   UNL A   1      40.632  31.757  30.527  1.00  0.00     0.014 A 
ATOM     34  C   UNL A   1      42.982  32.168  30.130  1.00  0.00     0.014 A 
ATOM     35  C   UNL A   1      40.891  30.387  30.494  1.00  0.00     0.010 A 
ATOM     36  C   UNL A   1      43.214  30.820  29.960  1.00  0.00     0.010 A 
ATOM     37  C   UNL A   1      42.182  29.918  30.174  1.00  0.00    -0.014 A 
BRANCH  37  38
ATOM     38  C   UNL A   1      42.402  28.493  29.916  1.00  0.00     0.031 A 
ATOM     39  C   UNL A   1      43.122  27.794  31.014  1.00  0.00     0.074 A 
ATOM     40  C   UNL A   1      41.891  27.784  28.884  1.00  0.00     0.049 A 
ATOM     41  N   UNL A   1      44.345  27.382  30.990  1.00  0.00    -0.248 NA
ATOM     42  C   UNL A   1      42.478  27.678  32.333  1.00  0.00     0.031 C 
ATOM     43  C   UNL A   1      40.928  28.210  27.865  1.00  0.00     0.029 A 
ATOM     44  N   UNL A   1      42.072  26.465  28.582  1.00  0.00    -0.354 N 
ATOM     45  C   UNL A   1      44.565  26.756  32.209  1.00  0.00     0.074 A 
ATOM     46  C   UNL A   1      43.454  27.119  33.054  1.00  0.00     0.031 C 
ATOM     47  C   UNL A   1      40.433  27.124  27.226  1.00  0.00     0.029 A 
ATOM     48  C   UNL A   1      41.167  25.948  27.656  1.00  0.00     0.049 A 
ATOM     49  H   UNL A   1      42.785  25.921  28.988  1.00  0.00     0.167 HD
ATOM     50  C   UNL A   1      45.508  25.780  32.327  1.00  0.00     0.031 A 
ATOM     51  C   UNL A   1      41.024  24.646  27.285  1.00  0.00     0.031 A 
ATOM     52  C   UNL A   1      46.413  25.779  31.203  1.00  0.00     0.049 A 
ATOM     53  C   UNL A   1      42.284  23.954  27.615  1.00  0.00     0.074 A 
ATOM     54  C   UNL A   1      47.239  26.718  30.615  1.00  0.00     0.029 A 
ATOM     55  N   UNL A   1      46.235  24.794  30.258  1.00  0.00    -0.354 N 
ATOM     56  N   UNL A   1      43.406  24.180  26.995  1.00  0.00    -0.248 NA
ATOM     57  C   UNL A   1      42.395  23.352  28.933  1.00  0.00     0.031 C 
ATOM     58  C   UNL A   1      47.089  26.508  29.214  1.00  0.00     0.029 A 
ATOM     59  C   UNL A   1      46.259  25.401  29.032  1.00  0.00     0.049 A 
ATOM     60  H   UNL A   1      46.112  23.833  30.432  1.00  0.00     0.167 HD
ATOM     61  C   UNL A   1      44.352  24.193  28.005  1.00  0.00     0.074 A 
ATOM     62  C   UNL A   1      43.690  23.587  29.162  1.00  0.00     0.031 C 
ATOM     63  C   UNL A   1      45.477  24.958  27.903  1.00  0.00     0.031 A 
BRANCH  50  64
ATOM     64  C   UNL A   1      45.327  24.555  33.190  1.00  0.00    -0.014 A 
ATOM     65  C   UNL A   1      44.166  23.779  33.011  1.00  0.00     0.009 A 
ATOM     66  C   UNL A   1      46.070  24.322  34.362  1.00  0.00     0.009 A 
ATOM     67  C   UNL A   1      43.717  22.903  34.005  1.00  0.00     0.001 A 
ATOM     68  C   UNL A   1      45.648  23.413  35.335  1.00  0.00     0.001 A 
ATOM     69  C   UNL A   1      44.452  22.731  35.172  1.00  0.00     0.000 A 
ENDBRANCH  50  64
BRANCH  51  70
ATOM     70  C   UNL A   1      39.805  23.881  26.936  1.00  0.00    -0.014 A 
ATOM     71  C   UNL A   1      38.580  24.509  26.662  1.00  0.00     0.009 A 
ATOM     72  C   UNL A   1      39.928  22.538  26.563  1.00  0.00     0.009 A 
ATOM     73  C   UNL A   1      37.534  23.816  26.029  1.00  0.00     0.001 A 
ATOM     74  C   UNL A   1      38.885  21.836  25.948  1.00  0.00     0.001 A 
ATOM     75  C   UNL A   1      37.688  22.480  25.669  1.00  0.00     0.000 A 
ENDBRANCH  51  70
BRANCH  63  76
ATOM     76  C   UNL A   1      45.800  25.611  26.584  1.00  0.00    -0.014 A 
ATOM     77  C   UNL A   1      45.256  26.843  26.179  1.00  0.00     0.009 A 
ATOM     78  C   UNL A   1      46.854  25.067  25.836  1.00  0.00     0.009 A 
ATOM     79  C   UNL A   1      45.764  27.510  25.057  1.00  0.00     0.001 A 
ATOM     80  C   UNL A   1      47.372  25.742  24.730  1.00  0.00     0.001 A 
ATOM     81  C   UNL A   1      46.830  26.965  24.342  1.00  0.00     0.000 A 
ENDBRANCH  63  76
ENDBRANCH  37  38
ENDBRANCH  29  32
ENDBRANCH  27  28
ENDBRANCH  26  27
ENDBRANCH   1  26
TORSDOF 14
ENDMDL
MODEL 3
REMARK VINA RESULT:     -11.4      1.318      3.093
REMARK SMILES O=C(Cn1c(=O)n(Cc2cccnc2)c(=O)c2sccc21)NCCCCNC(=O)c1ccc(-c2c3nc(c(-c4ccccc4)c4ccc([nH]4)c(-c4ccccc4)c4nc(c(-c5ccccc5)c5ccc2[nH]5)C=C4)C=C3)cc1
REMARK SMILES IDX 24 1 23 2 22 3 1 4 2 5 3 7 4 8 5 9 21 10 6 11 7 12 17 13
REMARK SMILES IDX 20 14 15 15 18 16 19 17 16 18 8 19 9 20 10 21 14 22 11 23
REMARK SMILES IDX 13 24 12 25 25 26 26 27 27 28 28 29 29 31 30 32 31 33 77 34
REMARK SMILES IDX 32 35 76 36 33 37 34 38 35 39 70 40 36 41 75 42 69 43 71 44
REMARK SMILES IDX 37 45 74 46 68 47 67 48 38 50 60 51 45 52 59 53 46 54 49 55
REMARK SMILES IDX 58 56 72 57 47 58 48 59 57 61 73 62 50 63 39 64 40 65 44 66
REMARK SMILES IDX 41 67 43 68 42 69 61 70 62 71 66 72 63 73 65 74 64 75 51 76
REMARK SMILES IDX 52 77 56 78 53 79 55 80 54 81
REMARK H PARENT 22 6 27 30 71 49 49 60
REMARK Flexibility Score: inf
ROOT
ATOM      1  C   UNL A   1      40.783  21.339  27.440  1.00  0.00     0.023 C 
ENDROOT
BRANCH   1   2
ATOM      2  C   UNL A   1      39.935  21.783  26.240  1.00  0.00     0.116 C 
BRANCH   2   3
ATOM      3  N   UNL A   1      38.558  22.100  26.575  1.00  0.00    -0.355 N 
ATOM      4  O   UNL A   1      37.678  21.314  24.616  1.00  0.00    -0.273 OA
ATOM      5  C   UNL A   1      37.504  21.774  25.744  1.00  0.00     0.240 C 
ATOM      6  H   UNL A   1      38.369  22.563  27.424  1.00  0.00     0.163 HD
BRANCH   5   7
ATOM      7  C   UNL A   1      36.119  22.249  26.203  1.00  0.00     0.227 C 
BRANCH   7   8
ATOM      8  N   UNL A   1      35.115  22.393  25.143  1.00  0.00    -0.283 N 
ATOM      9  C   UNL A   1      34.948  23.679  24.597  1.00  0.00     0.332 A 
ATOM     10  C   UNL A   1      34.311  21.338  24.710  1.00  0.00     0.070 A 
ATOM     11  O   UNL A   1      35.691  24.608  24.923  1.00  0.00    -0.247 OA
ATOM     12  N   UNL A   1      33.890  23.869  23.703  1.00  0.00    -0.254 N 
ATOM     13  C   UNL A   1      33.273  21.589  23.857  1.00  0.00     0.116 A 
ATOM     14  C   UNL A   1      34.381  19.954  25.047  1.00  0.00     0.039 A 
ATOM     15  C   UNL A   1      32.918  22.906  23.405  1.00  0.00     0.274 A 
ATOM     16  S   UNL A   1      32.439  20.191  23.381  1.00  0.00    -0.136 S 
ATOM     17  C   UNL A   1      33.438  19.209  24.367  1.00  0.00     0.068 A 
ATOM     18  O   UNL A   1      31.873  23.169  22.826  1.00  0.00    -0.268 OA
BRANCH  12  19
ATOM     19  C   UNL A   1      33.704  25.207  23.137  1.00  0.00     0.168 C 
BRANCH  19  20
ATOM     20  C   UNL A   1      33.178  26.215  24.133  1.00  0.00    -0.010 A 
ATOM     21  C   UNL A   1      33.794  27.448  24.359  1.00  0.00     0.009 A 
ATOM     22  C   UNL A   1      32.083  25.922  24.933  1.00  0.00     0.116 A 
ATOM     23  C   UNL A   1      33.313  28.296  25.361  1.00  0.00     0.020 A 
ATOM     24  N   UNL A   1      31.581  26.729  25.893  1.00  0.00    -0.264 NA
ATOM     25  C   UNL A   1      32.219  27.892  26.102  1.00  0.00     0.111 A 
ENDBRANCH  19  20
ENDBRANCH  12  19
ENDBRANCH   7   8
ENDBRANCH   5   7
ENDBRANCH   2   3
ENDBRANCH   1   2
BRANCH   1  26
ATOM     26  C   UNL A   1      41.868  20.287  27.169  1.00  0.00     0.023 C 
BRANCH  26  27
ATOM     27  C   UNL A   1      41.947  19.791  25.731  1.00  0.00     0.116 C 
BRANCH  27  28
ATOM     28  N   UNL A   1      43.302  19.501  25.274  1.00  0.00    -0.352 N 
ATOM     29  C   UNL A   1      44.271  20.415  24.892  1.00  0.00     0.251 C 
ATOM     30  H   UNL A   1      43.556  18.552  25.232  1.00  0.00     0.163 HD
ATOM     31  O   UNL A   1      45.205  20.073  24.176  1.00  0.00    -0.269 OA
BRANCH  29  32
ATOM     32  C   UNL A   1      44.159  21.817  25.350  1.00  0.00     0.039 A 
ATOM     33  C   UNL A   1      43.310  22.719  24.705  1.00  0.00     0.014 A 
ATOM     34  C   UNL A   1      44.915  22.229  26.447  1.00  0.00     0.014 A 
ATOM     35  C   UNL A   1      43.166  24.001  25.233  1.00  0.00     0.010 A 
ATOM     36  C   UNL A   1      44.670  23.445  27.048  1.00  0.00     0.010 A 
ATOM     37  C   UNL A   1      43.823  24.353  26.430  1.00  0.00    -0.014 A 
BRANCH  37  38
ATOM     38  C   UNL A   1      43.497  25.612  27.103  1.00  0.00     0.031 A 
ATOM     39  C   UNL A   1      44.400  26.735  26.736  1.00  0.00     0.074 A 
ATOM     40  C   UNL A   1      42.406  25.845  27.868  1.00  0.00     0.049 A 
ATOM     41  N   UNL A   1      45.315  27.259  27.480  1.00  0.00    -0.248 NA
ATOM     42  C   UNL A   1      44.404  27.226  25.348  1.00  0.00     0.031 C 
ATOM     43  C   UNL A   1      41.253  24.974  28.113  1.00  0.00     0.029 A 
ATOM     44  N   UNL A   1      42.057  26.985  28.531  1.00  0.00    -0.354 N 
ATOM     45  C   UNL A   1      45.869  28.295  26.739  1.00  0.00     0.074 A 
ATOM     46  C   UNL A   1      45.398  28.118  25.388  1.00  0.00     0.031 C 
ATOM     47  C   UNL A   1      40.244  25.697  28.654  1.00  0.00     0.029 A 
ATOM     48  C   UNL A   1      40.730  27.030  28.961  1.00  0.00     0.049 A 
ATOM     49  H   UNL A   1      42.691  27.720  28.693  1.00  0.00     0.167 HD
ATOM     50  C   UNL A   1      46.450  29.357  27.362  1.00  0.00     0.031 A 
ATOM     51  C   UNL A   1      40.080  28.090  29.513  1.00  0.00     0.031 A 
ATOM     52  C   UNL A   1      46.722  29.075  28.750  1.00  0.00     0.049 A 
ATOM     53  C   UNL A   1      41.105  29.003  30.052  1.00  0.00     0.074 A 
ATOM     54  C   UNL A   1      47.428  28.098  29.426  1.00  0.00     0.029 A 
ATOM     55  N   UNL A   1      45.876  29.635  29.680  1.00  0.00    -0.354 N 
ATOM     56  N   UNL A   1      41.849  28.713  31.079  1.00  0.00    -0.248 NA
ATOM     57  C   UNL A   1      41.615  30.038  29.169  1.00  0.00     0.031 C 
ATOM     58  C   UNL A   1      46.621  27.783  30.557  1.00  0.00     0.029 A 
ATOM     59  C   UNL A   1      45.523  28.644  30.554  1.00  0.00     0.049 A 
ATOM     60  H   UNL A   1      45.579  30.574  29.709  1.00  0.00     0.167 HD
ATOM     61  C   UNL A   1      43.106  29.171  30.726  1.00  0.00     0.074 A 
ATOM     62  C   UNL A   1      42.885  30.059  29.583  1.00  0.00     0.031 C 
ATOM     63  C   UNL A   1      44.233  28.564  31.196  1.00  0.00     0.031 A 
BRANCH  50  64
ATOM     64  C   UNL A   1      46.335  30.776  26.858  1.00  0.00    -0.014 A 
ATOM     65  C   UNL A   1      47.485  31.588  26.888  1.00  0.00     0.009 A 
ATOM     66  C   UNL A   1      45.104  31.429  26.667  1.00  0.00     0.009 A 
ATOM     67  C   UNL A   1      47.391  32.983  26.843  1.00  0.00     0.001 A 
ATOM     68  C   UNL A   1      45.012  32.820  26.575  1.00  0.00     0.001 A 
ATOM     69  C   UNL A   1      46.152  33.598  26.700  1.00  0.00     0.000 A 
ENDBRANCH  50  64
BRANCH  51  70
ATOM     70  C   UNL A   1      38.673  28.528  29.367  1.00  0.00    -0.014 A 
ATOM     71  C   UNL A   1      37.846  28.771  30.475  1.00  0.00     0.009 A 
ATOM     72  C   UNL A   1      38.236  29.012  28.128  1.00  0.00     0.009 A 
ATOM     73  C   UNL A   1      36.641  29.482  30.340  1.00  0.00     0.001 A 
ATOM     74  C   UNL A   1      37.029  29.706  27.983  1.00  0.00     0.001 A 
ATOM     75  C   UNL A   1      36.234  29.953  29.094  1.00  0.00     0.000 A 
ENDBRANCH  51  70
BRANCH  63  76
ATOM     76  C   UNL A   1      44.107  27.533  32.288  1.00  0.00    -0.014 A 
ATOM     77  C   UNL A   1      44.061  26.149  32.043  1.00  0.00     0.009 A 
ATOM     78  C   UNL A   1      44.263  27.973  33.611  1.00  0.00     0.009 A 
ATOM     79  C   UNL A   1      44.175  25.236  33.099  1.00  0.00     0.001 A 
ATOM     80  C   UNL A   1      44.397  27.062  34.659  1.00  0.00     0.001 A 
ATOM     81  C   UNL A   1      44.357  25.694  34.403  1.00  0.00     0.000 A 
ENDBRANCH  63  76
ENDBRANCH  37  38
ENDBRANCH  29  32
ENDBRANCH  27  28
ENDBRANCH  26  27
ENDBRANCH   1  26
TORSDOF 14
ENDMDL
