MODEL 1
REMARK VINA RESULT:     -11.4      0.000      0.000
REMARK SMILES O=C(COc1cccc(Br)c1)Nc1ccsc1C(=O)NCCCCNC(=O)c1ccc(-c2c3nc(c(-c4ccccc4)c4ccc([nH]4)c(-c4ccccc4)c4nc(c(-c5ccccc5)c5ccc2[nH]5)C=C4)C=C3)cc1
REMARK SMILES IDX 21 1 20 2 18 3 19 4 17 6 13 7 14 8 15 9 16 10 12 11 1 12
REMARK SMILES IDX 2 13 3 15 4 16 5 17 6 18 11 19 7 20 9 21 8 22 10 23 22 24
REMARK SMILES IDX 23 25 24 26 25 27 26 28 27 30 28 31 29 32 75 33 30 34 74 35
REMARK SMILES IDX 31 36 32 37 33 38 68 39 34 40 73 41 67 42 69 43 35 44 72 45
REMARK SMILES IDX 66 46 65 47 36 49 58 50 43 51 57 52 44 53 47 54 56 55 70 56
REMARK SMILES IDX 45 57 46 58 55 60 71 61 48 62 37 63 38 64 42 65 39 66 41 67
REMARK SMILES IDX 40 68 59 69 60 70 64 71 61 72 63 73 62 74 49 75 50 76 54 77
REMARK SMILES IDX 51 78 53 79 52 80
REMARK H PARENT 20 5 12 14 25 29 69 48 47 59
REMARK Flexibility Score: inf
ROOT
ATOM      1  C   UNL A   1      31.932  26.277  26.117  1.00  0.00     0.116 C 
ENDROOT
BRANCH   1   2
ATOM      2  N   UNL A   1      31.320  25.160  26.789  1.00  0.00    -0.351 N 
ATOM      3  C   UNL A   1      31.084  23.860  26.421  1.00  0.00     0.263 C 
ATOM      4  O   UNL A   1      30.443  23.227  27.268  1.00  0.00    -0.268 OA
ATOM      5  H   UNL A   1      31.008  25.372  27.698  1.00  0.00     0.163 HD
BRANCH   3   6
ATOM      6  C   UNL A   1      31.579  23.236  25.191  1.00  0.00     0.115 A 
ATOM      7  C   UNL A   1      31.664  23.566  23.833  1.00  0.00     0.065 A 
ATOM      8  C   UNL A   1      32.111  22.440  23.057  1.00  0.00     0.038 A 
ATOM      9  C   UNL A   1      32.332  21.307  23.796  1.00  0.00     0.068 A 
ATOM     10  S   UNL A   1      32.076  21.583  25.444  1.00  0.00    -0.137 S 
BRANCH   7  11
ATOM     11  N   UNL A   1      31.331  24.796  23.259  1.00  0.00    -0.322 N 
ATOM     12  O   UNL A   1      33.138  25.121  21.823  1.00  0.00    -0.271 OA
ATOM     13  C   UNL A   1      32.096  25.508  22.346  1.00  0.00     0.262 C 
ATOM     14  H   UNL A   1      30.473  25.195  23.529  1.00  0.00     0.170 HD
BRANCH  13  15
ATOM     15  C   UNL A   1      31.554  26.914  22.009  1.00  0.00     0.329 C 
BRANCH  15  16
ATOM     16  O   UNL A   1      31.061  27.816  22.975  1.00  0.00    -0.484 OA
BRANCH  16  17
ATOM     17  C   UNL A   1      29.812  28.354  22.850  1.00  0.00     0.121 A 
ATOM     18  C   UNL A   1      28.621  27.741  23.231  1.00  0.00     0.046 A 
ATOM     19  C   UNL A   1      29.798  29.699  22.461  1.00  0.00     0.062 A 
ATOM     20  C   UNL A   1      27.441  28.489  23.306  1.00  0.00     0.005 A 
ATOM     21  C   UNL A   1      28.614  30.434  22.515  1.00  0.00     0.021 A 
ATOM     22  C   UNL A   1      27.438  29.839  22.959  1.00  0.00     0.016 A 
ATOM     23  Br  UNL A   1      28.621  32.265  22.046  1.00  0.00    -0.051 Br
ENDBRANCH  16  17
ENDBRANCH  15  16
ENDBRANCH  13  15
ENDBRANCH   7  11
ENDBRANCH   3   6
ENDBRANCH   1   2
BRANCH   1  24
ATOM     24  C   UNL A   1      31.447  27.565  26.774  1.00  0.00     0.023 C 
BRANCH  24  25
ATOM     25  C   UNL A   1      32.202  28.838  26.438  1.00  0.00     0.023 C 
BRANCH  25  26
ATOM     26  C   UNL A   1      33.436  29.055  27.289  1.00  0.00     0.116 C 
BRANCH  26  27
ATOM     27  N   UNL A   1      33.560  30.396  27.856  1.00  0.00    -0.352 N 
ATOM     28  C   UNL A   1      34.673  31.001  28.391  1.00  0.00     0.251 C 
ATOM     29  H   UNL A   1      32.739  30.939  27.855  1.00  0.00     0.163 HD
ATOM     30  O   UNL A   1      34.612  32.142  28.838  1.00  0.00    -0.269 OA
BRANCH  28  31
ATOM     31  C   UNL A   1      35.923  30.223  28.495  1.00  0.00     0.039 A 
ATOM     32  C   UNL A   1      36.808  30.232  27.416  1.00  0.00     0.014 A 
ATOM     33  C   UNL A   1      36.270  29.601  29.693  1.00  0.00     0.014 A 
ATOM     34  C   UNL A   1      38.089  29.707  27.579  1.00  0.00     0.010 A 
ATOM     35  C   UNL A   1      37.579  29.193  29.891  1.00  0.00     0.010 A 
ATOM     36  C   UNL A   1      38.502  29.236  28.836  1.00  0.00    -0.014 A 
BRANCH  36  37
ATOM     37  C   UNL A   1      39.884  28.762  29.079  1.00  0.00     0.031 A 
ATOM     38  C   UNL A   1      40.881  29.689  29.718  1.00  0.00     0.074 A 
ATOM     39  C   UNL A   1      40.266  27.543  28.649  1.00  0.00     0.049 A 
ATOM     40  N   UNL A   1      42.165  29.522  29.902  1.00  0.00    -0.248 NA
ATOM     41  C   UNL A   1      40.375  30.998  30.167  1.00  0.00     0.031 C 
ATOM     42  C   UNL A   1      39.411  26.571  27.964  1.00  0.00     0.029 A 
ATOM     43  N   UNL A   1      41.485  26.918  28.722  1.00  0.00    -0.354 N 
ATOM     44  C   UNL A   1      42.622  30.716  30.446  1.00  0.00     0.074 A 
ATOM     45  C   UNL A   1      41.493  31.617  30.509  1.00  0.00     0.031 C 
ATOM     46  C   UNL A   1      40.120  25.455  27.721  1.00  0.00     0.029 A 
ATOM     47  C   UNL A   1      41.486  25.650  28.192  1.00  0.00     0.049 A 
ATOM     48  H   UNL A   1      42.283  27.337  29.117  1.00  0.00     0.167 HD
ATOM     49  C   UNL A   1      43.862  31.028  30.886  1.00  0.00     0.031 A 
ATOM     50  C   UNL A   1      42.480  24.747  28.102  1.00  0.00     0.031 A 
ATOM     51  C   UNL A   1      44.971  30.116  30.872  1.00  0.00     0.049 A 
ATOM     52  C   UNL A   1      43.839  25.101  28.636  1.00  0.00     0.074 A 
ATOM     53  C   UNL A   1      46.256  30.310  31.348  1.00  0.00     0.029 A 
ATOM     54  N   UNL A   1      44.918  28.825  30.370  1.00  0.00    -0.354 N 
ATOM     55  N   UNL A   1      44.244  26.217  29.192  1.00  0.00    -0.248 NA
ATOM     56  C   UNL A   1      44.875  24.063  28.542  1.00  0.00     0.031 C 
ATOM     57  C   UNL A   1      46.987  29.141  31.113  1.00  0.00     0.029 A 
ATOM     58  C   UNL A   1      46.146  28.209  30.525  1.00  0.00     0.049 A 
ATOM     59  H   UNL A   1      44.123  28.409  29.962  1.00  0.00     0.167 HD
ATOM     60  C   UNL A   1      45.571  26.006  29.541  1.00  0.00     0.074 A 
ATOM     61  C   UNL A   1      45.900  24.652  29.145  1.00  0.00     0.031 C 
ATOM     62  C   UNL A   1      46.441  26.856  30.136  1.00  0.00     0.031 A 
BRANCH  49  63
ATOM     63  C   UNL A   1      44.069  32.412  31.429  1.00  0.00    -0.014 A 
ATOM     64  C   UNL A   1      44.485  33.463  30.596  1.00  0.00     0.009 A 
ATOM     65  C   UNL A   1      43.844  32.672  32.790  1.00  0.00     0.009 A 
ATOM     66  C   UNL A   1      44.715  34.735  31.122  1.00  0.00     0.001 A 
ATOM     67  C   UNL A   1      44.046  33.953  33.307  1.00  0.00     0.001 A 
ATOM     68  C   UNL A   1      44.491  34.981  32.475  1.00  0.00     0.000 A 
ENDBRANCH  49  63
BRANCH  50  69
ATOM     69  C   UNL A   1      42.222  23.404  27.521  1.00  0.00    -0.014 A 
ATOM     70  C   UNL A   1      41.637  22.398  28.306  1.00  0.00     0.009 A 
ATOM     71  C   UNL A   1      42.566  23.116  26.192  1.00  0.00     0.009 A 
ATOM     72  C   UNL A   1      41.431  21.120  27.781  1.00  0.00     0.001 A 
ATOM     73  C   UNL A   1      42.335  21.845  25.663  1.00  0.00     0.001 A 
ATOM     74  C   UNL A   1      41.777  20.845  26.460  1.00  0.00     0.000 A 
ENDBRANCH  50  69
BRANCH  62  75
ATOM     75  C   UNL A   1      47.813  26.329  30.439  1.00  0.00    -0.014 A 
ATOM     76  C   UNL A   1      48.125  25.794  31.699  1.00  0.00     0.009 A 
ATOM     77  C   UNL A   1      48.790  26.327  29.433  1.00  0.00     0.009 A 
ATOM     78  C   UNL A   1      49.403  25.293  31.952  1.00  0.00     0.001 A 
ATOM     79  C   UNL A   1      50.060  25.804  29.682  1.00  0.00     0.001 A 
ATOM     80  C   UNL A   1      50.366  25.296  30.944  1.00  0.00     0.000 A 
ENDBRANCH  62  75
ENDBRANCH  36  37
ENDBRANCH  28  31
ENDBRANCH  26  27
ENDBRANCH  25  26
ENDBRANCH  24  25
ENDBRANCH   1  24
TORSDOF 15
ENDMDL
MODEL 2
REMARK VINA RESULT:     -11.3      2.349      7.285
REMARK SMILES O=C(COc1cccc(Br)c1)Nc1ccsc1C(=O)NCCCCNC(=O)c1ccc(-c2c3nc(c(-c4ccccc4)c4ccc([nH]4)c(-c4ccccc4)c4nc(c(-c5ccccc5)c5ccc2[nH]5)C=C4)C=C3)cc1
REMARK SMILES IDX 21 1 20 2 18 3 19 4 17 6 13 7 14 8 15 9 16 10 12 11 1 12
REMARK SMILES IDX 2 13 3 15 4 16 5 17 6 18 11 19 7 20 9 21 8 22 10 23 22 24
REMARK SMILES IDX 23 25 24 26 25 27 26 28 27 30 28 31 29 32 75 33 30 34 74 35
REMARK SMILES IDX 31 36 32 37 33 38 68 39 34 40 73 41 67 42 69 43 35 44 72 45
REMARK SMILES IDX 66 46 65 47 36 49 58 50 43 51 57 52 44 53 47 54 56 55 70 56
REMARK SMILES IDX 45 57 46 58 55 60 71 61 48 62 37 63 38 64 42 65 39 66 41 67
REMARK SMILES IDX 40 68 59 69 60 70 64 71 61 72 63 73 62 74 49 75 50 76 54 77
REMARK SMILES IDX 51 78 53 79 52 80
REMARK H PARENT 20 5 12 14 25 29 69 48 47 59
REMARK Flexibility Score: inf
ROOT
ATOM      1  C   UNL A   1      36.401  23.121  25.121  1.00  0.00     0.116 C 
ENDROOT
BRANCH   1   2
ATOM      2  N   UNL A   1      35.793  22.527  26.283  1.00  0.00    -0.351 N 
ATOM      3  C   UNL A   1      34.621  21.843  26.481  1.00  0.00     0.263 C 
ATOM      4  O   UNL A   1      34.416  21.570  27.670  1.00  0.00    -0.268 OA
ATOM      5  H   UNL A   1      36.328  22.633  27.102  1.00  0.00     0.163 HD
BRANCH   3   6
ATOM      6  C   UNL A   1      33.714  21.411  25.415  1.00  0.00     0.115 A 
ATOM      7  C   UNL A   1      32.593  21.922  24.748  1.00  0.00     0.065 A 
ATOM      8  C   UNL A   1      32.014  20.931  23.882  1.00  0.00     0.038 A 
ATOM      9  C   UNL A   1      32.658  19.721  23.911  1.00  0.00     0.068 A 
ATOM     10  S   UNL A   1      34.010  19.763  24.924  1.00  0.00    -0.137 S 
BRANCH   7  11
ATOM     11  N   UNL A   1      32.052  23.200  24.903  1.00  0.00    -0.322 N 
ATOM     12  O   UNL A   1      31.248  23.082  27.088  1.00  0.00    -0.271 OA
ATOM     13  C   UNL A   1      31.382  23.677  26.020  1.00  0.00     0.262 C 
ATOM     14  H   UNL A   1      32.154  23.822  24.147  1.00  0.00     0.170 HD
BRANCH  13  15
ATOM     15  C   UNL A   1      30.749  25.074  25.847  1.00  0.00     0.329 C 
BRANCH  15  16
ATOM     16  O   UNL A   1      30.774  26.074  26.841  1.00  0.00    -0.484 OA
BRANCH  16  17
ATOM     17  C   UNL A   1      31.414  27.260  26.620  1.00  0.00     0.121 A 
ATOM     18  C   UNL A   1      31.718  28.213  27.588  1.00  0.00     0.046 A 
ATOM     19  C   UNL A   1      31.936  27.403  25.329  1.00  0.00     0.062 A 
ATOM     20  C   UNL A   1      32.606  29.253  27.294  1.00  0.00     0.005 A 
ATOM     21  C   UNL A   1      32.803  28.455  25.034  1.00  0.00     0.021 A 
ATOM     22  C   UNL A   1      33.159  29.370  26.020  1.00  0.00     0.016 A 
ATOM     23  Br  UNL A   1      33.551  28.602  23.304  1.00  0.00    -0.051 Br
ENDBRANCH  16  17
ENDBRANCH  15  16
ENDBRANCH  13  15
ENDBRANCH   7  11
ENDBRANCH   3   6
ENDBRANCH   1   2
BRANCH   1  24
ATOM     24  C   UNL A   1      37.834  22.613  25.008  1.00  0.00     0.023 C 
BRANCH  24  25
ATOM     25  C   UNL A   1      38.037  21.109  25.015  1.00  0.00     0.023 C 
BRANCH  25  26
ATOM     26  C   UNL A   1      38.841  20.611  26.197  1.00  0.00     0.116 C 
BRANCH  26  27
ATOM     27  N   UNL A   1      39.844  19.598  25.873  1.00  0.00    -0.352 N 
ATOM     28  C   UNL A   1      41.206  19.652  26.052  1.00  0.00     0.251 C 
ATOM     29  H   UNL A   1      39.498  18.767  25.473  1.00  0.00     0.163 HD
ATOM     30  O   UNL A   1      41.919  18.712  25.716  1.00  0.00    -0.269 OA
BRANCH  28  31
ATOM     31  C   UNL A   1      41.804  20.894  26.577  1.00  0.00     0.039 A 
ATOM     32  C   UNL A   1      42.224  21.870  25.671  1.00  0.00     0.014 A 
ATOM     33  C   UNL A   1      41.824  21.143  27.949  1.00  0.00     0.014 A 
ATOM     34  C   UNL A   1      42.567  23.137  26.142  1.00  0.00     0.010 A 
ATOM     35  C   UNL A   1      42.046  22.433  28.401  1.00  0.00     0.010 A 
ATOM     36  C   UNL A   1      42.423  23.443  27.504  1.00  0.00    -0.014 A 
BRANCH  36  37
ATOM     37  C   UNL A   1      42.681  24.804  28.032  1.00  0.00     0.031 A 
ATOM     38  C   UNL A   1      44.075  25.183  28.446  1.00  0.00     0.074 A 
ATOM     39  C   UNL A   1      41.657  25.659  28.221  1.00  0.00     0.049 A 
ATOM     40  N   UNL A   1      44.493  26.267  29.048  1.00  0.00    -0.248 NA
ATOM     41  C   UNL A   1      45.134  24.191  28.193  1.00  0.00     0.031 C 
ATOM     42  C   UNL A   1      40.250  25.393  27.914  1.00  0.00     0.029 A 
ATOM     43  N   UNL A   1      41.648  26.934  28.729  1.00  0.00    -0.354 N 
ATOM     44  C   UNL A   1      45.848  26.066  29.280  1.00  0.00     0.074 A 
ATOM     45  C   UNL A   1      46.170  24.738  28.809  1.00  0.00     0.031 C 
ATOM     46  C   UNL A   1      39.522  26.487  28.197  1.00  0.00     0.029 A 
ATOM     47  C   UNL A   1      40.402  27.513  28.745  1.00  0.00     0.049 A 
ATOM     48  H   UNL A   1      42.458  27.392  29.051  1.00  0.00     0.167 HD
ATOM     49  C   UNL A   1      46.753  26.920  29.809  1.00  0.00     0.031 A 
ATOM     50  C   UNL A   1      40.016  28.736  29.152  1.00  0.00     0.031 A 
ATOM     51  C   UNL A   1      46.445  28.258  30.228  1.00  0.00     0.049 A 
ATOM     52  C   UNL A   1      41.048  29.683  29.696  1.00  0.00     0.074 A 
ATOM     53  C   UNL A   1      47.299  29.228  30.722  1.00  0.00     0.029 A 
ATOM     54  N   UNL A   1      45.179  28.821  30.183  1.00  0.00    -0.354 N 
ATOM     55  N   UNL A   1      42.335  29.496  29.866  1.00  0.00    -0.248 NA
ATOM     56  C   UNL A   1      40.575  31.017  30.093  1.00  0.00     0.031 C 
ATOM     57  C   UNL A   1      46.544  30.373  30.997  1.00  0.00     0.029 A 
ATOM     58  C   UNL A   1      45.228  30.125  30.639  1.00  0.00     0.049 A 
ATOM     59  H   UNL A   1      44.365  28.360  29.873  1.00  0.00     0.167 HD
ATOM     60  C   UNL A   1      42.830  30.696  30.359  1.00  0.00     0.074 A 
ATOM     61  C   UNL A   1      41.708  31.607  30.451  1.00  0.00     0.031 C 
ATOM     62  C   UNL A   1      44.099  31.015  30.705  1.00  0.00     0.031 A 
BRANCH  49  63
ATOM     63  C   UNL A   1      48.164  26.425  29.945  1.00  0.00    -0.014 A 
ATOM     64  C   UNL A   1      48.600  25.795  31.122  1.00  0.00     0.009 A 
ATOM     65  C   UNL A   1      49.069  26.588  28.885  1.00  0.00     0.009 A 
ATOM     66  C   UNL A   1      49.926  25.378  31.252  1.00  0.00     0.001 A 
ATOM     67  C   UNL A   1      50.387  26.142  29.007  1.00  0.00     0.001 A 
ATOM     68  C   UNL A   1      50.817  25.548  30.194  1.00  0.00     0.000 A 
ENDBRANCH  49  63
BRANCH  50  69
ATOM     69  C   UNL A   1      38.597  29.156  29.025  1.00  0.00    -0.014 A 
ATOM     70  C   UNL A   1      38.124  29.675  27.810  1.00  0.00     0.009 A 
ATOM     71  C   UNL A   1      37.715  29.052  30.110  1.00  0.00     0.009 A 
ATOM     72  C   UNL A   1      36.802  30.113  27.694  1.00  0.00     0.001 A 
ATOM     73  C   UNL A   1      36.388  29.468  29.983  1.00  0.00     0.001 A 
ATOM     74  C   UNL A   1      35.935  30.006  28.779  1.00  0.00     0.000 A 
ENDBRANCH  50  69
BRANCH  62  75
ATOM     75  C   UNL A   1      44.348  32.421  31.167  1.00  0.00    -0.014 A 
ATOM     76  C   UNL A   1      44.288  32.762  32.527  1.00  0.00     0.009 A 
ATOM     77  C   UNL A   1      44.692  33.406  30.229  1.00  0.00     0.009 A 
ATOM     78  C   UNL A   1      44.540  34.073  32.934  1.00  0.00     0.001 A 
ATOM     79  C   UNL A   1      44.966  34.710  30.641  1.00  0.00     0.001 A 
ATOM     80  C   UNL A   1      44.882  35.043  31.993  1.00  0.00     0.000 A 
ENDBRANCH  62  75
ENDBRANCH  36  37
ENDBRANCH  28  31
ENDBRANCH  26  27
ENDBRANCH  25  26
ENDBRANCH  24  25
ENDBRANCH   1  24
TORSDOF 15
ENDMDL
MODEL 3
REMARK VINA RESULT:     -11.2      3.003      5.046
REMARK SMILES O=C(COc1cccc(Br)c1)Nc1ccsc1C(=O)NCCCCNC(=O)c1ccc(-c2c3nc(c(-c4ccccc4)c4ccc([nH]4)c(-c4ccccc4)c4nc(c(-c5ccccc5)c5ccc2[nH]5)C=C4)C=C3)cc1
REMARK SMILES IDX 21 1 20 2 18 3 19 4 17 6 13 7 14 8 15 9 16 10 12 11 1 12
REMARK SMILES IDX 2 13 3 15 4 16 5 17 6 18 11 19 7 20 9 21 8 22 10 23 22 24
REMARK SMILES IDX 23 25 24 26 25 27 26 28 27 30 28 31 29 32 75 33 30 34 74 35
REMARK SMILES IDX 31 36 32 37 33 38 68 39 34 40 73 41 67 42 69 43 35 44 72 45
REMARK SMILES IDX 66 46 65 47 36 49 58 50 43 51 57 52 44 53 47 54 56 55 70 56
REMARK SMILES IDX 45 57 46 58 55 60 71 61 48 62 37 63 38 64 42 65 39 66 41 67
REMARK SMILES IDX 40 68 59 69 60 70 64 71 61 72 63 73 62 74 49 75 50 76 54 77
REMARK SMILES IDX 51 78 53 79 52 80
REMARK H PARENT 20 5 12 14 25 29 69 48 47 59
REMARK Flexibility Score: inf
ROOT
ATOM      1  C   UNL A   1      34.087  28.903  26.389  1.00  0.00     0.116 C 
ENDROOT
BRANCH   1   2
ATOM      2  N   UNL A   1      33.067  27.971  26.794  1.00  0.00    -0.351 N 
ATOM      3  C   UNL A   1      31.945  27.483  26.174  1.00  0.00     0.263 C 
ATOM      4  O   UNL A   1      31.269  26.751  26.907  1.00  0.00    -0.268 OA
ATOM      5  H   UNL A   1      33.204  27.609  27.699  1.00  0.00     0.163 HD
BRANCH   3   6
ATOM      6  C   UNL A   1      31.586  27.731  24.776  1.00  0.00     0.115 A 
ATOM      7  C   UNL A   1      31.678  27.051  23.555  1.00  0.00     0.065 A 
ATOM      8  C   UNL A   1      31.295  27.903  22.462  1.00  0.00     0.038 A 
ATOM      9  C   UNL A   1      30.950  29.174  22.841  1.00  0.00     0.068 A 
ATOM     10  S   UNL A   1      31.011  29.357  24.520  1.00  0.00    -0.137 S 
BRANCH   7  11
ATOM     11  N   UNL A   1      32.117  25.737  23.372  1.00  0.00    -0.322 N 
ATOM     12  O   UNL A   1      33.582  26.002  21.578  1.00  0.00    -0.271 OA
ATOM     13  C   UNL A   1      32.984  25.292  22.385  1.00  0.00     0.262 C 
ATOM     14  H   UNL A   1      31.778  25.062  24.003  1.00  0.00     0.170 HD
BRANCH  13  15
ATOM     15  C   UNL A   1      33.163  23.760  22.325  1.00  0.00     0.329 C 
BRANCH  15  16
ATOM     16  O   UNL A   1      34.418  23.120  22.266  1.00  0.00    -0.484 OA
BRANCH  16  17
ATOM     17  C   UNL A   1      35.157  22.931  23.399  1.00  0.00     0.121 A 
ATOM     18  C   UNL A   1      36.523  23.168  23.527  1.00  0.00     0.046 A 
ATOM     19  C   UNL A   1      34.401  22.638  24.540  1.00  0.00     0.062 A 
ATOM     20  C   UNL A   1      37.113  23.197  24.796  1.00  0.00     0.005 A 
ATOM     21  C   UNL A   1      34.999  22.646  25.800  1.00  0.00     0.021 A 
ATOM     22  C   UNL A   1      36.350  22.948  25.935  1.00  0.00     0.016 A 
ATOM     23  Br  UNL A   1      33.955  22.310  27.339  1.00  0.00    -0.051 Br
ENDBRANCH  16  17
ENDBRANCH  15  16
ENDBRANCH  13  15
ENDBRANCH   7  11
ENDBRANCH   3   6
ENDBRANCH   1   2
BRANCH   1  24
ATOM     24  C   UNL A   1      34.208  29.986  27.455  1.00  0.00     0.023 C 
BRANCH  24  25
ATOM     25  C   UNL A   1      33.054  30.963  27.582  1.00  0.00     0.023 C 
BRANCH  25  26
ATOM     26  C   UNL A   1      33.317  32.302  26.925  1.00  0.00     0.116 C 
BRANCH  26  27
ATOM     27  N   UNL A   1      32.710  33.446  27.602  1.00  0.00    -0.352 N 
ATOM     28  C   UNL A   1      33.223  34.210  28.624  1.00  0.00     0.251 C 
ATOM     29  H   UNL A   1      31.814  33.704  27.285  1.00  0.00     0.163 HD
ATOM     30  O   UNL A   1      32.579  35.141  29.094  1.00  0.00    -0.269 OA
BRANCH  28  31
ATOM     31  C   UNL A   1      34.529  33.836  29.200  1.00  0.00     0.039 A 
ATOM     32  C   UNL A   1      34.553  32.996  30.315  1.00  0.00     0.014 A 
ATOM     33  C   UNL A   1      35.714  34.206  28.565  1.00  0.00     0.014 A 
ATOM     34  C   UNL A   1      35.765  32.443  30.727  1.00  0.00     0.010 A 
ATOM     35  C   UNL A   1      36.893  33.561  28.897  1.00  0.00     0.010 A 
ATOM     36  C   UNL A   1      36.933  32.676  29.985  1.00  0.00    -0.014 A 
BRANCH  36  37
ATOM     37  C   UNL A   1      38.221  32.028  30.328  1.00  0.00     0.031 A 
ATOM     38  C   UNL A   1      39.174  32.727  31.258  1.00  0.00     0.074 A 
ATOM     39  C   UNL A   1      38.571  30.866  29.741  1.00  0.00     0.049 A 
ATOM     40  N   UNL A   1      40.397  32.401  31.586  1.00  0.00    -0.248 NA
ATOM     41  C   UNL A   1      38.705  33.987  31.862  1.00  0.00     0.031 C 
ATOM     42  C   UNL A   1      37.761  30.115  28.779  1.00  0.00     0.029 A 
ATOM     43  N   UNL A   1      39.712  30.116  29.869  1.00  0.00    -0.354 N 
ATOM     44  C   UNL A   1      40.853  33.434  32.396  1.00  0.00     0.074 A 
ATOM     45  C   UNL A   1      39.800  34.422  32.463  1.00  0.00     0.031 C 
ATOM     46  C   UNL A   1      38.412  28.990  28.438  1.00  0.00     0.029 A 
ATOM     47  C   UNL A   1      39.700  28.962  29.123  1.00  0.00     0.049 A 
ATOM     48  H   UNL A   1      40.469  30.379  30.441  1.00  0.00     0.167 HD
ATOM     49  C   UNL A   1      42.031  33.538  33.054  1.00  0.00     0.031 A 
ATOM     50  C   UNL A   1      40.623  27.990  29.010  1.00  0.00     0.031 A 
ATOM     51  C   UNL A   1      43.055  32.533  33.030  1.00  0.00     0.049 A 
ATOM     52  C   UNL A   1      41.906  28.108  29.784  1.00  0.00     0.074 A 
ATOM     53  C   UNL A   1      44.261  32.511  33.708  1.00  0.00     0.029 A 
ATOM     54  N   UNL A   1      42.983  31.357  32.299  1.00  0.00    -0.354 N 
ATOM     55  N   UNL A   1      42.304  29.068  30.584  1.00  0.00    -0.248 NA
ATOM     56  C   UNL A   1      42.862  27.000  29.648  1.00  0.00     0.031 C 
ATOM     57  C   UNL A   1      44.929  31.330  33.368  1.00  0.00     0.029 A 
ATOM     58  C   UNL A   1      44.121  30.601  32.509  1.00  0.00     0.049 A 
ATOM     59  H   UNL A   1      42.232  31.099  31.715  1.00  0.00     0.167 HD
ATOM     60  C   UNL A   1      43.540  28.666  31.071  1.00  0.00     0.074 A 
ATOM     61  C   UNL A   1      43.822  27.371  30.485  1.00  0.00     0.031 C 
ATOM     62  C   UNL A   1      44.369  29.310  31.926  1.00  0.00     0.031 A 
BRANCH  49  63
ATOM     63  C   UNL A   1      42.255  34.783  33.863  1.00  0.00    -0.014 A 
ATOM     64  C   UNL A   1      41.891  34.842  35.218  1.00  0.00     0.009 A 
ATOM     65  C   UNL A   1      42.838  35.911  33.266  1.00  0.00     0.009 A 
ATOM     66  C   UNL A   1      42.065  36.019  35.947  1.00  0.00     0.001 A 
ATOM     67  C   UNL A   1      43.039  37.078  34.007  1.00  0.00     0.001 A 
ATOM     68  C   UNL A   1      42.642  37.134  35.343  1.00  0.00     0.000 A 
ENDBRANCH  49  63
BRANCH  50  69
ATOM     69  C   UNL A   1      40.358  26.798  28.165  1.00  0.00    -0.014 A 
ATOM     70  C   UNL A   1      40.859  26.738  26.855  1.00  0.00     0.009 A 
ATOM     71  C   UNL A   1      39.598  25.724  28.652  1.00  0.00     0.009 A 
ATOM     72  C   UNL A   1      40.578  25.640  26.038  1.00  0.00     0.001 A 
ATOM     73  C   UNL A   1      39.341  24.616  27.842  1.00  0.00     0.001 A 
ATOM     74  C   UNL A   1      39.822  24.579  26.533  1.00  0.00     0.000 A 
ENDBRANCH  50  69
BRANCH  62  75
ATOM     75  C   UNL A   1      45.633  28.602  32.317  1.00  0.00    -0.014 A 
ATOM     76  C   UNL A   1      46.825  28.794  31.602  1.00  0.00     0.009 A 
ATOM     77  C   UNL A   1      45.637  27.765  33.443  1.00  0.00     0.009 A 
ATOM     78  C   UNL A   1      47.993  28.138  31.994  1.00  0.00     0.001 A 
ATOM     79  C   UNL A   1      46.811  27.128  33.846  1.00  0.00     0.001 A 
ATOM     80  C   UNL A   1      47.985  27.310  33.116  1.00  0.00     0.000 A 
ENDBRANCH  62  75
ENDBRANCH  36  37
ENDBRANCH  28  31
ENDBRANCH  26  27
ENDBRANCH  25  26
ENDBRANCH  24  25
ENDBRANCH   1  24
TORSDOF 15
ENDMDL
