MODEL 1
REMARK VINA RESULT:     -12.1      0.000      0.000
REMARK SMILES O=C(NCCCCNC(=O)[C@H]1CCCN(C(=O)C2CCN(S(=O)(=O)c3ccccc3)CC2)C1)c1ccc(-c2c3nc(c(-c4ccccc4)c4ccc([nH]4)c(-c4ccccc4)c4nc(c(-c5ccccc5)c5ccc2[nH]5)C=C4)C=C3)cc1
REMARK SMILES IDX 6 1 5 2 4 3 3 4 1 5 2 6 34 8 35 9 81 10 36 11 80 12 37 13
REMARK SMILES IDX 38 14 39 15 74 16 40 17 79 18 73 19 75 20 41 21 78 22 72 23
REMARK SMILES IDX 71 24 42 26 64 27 49 28 63 29 50 30 53 31 62 32 76 33 51 34
REMARK SMILES IDX 52 35 61 37 77 38 54 39 43 40 44 41 48 42 45 43 47 44 46 45
REMARK SMILES IDX 65 46 66 47 70 48 67 49 69 50 68 51 55 52 56 53 60 54 57 55
REMARK SMILES IDX 59 56 58 57 7 58 8 59 9 60 10 62 11 63 12 64 33 65 13 66
REMARK SMILES IDX 15 67 14 68 16 69 17 70 18 71 19 72 32 73 20 74 31 75 21 76
REMARK SMILES IDX 22 77 23 78 24 79 25 80 26 81 30 82 27 83 29 84 28 85
REMARK H PARENT 3 7 75 25 53 36 8 61
REMARK Flexibility Score: inf
ROOT
ATOM      1  C   UNL A   1      36.777  20.700  24.991  1.00  0.00     0.023 C 
ENDROOT
BRANCH   1   2
ATOM      2  C   UNL A   1      37.908  19.677  24.987  1.00  0.00     0.023 C 
BRANCH   2   3
ATOM      3  C   UNL A   1      39.147  20.094  25.763  1.00  0.00     0.116 C 
BRANCH   3   4
ATOM      4  N   UNL A   1      40.160  19.051  25.827  1.00  0.00    -0.352 N 
ATOM      5  O   UNL A   1      42.254  18.224  26.033  1.00  0.00    -0.269 OA
ATOM      6  C   UNL A   1      41.493  19.180  26.124  1.00  0.00     0.251 C 
ATOM      7  H   UNL A   1      39.849  18.139  25.630  1.00  0.00     0.163 HD
BRANCH   6   8
ATOM      8  C   UNL A   1      42.005  20.504  26.523  1.00  0.00     0.039 A 
ATOM      9  C   UNL A   1      42.170  20.819  27.875  1.00  0.00     0.014 A 
ATOM     10  C   UNL A   1      42.275  21.448  25.530  1.00  0.00     0.014 A 
ATOM     11  C   UNL A   1      42.493  22.119  28.242  1.00  0.00     0.010 A 
ATOM     12  C   UNL A   1      42.667  22.734  25.898  1.00  0.00     0.010 A 
ATOM     13  C   UNL A   1      42.754  23.084  27.256  1.00  0.00    -0.014 A 
BRANCH  13  14
ATOM     14  C   UNL A   1      43.185  24.441  27.653  1.00  0.00     0.031 A 
ATOM     15  C   UNL A   1      42.185  25.486  28.048  1.00  0.00     0.074 A 
ATOM     16  C   UNL A   1      44.499  24.730  27.623  1.00  0.00     0.049 A 
ATOM     17  N   UNL A   1      42.386  26.742  28.354  1.00  0.00    -0.248 NA
ATOM     18  C   UNL A   1      40.774  25.072  28.096  1.00  0.00     0.031 C 
ATOM     19  C   UNL A   1      45.559  23.791  27.249  1.00  0.00     0.029 A 
ATOM     20  N   UNL A   1      45.164  25.893  27.905  1.00  0.00    -0.354 N 
ATOM     21  C   UNL A   1      41.131  27.277  28.604  1.00  0.00     0.074 A 
ATOM     22  C   UNL A   1      40.170  26.213  28.401  1.00  0.00     0.031 C 
ATOM     23  C   UNL A   1      46.744  24.413  27.335  1.00  0.00     0.029 A 
ATOM     24  C   UNL A   1      46.520  25.803  27.711  1.00  0.00     0.049 A 
ATOM     25  H   UNL A   1      44.716  26.713  28.214  1.00  0.00     0.167 HD
ATOM     26  C   UNL A   1      40.810  28.542  28.966  1.00  0.00     0.031 A 
ATOM     27  C   UNL A   1      47.478  26.743  27.792  1.00  0.00     0.031 A 
ATOM     28  C   UNL A   1      41.773  29.594  29.165  1.00  0.00     0.049 A 
ATOM     29  C   UNL A   1      47.096  28.142  28.167  1.00  0.00     0.074 A 
ATOM     30  C   UNL A   1      41.555  30.896  29.580  1.00  0.00     0.029 A 
ATOM     31  N   UNL A   1      43.137  29.464  28.953  1.00  0.00    -0.354 N 
ATOM     32  N   UNL A   1      45.909  28.624  28.439  1.00  0.00    -0.248 NA
ATOM     33  C   UNL A   1      48.185  29.125  28.244  1.00  0.00     0.031 C 
ATOM     34  C   UNL A   1      42.782  31.568  29.573  1.00  0.00     0.029 A 
ATOM     35  C   UNL A   1      43.771  30.671  29.200  1.00  0.00     0.049 A 
ATOM     36  H   UNL A   1      43.589  28.637  28.669  1.00  0.00     0.167 HD
ATOM     37  C   UNL A   1      46.105  29.965  28.733  1.00  0.00     0.074 A 
ATOM     38  C   UNL A   1      47.528  30.216  28.617  1.00  0.00     0.031 C 
ATOM     39  C   UNL A   1      45.186  30.903  29.070  1.00  0.00     0.031 A 
BRANCH  26  40
ATOM     40  C   UNL A   1      39.352  28.867  29.130  1.00  0.00    -0.014 A 
ATOM     41  C   UNL A   1      38.702  28.711  30.364  1.00  0.00     0.009 A 
ATOM     42  C   UNL A   1      38.625  29.362  28.036  1.00  0.00     0.009 A 
ATOM     43  C   UNL A   1      37.342  29.011  30.487  1.00  0.00     0.001 A 
ATOM     44  C   UNL A   1      37.274  29.682  28.168  1.00  0.00     0.001 A 
ATOM     45  C   UNL A   1      36.630  29.498  29.392  1.00  0.00     0.000 A 
ENDBRANCH  26  40
BRANCH  27  46
ATOM     46  C   UNL A   1      48.879  26.371  27.478  1.00  0.00    -0.014 A 
ATOM     47  C   UNL A   1      49.383  26.520  26.180  1.00  0.00     0.009 A 
ATOM     48  C   UNL A   1      49.739  25.937  28.500  1.00  0.00     0.009 A 
ATOM     49  C   UNL A   1      50.724  26.236  25.910  1.00  0.00     0.001 A 
ATOM     50  C   UNL A   1      51.083  25.678  28.232  1.00  0.00     0.001 A 
ATOM     51  C   UNL A   1      51.574  25.824  26.936  1.00  0.00     0.000 A 
ENDBRANCH  27  46
BRANCH  39  52
ATOM     52  C   UNL A   1      45.697  32.284  29.355  1.00  0.00    -0.014 A 
ATOM     53  C   UNL A   1      46.149  32.637  30.635  1.00  0.00     0.009 A 
ATOM     54  C   UNL A   1      45.775  33.224  28.318  1.00  0.00     0.009 A 
ATOM     55  C   UNL A   1      46.651  33.917  30.876  1.00  0.00     0.001 A 
ATOM     56  C   UNL A   1      46.297  34.496  28.556  1.00  0.00     0.001 A 
ATOM     57  C   UNL A   1      46.728  34.843  29.835  1.00  0.00     0.000 A 
ENDBRANCH  39  52
ENDBRANCH  13  14
ENDBRANCH   6   8
ENDBRANCH   3   4
ENDBRANCH   2   3
ENDBRANCH   1   2
BRANCH   1  58
ATOM     58  C   UNL A   1      37.172  22.098  25.467  1.00  0.00     0.116 C 
BRANCH  58  59
ATOM     59  N   UNL A   1      36.152  22.721  26.293  1.00  0.00    -0.356 N 
ATOM     60  C   UNL A   1      34.964  23.300  25.958  1.00  0.00     0.224 C 
ATOM     61  H   UNL A   1      36.353  22.727  27.257  1.00  0.00     0.163 HD
ATOM     62  O   UNL A   1      34.265  23.743  26.872  1.00  0.00    -0.275 OA
BRANCH  60  63
ATOM     63  C   UNL A   1      34.506  23.410  24.509  1.00  0.00     0.098 C 
ATOM     64  C   UNL A   1      33.692  22.173  24.101  1.00  0.00     0.017 C 
ATOM     65  C   UNL A   1      33.884  24.794  24.238  1.00  0.00     0.133 C 
ATOM     66  C   UNL A   1      32.776  22.410  22.916  1.00  0.00     0.022 C 
ATOM     67  N   UNL A   1      32.992  24.820  23.072  1.00  0.00    -0.342 N 
ATOM     68  C   UNL A   1      32.043  23.732  23.051  1.00  0.00     0.119 C 
BRANCH  67  69
ATOM     69  C   UNL A   1      32.986  25.931  22.249  1.00  0.00     0.225 C 
ATOM     70  O   UNL A   1      33.665  25.919  21.212  1.00  0.00    -0.275 OA
BRANCH  69  71
ATOM     71  C   UNL A   1      32.140  27.203  22.518  1.00  0.00     0.081 C 
ATOM     72  C   UNL A   1      32.865  28.523  22.724  1.00  0.00     0.030 C 
ATOM     73  C   UNL A   1      30.925  27.084  23.418  1.00  0.00     0.030 C 
ATOM     74  C   UNL A   1      33.072  28.970  24.161  1.00  0.00     0.103 C 
ATOM     75  C   UNL A   1      31.133  27.463  24.870  1.00  0.00     0.103 C 
ATOM     76  N   UNL A   1      31.954  28.674  25.122  1.00  0.00    -0.198 NA
BRANCH  76  77
ATOM     77  S   UNL A   1      32.578  28.790  26.755  1.00  0.00     0.243 S 
ATOM     78  O   UNL A   1      31.578  28.216  27.634  1.00  0.00    -0.207 OA
ATOM     79  O   UNL A   1      33.922  28.250  26.732  1.00  0.00    -0.207 OA
BRANCH  77  80
ATOM     80  C   UNL A   1      32.667  30.519  27.156  1.00  0.00     0.082 A 
ATOM     81  C   UNL A   1      31.654  31.385  26.747  1.00  0.00     0.022 A 
ATOM     82  C   UNL A   1      33.849  31.031  27.714  1.00  0.00     0.022 A 
ATOM     83  C   UNL A   1      31.808  32.761  26.939  1.00  0.00     0.001 A 
ATOM     84  C   UNL A   1      33.984  32.401  27.930  1.00  0.00     0.001 A 
ATOM     85  C   UNL A   1      32.964  33.265  27.538  1.00  0.00     0.000 A 
ENDBRANCH  77  80
ENDBRANCH  76  77
ENDBRANCH  69  71
ENDBRANCH  67  69
ENDBRANCH  60  63
ENDBRANCH  58  59
ENDBRANCH   1  58
TORSDOF 15
ENDMDL
MODEL 2
REMARK VINA RESULT:     -12.0      4.735     10.935
REMARK SMILES O=C(NCCCCNC(=O)[C@H]1CCCN(C(=O)C2CCN(S(=O)(=O)c3ccccc3)CC2)C1)c1ccc(-c2c3nc(c(-c4ccccc4)c4ccc([nH]4)c(-c4ccccc4)c4nc(c(-c5ccccc5)c5ccc2[nH]5)C=C4)C=C3)cc1
REMARK SMILES IDX 6 1 5 2 4 3 3 4 1 5 2 6 34 8 35 9 81 10 36 11 80 12 37 13
REMARK SMILES IDX 38 14 39 15 74 16 40 17 79 18 73 19 75 20 41 21 78 22 72 23
REMARK SMILES IDX 71 24 42 26 64 27 49 28 63 29 50 30 53 31 62 32 76 33 51 34
REMARK SMILES IDX 52 35 61 37 77 38 54 39 43 40 44 41 48 42 45 43 47 44 46 45
REMARK SMILES IDX 65 46 66 47 70 48 67 49 69 50 68 51 55 52 56 53 60 54 57 55
REMARK SMILES IDX 59 56 58 57 7 58 8 59 9 60 10 62 11 63 12 64 33 65 13 66
REMARK SMILES IDX 15 67 14 68 16 69 17 70 18 71 19 72 32 73 20 74 31 75 21 76
REMARK SMILES IDX 22 77 23 78 24 79 25 80 26 81 30 82 27 83 29 84 28 85
REMARK H PARENT 3 7 75 25 53 36 8 61
REMARK Flexibility Score: inf
ROOT
ATOM      1  C   UNL A   1      35.668  33.081  30.828  1.00  0.00     0.023 C 
ENDROOT
BRANCH   1   2
ATOM      2  C   UNL A   1      34.768  33.613  29.717  1.00  0.00     0.023 C 
BRANCH   2   3
ATOM      3  C   UNL A   1      35.046  33.034  28.339  1.00  0.00     0.116 C 
BRANCH   3   4
ATOM      4  N   UNL A   1      34.111  31.985  27.960  1.00  0.00    -0.352 N 
ATOM      5  O   UNL A   1      33.490  29.887  27.390  1.00  0.00    -0.269 OA
ATOM      6  C   UNL A   1      34.353  30.641  27.824  1.00  0.00     0.251 C 
ATOM      7  H   UNL A   1      33.190  32.278  27.777  1.00  0.00     0.163 HD
BRANCH   6   8
ATOM      8  C   UNL A   1      35.687  30.123  28.177  1.00  0.00     0.039 A 
ATOM      9  C   UNL A   1      35.951  29.681  29.477  1.00  0.00     0.014 A 
ATOM     10  C   UNL A   1      36.689  30.126  27.205  1.00  0.00     0.014 A 
ATOM     11  C   UNL A   1      37.251  29.352  29.839  1.00  0.00     0.010 A 
ATOM     12  C   UNL A   1      37.980  29.728  27.552  1.00  0.00     0.010 A 
ATOM     13  C   UNL A   1      38.273  29.363  28.877  1.00  0.00    -0.014 A 
BRANCH  13  14
ATOM     14  C   UNL A   1      39.636  28.925  29.247  1.00  0.00     0.031 A 
ATOM     15  C   UNL A   1      40.568  29.839  29.983  1.00  0.00     0.074 A 
ATOM     16  C   UNL A   1      40.033  27.692  28.882  1.00  0.00     0.049 A 
ATOM     17  N   UNL A   1      41.816  29.640  30.322  1.00  0.00    -0.248 NA
ATOM     18  C   UNL A   1      40.037  31.152  30.383  1.00  0.00     0.031 C 
ATOM     19  C   UNL A   1      39.209  26.722  28.158  1.00  0.00     0.029 A 
ATOM     20  N   UNL A   1      41.229  27.050  29.062  1.00  0.00    -0.354 N 
ATOM     21  C   UNL A   1      42.230  30.807  30.949  1.00  0.00     0.074 A 
ATOM     22  C   UNL A   1      41.104  31.717  30.933  1.00  0.00     0.031 C 
ATOM     23  C   UNL A   1      39.921  25.602  27.965  1.00  0.00     0.029 A 
ATOM     24  C   UNL A   1      41.263  25.800  28.498  1.00  0.00     0.049 A 
ATOM     25  H   UNL A   1      41.989  27.445  29.547  1.00  0.00     0.167 HD
ATOM     26  C   UNL A   1      43.440  31.093  31.484  1.00  0.00     0.031 A 
ATOM     27  C   UNL A   1      42.273  24.918  28.388  1.00  0.00     0.031 A 
ATOM     28  C   UNL A   1      44.555  30.181  31.496  1.00  0.00     0.049 A 
ATOM     29  C   UNL A   1      43.610  25.268  28.964  1.00  0.00     0.074 A 
ATOM     30  C   UNL A   1      45.807  30.356  32.058  1.00  0.00     0.029 A 
ATOM     31  N   UNL A   1      44.551  28.925  30.908  1.00  0.00    -0.354 N 
ATOM     32  N   UNL A   1      43.975  26.359  29.589  1.00  0.00    -0.248 NA
ATOM     33  C   UNL A   1      44.674  24.265  28.818  1.00  0.00     0.031 C 
ATOM     34  C   UNL A   1      46.577  29.225  31.768  1.00  0.00     0.029 A 
ATOM     35  C   UNL A   1      45.789  28.325  31.068  1.00  0.00     0.049 A 
ATOM     36  H   UNL A   1      43.782  28.519  30.446  1.00  0.00     0.167 HD
ATOM     37  C   UNL A   1      45.308  26.175  29.924  1.00  0.00     0.074 A 
ATOM     38  C   UNL A   1      45.683  24.859  29.443  1.00  0.00     0.031 C 
ATOM     39  C   UNL A   1      46.145  27.020  30.574  1.00  0.00     0.031 A 
BRANCH  26  40
ATOM     40  C   UNL A   1      43.633  32.464  32.067  1.00  0.00    -0.014 A 
ATOM     41  C   UNL A   1      43.385  32.725  33.424  1.00  0.00     0.009 A 
ATOM     42  C   UNL A   1      44.095  33.506  31.248  1.00  0.00     0.009 A 
ATOM     43  C   UNL A   1      43.562  34.012  33.939  1.00  0.00     0.001 A 
ATOM     44  C   UNL A   1      44.293  34.785  31.771  1.00  0.00     0.001 A 
ATOM     45  C   UNL A   1      44.018  35.040  33.114  1.00  0.00     0.000 A 
ENDBRANCH  26  40
BRANCH  27  46
ATOM     46  C   UNL A   1      42.038  23.640  27.674  1.00  0.00    -0.014 A 
ATOM     47  C   UNL A   1      42.413  23.493  26.332  1.00  0.00     0.009 A 
ATOM     48  C   UNL A   1      41.504  22.537  28.360  1.00  0.00     0.009 A 
ATOM     49  C   UNL A   1      42.254  22.263  25.689  1.00  0.00     0.001 A 
ATOM     50  C   UNL A   1      41.370  21.304  27.722  1.00  0.00     0.001 A 
ATOM     51  C   UNL A   1      41.742  21.169  26.385  1.00  0.00     0.000 A 
ENDBRANCH  27  46
BRANCH  39  52
ATOM     52  C   UNL A   1      47.544  26.538  30.818  1.00  0.00    -0.014 A 
ATOM     53  C   UNL A   1      48.540  26.684  29.842  1.00  0.00     0.009 A 
ATOM     54  C   UNL A   1      47.879  25.977  32.059  1.00  0.00     0.009 A 
ATOM     55  C   UNL A   1      49.844  26.257  30.098  1.00  0.00     0.001 A 
ATOM     56  C   UNL A   1      49.188  25.571  32.320  1.00  0.00     0.001 A 
ATOM     57  C   UNL A   1      50.167  25.706  31.338  1.00  0.00     0.000 A 
ENDBRANCH  39  52
ENDBRANCH  13  14
ENDBRANCH   6   8
ENDBRANCH   3   4
ENDBRANCH   2   3
ENDBRANCH   1   2
BRANCH   1  58
ATOM     58  C   UNL A   1      34.940  32.330  31.944  1.00  0.00     0.116 C 
BRANCH  58  59
ATOM     59  N   UNL A   1      34.860  33.095  33.177  1.00  0.00    -0.356 N 
ATOM     60  C   UNL A   1      35.828  33.457  34.066  1.00  0.00     0.224 C 
ATOM     61  H   UNL A   1      33.954  33.402  33.410  1.00  0.00     0.163 HD
ATOM     62  O   UNL A   1      35.487  34.135  35.038  1.00  0.00    -0.275 OA
BRANCH  60  63
ATOM     63  C   UNL A   1      37.281  33.040  33.883  1.00  0.00     0.098 C 
ATOM     64  C   UNL A   1      38.173  34.267  33.634  1.00  0.00     0.017 C 
ATOM     65  C   UNL A   1      37.711  32.061  34.994  1.00  0.00     0.133 C 
ATOM     66  C   UNL A   1      39.634  34.035  33.962  1.00  0.00     0.022 C 
ATOM     67  N   UNL A   1      39.165  32.001  35.195  1.00  0.00    -0.342 N 
ATOM     68  C   UNL A   1      39.786  33.302  35.282  1.00  0.00     0.119 C 
BRANCH  67  69
ATOM     69  C   UNL A   1      39.759  30.786  35.483  1.00  0.00     0.225 C 
ATOM     70  O   UNL A   1      39.203  30.015  36.278  1.00  0.00    -0.275 OA
BRANCH  69  71
ATOM     71  C   UNL A   1      41.081  30.295  34.837  1.00  0.00     0.081 C 
ATOM     72  C   UNL A   1      41.001  29.269  33.719  1.00  0.00     0.030 C 
ATOM     73  C   UNL A   1      42.276  30.049  35.739  1.00  0.00     0.030 C 
ATOM     74  C   UNL A   1      41.240  27.819  34.104  1.00  0.00     0.103 C 
ATOM     75  C   UNL A   1      42.490  28.618  36.185  1.00  0.00     0.103 C 
ATOM     76  N   UNL A   1      42.287  27.570  35.154  1.00  0.00    -0.198 NA
BRANCH  76  77
ATOM     77  S   UNL A   1      42.051  25.961  35.804  1.00  0.00     0.243 S 
ATOM     78  O   UNL A   1      42.531  25.979  37.172  1.00  0.00    -0.207 OA
ATOM     79  O   UNL A   1      40.680  25.588  35.519  1.00  0.00    -0.207 OA
BRANCH  77  80
ATOM     80  C   UNL A   1      43.133  24.873  34.907  1.00  0.00     0.082 A 
ATOM     81  C   UNL A   1      43.894  25.362  33.846  1.00  0.00     0.022 A 
ATOM     82  C   UNL A   1      43.070  23.492  35.150  1.00  0.00     0.022 A 
ATOM     83  C   UNL A   1      44.625  24.470  33.057  1.00  0.00     0.001 A 
ATOM     84  C   UNL A   1      43.824  22.611  34.379  1.00  0.00     0.001 A 
ATOM     85  C   UNL A   1      44.599  23.101  33.329  1.00  0.00     0.000 A 
ENDBRANCH  77  80
ENDBRANCH  76  77
ENDBRANCH  69  71
ENDBRANCH  67  69
ENDBRANCH  60  63
ENDBRANCH  58  59
ENDBRANCH   1  58
TORSDOF 15
ENDMDL
MODEL 3
REMARK VINA RESULT:     -11.8      0.445      5.720
REMARK SMILES O=C(NCCCCNC(=O)[C@H]1CCCN(C(=O)C2CCN(S(=O)(=O)c3ccccc3)CC2)C1)c1ccc(-c2c3nc(c(-c4ccccc4)c4ccc([nH]4)c(-c4ccccc4)c4nc(c(-c5ccccc5)c5ccc2[nH]5)C=C4)C=C3)cc1
REMARK SMILES IDX 6 1 5 2 4 3 3 4 1 5 2 6 34 8 35 9 81 10 36 11 80 12 37 13
REMARK SMILES IDX 38 14 39 15 74 16 40 17 79 18 73 19 75 20 41 21 78 22 72 23
REMARK SMILES IDX 71 24 42 26 64 27 49 28 63 29 50 30 53 31 62 32 76 33 51 34
REMARK SMILES IDX 52 35 61 37 77 38 54 39 43 40 44 41 48 42 45 43 47 44 46 45
REMARK SMILES IDX 65 46 66 47 70 48 67 49 69 50 68 51 55 52 56 53 60 54 57 55
REMARK SMILES IDX 59 56 58 57 7 58 8 59 9 60 10 62 11 63 12 64 33 65 13 66
REMARK SMILES IDX 15 67 14 68 16 69 17 70 18 71 19 72 32 73 20 74 31 75 21 76
REMARK SMILES IDX 22 77 23 78 24 79 25 80 26 81 30 82 27 83 29 84 28 85
REMARK H PARENT 3 7 75 25 53 36 8 61
REMARK Flexibility Score: inf
ROOT
ATOM      1  C   UNL A   1      36.912  20.646  25.019  1.00  0.00     0.023 C 
ENDROOT
BRANCH   1   2
ATOM      2  C   UNL A   1      38.160  19.778  24.888  1.00  0.00     0.023 C 
BRANCH   2   3
ATOM      3  C   UNL A   1      39.205  19.997  25.970  1.00  0.00     0.116 C 
BRANCH   3   4
ATOM      4  N   UNL A   1      40.265  19.001  25.951  1.00  0.00    -0.352 N 
ATOM      5  O   UNL A   1      42.405  18.270  25.948  1.00  0.00    -0.269 OA
ATOM      6  C   UNL A   1      41.616  19.196  26.096  1.00  0.00     0.251 C 
ATOM      7  H   UNL A   1      39.977  18.070  25.816  1.00  0.00     0.163 HD
BRANCH   6   8
ATOM      8  C   UNL A   1      42.107  20.553  26.399  1.00  0.00     0.039 A 
ATOM      9  C   UNL A   1      42.264  20.966  27.725  1.00  0.00     0.014 A 
ATOM     10  C   UNL A   1      42.366  21.426  25.341  1.00  0.00     0.014 A 
ATOM     11  C   UNL A   1      42.566  22.295  27.997  1.00  0.00     0.010 A 
ATOM     12  C   UNL A   1      42.738  22.741  25.616  1.00  0.00     0.010 A 
ATOM     13  C   UNL A   1      42.815  23.189  26.945  1.00  0.00    -0.014 A 
BRANCH  13  14
ATOM     14  C   UNL A   1      43.226  24.578  27.243  1.00  0.00     0.031 A 
ATOM     15  C   UNL A   1      44.667  24.988  27.182  1.00  0.00     0.074 A 
ATOM     16  C   UNL A   1      42.278  25.463  27.600  1.00  0.00     0.049 A 
ATOM     17  N   UNL A   1      45.206  26.142  27.480  1.00  0.00    -0.248 NA
ATOM     18  C   UNL A   1      45.631  23.968  26.738  1.00  0.00     0.031 C 
ATOM     19  C   UNL A   1      40.846  25.171  27.698  1.00  0.00     0.029 A 
ATOM     20  N   UNL A   1      42.377  26.783  27.954  1.00  0.00    -0.354 N 
ATOM     21  C   UNL A   1      46.571  25.984  27.289  1.00  0.00     0.074 A 
ATOM     22  C   UNL A   1      46.782  24.617  26.861  1.00  0.00     0.031 C 
ATOM     23  C   UNL A   1      40.198  26.282  28.076  1.00  0.00     0.029 A 
ATOM     24  C   UNL A   1      41.173  27.342  28.302  1.00  0.00     0.049 A 
ATOM     25  H   UNL A   1      43.226  27.280  27.960  1.00  0.00     0.167 HD
ATOM     26  C   UNL A   1      47.558  26.896  27.459  1.00  0.00     0.031 A 
ATOM     27  C   UNL A   1      40.884  28.563  28.785  1.00  0.00     0.031 A 
ATOM     28  C   UNL A   1      47.338  28.254  27.885  1.00  0.00     0.049 A 
ATOM     29  C   UNL A   1      41.995  29.546  28.991  1.00  0.00     0.074 A 
ATOM     30  C   UNL A   1      48.265  29.270  28.040  1.00  0.00     0.029 A 
ATOM     31  N   UNL A   1      46.104  28.780  28.233  1.00  0.00    -0.354 N 
ATOM     32  N   UNL A   1      43.277  29.395  28.768  1.00  0.00    -0.248 NA
ATOM     33  C   UNL A   1      41.621  30.866  29.516  1.00  0.00     0.031 C 
ATOM     34  C   UNL A   1      47.597  30.398  28.528  1.00  0.00     0.029 A 
ATOM     35  C   UNL A   1      46.248  30.099  28.632  1.00  0.00     0.049 A 
ATOM     36  H   UNL A   1      45.251  28.290  28.202  1.00  0.00     0.167 HD
ATOM     37  C   UNL A   1      43.865  30.602  29.113  1.00  0.00     0.074 A 
ATOM     38  C   UNL A   1      42.796  31.480  29.548  1.00  0.00     0.031 C 
ATOM     39  C   UNL A   1      45.174  30.952  29.071  1.00  0.00     0.031 A 
BRANCH  26  40
ATOM     40  C   UNL A   1      48.970  26.440  27.222  1.00  0.00    -0.014 A 
ATOM     41  C   UNL A   1      49.544  26.470  25.941  1.00  0.00     0.009 A 
ATOM     42  C   UNL A   1      49.746  25.999  28.305  1.00  0.00     0.009 A 
ATOM     43  C   UNL A   1      50.856  26.031  25.746  1.00  0.00     0.001 A 
ATOM     44  C   UNL A   1      51.064  25.583  28.110  1.00  0.00     0.001 A 
ATOM     45  C   UNL A   1      51.616  25.590  26.830  1.00  0.00     0.000 A 
ENDBRANCH  26  40
BRANCH  27  46
ATOM     46  C   UNL A   1      39.478  28.888  29.125  1.00  0.00    -0.014 A 
ATOM     47  C   UNL A   1      38.986  28.659  30.417  1.00  0.00     0.009 A 
ATOM     48  C   UNL A   1      38.646  29.502  28.175  1.00  0.00     0.009 A 
ATOM     49  C   UNL A   1      37.682  29.035  30.748  1.00  0.00     0.001 A 
ATOM     50  C   UNL A   1      37.353  29.899  28.517  1.00  0.00     0.001 A 
ATOM     51  C   UNL A   1      36.871  29.662  29.803  1.00  0.00     0.000 A 
ENDBRANCH  27  46
BRANCH  39  52
ATOM     52  C   UNL A   1      45.518  32.350  29.490  1.00  0.00    -0.014 A 
ATOM     53  C   UNL A   1      45.954  32.628  30.793  1.00  0.00     0.009 A 
ATOM     54  C   UNL A   1      45.453  33.392  28.552  1.00  0.00     0.009 A 
ATOM     55  C   UNL A   1      46.300  33.930  31.157  1.00  0.00     0.001 A 
ATOM     56  C   UNL A   1      45.820  34.689  28.913  1.00  0.00     0.001 A 
ATOM     57  C   UNL A   1      46.238  34.958  30.215  1.00  0.00     0.000 A 
ENDBRANCH  39  52
ENDBRANCH  13  14
ENDBRANCH   6   8
ENDBRANCH   3   4
ENDBRANCH   2   3
ENDBRANCH   1   2
BRANCH   1  58
ATOM     58  C   UNL A   1      37.182  22.130  25.267  1.00  0.00     0.116 C 
BRANCH  58  59
ATOM     59  N   UNL A   1      36.159  22.759  26.087  1.00  0.00    -0.356 N 
ATOM     60  C   UNL A   1      34.916  23.218  25.765  1.00  0.00     0.224 C 
ATOM     61  H   UNL A   1      36.406  22.873  27.033  1.00  0.00     0.163 HD
ATOM     62  O   UNL A   1      34.232  23.699  26.671  1.00  0.00    -0.275 OA
BRANCH  60  63
ATOM     63  C   UNL A   1      34.381  23.153  24.341  1.00  0.00     0.098 C 
ATOM     64  C   UNL A   1      33.491  21.915  24.149  1.00  0.00     0.017 C 
ATOM     65  C   UNL A   1      33.805  24.517  23.913  1.00  0.00     0.133 C 
ATOM     66  C   UNL A   1      32.521  22.035  22.991  1.00  0.00     0.022 C 
ATOM     67  N   UNL A   1      32.849  24.430  22.801  1.00  0.00    -0.342 N 
ATOM     68  C   UNL A   1      31.855  23.399  22.980  1.00  0.00     0.119 C 
BRANCH  67  69
ATOM     69  C   UNL A   1      32.844  25.418  21.833  1.00  0.00     0.225 C 
ATOM     70  O   UNL A   1      33.278  25.157  20.702  1.00  0.00    -0.275 OA
BRANCH  69  71
ATOM     71  C   UNL A   1      32.286  26.847  22.058  1.00  0.00     0.081 C 
ATOM     72  C   UNL A   1      33.260  27.954  22.425  1.00  0.00     0.030 C 
ATOM     73  C   UNL A   1      30.965  26.998  22.788  1.00  0.00     0.030 C 
ATOM     74  C   UNL A   1      33.366  28.309  23.898  1.00  0.00     0.103 C 
ATOM     75  C   UNL A   1      31.054  27.287  24.273  1.00  0.00     0.103 C 
ATOM     76  N   UNL A   1      32.090  28.265  24.691  1.00  0.00    -0.198 NA
BRANCH  76  77
ATOM     77  S   UNL A   1      32.494  28.196  26.394  1.00  0.00     0.243 S 
ATOM     78  O   UNL A   1      31.336  27.664  27.086  1.00  0.00    -0.207 OA
ATOM     79  O   UNL A   1      33.773  27.524  26.496  1.00  0.00    -0.207 OA
BRANCH  77  80
ATOM     80  C   UNL A   1      32.686  29.873  26.951  1.00  0.00     0.082 A 
ATOM     81  C   UNL A   1      31.774  30.850  26.556  1.00  0.00     0.022 A 
ATOM     82  C   UNL A   1      33.860  30.237  27.628  1.00  0.00     0.022 A 
ATOM     83  C   UNL A   1      32.019  32.188  26.877  1.00  0.00     0.001 A 
ATOM     84  C   UNL A   1      34.084  31.569  27.973  1.00  0.00     0.001 A 
ATOM     85  C   UNL A   1      33.164  32.544  27.593  1.00  0.00     0.000 A 
ENDBRANCH  77  80
ENDBRANCH  76  77
ENDBRANCH  69  71
ENDBRANCH  67  69
ENDBRANCH  60  63
ENDBRANCH  58  59
ENDBRANCH   1  58
TORSDOF 15
ENDMDL
