MODEL 1
REMARK VINA RESULT:     -11.4      0.000      0.000
REMARK SMILES C[C@H](CC(=O)NCCCCNC(=O)c1ccc(-c2c3nc(c(-c4ccccc4)c4ccc([nH]4)c(-c4ccccc4)c4nc(c(-c5ccccc5)c5ccc2[nH]5)C=C4)C=C3)cc1)NC(=O)Cn1nc2ccccn2c1=O
REMARK SMILES IDX 7 1 6 2 4 3 5 4 3 6 2 7 1 8 62 9 63 10 64 12 65 13 66 14
REMARK SMILES IDX 67 15 74 16 68 17 73 18 75 19 69 20 72 21 70 22 71 23 8 24
REMARK SMILES IDX 9 25 10 26 11 27 12 28 13 30 14 31 15 32 61 33 16 34 60 35
REMARK SMILES IDX 17 36 18 37 19 38 54 39 20 40 59 41 53 42 55 43 21 44 58 45
REMARK SMILES IDX 52 46 51 47 22 49 44 50 29 51 43 52 30 53 33 54 42 55 56 56
REMARK SMILES IDX 31 57 32 58 41 60 57 61 34 62 23 63 24 64 28 65 25 66 27 67
REMARK SMILES IDX 26 68 45 69 46 70 50 71 47 72 49 73 48 74 35 75 36 76 40 77
REMARK SMILES IDX 37 78 39 79 38 80
REMARK H PARENT 6 5 62 11 11 29 55 48 33 59
REMARK Flexibility Score: inf
ROOT
ATOM      1  C   UNL A   1      33.014  30.209  26.064  1.00  0.00     0.116 C 
ENDROOT
BRANCH   1   2
ATOM      2  N   UNL A   1      33.294  29.618  24.771  1.00  0.00    -0.356 N 
ATOM      3  C   UNL A   1      33.714  28.360  24.466  1.00  0.00     0.222 C 
ATOM      4  O   UNL A   1      33.925  28.087  23.283  1.00  0.00    -0.275 OA
ATOM      5  H   UNL A   1      33.160  30.215  23.999  1.00  0.00     0.163 HD
BRANCH   3   6
ATOM      6  C   UNL A   1      33.903  27.322  25.551  1.00  0.00     0.124 C 
BRANCH   6   7
ATOM      7  C   UNL A   1      33.226  25.960  25.323  1.00  0.00     0.088 C 
ATOM      8  C   UNL A   1      34.117  24.739  25.548  1.00  0.00     0.031 C 
BRANCH   7   9
ATOM      9  N   UNL A   1      31.982  25.839  26.086  1.00  0.00    -0.352 N 
ATOM     10  C   UNL A   1      30.701  25.676  25.647  1.00  0.00     0.242 C 
ATOM     11  H   UNL A   1      32.086  25.882  27.065  1.00  0.00     0.163 HD
ATOM     12  O   UNL A   1      29.820  25.553  26.503  1.00  0.00    -0.273 OA
BRANCH  10  13
ATOM     13  C   UNL A   1      30.411  25.468  24.170  1.00  0.00     0.249 C 
BRANCH  13  14
ATOM     14  N   UNL A   1      29.847  26.620  23.512  1.00  0.00    -0.203 N 
ATOM     15  N   UNL A   1      30.609  27.575  22.871  1.00  0.00    -0.149 NA
ATOM     16  C   UNL A   1      28.520  27.053  23.644  1.00  0.00     0.350 A 
ATOM     17  C   UNL A   1      29.758  28.525  22.640  1.00  0.00     0.161 A 
ATOM     18  N   UNL A   1      28.499  28.301  23.083  1.00  0.00    -0.250 N 
ATOM     19  O   UNL A   1      27.598  26.453  24.184  1.00  0.00    -0.246 OA
ATOM     20  C   UNL A   1      30.024  29.820  22.003  1.00  0.00     0.050 A 
ATOM     21  C   UNL A   1      27.490  29.221  23.046  1.00  0.00     0.098 A 
ATOM     22  C   UNL A   1      29.130  30.793  22.241  1.00  0.00     0.005 A 
ATOM     23  C   UNL A   1      27.779  30.471  22.655  1.00  0.00     0.019 A 
ENDBRANCH  13  14
ENDBRANCH  10  13
ENDBRANCH   7   9
ENDBRANCH   6   7
ENDBRANCH   3   6
ENDBRANCH   1   2
BRANCH   1  24
ATOM     24  C   UNL A   1      31.558  30.663  26.178  1.00  0.00     0.023 C 
BRANCH  24  25
ATOM     25  C   UNL A   1      31.357  32.127  26.553  1.00  0.00     0.023 C 
BRANCH  25  26
ATOM     26  C   UNL A   1      32.549  32.770  27.238  1.00  0.00     0.116 C 
BRANCH  26  27
ATOM     27  N   UNL A   1      32.302  34.151  27.623  1.00  0.00    -0.352 N 
ATOM     28  C   UNL A   1      32.971  34.918  28.543  1.00  0.00     0.251 C 
ATOM     29  H   UNL A   1      31.554  34.595  27.161  1.00  0.00     0.163 HD
ATOM     30  O   UNL A   1      32.555  36.029  28.851  1.00  0.00    -0.269 OA
BRANCH  28  31
ATOM     31  C   UNL A   1      34.183  34.374  29.185  1.00  0.00     0.039 A 
ATOM     32  C   UNL A   1      34.048  33.634  30.362  1.00  0.00     0.014 A 
ATOM     33  C   UNL A   1      35.441  34.560  28.605  1.00  0.00     0.014 A 
ATOM     34  C   UNL A   1      35.171  33.027  30.922  1.00  0.00     0.010 A 
ATOM     35  C   UNL A   1      36.541  33.885  29.115  1.00  0.00     0.010 A 
ATOM     36  C   UNL A   1      36.418  33.118  30.283  1.00  0.00    -0.014 A 
BRANCH  36  37
ATOM     37  C   UNL A   1      37.611  32.424  30.824  1.00  0.00     0.031 A 
ATOM     38  C   UNL A   1      38.293  32.952  32.054  1.00  0.00     0.074 A 
ATOM     39  C   UNL A   1      38.116  31.359  30.171  1.00  0.00     0.049 A 
ATOM     40  N   UNL A   1      39.375  32.518  32.649  1.00  0.00    -0.248 NA
ATOM     41  C   UNL A   1      37.697  34.142  32.685  1.00  0.00     0.031 C 
ATOM     42  C   UNL A   1      37.570  30.779  28.943  1.00  0.00     0.029 A 
ATOM     43  N   UNL A   1      39.208  30.578  30.452  1.00  0.00    -0.354 N 
ATOM     44  C   UNL A   1      39.597  33.388  33.709  1.00  0.00     0.074 A 
ATOM     45  C   UNL A   1      38.573  34.408  33.643  1.00  0.00     0.031 C 
ATOM     46  C   UNL A   1      38.310  29.713  28.595  1.00  0.00     0.029 A 
ATOM     47  C   UNL A   1      39.403  29.561  29.549  1.00  0.00     0.049 A 
ATOM     48  H   UNL A   1      39.796  30.731  31.227  1.00  0.00     0.167 HD
ATOM     49  C   UNL A   1      40.554  33.332  34.665  1.00  0.00     0.031 A 
ATOM     50  C   UNL A   1      40.358  28.614  29.495  1.00  0.00     0.031 A 
ATOM     51  C   UNL A   1      41.564  32.313  34.735  1.00  0.00     0.049 A 
ATOM     52  C   UNL A   1      41.418  28.582  30.561  1.00  0.00     0.074 A 
ATOM     53  C   UNL A   1      42.545  32.135  35.695  1.00  0.00     0.029 A 
ATOM     54  N   UNL A   1      41.726  31.298  33.804  1.00  0.00    -0.354 N 
ATOM     55  N   UNL A   1      41.573  29.371  31.596  1.00  0.00    -0.248 NA
ATOM     56  C   UNL A   1      42.427  27.519  30.455  1.00  0.00     0.031 C 
ATOM     57  C   UNL A   1      43.333  31.043  35.315  1.00  0.00     0.029 A 
ATOM     58  C   UNL A   1      42.806  30.505  34.153  1.00  0.00     0.049 A 
ATOM     59  H   UNL A   1      41.157  31.162  33.012  1.00  0.00     0.167 HD
ATOM     60  C   UNL A   1      42.678  28.883  32.281  1.00  0.00     0.074 A 
ATOM     61  C   UNL A   1      43.143  27.721  31.552  1.00  0.00     0.031 C 
ATOM     62  C   UNL A   1      43.255  29.354  33.414  1.00  0.00     0.031 A 
BRANCH  49  63
ATOM     63  C   UNL A   1      40.549  34.414  35.710  1.00  0.00    -0.014 A 
ATOM     64  C   UNL A   1      39.777  34.297  36.877  1.00  0.00     0.009 A 
ATOM     65  C   UNL A   1      41.346  35.556  35.536  1.00  0.00     0.009 A 
ATOM     66  C   UNL A   1      39.771  35.319  37.828  1.00  0.00     0.001 A 
ATOM     67  C   UNL A   1      41.364  36.561  36.505  1.00  0.00     0.001 A 
ATOM     68  C   UNL A   1      40.568  36.447  37.644  1.00  0.00     0.000 A 
ENDBRANCH  49  63
BRANCH  50  69
ATOM     69  C   UNL A   1      40.345  27.604  28.405  1.00  0.00    -0.014 A 
ATOM     70  C   UNL A   1      39.655  26.392  28.566  1.00  0.00     0.009 A 
ATOM     71  C   UNL A   1      41.026  27.841  27.201  1.00  0.00     0.009 A 
ATOM     72  C   UNL A   1      39.671  25.428  27.556  1.00  0.00     0.001 A 
ATOM     73  C   UNL A   1      41.016  26.887  26.181  1.00  0.00     0.001 A 
ATOM     74  C   UNL A   1      40.347  25.678  26.363  1.00  0.00     0.000 A 
ENDBRANCH  50  69
BRANCH  62  75
ATOM     75  C   UNL A   1      44.431  28.589  33.953  1.00  0.00    -0.014 A 
ATOM     76  C   UNL A   1      44.262  27.515  34.841  1.00  0.00     0.009 A 
ATOM     77  C   UNL A   1      45.728  28.927  33.533  1.00  0.00     0.009 A 
ATOM     78  C   UNL A   1      45.370  26.819  35.325  1.00  0.00     0.001 A 
ATOM     79  C   UNL A   1      46.832  28.209  33.993  1.00  0.00     0.001 A 
ATOM     80  C   UNL A   1      46.653  27.162  34.897  1.00  0.00     0.000 A 
ENDBRANCH  62  75
ENDBRANCH  36  37
ENDBRANCH  28  31
ENDBRANCH  26  27
ENDBRANCH  25  26
ENDBRANCH  24  25
ENDBRANCH   1  24
TORSDOF 15
ENDMDL
MODEL 2
REMARK VINA RESULT:     -11.3      1.595      3.579
REMARK SMILES C[C@H](CC(=O)NCCCCNC(=O)c1ccc(-c2c3nc(c(-c4ccccc4)c4ccc([nH]4)c(-c4ccccc4)c4nc(c(-c5ccccc5)c5ccc2[nH]5)C=C4)C=C3)cc1)NC(=O)Cn1nc2ccccn2c1=O
REMARK SMILES IDX 7 1 6 2 4 3 5 4 3 6 2 7 1 8 62 9 63 10 64 12 65 13 66 14
REMARK SMILES IDX 67 15 74 16 68 17 73 18 75 19 69 20 72 21 70 22 71 23 8 24
REMARK SMILES IDX 9 25 10 26 11 27 12 28 13 30 14 31 15 32 61 33 16 34 60 35
REMARK SMILES IDX 17 36 18 37 19 38 54 39 20 40 59 41 53 42 55 43 21 44 58 45
REMARK SMILES IDX 52 46 51 47 22 49 44 50 29 51 43 52 30 53 33 54 42 55 56 56
REMARK SMILES IDX 31 57 32 58 41 60 57 61 34 62 23 63 24 64 28 65 25 66 27 67
REMARK SMILES IDX 26 68 45 69 46 70 50 71 47 72 49 73 48 74 35 75 36 76 40 77
REMARK SMILES IDX 37 78 39 79 38 80
REMARK H PARENT 6 5 62 11 11 29 55 48 33 59
REMARK Flexibility Score: inf
ROOT
ATOM      1  C   UNL A   1      32.884  29.859  26.298  1.00  0.00     0.116 C 
ENDROOT
BRANCH   1   2
ATOM      2  N   UNL A   1      33.229  29.869  24.890  1.00  0.00    -0.356 N 
ATOM      3  C   UNL A   1      32.857  29.010  23.903  1.00  0.00     0.222 C 
ATOM      4  O   UNL A   1      33.307  29.194  22.770  1.00  0.00    -0.275 OA
ATOM      5  H   UNL A   1      33.818  30.606  24.607  1.00  0.00     0.163 HD
BRANCH   3   6
ATOM      6  C   UNL A   1      31.907  27.866  24.186  1.00  0.00     0.124 C 
BRANCH   6   7
ATOM      7  C   UNL A   1      31.029  27.396  23.015  1.00  0.00     0.088 C 
ATOM      8  C   UNL A   1      29.930  28.368  22.588  1.00  0.00     0.031 C 
BRANCH   7   9
ATOM      9  N   UNL A   1      31.835  26.991  21.862  1.00  0.00    -0.352 N 
ATOM     10  C   UNL A   1      32.589  25.869  21.674  1.00  0.00     0.242 C 
ATOM     11  H   UNL A   1      31.833  27.624  21.107  1.00  0.00     0.163 HD
ATOM     12  O   UNL A   1      33.145  25.738  20.580  1.00  0.00    -0.273 OA
BRANCH  10  13
ATOM     13  C   UNL A   1      32.580  24.752  22.703  1.00  0.00     0.249 C 
BRANCH  13  14
ATOM     14  N   UNL A   1      33.885  24.410  23.213  1.00  0.00    -0.203 N 
ATOM     15  N   UNL A   1      34.698  23.457  22.637  1.00  0.00    -0.149 NA
ATOM     16  C   UNL A   1      34.386  24.797  24.464  1.00  0.00     0.350 A 
ATOM     17  C   UNL A   1      35.634  23.296  23.519  1.00  0.00     0.161 A 
ATOM     18  N   UNL A   1      35.513  24.042  24.641  1.00  0.00    -0.250 N 
ATOM     19  O   UNL A   1      33.890  25.606  25.241  1.00  0.00    -0.246 OA
ATOM     20  C   UNL A   1      36.767  22.366  23.450  1.00  0.00     0.050 A 
ATOM     21  C   UNL A   1      36.324  23.932  25.735  1.00  0.00     0.098 A 
ATOM     22  C   UNL A   1      37.357  22.063  24.619  1.00  0.00     0.005 A 
ATOM     23  C   UNL A   1      37.231  22.945  25.761  1.00  0.00     0.019 A 
ENDBRANCH  13  14
ENDBRANCH  10  13
ENDBRANCH   7   9
ENDBRANCH   6   7
ENDBRANCH   3   6
ENDBRANCH   1   2
BRANCH   1  24
ATOM     24  C   UNL A   1      31.508  30.478  26.551  1.00  0.00     0.023 C 
BRANCH  24  25
ATOM     25  C   UNL A   1      31.474  32.001  26.592  1.00  0.00     0.023 C 
BRANCH  25  26
ATOM     26  C   UNL A   1      32.672  32.639  27.268  1.00  0.00     0.116 C 
BRANCH  26  27
ATOM     27  N   UNL A   1      32.415  34.004  27.704  1.00  0.00    -0.352 N 
ATOM     28  C   UNL A   1      33.100  34.752  28.629  1.00  0.00     0.251 C 
ATOM     29  H   UNL A   1      31.646  34.449  27.280  1.00  0.00     0.163 HD
ATOM     30  O   UNL A   1      32.675  35.846  28.985  1.00  0.00    -0.269 OA
BRANCH  28  31
ATOM     31  C   UNL A   1      34.339  34.208  29.217  1.00  0.00     0.039 A 
ATOM     32  C   UNL A   1      34.252  33.438  30.378  1.00  0.00     0.014 A 
ATOM     33  C   UNL A   1      35.574  34.426  28.601  1.00  0.00     0.014 A 
ATOM     34  C   UNL A   1      35.401  32.832  30.886  1.00  0.00     0.010 A 
ATOM     35  C   UNL A   1      36.699  33.753  29.057  1.00  0.00     0.010 A 
ATOM     36  C   UNL A   1      36.625  32.956  30.209  1.00  0.00    -0.014 A 
BRANCH  36  37
ATOM     37  C   UNL A   1      37.844  32.265  30.693  1.00  0.00     0.031 A 
ATOM     38  C   UNL A   1      38.633  32.845  31.832  1.00  0.00     0.074 A 
ATOM     39  C   UNL A   1      38.273  31.153  30.065  1.00  0.00     0.049 A 
ATOM     40  N   UNL A   1      39.751  32.418  32.363  1.00  0.00    -0.248 NA
ATOM     41  C   UNL A   1      38.114  34.082  32.438  1.00  0.00     0.031 C 
ATOM     42  C   UNL A   1      37.618  30.517  28.920  1.00  0.00     0.029 A 
ATOM     43  N   UNL A   1      39.369  30.362  30.303  1.00  0.00    -0.354 N 
ATOM     44  C   UNL A   1      40.074  33.341  33.350  1.00  0.00     0.074 A 
ATOM     45  C   UNL A   1      39.069  34.380  33.306  1.00  0.00     0.031 C 
ATOM     46  C   UNL A   1      38.306  29.416  28.577  1.00  0.00     0.029 A 
ATOM     47  C   UNL A   1      39.469  29.291  29.448  1.00  0.00     0.049 A 
ATOM     48  H   UNL A   1      40.020  30.544  31.019  1.00  0.00     0.167 HD
ATOM     49  C   UNL A   1      41.104  33.316  34.228  1.00  0.00     0.031 A 
ATOM     50  C   UNL A   1      40.398  28.320  29.374  1.00  0.00     0.031 A 
ATOM     51  C   UNL A   1      42.097  32.278  34.277  1.00  0.00     0.049 A 
ATOM     52  C   UNL A   1      41.540  28.322  30.352  1.00  0.00     0.074 A 
ATOM     53  C   UNL A   1      43.148  32.131  35.164  1.00  0.00     0.029 A 
ATOM     54  N   UNL A   1      42.162  31.208  33.397  1.00  0.00    -0.354 N 
ATOM     55  N   UNL A   1      41.794  29.164  31.324  1.00  0.00    -0.248 NA
ATOM     56  C   UNL A   1      42.516  27.231  30.229  1.00  0.00     0.031 C 
ATOM     57  C   UNL A   1      43.881  31.001  34.788  1.00  0.00     0.029 A 
ATOM     58  C   UNL A   1      43.251  30.410  33.704  1.00  0.00     0.049 A 
ATOM     59  H   UNL A   1      41.529  31.042  32.661  1.00  0.00     0.167 HD
ATOM     60  C   UNL A   1      42.940  28.689  31.946  1.00  0.00     0.074 A 
ATOM     61  C   UNL A   1      43.322  27.477  31.252  1.00  0.00     0.031 C 
ATOM     62  C   UNL A   1      43.617  29.209  33.001  1.00  0.00     0.031 A 
BRANCH  49  63
ATOM     63  C   UNL A   1      41.205  34.455  35.206  1.00  0.00    -0.014 A 
ATOM     64  C   UNL A   1      40.536  34.418  36.440  1.00  0.00     0.009 A 
ATOM     65  C   UNL A   1      41.998  35.571  34.898  1.00  0.00     0.009 A 
ATOM     66  C   UNL A   1      40.628  35.492  37.328  1.00  0.00     0.001 A 
ATOM     67  C   UNL A   1      42.114  36.628  35.802  1.00  0.00     0.001 A 
ATOM     68  C   UNL A   1      41.420  36.593  37.010  1.00  0.00     0.000 A 
ENDBRANCH  49  63
BRANCH  50  69
ATOM     69  C   UNL A   1      40.278  27.251  28.349  1.00  0.00    -0.014 A 
ATOM     70  C   UNL A   1      39.589  26.062  28.639  1.00  0.00     0.009 A 
ATOM     71  C   UNL A   1      40.854  27.408  27.079  1.00  0.00     0.009 A 
ATOM     72  C   UNL A   1      39.505  25.043  27.688  1.00  0.00     0.001 A 
ATOM     73  C   UNL A   1      40.743  26.398  26.120  1.00  0.00     0.001 A 
ATOM     74  C   UNL A   1      40.077  25.213  26.429  1.00  0.00     0.000 A 
ENDBRANCH  50  69
BRANCH  62  75
ATOM     75  C   UNL A   1      44.817  28.448  33.488  1.00  0.00    -0.014 A 
ATOM     76  C   UNL A   1      44.694  27.402  34.416  1.00  0.00     0.009 A 
ATOM     77  C   UNL A   1      46.088  28.760  32.979  1.00  0.00     0.009 A 
ATOM     78  C   UNL A   1      45.824  26.707  34.850  1.00  0.00     0.001 A 
ATOM     79  C   UNL A   1      47.212  28.043  33.391  1.00  0.00     0.001 A 
ATOM     80  C   UNL A   1      47.080  27.025  34.333  1.00  0.00     0.000 A 
ENDBRANCH  62  75
ENDBRANCH  36  37
ENDBRANCH  28  31
ENDBRANCH  26  27
ENDBRANCH  25  26
ENDBRANCH  24  25
ENDBRANCH   1  24
TORSDOF 15
ENDMDL
MODEL 3
REMARK VINA RESULT:     -11.2      3.338      5.621
REMARK SMILES C[C@H](CC(=O)NCCCCNC(=O)c1ccc(-c2c3nc(c(-c4ccccc4)c4ccc([nH]4)c(-c4ccccc4)c4nc(c(-c5ccccc5)c5ccc2[nH]5)C=C4)C=C3)cc1)NC(=O)Cn1nc2ccccn2c1=O
REMARK SMILES IDX 7 1 6 2 4 3 5 4 3 6 2 7 1 8 62 9 63 10 64 12 65 13 66 14
REMARK SMILES IDX 67 15 74 16 68 17 73 18 75 19 69 20 72 21 70 22 71 23 8 24
REMARK SMILES IDX 9 25 10 26 11 27 12 28 13 30 14 31 15 32 61 33 16 34 60 35
REMARK SMILES IDX 17 36 18 37 19 38 54 39 20 40 59 41 53 42 55 43 21 44 58 45
REMARK SMILES IDX 52 46 51 47 22 49 44 50 29 51 43 52 30 53 33 54 42 55 56 56
REMARK SMILES IDX 31 57 32 58 41 60 57 61 34 62 23 63 24 64 28 65 25 66 27 67
REMARK SMILES IDX 26 68 45 69 46 70 50 71 47 72 49 73 48 74 35 75 36 76 40 77
REMARK SMILES IDX 37 78 39 79 38 80
REMARK H PARENT 6 5 62 11 11 29 55 48 33 59
REMARK Flexibility Score: inf
ROOT
ATOM      1  C   UNL A   1      31.197  29.886  24.901  1.00  0.00     0.116 C 
ENDROOT
BRANCH   1   2
ATOM      2  N   UNL A   1      30.842  29.873  23.496  1.00  0.00    -0.356 N 
ATOM      3  C   UNL A   1      30.260  28.889  22.759  1.00  0.00     0.222 C 
ATOM      4  O   UNL A   1      30.083  29.088  21.555  1.00  0.00    -0.275 OA
ATOM      5  H   UNL A   1      31.053  30.699  23.002  1.00  0.00     0.163 HD
BRANCH   3   6
ATOM      6  C   UNL A   1      29.830  27.589  23.404  1.00  0.00     0.124 C 
BRANCH   6   7
ATOM      7  C   UNL A   1      30.835  26.427  23.346  1.00  0.00     0.088 C 
ATOM      8  C   UNL A   1      30.292  25.067  23.780  1.00  0.00     0.031 C 
BRANCH   7   9
ATOM      9  N   UNL A   1      31.478  26.332  22.034  1.00  0.00    -0.352 N 
ATOM     10  C   UNL A   1      32.766  26.019  21.713  1.00  0.00     0.242 C 
ATOM     11  H   UNL A   1      30.890  26.523  21.266  1.00  0.00     0.163 HD
ATOM     12  O   UNL A   1      33.052  25.959  20.513  1.00  0.00    -0.273 OA
BRANCH  10  13
ATOM     13  C   UNL A   1      33.745  25.580  22.788  1.00  0.00     0.249 C 
BRANCH  13  14
ATOM     14  N   UNL A   1      33.761  24.158  23.027  1.00  0.00    -0.203 N 
ATOM     15  N   UNL A   1      32.815  23.293  22.516  1.00  0.00    -0.149 NA
ATOM     16  C   UNL A   1      34.556  23.511  23.982  1.00  0.00     0.350 A 
ATOM     17  C   UNL A   1      33.052  22.189  23.150  1.00  0.00     0.161 A 
ATOM     18  N   UNL A   1      34.059  22.238  24.052  1.00  0.00    -0.250 N 
ATOM     19  O   UNL A   1      35.469  24.001  24.638  1.00  0.00    -0.246 OA
ATOM     20  C   UNL A   1      32.321  20.922  23.030  1.00  0.00     0.050 A 
ATOM     21  C   UNL A   1      34.386  21.222  24.904  1.00  0.00     0.098 A 
ATOM     22  C   UNL A   1      32.453  20.062  24.054  1.00  0.00     0.005 A 
ATOM     23  C   UNL A   1      33.594  20.141  24.943  1.00  0.00     0.019 A 
ENDBRANCH  13  14
ENDBRANCH  10  13
ENDBRANCH   7   9
ENDBRANCH   6   7
ENDBRANCH   3   6
ENDBRANCH   1   2
BRANCH   1  24
ATOM     24  C   UNL A   1      32.581  29.283  25.143  1.00  0.00     0.023 C 
BRANCH  24  25
ATOM     25  C   UNL A   1      32.654  28.237  26.250  1.00  0.00     0.023 C 
BRANCH  25  26
ATOM     26  C   UNL A   1      33.592  28.591  27.389  1.00  0.00     0.116 C 
BRANCH  26  27
ATOM     27  N   UNL A   1      33.598  30.014  27.694  1.00  0.00    -0.352 N 
ATOM     28  C   UNL A   1      34.613  30.775  28.218  1.00  0.00     0.251 C 
ATOM     29  H   UNL A   1      32.761  30.496  27.500  1.00  0.00     0.163 HD
ATOM     30  O   UNL A   1      34.416  31.940  28.543  1.00  0.00    -0.269 OA
BRANCH  28  31
ATOM     31  C   UNL A   1      35.940  30.161  28.419  1.00  0.00     0.039 A 
ATOM     32  C   UNL A   1      36.871  30.214  27.379  1.00  0.00     0.014 A 
ATOM     33  C   UNL A   1      36.274  29.573  29.641  1.00  0.00     0.014 A 
ATOM     34  C   UNL A   1      38.162  29.731  27.591  1.00  0.00     0.010 A 
ATOM     35  C   UNL A   1      37.582  29.173  29.877  1.00  0.00     0.010 A 
ATOM     36  C   UNL A   1      38.536  29.241  28.852  1.00  0.00    -0.014 A 
BRANCH  36  37
ATOM     37  C   UNL A   1      39.922  28.786  29.119  1.00  0.00     0.031 A 
ATOM     38  C   UNL A   1      40.904  29.714  29.776  1.00  0.00     0.074 A 
ATOM     39  C   UNL A   1      40.311  27.562  28.712  1.00  0.00     0.049 A 
ATOM     40  N   UNL A   1      42.169  29.520  30.046  1.00  0.00    -0.248 NA
ATOM     41  C   UNL A   1      40.406  31.047  30.156  1.00  0.00     0.031 C 
ATOM     42  C   UNL A   1      39.464  26.586  28.024  1.00  0.00     0.029 A 
ATOM     43  N   UNL A   1      41.526  26.933  28.816  1.00  0.00    -0.354 N 
ATOM     44  C   UNL A   1      42.620  30.707  30.609  1.00  0.00     0.074 A 
ATOM     45  C   UNL A   1      41.511  31.635  30.590  1.00  0.00     0.031 C 
ATOM     46  C   UNL A   1      40.175  25.469  27.799  1.00  0.00     0.029 A 
ATOM     47  C   UNL A   1      41.535  25.665  28.287  1.00  0.00     0.049 A 
ATOM     48  H   UNL A   1      42.315  27.351  29.231  1.00  0.00     0.167 HD
ATOM     49  C   UNL A   1      43.842  30.994  31.117  1.00  0.00     0.031 A 
ATOM     50  C   UNL A   1      42.532  24.764  28.202  1.00  0.00     0.031 A 
ATOM     51  C   UNL A   1      44.941  30.069  31.143  1.00  0.00     0.049 A 
ATOM     52  C   UNL A   1      43.883  25.112  28.761  1.00  0.00     0.074 A 
ATOM     53  C   UNL A   1      46.202  30.242  31.686  1.00  0.00     0.029 A 
ATOM     54  N   UNL A   1      44.910  28.792  30.601  1.00  0.00    -0.354 N 
ATOM     55  N   UNL A   1      44.274  26.214  29.353  1.00  0.00    -0.248 NA
ATOM     56  C   UNL A   1      44.927  24.084  28.649  1.00  0.00     0.031 C 
ATOM     57  C   UNL A   1      46.952  29.090  31.424  1.00  0.00     0.029 A 
ATOM     58  C   UNL A   1      46.137  28.176  30.773  1.00  0.00     0.049 A 
ATOM     59  H   UNL A   1      44.130  28.386  30.159  1.00  0.00     0.167 HD
ATOM     60  C   UNL A   1      45.599  26.002  29.711  1.00  0.00     0.074 A 
ATOM     61  C   UNL A   1      45.938  24.660  29.283  1.00  0.00     0.031 C 
ATOM     62  C   UNL A   1      46.458  26.842  30.339  1.00  0.00     0.031 A 
BRANCH  49  63
ATOM     63  C   UNL A   1      44.049  32.373  31.680  1.00  0.00    -0.014 A 
ATOM     64  C   UNL A   1      44.503  33.429  30.873  1.00  0.00     0.009 A 
ATOM     65  C   UNL A   1      43.765  32.626  33.031  1.00  0.00     0.009 A 
ATOM     66  C   UNL A   1      44.706  34.699  31.417  1.00  0.00     0.001 A 
ATOM     67  C   UNL A   1      43.937  33.905  33.564  1.00  0.00     0.001 A 
ATOM     68  C   UNL A   1      44.419  34.937  32.760  1.00  0.00     0.000 A 
ENDBRANCH  49  63
BRANCH  50  69
ATOM     69  C   UNL A   1      42.284  23.437  27.582  1.00  0.00    -0.014 A 
ATOM     70  C   UNL A   1      42.642  23.199  26.245  1.00  0.00     0.009 A 
ATOM     71  C   UNL A   1      41.684  22.403  28.317  1.00  0.00     0.009 A 
ATOM     72  C   UNL A   1      42.379  21.962  25.651  1.00  0.00     0.001 A 
ATOM     73  C   UNL A   1      41.448  21.159  27.728  1.00  0.00     0.001 A 
ATOM     74  C   UNL A   1      41.787  20.943  26.393  1.00  0.00     0.000 A 
ENDBRANCH  50  69
BRANCH  62  75
ATOM     75  C   UNL A   1      47.836  26.320  30.633  1.00  0.00    -0.014 A 
ATOM     76  C   UNL A   1      48.154  25.754  31.878  1.00  0.00     0.009 A 
ATOM     77  C   UNL A   1      48.820  26.362  29.632  1.00  0.00     0.009 A 
ATOM     78  C   UNL A   1      49.441  25.272  32.125  1.00  0.00     0.001 A 
ATOM     79  C   UNL A   1      50.096  25.851  29.872  1.00  0.00     0.001 A 
ATOM     80  C   UNL A   1      50.408  25.316  31.121  1.00  0.00     0.000 A 
ENDBRANCH  62  75
ENDBRANCH  36  37
ENDBRANCH  28  31
ENDBRANCH  26  27
ENDBRANCH  25  26
ENDBRANCH  24  25
ENDBRANCH   1  24
TORSDOF 15
ENDMDL
