MODEL 1
REMARK VINA RESULT:     -11.6      0.000      0.000
REMARK SMILES Cc1ccc(C)c(NC(=O)/C=C/C(=O)NCCCCNC(=O)c2ccc(-c3c4nc(c(-c5ccccc5)c5ccc([nH]5)c(-c5ccccc5)c5nc(c(-c6ccccc6)c6ccc3[nH]6)C=C5)C=C4)cc2)c1
REMARK SMILES IDX 17 1 16 2 15 3 13 4 14 5 12 7 11 8 9 9 8 10 10 12 7 13 1 14
REMARK SMILES IDX 2 15 3 16 71 17 4 18 5 19 6 20 18 21 19 22 20 23 21 24 22 26
REMARK SMILES IDX 23 27 24 28 70 29 25 30 69 31 26 32 27 33 28 34 63 35 29 36
REMARK SMILES IDX 68 37 62 38 64 39 30 40 67 41 61 42 60 43 31 45 53 46 38 47
REMARK SMILES IDX 52 48 39 49 42 50 51 51 65 52 40 53 41 54 50 56 66 57 43 58
REMARK SMILES IDX 32 59 33 60 37 61 34 62 36 63 35 64 54 65 55 66 59 67 56 68
REMARK SMILES IDX 58 69 57 70 44 71 45 72 49 73 46 74 48 75 47 76
REMARK H PARENT 15 6 8 11 20 25 64 44 42 55
REMARK Flexibility Score: inf
ROOT
ATOM      1  C   UNL A   1      34.022  26.381  24.542  1.00  0.00     0.023 C 
ENDROOT
BRANCH   1   2
ATOM      2  C   UNL A   1      34.224  25.127  25.389  1.00  0.00     0.116 C 
BRANCH   2   3
ATOM      3  N   UNL A   1      35.359  24.380  24.905  1.00  0.00    -0.353 N 
ATOM      4  C   UNL A   1      35.369  23.028  24.777  1.00  0.00     0.244 C 
ATOM      5  O   UNL A   1      36.391  22.409  25.020  1.00  0.00    -0.270 OA
ATOM      6  H   UNL A   1      36.170  24.877  24.652  1.00  0.00     0.163 HD
BRANCH   4   7
ATOM      7  C   UNL A   1      34.129  22.402  24.265  1.00  0.00     0.077 C 
ATOM      8  C   UNL A   1      33.608  22.773  23.086  1.00  0.00     0.077 C 
BRANCH   8   9
ATOM      9  C   UNL A   1      32.259  22.290  22.762  1.00  0.00     0.248 C 
ATOM     10  N   UNL A   1      31.144  22.994  23.116  1.00  0.00    -0.322 N 
ATOM     11  H   UNL A   1      30.338  22.637  22.678  1.00  0.00     0.170 HD
ATOM     12  O   UNL A   1      32.139  21.260  22.096  1.00  0.00    -0.270 OA
BRANCH  10  13
ATOM     13  C   UNL A   1      30.838  24.102  23.946  1.00  0.00     0.044 A 
ATOM     14  C   UNL A   1      29.887  27.748  23.190  1.00  0.00     0.044 C 
ATOM     15  C   UNL A   1      30.301  26.509  23.924  1.00  0.00    -0.049 A 
ATOM     16  C   UNL A   1      30.333  26.540  25.312  1.00  0.00     0.004 A 
ATOM     17  C   UNL A   1      30.592  25.307  23.254  1.00  0.00     0.029 A 
ATOM     18  C   UNL A   1      30.522  25.363  26.010  1.00  0.00     0.006 A 
ATOM     19  C   UNL A   1      30.677  24.133  25.339  1.00  0.00    -0.027 A 
ATOM     20  C   UNL A   1      30.559  22.951  26.235  1.00  0.00     0.046 C 
ENDBRANCH  10  13
ENDBRANCH   8   9
ENDBRANCH   4   7
ENDBRANCH   2   3
ENDBRANCH   1   2
BRANCH   1  21
ATOM     21  C   UNL A   1      33.592  27.663  25.274  1.00  0.00     0.023 C 
BRANCH  21  22
ATOM     22  C   UNL A   1      33.375  28.942  24.463  1.00  0.00     0.116 C 
BRANCH  22  23
ATOM     23  N   UNL A   1      32.418  29.875  25.046  1.00  0.00    -0.352 N 
ATOM     24  C   UNL A   1      32.305  30.592  26.216  1.00  0.00     0.251 C 
ATOM     25  H   UNL A   1      31.653  30.033  24.447  1.00  0.00     0.163 HD
ATOM     26  O   UNL A   1      31.222  31.132  26.443  1.00  0.00    -0.269 OA
BRANCH  24  27
ATOM     27  C   UNL A   1      33.410  30.809  27.182  1.00  0.00     0.039 A 
ATOM     28  C   UNL A   1      33.737  32.106  27.625  1.00  0.00     0.014 A 
ATOM     29  C   UNL A   1      34.190  29.769  27.634  1.00  0.00     0.014 A 
ATOM     30  C   UNL A   1      34.940  32.340  28.315  1.00  0.00     0.010 A 
ATOM     31  C   UNL A   1      35.226  29.981  28.493  1.00  0.00     0.010 A 
ATOM     32  C   UNL A   1      35.734  31.253  28.664  1.00  0.00    -0.014 A 
BRANCH  32  33
ATOM     33  C   UNL A   1      37.059  31.302  29.273  1.00  0.00     0.031 A 
ATOM     34  C   UNL A   1      37.824  30.043  29.082  1.00  0.00     0.074 A 
ATOM     35  C   UNL A   1      37.736  32.440  29.547  1.00  0.00     0.049 A 
ATOM     36  N   UNL A   1      37.821  29.012  29.863  1.00  0.00    -0.248 NA
ATOM     37  C   UNL A   1      38.408  29.785  27.747  1.00  0.00     0.031 C 
ATOM     38  C   UNL A   1      37.353  33.838  29.324  1.00  0.00     0.029 A 
ATOM     39  N   UNL A   1      39.017  32.553  30.002  1.00  0.00    -0.354 N 
ATOM     40  C   UNL A   1      38.580  28.069  29.183  1.00  0.00     0.074 A 
ATOM     41  C   UNL A   1      38.512  28.458  27.804  1.00  0.00     0.031 C 
ATOM     42  C   UNL A   1      38.445  34.633  29.472  1.00  0.00     0.029 A 
ATOM     43  C   UNL A   1      39.576  33.822  29.899  1.00  0.00     0.049 A 
ATOM     44  H   UNL A   1      39.512  31.790  30.377  1.00  0.00     0.167 HD
ATOM     45  C   UNL A   1      39.545  27.328  29.801  1.00  0.00     0.031 A 
ATOM     46  C   UNL A   1      40.883  34.140  30.101  1.00  0.00     0.031 A 
ATOM     47  C   UNL A   1      39.517  27.547  31.233  1.00  0.00     0.049 A 
ATOM     48  C   UNL A   1      41.521  32.989  30.793  1.00  0.00     0.074 A 
ATOM     49  C   UNL A   1      38.558  27.453  32.222  1.00  0.00     0.029 A 
ATOM     50  N   UNL A   1      40.507  28.357  31.745  1.00  0.00    -0.354 N 
ATOM     51  N   UNL A   1      41.268  32.652  32.023  1.00  0.00    -0.248 NA
ATOM     52  C   UNL A   1      42.122  31.946  29.975  1.00  0.00     0.031 C 
ATOM     53  C   UNL A   1      38.799  28.566  33.081  1.00  0.00     0.029 A 
ATOM     54  C   UNL A   1      39.935  29.236  32.624  1.00  0.00     0.049 A 
ATOM     55  H   UNL A   1      41.464  28.311  31.518  1.00  0.00     0.167 HD
ATOM     56  C   UNL A   1      41.243  31.264  32.011  1.00  0.00     0.074 A 
ATOM     57  C   UNL A   1      41.888  30.887  30.755  1.00  0.00     0.031 C 
ATOM     58  C   UNL A   1      40.434  30.572  32.867  1.00  0.00     0.031 A 
BRANCH  45  59
ATOM     59  C   UNL A   1      40.798  26.809  29.109  1.00  0.00    -0.014 A 
ATOM     60  C   UNL A   1      40.736  25.537  28.514  1.00  0.00     0.009 A 
ATOM     61  C   UNL A   1      42.081  27.381  29.202  1.00  0.00     0.009 A 
ATOM     62  C   UNL A   1      41.894  24.828  28.175  1.00  0.00     0.001 A 
ATOM     63  C   UNL A   1      43.240  26.692  28.835  1.00  0.00     0.001 A 
ATOM     64  C   UNL A   1      43.148  25.398  28.357  1.00  0.00     0.000 A 
ENDBRANCH  45  59
BRANCH  46  65
ATOM     65  C   UNL A   1      41.718  35.247  29.572  1.00  0.00    -0.014 A 
ATOM     66  C   UNL A   1      42.923  35.599  30.209  1.00  0.00     0.009 A 
ATOM     67  C   UNL A   1      41.484  35.774  28.292  1.00  0.00     0.009 A 
ATOM     68  C   UNL A   1      43.878  36.400  29.567  1.00  0.00     0.001 A 
ATOM     69  C   UNL A   1      42.436  36.580  27.653  1.00  0.00     0.001 A 
ATOM     70  C   UNL A   1      43.641  36.877  28.282  1.00  0.00     0.000 A 
ENDBRANCH  46  65
BRANCH  58  71
ATOM     71  C   UNL A   1      39.813  31.323  34.019  1.00  0.00    -0.014 A 
ATOM     72  C   UNL A   1      38.560  31.958  33.950  1.00  0.00     0.009 A 
ATOM     73  C   UNL A   1      40.460  31.266  35.262  1.00  0.00     0.009 A 
ATOM     74  C   UNL A   1      37.994  32.548  35.085  1.00  0.00     0.001 A 
ATOM     75  C   UNL A   1      39.884  31.834  36.399  1.00  0.00     0.001 A 
ATOM     76  C   UNL A   1      38.654  32.481  36.309  1.00  0.00     0.000 A 
ENDBRANCH  58  71
ENDBRANCH  32  33
ENDBRANCH  24  27
ENDBRANCH  22  23
ENDBRANCH  21  22
ENDBRANCH   1  21
TORSDOF 13
ENDMDL
MODEL 2
REMARK VINA RESULT:     -11.5      3.451      8.444
REMARK SMILES Cc1ccc(C)c(NC(=O)/C=C/C(=O)NCCCCNC(=O)c2ccc(-c3c4nc(c(-c5ccccc5)c5ccc([nH]5)c(-c5ccccc5)c5nc(c(-c6ccccc6)c6ccc3[nH]6)C=C5)C=C4)cc2)c1
REMARK SMILES IDX 17 1 16 2 15 3 13 4 14 5 12 7 11 8 9 9 8 10 10 12 7 13 1 14
REMARK SMILES IDX 2 15 3 16 71 17 4 18 5 19 6 20 18 21 19 22 20 23 21 24 22 26
REMARK SMILES IDX 23 27 24 28 70 29 25 30 69 31 26 32 27 33 28 34 63 35 29 36
REMARK SMILES IDX 68 37 62 38 64 39 30 40 67 41 61 42 60 43 31 45 53 46 38 47
REMARK SMILES IDX 52 48 39 49 42 50 51 51 65 52 40 53 41 54 50 56 66 57 43 58
REMARK SMILES IDX 32 59 33 60 37 61 34 62 36 63 35 64 54 65 55 66 59 67 56 68
REMARK SMILES IDX 58 69 57 70 44 71 45 72 49 73 46 74 48 75 47 76
REMARK H PARENT 15 6 8 11 20 25 64 44 42 55
REMARK Flexibility Score: inf
ROOT
ATOM      1  C   UNL A   1      34.653  24.672  23.407  1.00  0.00     0.023 C 
ENDROOT
BRANCH   1   2
ATOM      2  C   UNL A   1      33.213  25.025  23.041  1.00  0.00     0.116 C 
BRANCH   2   3
ATOM      3  N   UNL A   1      32.861  26.307  23.601  1.00  0.00    -0.353 N 
ATOM      4  C   UNL A   1      31.834  26.488  24.473  1.00  0.00     0.244 C 
ATOM      5  O   UNL A   1      31.166  27.507  24.409  1.00  0.00    -0.270 OA
ATOM      6  H   UNL A   1      33.393  27.092  23.340  1.00  0.00     0.163 HD
BRANCH   4   7
ATOM      7  C   UNL A   1      31.650  25.445  25.506  1.00  0.00     0.077 C 
ATOM      8  C   UNL A   1      30.692  24.515  25.380  1.00  0.00     0.077 C 
BRANCH   8   9
ATOM      9  C   UNL A   1      30.413  23.670  26.550  1.00  0.00     0.248 C 
ATOM     10  N   UNL A   1      31.198  22.598  26.861  1.00  0.00    -0.322 N 
ATOM     11  H   UNL A   1      30.992  22.247  27.757  1.00  0.00     0.170 HD
ATOM     12  O   UNL A   1      29.487  23.981  27.302  1.00  0.00    -0.270 OA
BRANCH  10  13
ATOM     13  C   UNL A   1      32.233  21.856  26.236  1.00  0.00     0.044 A 
ATOM     14  C   UNL A   1      32.301  19.537  23.173  1.00  0.00     0.044 C 
ATOM     15  C   UNL A   1      32.707  20.250  24.426  1.00  0.00    -0.049 A 
ATOM     16  C   UNL A   1      34.026  20.145  24.850  1.00  0.00     0.004 A 
ATOM     17  C   UNL A   1      31.816  21.069  25.141  1.00  0.00     0.029 A 
ATOM     18  C   UNL A   1      34.467  20.943  25.887  1.00  0.00     0.006 A 
ATOM     19  C   UNL A   1      33.607  21.865  26.516  1.00  0.00    -0.027 A 
ATOM     20  C   UNL A   1      34.320  22.843  27.383  1.00  0.00     0.046 C 
ENDBRANCH  10  13
ENDBRANCH   8   9
ENDBRANCH   4   7
ENDBRANCH   2   3
ENDBRANCH   1   2
BRANCH   1  21
ATOM     21  C   UNL A   1      35.097  23.216  23.188  1.00  0.00     0.023 C 
BRANCH  21  22
ATOM     22  C   UNL A   1      36.591  22.887  23.210  1.00  0.00     0.116 C 
BRANCH  22  23
ATOM     23  N   UNL A   1      36.919  21.596  23.803  1.00  0.00    -0.352 N 
ATOM     24  C   UNL A   1      37.776  21.129  24.775  1.00  0.00     0.251 C 
ATOM     25  H   UNL A   1      36.390  20.868  23.404  1.00  0.00     0.163 HD
ATOM     26  O   UNL A   1      37.920  19.909  24.859  1.00  0.00    -0.269 OA
BRANCH  24  27
ATOM     27  C   UNL A   1      38.480  21.987  25.760  1.00  0.00     0.039 A 
ATOM     28  C   UNL A   1      37.928  23.215  26.173  1.00  0.00     0.014 A 
ATOM     29  C   UNL A   1      39.715  21.646  26.262  1.00  0.00     0.014 A 
ATOM     30  C   UNL A   1      38.709  24.143  26.885  1.00  0.00     0.010 A 
ATOM     31  C   UNL A   1      40.372  22.456  27.138  1.00  0.00     0.010 A 
ATOM     32  C   UNL A   1      39.988  23.774  27.284  1.00  0.00    -0.014 A 
BRANCH  32  33
ATOM     33  C   UNL A   1      40.982  24.630  27.924  1.00  0.00     0.031 A 
ATOM     34  C   UNL A   1      40.471  25.997  28.196  1.00  0.00     0.074 A 
ATOM     35  C   UNL A   1      42.042  24.177  28.633  1.00  0.00     0.049 A 
ATOM     36  N   UNL A   1      40.530  27.016  27.402  1.00  0.00    -0.248 NA
ATOM     37  C   UNL A   1      39.538  26.173  29.331  1.00  0.00     0.031 C 
ATOM     38  C   UNL A   1      42.454  22.802  28.932  1.00  0.00     0.029 A 
ATOM     39  N   UNL A   1      42.935  24.917  29.351  1.00  0.00    -0.354 N 
ATOM     40  C   UNL A   1      39.808  28.002  28.060  1.00  0.00     0.074 A 
ATOM     41  C   UNL A   1      38.930  27.294  28.946  1.00  0.00     0.031 C 
ATOM     42  C   UNL A   1      43.395  22.816  29.912  1.00  0.00     0.029 A 
ATOM     43  C   UNL A   1      43.729  24.196  30.237  1.00  0.00     0.049 A 
ATOM     44  H   UNL A   1      43.012  25.892  29.251  1.00  0.00     0.167 HD
ATOM     45  C   UNL A   1      40.261  29.285  28.172  1.00  0.00     0.031 A 
ATOM     46  C   UNL A   1      44.545  24.721  31.189  1.00  0.00     0.031 A 
ATOM     47  C   UNL A   1      41.459  29.472  27.380  1.00  0.00     0.049 A 
ATOM     48  C   UNL A   1      44.717  26.166  30.883  1.00  0.00     0.074 A 
ATOM     49  C   UNL A   1      41.802  29.276  26.056  1.00  0.00     0.029 A 
ATOM     50  N   UNL A   1      42.648  29.516  28.075  1.00  0.00    -0.354 N 
ATOM     51  N   UNL A   1      45.386  26.616  29.863  1.00  0.00    -0.248 NA
ATOM     52  C   UNL A   1      43.777  27.108  31.473  1.00  0.00     0.031 C 
ATOM     53  C   UNL A   1      43.131  28.756  26.089  1.00  0.00     0.029 A 
ATOM     54  C   UNL A   1      43.561  28.736  27.417  1.00  0.00     0.049 A 
ATOM     55  H   UNL A   1      42.814  30.022  28.903  1.00  0.00     0.167 HD
ATOM     56  C   UNL A   1      44.645  27.696  29.403  1.00  0.00     0.074 A 
ATOM     57  C   UNL A   1      43.733  28.020  30.498  1.00  0.00     0.031 C 
ATOM     58  C   UNL A   1      44.631  28.020  28.076  1.00  0.00     0.031 A 
BRANCH  45  59
ATOM     59  C   UNL A   1      39.937  30.206  29.339  1.00  0.00    -0.014 A 
ATOM     60  C   UNL A   1      40.631  30.003  30.544  1.00  0.00     0.009 A 
ATOM     61  C   UNL A   1      38.849  31.097  29.401  1.00  0.00     0.009 A 
ATOM     62  C   UNL A   1      40.173  30.537  31.754  1.00  0.00     0.001 A 
ATOM     63  C   UNL A   1      38.405  31.661  30.600  1.00  0.00     0.001 A 
ATOM     64  C   UNL A   1      39.046  31.348  31.785  1.00  0.00     0.000 A 
ENDBRANCH  45  59
BRANCH  46  65
ATOM     65  C   UNL A   1      45.034  24.169  32.477  1.00  0.00    -0.014 A 
ATOM     66  C   UNL A   1      46.148  24.741  33.121  1.00  0.00     0.009 A 
ATOM     67  C   UNL A   1      44.250  23.269  33.217  1.00  0.00     0.009 A 
ATOM     68  C   UNL A   1      46.432  24.463  34.467  1.00  0.00     0.001 A 
ATOM     69  C   UNL A   1      44.537  22.988  34.559  1.00  0.00     0.001 A 
ATOM     70  C   UNL A   1      45.617  23.599  35.189  1.00  0.00     0.000 A 
ENDBRANCH  46  65
BRANCH  58  71
ATOM     71  C   UNL A   1      45.668  27.387  27.181  1.00  0.00    -0.014 A 
ATOM     72  C   UNL A   1      45.499  26.137  26.557  1.00  0.00     0.009 A 
ATOM     73  C   UNL A   1      46.798  28.147  26.848  1.00  0.00     0.009 A 
ATOM     74  C   UNL A   1      46.454  25.653  25.656  1.00  0.00     0.001 A 
ATOM     75  C   UNL A   1      47.738  27.674  25.931  1.00  0.00     0.001 A 
ATOM     76  C   UNL A   1      47.570  26.425  25.340  1.00  0.00     0.000 A 
ENDBRANCH  58  71
ENDBRANCH  32  33
ENDBRANCH  24  27
ENDBRANCH  22  23
ENDBRANCH  21  22
ENDBRANCH   1  21
TORSDOF 13
ENDMDL
MODEL 3
REMARK VINA RESULT:     -11.3      2.740      6.612
REMARK SMILES Cc1ccc(C)c(NC(=O)/C=C/C(=O)NCCCCNC(=O)c2ccc(-c3c4nc(c(-c5ccccc5)c5ccc([nH]5)c(-c5ccccc5)c5nc(c(-c6ccccc6)c6ccc3[nH]6)C=C5)C=C4)cc2)c1
REMARK SMILES IDX 17 1 16 2 15 3 13 4 14 5 12 7 11 8 9 9 8 10 10 12 7 13 1 14
REMARK SMILES IDX 2 15 3 16 71 17 4 18 5 19 6 20 18 21 19 22 20 23 21 24 22 26
REMARK SMILES IDX 23 27 24 28 70 29 25 30 69 31 26 32 27 33 28 34 63 35 29 36
REMARK SMILES IDX 68 37 62 38 64 39 30 40 67 41 61 42 60 43 31 45 53 46 38 47
REMARK SMILES IDX 52 48 39 49 42 50 51 51 65 52 40 53 41 54 50 56 66 57 43 58
REMARK SMILES IDX 32 59 33 60 37 61 34 62 36 63 35 64 54 65 55 66 59 67 56 68
REMARK SMILES IDX 58 69 57 70 44 71 45 72 49 73 46 74 48 75 47 76
REMARK H PARENT 15 6 8 11 20 25 64 44 42 55
REMARK Flexibility Score: inf
ROOT
ATOM      1  C   UNL A   1      33.729  26.673  25.925  1.00  0.00     0.023 C 
ENDROOT
BRANCH   1   2
ATOM      2  C   UNL A   1      32.887  25.456  25.548  1.00  0.00     0.116 C 
BRANCH   2   3
ATOM      3  N   UNL A   1      32.078  25.048  26.671  1.00  0.00    -0.353 N 
ATOM      4  C   UNL A   1      31.491  23.827  26.768  1.00  0.00     0.244 C 
ATOM      5  O   UNL A   1      30.388  23.731  27.279  1.00  0.00    -0.270 OA
ATOM      6  H   UNL A   1      31.946  25.688  27.407  1.00  0.00     0.163 HD
BRANCH   4   7
ATOM      7  C   UNL A   1      32.288  22.669  26.305  1.00  0.00     0.077 C 
ATOM      8  C   UNL A   1      31.862  21.903  25.290  1.00  0.00     0.077 C 
BRANCH   8   9
ATOM      9  C   UNL A   1      32.577  20.642  25.050  1.00  0.00     0.248 C 
ATOM     10  N   UNL A   1      33.928  20.611  24.865  1.00  0.00    -0.322 N 
ATOM     11  H   UNL A   1      34.276  19.691  24.894  1.00  0.00     0.170 HD
ATOM     12  O   UNL A   1      31.945  19.584  25.083  1.00  0.00    -0.270 OA
BRANCH  10  13
ATOM     13  C   UNL A   1      34.966  21.552  24.643  1.00  0.00     0.044 A 
ATOM     14  C   UNL A   1      38.632  21.716  25.784  1.00  0.00     0.044 C 
ATOM     15  C   UNL A   1      37.301  22.102  25.214  1.00  0.00    -0.049 A 
ATOM     16  C   UNL A   1      37.200  23.301  24.521  1.00  0.00     0.004 A 
ATOM     17  C   UNL A   1      36.179  21.260  25.304  1.00  0.00     0.029 A 
ATOM     18  C   UNL A   1      36.040  23.584  23.826  1.00  0.00     0.006 A 
ATOM     19  C   UNL A   1      34.963  22.675  23.803  1.00  0.00    -0.027 A 
ATOM     20  C   UNL A   1      33.940  22.996  22.771  1.00  0.00     0.046 C 
ENDBRANCH  10  13
ENDBRANCH   8   9
ENDBRANCH   4   7
ENDBRANCH   2   3
ENDBRANCH   1   2
BRANCH   1  21
ATOM     21  C   UNL A   1      33.005  28.026  26.020  1.00  0.00     0.023 C 
BRANCH  21  22
ATOM     22  C   UNL A   1      33.102  28.828  27.320  1.00  0.00     0.116 C 
BRANCH  22  23
ATOM     23  N   UNL A   1      33.428  30.237  27.140  1.00  0.00    -0.352 N 
ATOM     24  C   UNL A   1      34.418  31.098  27.561  1.00  0.00     0.251 C 
ATOM     25  H   UNL A   1      32.768  30.694  26.570  1.00  0.00     0.163 HD
ATOM     26  O   UNL A   1      34.240  32.300  27.364  1.00  0.00    -0.269 OA
BRANCH  24  27
ATOM     27  C   UNL A   1      35.702  30.672  28.170  1.00  0.00     0.039 A 
ATOM     28  C   UNL A   1      36.471  31.570  28.936  1.00  0.00     0.014 A 
ATOM     29  C   UNL A   1      36.217  29.412  27.965  1.00  0.00     0.014 A 
ATOM     30  C   UNL A   1      37.799  31.257  29.279  1.00  0.00     0.010 A 
ATOM     31  C   UNL A   1      37.414  29.040  28.498  1.00  0.00     0.010 A 
ATOM     32  C   UNL A   1      38.293  29.998  28.961  1.00  0.00    -0.014 A 
BRANCH  32  33
ATOM     33  C   UNL A   1      39.666  29.532  29.129  1.00  0.00     0.031 A 
ATOM     34  C   UNL A   1      40.036  29.346  30.556  1.00  0.00     0.074 A 
ATOM     35  C   UNL A   1      40.376  28.880  28.181  1.00  0.00     0.049 A 
ATOM     36  N   UNL A   1      40.549  30.235  31.342  1.00  0.00    -0.248 NA
ATOM     37  C   UNL A   1      39.509  28.154  31.258  1.00  0.00     0.031 C 
ATOM     38  C   UNL A   1      39.992  28.490  26.821  1.00  0.00     0.029 A 
ATOM     39  N   UNL A   1      41.612  28.316  28.312  1.00  0.00    -0.354 N 
ATOM     40  C   UNL A   1      40.584  29.612  32.582  1.00  0.00     0.074 A 
ATOM     41  C   UNL A   1      39.581  28.589  32.515  1.00  0.00     0.031 C 
ATOM     42  C   UNL A   1      40.898  27.603  26.333  1.00  0.00     0.029 A 
ATOM     43  C   UNL A   1      41.977  27.440  27.296  1.00  0.00     0.049 A 
ATOM     44  H   UNL A   1      42.203  28.514  29.074  1.00  0.00     0.167 HD
ATOM     45  C   UNL A   1      41.681  29.662  33.393  1.00  0.00     0.031 A 
ATOM     46  C   UNL A   1      43.061  26.617  27.300  1.00  0.00     0.031 A 
ATOM     47  C   UNL A   1      42.671  30.571  32.853  1.00  0.00     0.049 A 
ATOM     48  C   UNL A   1      43.964  27.072  28.390  1.00  0.00     0.074 A 
ATOM     49  C   UNL A   1      42.678  31.895  32.460  1.00  0.00     0.029 A 
ATOM     50  N   UNL A   1      43.761  29.991  32.241  1.00  0.00    -0.354 N 
ATOM     51  N   UNL A   1      44.635  28.186  28.358  1.00  0.00    -0.248 NA
ATOM     52  C   UNL A   1      43.785  26.493  29.714  1.00  0.00     0.031 C 
ATOM     53  C   UNL A   1      43.488  31.930  31.285  1.00  0.00     0.029 A 
ATOM     54  C   UNL A   1      43.998  30.649  31.066  1.00  0.00     0.049 A 
ATOM     55  H   UNL A   1      44.283  29.232  32.591  1.00  0.00     0.167 HD
ATOM     56  C   UNL A   1      44.564  28.678  29.654  1.00  0.00     0.074 A 
ATOM     57  C   UNL A   1      44.131  27.543  30.465  1.00  0.00     0.031 C 
ATOM     58  C   UNL A   1      44.566  30.023  29.891  1.00  0.00     0.031 A 
BRANCH  45  59
ATOM     59  C   UNL A   1      42.071  28.563  34.370  1.00  0.00    -0.014 A 
ATOM     60  C   UNL A   1      42.719  27.428  33.853  1.00  0.00     0.009 A 
ATOM     61  C   UNL A   1      41.646  28.468  35.709  1.00  0.00     0.009 A 
ATOM     62  C   UNL A   1      42.799  26.233  34.578  1.00  0.00     0.001 A 
ATOM     63  C   UNL A   1      41.751  27.289  36.451  1.00  0.00     0.001 A 
ATOM     64  C   UNL A   1      42.294  26.158  35.870  1.00  0.00     0.000 A 
ENDBRANCH  45  59
BRANCH  46  65
ATOM     65  C   UNL A   1      43.319  25.331  26.607  1.00  0.00    -0.014 A 
ATOM     66  C   UNL A   1      42.332  24.328  26.571  1.00  0.00     0.009 A 
ATOM     67  C   UNL A   1      44.418  25.189  25.743  1.00  0.00     0.009 A 
ATOM     68  C   UNL A   1      42.415  23.257  25.670  1.00  0.00     0.001 A 
ATOM     69  C   UNL A   1      44.503  24.115  24.847  1.00  0.00     0.001 A 
ATOM     70  C   UNL A   1      43.493  23.160  24.797  1.00  0.00     0.000 A 
ENDBRANCH  46  65
BRANCH  58  71
ATOM     71  C   UNL A   1      44.955  30.943  28.760  1.00  0.00    -0.014 A 
ATOM     72  C   UNL A   1      44.057  31.385  27.773  1.00  0.00     0.009 A 
ATOM     73  C   UNL A   1      46.247  31.490  28.776  1.00  0.00     0.009 A 
ATOM     74  C   UNL A   1      44.456  32.320  26.810  1.00  0.00     0.001 A 
ATOM     75  C   UNL A   1      46.636  32.440  27.831  1.00  0.00     0.001 A 
ATOM     76  C   UNL A   1      45.744  32.850  26.844  1.00  0.00     0.000 A 
ENDBRANCH  58  71
ENDBRANCH  32  33
ENDBRANCH  24  27
ENDBRANCH  22  23
ENDBRANCH  21  22
ENDBRANCH   1  21
TORSDOF 13
ENDMDL
