MODEL 1
REMARK VINA RESULT:     -10.8      0.000      0.000
REMARK SMILES COc1cc(OC)c([C@H]2CC[NH2+][C@H]2C(=O)NCCCCNC(=O)c2ccc(-c3c4nc(c(-c5ccccc5)c5ccc([nH]5)c(-c5ccccc5)c5nc(c(-c6ccccc6)c6ccc3[nH]6)C=C5)C=C4)cc2)cc1OC
REMARK SMILES IDX 18 1 17 2 16 3 14 4 15 5 13 7 9 8 10 9 11 10 12 11 8 14 3 15
REMARK SMILES IDX 4 16 73 17 5 18 72 19 2 20 1 21 74 22 75 23 6 24 7 25 19 26
REMARK SMILES IDX 20 27 21 28 22 29 23 31 24 32 25 33 71 34 26 35 70 36 27 37
REMARK SMILES IDX 28 38 29 39 64 40 30 41 69 42 63 43 65 44 31 45 68 46 62 47
REMARK SMILES IDX 61 48 32 50 54 51 39 52 53 53 40 54 43 55 52 56 66 57 41 58
REMARK SMILES IDX 42 59 51 61 67 62 44 63 33 64 34 65 38 66 35 67 37 68 36 69
REMARK SMILES IDX 55 70 56 71 60 72 57 73 59 74 58 75 45 76 46 77 50 78 47 79
REMARK SMILES IDX 49 80 48 81
REMARK H PARENT 16 6 12 12 12 13 21 30 65 49 43 60
REMARK Flexibility Score: inf
ROOT
ATOM      1  C   UNL A   1      37.522  21.223  24.884  1.00  0.00     0.023 C 
ENDROOT
BRANCH   1   2
ATOM      2  C   UNL A   1      36.013  21.070  25.040  1.00  0.00     0.116 C 
BRANCH   2   3
ATOM      3  N   UNL A   1      35.509  21.624  26.276  1.00  0.00    -0.351 N 
ATOM      4  C   UNL A   1      34.305  21.516  26.898  1.00  0.00     0.278 C 
ATOM      5  O   UNL A   1      34.235  22.018  28.027  1.00  0.00    -0.268 OA
ATOM      6  H   UNL A   1      36.159  22.184  26.758  1.00  0.00     0.163 HD
BRANCH   4   7
ATOM      7  C   UNL A   1      33.066  20.806  26.290  1.00  0.00     0.280 C 
ATOM      8  C   UNL A   1      32.188  21.501  25.214  1.00  0.00     0.097 C 
ATOM      9  C   UNL A   1      32.580  20.732  23.945  1.00  0.00     0.076 C 
ATOM     10  C   UNL A   1      32.941  19.338  24.423  1.00  0.00     0.262 C 
ATOM     11  N   UNL A   1      33.454  19.464  25.780  1.00  0.00    -0.335 N 
ATOM     12  H   UNL A   1      34.470  19.375  25.777  1.00  0.00     0.346 HD
ATOM     13  H   UNL A   1      33.069  18.732  26.376  1.00  0.00     0.346 HD
BRANCH   8  14
ATOM     14  C   UNL A   1      32.155  23.027  25.150  1.00  0.00     0.008 A 
ATOM     15  C   UNL A   1      31.849  25.836  24.757  1.00  0.00     0.164 A 
ATOM     16  C   UNL A   1      31.328  25.216  25.896  1.00  0.00     0.097 A 
ATOM     17  C   UNL A   1      32.610  25.082  23.866  1.00  0.00     0.161 A 
ATOM     18  C   UNL A   1      31.511  23.837  26.104  1.00  0.00     0.126 A 
ATOM     19  C   UNL A   1      32.794  23.711  24.099  1.00  0.00     0.058 A 
BRANCH  15  20
ATOM     20  O   UNL A   1      31.760  27.196  24.629  1.00  0.00    -0.493 OA
ATOM     21  C   UNL A   1      30.515  27.620  24.073  1.00  0.00     0.278 C 
ENDBRANCH  15  20
BRANCH  17  22
ATOM     22  O   UNL A   1      33.275  25.565  22.771  1.00  0.00    -0.493 OA
ATOM     23  C   UNL A   1      32.510  25.613  21.573  1.00  0.00     0.278 C 
ENDBRANCH  17  22
BRANCH  18  24
ATOM     24  O   UNL A   1      30.984  23.322  27.260  1.00  0.00    -0.496 OA
ATOM     25  C   UNL A   1      29.573  23.103  27.134  1.00  0.00     0.278 C 
ENDBRANCH  18  24
ENDBRANCH   8  14
ENDBRANCH   4   7
ENDBRANCH   2   3
ENDBRANCH   1   2
BRANCH   1  26
ATOM     26  C   UNL A   1      38.333  19.939  24.994  1.00  0.00     0.023 C 
BRANCH  26  27
ATOM     27  C   UNL A   1      39.339  19.952  26.126  1.00  0.00     0.116 C 
BRANCH  27  28
ATOM     28  N   UNL A   1      40.543  19.193  25.821  1.00  0.00    -0.352 N 
ATOM     29  C   UNL A   1      41.848  19.598  25.907  1.00  0.00     0.251 C 
ATOM     30  H   UNL A   1      40.400  18.268  25.513  1.00  0.00     0.163 HD
ATOM     31  O   UNL A   1      42.755  18.883  25.495  1.00  0.00    -0.269 OA
BRANCH  29  32
ATOM     32  C   UNL A   1      42.140  20.926  26.473  1.00  0.00     0.039 A 
ATOM     33  C   UNL A   1      42.414  21.983  25.605  1.00  0.00     0.014 A 
ATOM     34  C   UNL A   1      42.102  21.129  27.855  1.00  0.00     0.014 A 
ATOM     35  C   UNL A   1      42.621  23.256  26.129  1.00  0.00     0.010 A 
ATOM     36  C   UNL A   1      42.199  22.412  28.364  1.00  0.00     0.010 A 
ATOM     37  C   UNL A   1      42.497  23.482  27.509  1.00  0.00    -0.014 A 
BRANCH  37  38
ATOM     38  C   UNL A   1      42.747  24.821  28.088  1.00  0.00     0.031 A 
ATOM     39  C   UNL A   1      44.144  25.201  28.497  1.00  0.00     0.074 A 
ATOM     40  C   UNL A   1      41.721  25.670  28.274  1.00  0.00     0.049 A 
ATOM     41  N   UNL A   1      44.573  26.318  29.026  1.00  0.00    -0.248 NA
ATOM     42  C   UNL A   1      45.193  24.183  28.316  1.00  0.00     0.031 C 
ATOM     43  C   UNL A   1      40.318  25.391  27.963  1.00  0.00     0.029 A 
ATOM     44  N   UNL A   1      41.707  26.950  28.765  1.00  0.00    -0.354 N 
ATOM     45  C   UNL A   1      45.930  26.125  29.256  1.00  0.00     0.074 A 
ATOM     46  C   UNL A   1      46.240  24.766  28.879  1.00  0.00     0.031 C 
ATOM     47  C   UNL A   1      39.584  26.485  28.229  1.00  0.00     0.029 A 
ATOM     48  C   UNL A   1      40.459  27.523  28.761  1.00  0.00     0.049 A 
ATOM     49  H   UNL A   1      42.512  27.413  29.090  1.00  0.00     0.167 HD
ATOM     50  C   UNL A   1      46.847  27.012  29.710  1.00  0.00     0.031 A 
ATOM     51  C   UNL A   1      40.071  28.756  29.136  1.00  0.00     0.031 A 
ATOM     52  C   UNL A   1      46.538  28.369  30.066  1.00  0.00     0.049 A 
ATOM     53  C   UNL A   1      41.109  29.724  29.633  1.00  0.00     0.074 A 
ATOM     54  C   UNL A   1      47.396  29.368  30.487  1.00  0.00     0.029 A 
ATOM     55  N   UNL A   1      45.264  28.917  30.042  1.00  0.00    -0.354 N 
ATOM     56  N   UNL A   1      42.402  29.553  29.776  1.00  0.00    -0.248 NA
ATOM     57  C   UNL A   1      40.633  31.064  30.001  1.00  0.00     0.031 C 
ATOM     58  C   UNL A   1      46.634  30.507  30.766  1.00  0.00     0.029 A 
ATOM     59  C   UNL A   1      45.310  30.235  30.458  1.00  0.00     0.049 A 
ATOM     60  H   UNL A   1      44.449  28.438  29.768  1.00  0.00     0.167 HD
ATOM     61  C   UNL A   1      42.898  30.772  30.220  1.00  0.00     0.074 A 
ATOM     62  C   UNL A   1      41.769  31.677  30.299  1.00  0.00     0.031 C 
ATOM     63  C   UNL A   1      44.172  31.115  30.535  1.00  0.00     0.031 A 
BRANCH  50  64
ATOM     64  C   UNL A   1      48.265  26.529  29.844  1.00  0.00    -0.014 A 
ATOM     65  C   UNL A   1      48.700  25.854  30.998  1.00  0.00     0.009 A 
ATOM     66  C   UNL A   1      49.178  26.742  28.801  1.00  0.00     0.009 A 
ATOM     67  C   UNL A   1      50.030  25.443  31.120  1.00  0.00     0.001 A 
ATOM     68  C   UNL A   1      50.498  26.299  28.912  1.00  0.00     0.001 A 
ATOM     69  C   UNL A   1      50.924  25.661  30.075  1.00  0.00     0.000 A 
ENDBRANCH  50  64
BRANCH  51  70
ATOM     70  C   UNL A   1      38.645  29.158  29.027  1.00  0.00    -0.014 A 
ATOM     71  C   UNL A   1      38.144  29.691  27.829  1.00  0.00     0.009 A 
ATOM     72  C   UNL A   1      37.778  29.023  30.123  1.00  0.00     0.009 A 
ATOM     73  C   UNL A   1      36.815  30.115  27.742  1.00  0.00     0.001 A 
ATOM     74  C   UNL A   1      36.442  29.419  30.024  1.00  0.00     0.001 A 
ATOM     75  C   UNL A   1      35.965  29.975  28.838  1.00  0.00     0.000 A 
ENDBRANCH  51  70
BRANCH  63  76
ATOM     76  C   UNL A   1      44.409  32.538  30.956  1.00  0.00    -0.014 A 
ATOM     77  C   UNL A   1      44.679  33.545  30.016  1.00  0.00     0.009 A 
ATOM     78  C   UNL A   1      44.347  32.877  32.317  1.00  0.00     0.009 A 
ATOM     79  C   UNL A   1      44.932  34.852  30.435  1.00  0.00     0.001 A 
ATOM     80  C   UNL A   1      44.565  34.192  32.729  1.00  0.00     0.001 A 
ATOM     81  C   UNL A   1      44.871  35.174  31.791  1.00  0.00     0.000 A 
ENDBRANCH  63  76
ENDBRANCH  37  38
ENDBRANCH  29  32
ENDBRANCH  27  28
ENDBRANCH  26  27
ENDBRANCH   1  26
TORSDOF 15
ENDMDL
MODEL 2
REMARK VINA RESULT:     -10.7      0.476      5.903
REMARK SMILES COc1cc(OC)c([C@H]2CC[NH2+][C@H]2C(=O)NCCCCNC(=O)c2ccc(-c3c4nc(c(-c5ccccc5)c5ccc([nH]5)c(-c5ccccc5)c5nc(c(-c6ccccc6)c6ccc3[nH]6)C=C5)C=C4)cc2)cc1OC
REMARK SMILES IDX 18 1 17 2 16 3 14 4 15 5 13 7 9 8 10 9 11 10 12 11 8 14 3 15
REMARK SMILES IDX 4 16 73 17 5 18 72 19 2 20 1 21 74 22 75 23 6 24 7 25 19 26
REMARK SMILES IDX 20 27 21 28 22 29 23 31 24 32 25 33 71 34 26 35 70 36 27 37
REMARK SMILES IDX 28 38 29 39 64 40 30 41 69 42 63 43 65 44 31 45 68 46 62 47
REMARK SMILES IDX 61 48 32 50 54 51 39 52 53 53 40 54 43 55 52 56 66 57 41 58
REMARK SMILES IDX 42 59 51 61 67 62 44 63 33 64 34 65 38 66 35 67 37 68 36 69
REMARK SMILES IDX 55 70 56 71 60 72 57 73 59 74 58 75 45 76 46 77 50 78 47 79
REMARK SMILES IDX 49 80 48 81
REMARK H PARENT 16 6 12 12 12 13 21 30 65 49 43 60
REMARK Flexibility Score: inf
ROOT
ATOM      1  C   UNL A   1      37.254  21.448  24.337  1.00  0.00     0.023 C 
ENDROOT
BRANCH   1   2
ATOM      2  C   UNL A   1      35.762  21.682  24.551  1.00  0.00     0.116 C 
BRANCH   2   3
ATOM      3  N   UNL A   1      35.408  21.872  25.939  1.00  0.00    -0.351 N 
ATOM      4  C   UNL A   1      34.350  21.440  26.676  1.00  0.00     0.278 C 
ATOM      5  O   UNL A   1      34.409  21.673  27.890  1.00  0.00    -0.268 OA
ATOM      6  H   UNL A   1      36.053  22.415  26.446  1.00  0.00     0.163 HD
BRANCH   4   7
ATOM      7  C   UNL A   1      33.127  20.682  26.093  1.00  0.00     0.280 C 
ATOM      8  C   UNL A   1      32.165  21.366  25.084  1.00  0.00     0.097 C 
ATOM      9  C   UNL A   1      32.543  20.669  23.769  1.00  0.00     0.076 C 
ATOM     10  C   UNL A   1      33.002  19.281  24.176  1.00  0.00     0.262 C 
ATOM     11  N   UNL A   1      33.567  19.386  25.514  1.00  0.00    -0.335 N 
ATOM     12  H   UNL A   1      34.585  19.355  25.465  1.00  0.00     0.346 HD
ATOM     13  H   UNL A   1      33.250  18.610  26.096  1.00  0.00     0.346 HD
BRANCH   8  14
ATOM     14  C   UNL A   1      32.044  22.889  25.082  1.00  0.00     0.008 A 
ATOM     15  C   UNL A   1      31.567  25.688  24.811  1.00  0.00     0.164 A 
ATOM     16  C   UNL A   1      31.114  24.996  25.937  1.00  0.00     0.097 A 
ATOM     17  C   UNL A   1      32.346  25.015  23.872  1.00  0.00     0.161 A 
ATOM     18  C   UNL A   1      31.381  23.622  26.084  1.00  0.00     0.126 A 
ATOM     19  C   UNL A   1      32.614  23.649  24.045  1.00  0.00     0.058 A 
BRANCH  15  20
ATOM     20  O   UNL A   1      31.398  27.045  24.741  1.00  0.00    -0.493 OA
ATOM     21  C   UNL A   1      30.162  27.418  24.132  1.00  0.00     0.278 C 
ENDBRANCH  15  20
BRANCH  17  22
ATOM     22  O   UNL A   1      32.953  25.577  22.781  1.00  0.00    -0.493 OA
ATOM     23  C   UNL A   1      32.142  25.659  21.615  1.00  0.00     0.278 C 
ENDBRANCH  17  22
BRANCH  18  24
ATOM     24  O   UNL A   1      30.916  23.033  27.232  1.00  0.00    -0.496 OA
ATOM     25  C   UNL A   1      29.503  22.803  27.159  1.00  0.00     0.278 C 
ENDBRANCH  18  24
ENDBRANCH   8  14
ENDBRANCH   4   7
ENDBRANCH   2   3
ENDBRANCH   1   2
BRANCH   1  26
ATOM     26  C   UNL A   1      37.811  20.157  24.921  1.00  0.00     0.023 C 
BRANCH  26  27
ATOM     27  C   UNL A   1      38.886  20.379  25.965  1.00  0.00     0.116 C 
BRANCH  27  28
ATOM     28  N   UNL A   1      39.971  19.413  25.872  1.00  0.00    -0.352 N 
ATOM     29  C   UNL A   1      41.308  19.612  26.092  1.00  0.00     0.251 C 
ATOM     30  H   UNL A   1      39.710  18.498  25.620  1.00  0.00     0.163 HD
ATOM     31  O   UNL A   1      42.121  18.727  25.853  1.00  0.00    -0.269 OA
BRANCH  29  32
ATOM     32  C   UNL A   1      41.755  20.925  26.588  1.00  0.00     0.039 A 
ATOM     33  C   UNL A   1      42.140  21.898  25.666  1.00  0.00     0.014 A 
ATOM     34  C   UNL A   1      41.754  21.200  27.958  1.00  0.00     0.014 A 
ATOM     35  C   UNL A   1      42.496  23.164  26.123  1.00  0.00     0.010 A 
ATOM     36  C   UNL A   1      42.001  22.488  28.400  1.00  0.00     0.010 A 
ATOM     37  C   UNL A   1      42.411  23.472  27.491  1.00  0.00    -0.014 A 
BRANCH  37  38
ATOM     38  C   UNL A   1      42.818  24.801  27.999  1.00  0.00     0.031 A 
ATOM     39  C   UNL A   1      41.770  25.854  28.239  1.00  0.00     0.074 A 
ATOM     40  C   UNL A   1      44.120  25.067  28.208  1.00  0.00     0.049 A 
ATOM     41  N   UNL A   1      41.916  27.078  28.674  1.00  0.00    -0.248 NA
ATOM     42  C   UNL A   1      40.377  25.495  27.919  1.00  0.00     0.031 C 
ATOM     43  C   UNL A   1      45.228  24.142  27.962  1.00  0.00     0.029 A 
ATOM     44  N   UNL A   1      44.729  26.198  28.686  1.00  0.00    -0.354 N 
ATOM     45  C   UNL A   1      40.643  27.634  28.661  1.00  0.00     0.074 A 
ATOM     46  C   UNL A   1      39.749  26.644  28.108  1.00  0.00     0.031 C 
ATOM     47  C   UNL A   1      46.378  24.727  28.333  1.00  0.00     0.029 A 
ATOM     48  C   UNL A   1      46.091  26.076  28.808  1.00  0.00     0.049 A 
ATOM     49  H   UNL A   1      44.238  27.018  28.920  1.00  0.00     0.167 HD
ATOM     50  C   UNL A   1      40.244  28.851  29.101  1.00  0.00     0.031 A 
ATOM     51  C   UNL A   1      47.003  26.956  29.262  1.00  0.00     0.031 A 
ATOM     52  C   UNL A   1      41.134  29.826  29.667  1.00  0.00     0.049 A 
ATOM     53  C   UNL A   1      46.534  28.299  29.750  1.00  0.00     0.074 A 
ATOM     54  C   UNL A   1      40.832  31.069  30.193  1.00  0.00     0.029 A 
ATOM     55  N   UNL A   1      42.507  29.665  29.781  1.00  0.00    -0.354 N 
ATOM     56  N   UNL A   1      45.316  28.785  29.800  1.00  0.00    -0.248 NA
ATOM     57  C   UNL A   1      47.569  29.208  30.262  1.00  0.00     0.031 C 
ATOM     58  C   UNL A   1      42.029  31.681  30.579  1.00  0.00     0.029 A 
ATOM     59  C   UNL A   1      43.069  30.793  30.351  1.00  0.00     0.049 A 
ATOM     60  H   UNL A   1      43.007  28.865  29.498  1.00  0.00     0.167 HD
ATOM     61  C   UNL A   1      45.435  30.043  30.378  1.00  0.00     0.074 A 
ATOM     62  C   UNL A   1      46.839  30.232  30.680  1.00  0.00     0.031 C 
ATOM     63  C   UNL A   1      44.471  30.961  30.636  1.00  0.00     0.031 A 
BRANCH  50  64
ATOM     64  C   UNL A   1      38.783  29.183  28.979  1.00  0.00    -0.014 A 
ATOM     65  C   UNL A   1      37.902  29.006  30.059  1.00  0.00     0.009 A 
ATOM     66  C   UNL A   1      38.279  29.689  27.771  1.00  0.00     0.009 A 
ATOM     67  C   UNL A   1      36.540  29.287  29.918  1.00  0.00     0.001 A 
ATOM     68  C   UNL A   1      36.924  30.001  27.644  1.00  0.00     0.001 A 
ATOM     69  C   UNL A   1      36.055  29.789  28.713  1.00  0.00     0.000 A 
ENDBRANCH  50  64
BRANCH  51  70
ATOM     70  C   UNL A   1      48.441  26.586  29.311  1.00  0.00    -0.014 A 
ATOM     71  C   UNL A   1      49.290  26.884  28.234  1.00  0.00     0.009 A 
ATOM     72  C   UNL A   1      48.971  25.923  30.429  1.00  0.00     0.009 A 
ATOM     73  C   UNL A   1      50.631  26.492  28.259  1.00  0.00     0.001 A 
ATOM     74  C   UNL A   1      50.320  25.560  30.465  1.00  0.00     0.001 A 
ATOM     75  C   UNL A   1      51.145  25.834  29.376  1.00  0.00     0.000 A 
ENDBRANCH  51  70
BRANCH  63  76
ATOM     76  C   UNL A   1      44.905  32.232  31.312  1.00  0.00    -0.014 A 
ATOM     77  C   UNL A   1      45.287  33.362  30.571  1.00  0.00     0.009 A 
ATOM     78  C   UNL A   1      44.917  32.302  32.714  1.00  0.00     0.009 A 
ATOM     79  C   UNL A   1      45.720  34.518  31.222  1.00  0.00     0.001 A 
ATOM     80  C   UNL A   1      45.315  33.471  33.360  1.00  0.00     0.001 A 
ATOM     81  C   UNL A   1      45.731  34.572  32.615  1.00  0.00     0.000 A 
ENDBRANCH  63  76
ENDBRANCH  37  38
ENDBRANCH  29  32
ENDBRANCH  27  28
ENDBRANCH  26  27
ENDBRANCH   1  26
TORSDOF 15
ENDMDL
MODEL 3
REMARK VINA RESULT:     -10.7      3.734      9.060
REMARK SMILES COc1cc(OC)c([C@H]2CC[NH2+][C@H]2C(=O)NCCCCNC(=O)c2ccc(-c3c4nc(c(-c5ccccc5)c5ccc([nH]5)c(-c5ccccc5)c5nc(c(-c6ccccc6)c6ccc3[nH]6)C=C5)C=C4)cc2)cc1OC
REMARK SMILES IDX 18 1 17 2 16 3 14 4 15 5 13 7 9 8 10 9 11 10 12 11 8 14 3 15
REMARK SMILES IDX 4 16 73 17 5 18 72 19 2 20 1 21 74 22 75 23 6 24 7 25 19 26
REMARK SMILES IDX 20 27 21 28 22 29 23 31 24 32 25 33 71 34 26 35 70 36 27 37
REMARK SMILES IDX 28 38 29 39 64 40 30 41 69 42 63 43 65 44 31 45 68 46 62 47
REMARK SMILES IDX 61 48 32 50 54 51 39 52 53 53 40 54 43 55 52 56 66 57 41 58
REMARK SMILES IDX 42 59 51 61 67 62 44 63 33 64 34 65 38 66 35 67 37 68 36 69
REMARK SMILES IDX 55 70 56 71 60 72 57 73 59 74 58 75 45 76 46 77 50 78 47 79
REMARK SMILES IDX 49 80 48 81
REMARK H PARENT 16 6 12 12 12 13 21 30 65 49 43 60
REMARK Flexibility Score: inf
ROOT
ATOM      1  C   UNL A   1      31.807  29.790  26.869  1.00  0.00     0.023 C 
ENDROOT
BRANCH   1   2
ATOM      2  C   UNL A   1      31.654  28.851  25.677  1.00  0.00     0.116 C 
BRANCH   2   3
ATOM      3  N   UNL A   1      32.819  28.822  24.822  1.00  0.00    -0.351 N 
ATOM      4  C   UNL A   1      32.954  28.796  23.470  1.00  0.00     0.278 C 
ATOM      5  O   UNL A   1      34.111  28.905  23.042  1.00  0.00    -0.268 OA
ATOM      6  H   UNL A   1      33.674  28.821  25.309  1.00  0.00     0.163 HD
BRANCH   4   7
ATOM      7  C   UNL A   1      31.772  28.657  22.473  1.00  0.00     0.280 C 
ATOM      8  C   UNL A   1      30.943  27.347  22.387  1.00  0.00     0.097 C 
ATOM      9  C   UNL A   1      29.626  27.765  23.056  1.00  0.00     0.076 C 
ATOM     10  C   UNL A   1      29.487  29.247  22.762  1.00  0.00     0.262 C 
ATOM     11  N   UNL A   1      30.832  29.795  22.646  1.00  0.00    -0.335 N 
ATOM     12  H   UNL A   1      31.068  30.315  23.491  1.00  0.00     0.346 HD
ATOM     13  H   UNL A   1      30.891  30.430  21.850  1.00  0.00     0.346 HD
BRANCH   8  14
ATOM     14  C   UNL A   1      31.583  26.029  22.819  1.00  0.00     0.008 A 
ATOM     15  C   UNL A   1      32.465  23.406  23.513  1.00  0.00     0.164 A 
ATOM     16  C   UNL A   1      33.020  24.077  22.420  1.00  0.00     0.097 A 
ATOM     17  C   UNL A   1      31.549  24.076  24.322  1.00  0.00     0.161 A 
ATOM     18  C   UNL A   1      32.607  25.383  22.102  1.00  0.00     0.126 A 
ATOM     19  C   UNL A   1      31.162  25.384  23.997  1.00  0.00     0.058 A 
BRANCH  15  20
ATOM     20  O   UNL A   1      32.960  22.183  23.876  1.00  0.00    -0.493 OA
ATOM     21  C   UNL A   1      34.231  22.268  24.520  1.00  0.00     0.278 C 
ENDBRANCH  15  20
BRANCH  17  22
ATOM     22  O   UNL A   1      31.004  23.597  25.484  1.00  0.00    -0.493 OA
ATOM     23  C   UNL A   1      31.604  24.085  26.678  1.00  0.00     0.278 C 
ENDBRANCH  17  22
BRANCH  18  24
ATOM     24  O   UNL A   1      33.224  25.970  21.026  1.00  0.00    -0.496 OA
ATOM     25  C   UNL A   1      32.641  25.530  19.793  1.00  0.00     0.278 C 
ENDBRANCH  18  24
ENDBRANCH   8  14
ENDBRANCH   4   7
ENDBRANCH   2   3
ENDBRANCH   1   2
BRANCH   1  26
ATOM     26  C   UNL A   1      31.568  31.267  26.582  1.00  0.00     0.023 C 
BRANCH  26  27
ATOM     27  C   UNL A   1      32.798  32.128  26.780  1.00  0.00     0.116 C 
BRANCH  27  28
ATOM     28  N   UNL A   1      32.486  33.442  27.326  1.00  0.00    -0.352 N 
ATOM     29  C   UNL A   1      33.157  34.141  28.293  1.00  0.00     0.251 C 
ATOM     30  H   UNL A   1      31.690  33.884  26.950  1.00  0.00     0.163 HD
ATOM     31  O   UNL A   1      32.699  35.188  28.740  1.00  0.00    -0.269 OA
BRANCH  29  32
ATOM     32  C   UNL A   1      34.420  33.594  28.813  1.00  0.00     0.039 A 
ATOM     33  C   UNL A   1      34.379  32.709  29.890  1.00  0.00     0.014 A 
ATOM     34  C   UNL A   1      35.636  33.928  28.210  1.00  0.00     0.014 A 
ATOM     35  C   UNL A   1      35.563  32.132  30.342  1.00  0.00     0.010 A 
ATOM     36  C   UNL A   1      36.794  33.271  28.588  1.00  0.00     0.010 A 
ATOM     37  C   UNL A   1      36.775  32.396  29.682  1.00  0.00    -0.014 A 
BRANCH  37  38
ATOM     38  C   UNL A   1      38.048  31.820  30.169  1.00  0.00     0.031 A 
ATOM     39  C   UNL A   1      38.780  32.491  31.300  1.00  0.00     0.074 A 
ATOM     40  C   UNL A   1      38.556  30.725  29.575  1.00  0.00     0.049 A 
ATOM     41  N   UNL A   1      39.908  32.152  31.868  1.00  0.00    -0.248 NA
ATOM     42  C   UNL A   1      38.182  33.722  31.845  1.00  0.00     0.031 C 
ATOM     43  C   UNL A   1      37.962  30.020  28.438  1.00  0.00     0.029 A 
ATOM     44  N   UNL A   1      39.691  30.009  29.857  1.00  0.00    -0.354 N 
ATOM     45  C   UNL A   1      40.158  33.135  32.818  1.00  0.00     0.074 A 
ATOM     46  C   UNL A   1      39.108  34.120  32.702  1.00  0.00     0.031 C 
ATOM     47  C   UNL A   1      38.714  28.946  28.147  1.00  0.00     0.029 A 
ATOM     48  C   UNL A   1      39.857  28.909  29.052  1.00  0.00     0.049 A 
ATOM     49  H   UNL A   1      40.324  30.259  30.566  1.00  0.00     0.167 HD
ATOM     50  C   UNL A   1      41.156  33.197  33.731  1.00  0.00     0.031 A 
ATOM     51  C   UNL A   1      40.822  27.971  29.055  1.00  0.00     0.031 A 
ATOM     52  C   UNL A   1      42.188  32.205  33.855  1.00  0.00     0.049 A 
ATOM     53  C   UNL A   1      41.917  28.060  30.081  1.00  0.00     0.074 A 
ATOM     54  C   UNL A   1      43.217  32.141  34.777  1.00  0.00     0.029 A 
ATOM     55  N   UNL A   1      42.320  31.101  33.027  1.00  0.00    -0.354 N 
ATOM     56  N   UNL A   1      42.101  28.956  31.022  1.00  0.00    -0.248 NA
ATOM     57  C   UNL A   1      42.927  26.993  30.057  1.00  0.00     0.031 C 
ATOM     58  C   UNL A   1      44.002  31.023  34.474  1.00  0.00     0.029 A 
ATOM     59  C   UNL A   1      43.424  30.358  33.403  1.00  0.00     0.049 A 
ATOM     60  H   UNL A   1      41.716  30.879  32.281  1.00  0.00     0.167 HD
ATOM     61  C   UNL A   1      43.229  28.544  31.721  1.00  0.00     0.074 A 
ATOM     62  C   UNL A   1      43.670  27.307  31.108  1.00  0.00     0.031 C 
ATOM     63  C   UNL A   1      43.847  29.133  32.774  1.00  0.00     0.031 A 
BRANCH  50  64
ATOM     64  C   UNL A   1      41.170  34.382  34.657  1.00  0.00    -0.014 A 
ATOM     65  C   UNL A   1      40.457  34.369  35.868  1.00  0.00     0.009 A 
ATOM     66  C   UNL A   1      41.911  35.524  34.321  1.00  0.00     0.009 A 
ATOM     67  C   UNL A   1      40.452  35.491  36.701  1.00  0.00     0.001 A 
ATOM     68  C   UNL A   1      41.933  36.631  35.172  1.00  0.00     0.001 A 
ATOM     69  C   UNL A   1      41.194  36.618  36.354  1.00  0.00     0.000 A 
ENDBRANCH  50  64
BRANCH  51  70
ATOM     70  C   UNL A   1      40.780  26.851  28.079  1.00  0.00    -0.014 A 
ATOM     71  C   UNL A   1      40.143  25.644  28.406  1.00  0.00     0.009 A 
ATOM     72  C   UNL A   1      41.389  26.977  26.820  1.00  0.00     0.009 A 
ATOM     73  C   UNL A   1      40.148  24.573  27.508  1.00  0.00     0.001 A 
ATOM     74  C   UNL A   1      41.364  25.916  25.912  1.00  0.00     0.001 A 
ATOM     75  C   UNL A   1      40.755  24.712  26.261  1.00  0.00     0.000 A 
ENDBRANCH  51  70
BRANCH  63  76
ATOM     76  C   UNL A   1      45.041  28.422  33.348  1.00  0.00    -0.014 A 
ATOM     77  C   UNL A   1      44.903  27.457  34.358  1.00  0.00     0.009 A 
ATOM     78  C   UNL A   1      46.323  28.716  32.858  1.00  0.00     0.009 A 
ATOM     79  C   UNL A   1      46.030  26.837  34.899  1.00  0.00     0.001 A 
ATOM     80  C   UNL A   1      47.444  28.068  33.376  1.00  0.00     0.001 A 
ATOM     81  C   UNL A   1      47.299  27.141  34.405  1.00  0.00     0.000 A 
ENDBRANCH  63  76
ENDBRANCH  37  38
ENDBRANCH  29  32
ENDBRANCH  27  28
ENDBRANCH  26  27
ENDBRANCH   1  26
TORSDOF 15
ENDMDL
