MODEL 1
REMARK VINA RESULT:     -12.3      0.000      0.000
REMARK SMILES Cc1ccccc1NC(=O)CSc1nc(C(=O)NCCCCNC(=O)c2ccc(-c3c4nc(c(-c5ccccc5)c5ccc([nH]5)c(-c5ccccc5)c5nc(c(-c6ccccc6)c6ccc3[nH]6)C=C5)C=C4)cc2)c2ccccc2n1
REMARK SMILES IDX 19 1 18 2 16 3 17 4 15 6 13 7 14 8 80 9 79 10 74 11 78 12
REMARK SMILES IDX 75 13 77 14 76 15 12 16 11 17 9 18 8 19 10 21 7 22 1 23 2 24
REMARK SMILES IDX 3 25 4 26 6 27 5 28 20 29 21 30 22 31 23 32 24 33 25 35
REMARK SMILES IDX 26 36 27 37 73 38 28 39 72 40 29 41 30 42 31 43 66 44 32 45
REMARK SMILES IDX 71 46 65 47 67 48 33 49 70 50 64 51 63 52 34 54 56 55 41 56
REMARK SMILES IDX 55 57 42 58 45 59 54 60 68 61 43 62 44 63 53 65 69 66 46 67
REMARK SMILES IDX 35 68 36 69 40 70 37 71 39 72 38 73 57 74 58 75 62 76 59 77
REMARK SMILES IDX 61 78 60 79 47 80 48 81 52 82 49 83 51 84 50 85
REMARK H PARENT 18 5 8 20 23 34 67 53 45 64
REMARK Flexibility Score: inf
ROOT
ATOM      1  C   UNL A   1      34.109  28.579  26.875  1.00  0.00     0.116 C 
ENDROOT
BRANCH   1   2
ATOM      2  N   UNL A   1      32.882  28.703  27.646  1.00  0.00    -0.351 N 
ATOM      3  C   UNL A   1      31.693  27.989  27.560  1.00  0.00     0.270 C 
ATOM      4  O   UNL A   1      30.837  28.190  28.421  1.00  0.00    -0.267 OA
ATOM      5  H   UNL A   1      32.896  29.403  28.339  1.00  0.00     0.163 HD
BRANCH   3   6
ATOM      6  C   UNL A   1      31.396  27.068  26.410  1.00  0.00     0.140 A 
ATOM      7  C   UNL A   1      30.979  24.901  25.860  1.00  0.00     0.189 A 
ATOM      8  N   UNL A   1      31.444  25.760  26.761  1.00  0.00    -0.217 NA
ATOM      9  N   UNL A   1      30.371  25.245  24.718  1.00  0.00    -0.222 NA
ATOM     10  C   UNL A   1      30.357  26.538  24.385  1.00  0.00     0.076 A 
ATOM     11  C   UNL A   1      30.967  27.525  25.158  1.00  0.00     0.032 A 
ATOM     12  C   UNL A   1      29.669  26.926  23.242  1.00  0.00     0.029 A 
ATOM     13  C   UNL A   1      31.042  28.854  24.662  1.00  0.00     0.013 A 
ATOM     14  C   UNL A   1      29.629  28.258  22.820  1.00  0.00     0.002 A 
ATOM     15  C   UNL A   1      30.350  29.221  23.512  1.00  0.00     0.001 A 
BRANCH   7  16
ATOM     16  S   UNL A   1      31.009  23.178  26.248  1.00  0.00    -0.076 SA
BRANCH  16  17
ATOM     17  C   UNL A   1      31.172  22.481  24.580  1.00  0.00     0.178 C 
BRANCH  17  18
ATOM     18  C   UNL A   1      32.587  22.099  24.203  1.00  0.00     0.234 C 
ATOM     19  N   UNL A   1      33.480  22.903  23.563  1.00  0.00    -0.325 N 
ATOM     20  H   UNL A   1      34.319  22.430  23.360  1.00  0.00     0.169 HD
ATOM     21  O   UNL A   1      32.992  20.956  24.463  1.00  0.00    -0.274 OA
BRANCH  19  22
ATOM     22  C   UNL A   1      33.508  24.241  23.117  1.00  0.00     0.044 A 
ATOM     23  C   UNL A   1      34.714  24.975  25.299  1.00  0.00     0.046 C 
ATOM     24  C   UNL A   1      34.036  25.236  23.976  1.00  0.00    -0.027 A 
ATOM     25  C   UNL A   1      33.917  26.596  23.617  1.00  0.00     0.005 A 
ATOM     26  C   UNL A   1      33.340  26.976  22.413  1.00  0.00     0.000 A 
ATOM     27  C   UNL A   1      33.013  24.646  21.875  1.00  0.00     0.026 A 
ATOM     28  C   UNL A   1      32.914  25.997  21.529  1.00  0.00     0.002 A 
ENDBRANCH  19  22
ENDBRANCH  17  18
ENDBRANCH  16  17
ENDBRANCH   7  16
ENDBRANCH   3   6
ENDBRANCH   1   2
BRANCH   1  29
ATOM     29  C   UNL A   1      35.256  29.504  27.265  1.00  0.00     0.023 C 
BRANCH  29  30
ATOM     30  C   UNL A   1      34.941  30.634  28.232  1.00  0.00     0.023 C 
BRANCH  30  31
ATOM     31  C   UNL A   1      34.912  32.045  27.664  1.00  0.00     0.116 C 
BRANCH  31  32
ATOM     32  N   UNL A   1      34.047  32.997  28.346  1.00  0.00    -0.352 N 
ATOM     33  C   UNL A   1      34.259  33.720  29.521  1.00  0.00     0.251 C 
ATOM     34  H   UNL A   1      33.177  33.157  27.911  1.00  0.00     0.163 HD
ATOM     35  O   UNL A   1      33.398  34.467  29.930  1.00  0.00    -0.269 OA
BRANCH  33  36
ATOM     36  C   UNL A   1      35.595  33.691  30.191  1.00  0.00     0.039 A 
ATOM     37  C   UNL A   1      36.703  34.165  29.474  1.00  0.00     0.014 A 
ATOM     38  C   UNL A   1      35.797  33.023  31.388  1.00  0.00     0.014 A 
ATOM     39  C   UNL A   1      37.980  33.710  29.804  1.00  0.00     0.010 A 
ATOM     40  C   UNL A   1      37.024  32.452  31.630  1.00  0.00     0.010 A 
ATOM     41  C   UNL A   1      38.103  32.743  30.795  1.00  0.00    -0.014 A 
BRANCH  41  42
ATOM     42  C   UNL A   1      39.258  31.870  30.955  1.00  0.00     0.031 A 
ATOM     43  C   UNL A   1      39.334  30.587  30.233  1.00  0.00     0.074 A 
ATOM     44  C   UNL A   1      40.344  32.366  31.587  1.00  0.00     0.049 A 
ATOM     45  N   UNL A   1      40.196  29.663  30.481  1.00  0.00    -0.248 NA
ATOM     46  C   UNL A   1      38.390  30.220  29.182  1.00  0.00     0.031 C 
ATOM     47  C   UNL A   1      41.724  31.891  31.512  1.00  0.00     0.029 A 
ATOM     48  N   UNL A   1      40.362  33.313  32.613  1.00  0.00    -0.354 N 
ATOM     49  C   UNL A   1      40.143  28.762  29.445  1.00  0.00     0.074 A 
ATOM     50  C   UNL A   1      38.938  29.092  28.723  1.00  0.00     0.031 C 
ATOM     51  C   UNL A   1      42.394  32.335  32.588  1.00  0.00     0.029 A 
ATOM     52  C   UNL A   1      41.421  32.958  33.469  1.00  0.00     0.049 A 
ATOM     53  H   UNL A   1      39.753  34.080  32.716  1.00  0.00     0.167 HD
ATOM     54  C   UNL A   1      41.209  27.939  29.230  1.00  0.00     0.031 A 
ATOM     55  C   UNL A   1      41.168  32.547  34.749  1.00  0.00     0.031 A 
ATOM     56  C   UNL A   1      42.192  28.046  30.310  1.00  0.00     0.049 A 
ATOM     57  C   UNL A   1      41.605  31.124  35.033  1.00  0.00     0.074 A 
ATOM     58  C   UNL A   1      43.426  28.668  30.419  1.00  0.00     0.029 A 
ATOM     59  N   UNL A   1      41.808  27.710  31.603  1.00  0.00    -0.354 N 
ATOM     60  N   UNL A   1      41.862  30.238  34.110  1.00  0.00    -0.248 NA
ATOM     61  C   UNL A   1      41.764  30.582  36.379  1.00  0.00     0.031 C 
ATOM     62  C   UNL A   1      43.745  28.770  31.801  1.00  0.00     0.029 A 
ATOM     63  C   UNL A   1      42.723  28.181  32.524  1.00  0.00     0.049 A 
ATOM     64  H   UNL A   1      40.994  27.205  31.831  1.00  0.00     0.167 HD
ATOM     65  C   UNL A   1      42.211  29.047  34.694  1.00  0.00     0.074 A 
ATOM     66  C   UNL A   1      42.144  29.318  36.118  1.00  0.00     0.031 C 
ATOM     67  C   UNL A   1      42.512  27.941  33.948  1.00  0.00     0.031 A 
BRANCH  54  68
ATOM     68  C   UNL A   1      41.487  27.248  27.913  1.00  0.00    -0.014 A 
ATOM     69  C   UNL A   1      42.304  27.882  26.957  1.00  0.00     0.009 A 
ATOM     70  C   UNL A   1      40.931  26.021  27.514  1.00  0.00     0.009 A 
ATOM     71  C   UNL A   1      42.481  27.366  25.665  1.00  0.00     0.001 A 
ATOM     72  C   UNL A   1      41.079  25.511  26.217  1.00  0.00     0.001 A 
ATOM     73  C   UNL A   1      41.848  26.190  25.285  1.00  0.00     0.000 A 
ENDBRANCH  54  68
BRANCH  55  74
ATOM     74  C   UNL A   1      39.983  33.218  35.357  1.00  0.00    -0.014 A 
ATOM     75  C   UNL A   1      38.731  32.577  35.249  1.00  0.00     0.009 A 
ATOM     76  C   UNL A   1      40.142  34.213  36.331  1.00  0.00     0.009 A 
ATOM     77  C   UNL A   1      37.712  32.832  36.172  1.00  0.00     0.001 A 
ATOM     78  C   UNL A   1      39.110  34.477  37.244  1.00  0.00     0.001 A 
ATOM     79  C   UNL A   1      37.916  33.759  37.189  1.00  0.00     0.000 A 
ENDBRANCH  55  74
BRANCH  67  80
ATOM     80  C   UNL A   1      42.691  26.525  34.454  1.00  0.00    -0.014 A 
ATOM     81  C   UNL A   1      41.767  25.834  35.246  1.00  0.00     0.009 A 
ATOM     82  C   UNL A   1      43.806  25.779  34.001  1.00  0.00     0.009 A 
ATOM     83  C   UNL A   1      41.965  24.490  35.598  1.00  0.00     0.001 A 
ATOM     84  C   UNL A   1      43.982  24.428  34.305  1.00  0.00     0.001 A 
ATOM     85  C   UNL A   1      43.064  23.784  35.117  1.00  0.00     0.000 A 
ENDBRANCH  67  80
ENDBRANCH  41  42
ENDBRANCH  33  36
ENDBRANCH  31  32
ENDBRANCH  30  31
ENDBRANCH  29  30
ENDBRANCH   1  29
TORSDOF 15
ENDMDL
MODEL 2
REMARK VINA RESULT:     -11.9      2.471      3.854
REMARK SMILES Cc1ccccc1NC(=O)CSc1nc(C(=O)NCCCCNC(=O)c2ccc(-c3c4nc(c(-c5ccccc5)c5ccc([nH]5)c(-c5ccccc5)c5nc(c(-c6ccccc6)c6ccc3[nH]6)C=C5)C=C4)cc2)c2ccccc2n1
REMARK SMILES IDX 19 1 18 2 16 3 17 4 15 6 13 7 14 8 80 9 79 10 74 11 78 12
REMARK SMILES IDX 75 13 77 14 76 15 12 16 11 17 9 18 8 19 10 21 7 22 1 23 2 24
REMARK SMILES IDX 3 25 4 26 6 27 5 28 20 29 21 30 22 31 23 32 24 33 25 35
REMARK SMILES IDX 26 36 27 37 73 38 28 39 72 40 29 41 30 42 31 43 66 44 32 45
REMARK SMILES IDX 71 46 65 47 67 48 33 49 70 50 64 51 63 52 34 54 56 55 41 56
REMARK SMILES IDX 55 57 42 58 45 59 54 60 68 61 43 62 44 63 53 65 69 66 46 67
REMARK SMILES IDX 35 68 36 69 40 70 37 71 39 72 38 73 57 74 58 75 62 76 59 77
REMARK SMILES IDX 61 78 60 79 47 80 48 81 52 82 49 83 51 84 50 85
REMARK H PARENT 18 5 8 20 23 34 67 53 45 64
REMARK Flexibility Score: inf
ROOT
ATOM      1  C   UNL A   1      33.398  28.947  25.234  1.00  0.00     0.116 C 
ENDROOT
BRANCH   1   2
ATOM      2  N   UNL A   1      33.960  28.714  23.913  1.00  0.00    -0.351 N 
ATOM      3  C   UNL A   1      33.378  28.173  22.774  1.00  0.00     0.270 C 
ATOM      4  O   UNL A   1      34.024  28.203  21.727  1.00  0.00    -0.267 OA
ATOM      5  H   UNL A   1      34.902  28.983  23.809  1.00  0.00     0.163 HD
BRANCH   3   6
ATOM      6  C   UNL A   1      32.045  27.479  22.811  1.00  0.00     0.140 A 
ATOM      7  C   UNL A   1      30.982  25.588  23.493  1.00  0.00     0.189 A 
ATOM      8  N   UNL A   1      32.135  26.192  23.226  1.00  0.00    -0.217 NA
ATOM      9  N   UNL A   1      29.786  26.189  23.499  1.00  0.00    -0.222 NA
ATOM     10  C   UNL A   1      29.722  27.451  23.066  1.00  0.00     0.076 A 
ATOM     11  C   UNL A   1      30.834  28.144  22.587  1.00  0.00     0.032 A 
ATOM     12  C   UNL A   1      28.506  28.119  23.131  1.00  0.00     0.029 A 
ATOM     13  C   UNL A   1      30.658  29.426  22.001  1.00  0.00     0.013 A 
ATOM     14  C   UNL A   1      28.357  29.432  22.675  1.00  0.00     0.002 A 
ATOM     15  C   UNL A   1      29.429  30.076  22.073  1.00  0.00     0.001 A 
BRANCH   7  16
ATOM     16  S   UNL A   1      31.022  23.909  24.041  1.00  0.00    -0.076 SA
BRANCH  16  17
ATOM     17  C   UNL A   1      32.773  23.768  24.499  1.00  0.00     0.178 C 
BRANCH  17  18
ATOM     18  C   UNL A   1      33.007  23.448  25.959  1.00  0.00     0.234 C 
ATOM     19  N   UNL A   1      34.141  22.902  26.478  1.00  0.00    -0.325 N 
ATOM     20  H   UNL A   1      34.053  22.718  27.441  1.00  0.00     0.169 HD
ATOM     21  O   UNL A   1      32.101  23.666  26.776  1.00  0.00    -0.274 OA
BRANCH  19  22
ATOM     22  C   UNL A   1      35.410  22.532  25.986  1.00  0.00     0.044 A 
ATOM     23  C   UNL A   1      34.424  20.332  25.014  1.00  0.00     0.046 C 
ATOM     24  C   UNL A   1      35.554  21.275  25.348  1.00  0.00    -0.027 A 
ATOM     25  C   UNL A   1      36.844  20.818  25.002  1.00  0.00     0.005 A 
ATOM     26  C   UNL A   1      37.971  21.598  25.227  1.00  0.00     0.000 A 
ATOM     27  C   UNL A   1      36.548  23.332  26.119  1.00  0.00     0.026 A 
ATOM     28  C   UNL A   1      37.818  22.868  25.760  1.00  0.00     0.002 A 
ENDBRANCH  19  22
ENDBRANCH  17  18
ENDBRANCH  16  17
ENDBRANCH   7  16
ENDBRANCH   3   6
ENDBRANCH   1   2
BRANCH   1  29
ATOM     29  C   UNL A   1      32.255  29.952  25.322  1.00  0.00     0.023 C 
BRANCH  29  30
ATOM     30  C   UNL A   1      32.233  30.877  26.527  1.00  0.00     0.023 C 
BRANCH  30  31
ATOM     31  C   UNL A   1      33.253  30.610  27.625  1.00  0.00     0.116 C 
BRANCH  31  32
ATOM     32  N   UNL A   1      34.112  31.727  27.992  1.00  0.00    -0.352 N 
ATOM     33  C   UNL A   1      35.433  31.731  28.442  1.00  0.00     0.251 C 
ATOM     34  H   UNL A   1      33.698  32.617  27.910  1.00  0.00     0.163 HD
ATOM     35  O   UNL A   1      35.975  32.782  28.704  1.00  0.00    -0.269 OA
BRANCH  33  36
ATOM     36  C   UNL A   1      36.226  30.464  28.460  1.00  0.00     0.039 A 
ATOM     37  C   UNL A   1      36.348  29.778  29.676  1.00  0.00     0.014 A 
ATOM     38  C   UNL A   1      37.006  30.075  27.381  1.00  0.00     0.014 A 
ATOM     39  C   UNL A   1      37.437  28.931  29.882  1.00  0.00     0.010 A 
ATOM     40  C   UNL A   1      38.158  29.365  27.618  1.00  0.00     0.010 A 
ATOM     41  C   UNL A   1      38.408  28.849  28.890  1.00  0.00    -0.014 A 
BRANCH  41  42
ATOM     42  C   UNL A   1      39.771  28.381  29.108  1.00  0.00     0.031 A 
ATOM     43  C   UNL A   1      40.199  27.061  28.610  1.00  0.00     0.074 A 
ATOM     44  C   UNL A   1      40.680  29.270  29.563  1.00  0.00     0.049 A 
ATOM     45  N   UNL A   1      41.298  26.480  28.945  1.00  0.00    -0.248 NA
ATOM     46  C   UNL A   1      39.378  26.257  27.711  1.00  0.00     0.031 C 
ATOM     47  C   UNL A   1      42.136  29.198  29.465  1.00  0.00     0.029 A 
ATOM     48  N   UNL A   1      40.446  30.356  30.409  1.00  0.00    -0.354 N 
ATOM     49  C   UNL A   1      41.485  25.426  28.083  1.00  0.00     0.074 A 
ATOM     50  C   UNL A   1      40.219  25.264  27.410  1.00  0.00     0.031 C 
ATOM     51  C   UNL A   1      42.673  30.003  30.397  1.00  0.00     0.029 A 
ATOM     52  C   UNL A   1      41.582  30.477  31.231  1.00  0.00     0.049 A 
ATOM     53  H   UNL A   1      39.643  30.925  30.427  1.00  0.00     0.167 HD
ATOM     54  C   UNL A   1      42.739  24.912  27.931  1.00  0.00     0.031 A 
ATOM     55  C   UNL A   1      41.490  30.254  32.577  1.00  0.00     0.031 A 
ATOM     56  C   UNL A   1      43.674  25.489  28.899  1.00  0.00     0.049 A 
ATOM     57  C   UNL A   1      42.329  29.090  33.064  1.00  0.00     0.074 A 
ATOM     58  C   UNL A   1      44.675  26.442  28.807  1.00  0.00     0.029 A 
ATOM     59  N   UNL A   1      43.435  25.302  30.256  1.00  0.00    -0.354 N 
ATOM     60  N   UNL A   1      42.810  28.159  32.288  1.00  0.00    -0.248 NA
ATOM     61  C   UNL A   1      42.670  28.873  34.466  1.00  0.00     0.031 C 
ATOM     62  C   UNL A   1      44.984  26.882  30.124  1.00  0.00     0.029 A 
ATOM     63  C   UNL A   1      44.194  26.173  31.012  1.00  0.00     0.049 A 
ATOM     64  H   UNL A   1      42.809  24.639  30.627  1.00  0.00     0.167 HD
ATOM     65  C   UNL A   1      43.504  27.243  33.036  1.00  0.00     0.074 A 
ATOM     66  C   UNL A   1      43.395  27.741  34.395  1.00  0.00     0.031 C 
ATOM     67  C   UNL A   1      44.097  26.149  32.467  1.00  0.00     0.031 A 
BRANCH  54  68
ATOM     68  C   UNL A   1      43.175  24.097  26.732  1.00  0.00    -0.014 A 
ATOM     69  C   UNL A   1      42.796  22.745  26.639  1.00  0.00     0.009 A 
ATOM     70  C   UNL A   1      44.010  24.562  25.703  1.00  0.00     0.009 A 
ATOM     71  C   UNL A   1      43.287  21.897  25.635  1.00  0.00     0.001 A 
ATOM     72  C   UNL A   1      44.529  23.718  24.711  1.00  0.00     0.001 A 
ATOM     73  C   UNL A   1      44.174  22.379  24.683  1.00  0.00     0.000 A 
ENDBRANCH  54  68
BRANCH  55  74
ATOM     74  C   UNL A   1      40.176  30.665  33.150  1.00  0.00    -0.014 A 
ATOM     75  C   UNL A   1      39.882  32.043  33.214  1.00  0.00     0.009 A 
ATOM     76  C   UNL A   1      39.116  29.752  33.245  1.00  0.00     0.009 A 
ATOM     77  C   UNL A   1      38.559  32.496  33.240  1.00  0.00     0.001 A 
ATOM     78  C   UNL A   1      37.791  30.211  33.289  1.00  0.00     0.001 A 
ATOM     79  C   UNL A   1      37.514  31.577  33.245  1.00  0.00     0.000 A 
ENDBRANCH  55  74
BRANCH  67  80
ATOM     80  C   UNL A   1      44.691  24.959  33.191  1.00  0.00    -0.014 A 
ATOM     81  C   UNL A   1      44.109  23.688  33.258  1.00  0.00     0.009 A 
ATOM     82  C   UNL A   1      45.991  25.080  33.741  1.00  0.00     0.009 A 
ATOM     83  C   UNL A   1      44.769  22.612  33.870  1.00  0.00     0.001 A 
ATOM     84  C   UNL A   1      46.673  24.001  34.307  1.00  0.00     0.001 A 
ATOM     85  C   UNL A   1      46.054  22.765  34.382  1.00  0.00     0.000 A 
ENDBRANCH  67  80
ENDBRANCH  41  42
ENDBRANCH  33  36
ENDBRANCH  31  32
ENDBRANCH  30  31
ENDBRANCH  29  30
ENDBRANCH   1  29
TORSDOF 15
ENDMDL
MODEL 3
REMARK VINA RESULT:     -11.9      1.606      2.434
REMARK SMILES Cc1ccccc1NC(=O)CSc1nc(C(=O)NCCCCNC(=O)c2ccc(-c3c4nc(c(-c5ccccc5)c5ccc([nH]5)c(-c5ccccc5)c5nc(c(-c6ccccc6)c6ccc3[nH]6)C=C5)C=C4)cc2)c2ccccc2n1
REMARK SMILES IDX 19 1 18 2 16 3 17 4 15 6 13 7 14 8 80 9 79 10 74 11 78 12
REMARK SMILES IDX 75 13 77 14 76 15 12 16 11 17 9 18 8 19 10 21 7 22 1 23 2 24
REMARK SMILES IDX 3 25 4 26 6 27 5 28 20 29 21 30 22 31 23 32 24 33 25 35
REMARK SMILES IDX 26 36 27 37 73 38 28 39 72 40 29 41 30 42 31 43 66 44 32 45
REMARK SMILES IDX 71 46 65 47 67 48 33 49 70 50 64 51 63 52 34 54 56 55 41 56
REMARK SMILES IDX 55 57 42 58 45 59 54 60 68 61 43 62 44 63 53 65 69 66 46 67
REMARK SMILES IDX 35 68 36 69 40 70 37 71 39 72 38 73 57 74 58 75 62 76 59 77
REMARK SMILES IDX 61 78 60 79 47 80 48 81 52 82 49 83 51 84 50 85
REMARK H PARENT 18 5 8 20 23 34 67 53 45 64
REMARK Flexibility Score: inf
ROOT
ATOM      1  C   UNL A   1      31.978  30.106  25.723  1.00  0.00     0.116 C 
ENDROOT
BRANCH   1   2
ATOM      2  N   UNL A   1      32.927  29.743  24.682  1.00  0.00    -0.351 N 
ATOM      3  C   UNL A   1      32.763  28.938  23.562  1.00  0.00     0.270 C 
ATOM      4  O   UNL A   1      33.685  28.890  22.748  1.00  0.00    -0.267 OA
ATOM      5  H   UNL A   1      33.827  30.127  24.788  1.00  0.00     0.163 HD
BRANCH   3   6
ATOM      6  C   UNL A   1      31.551  28.070  23.371  1.00  0.00     0.140 A 
ATOM      7  C   UNL A   1      30.676  26.021  23.827  1.00  0.00     0.189 A 
ATOM      8  N   UNL A   1      31.759  26.788  23.759  1.00  0.00    -0.217 NA
ATOM      9  N   UNL A   1      29.420  26.454  23.665  1.00  0.00    -0.222 NA
ATOM     10  C   UNL A   1      29.244  27.715  23.263  1.00  0.00     0.076 A 
ATOM     11  C   UNL A   1      30.305  28.576  22.982  1.00  0.00     0.032 A 
ATOM     12  C   UNL A   1      27.949  28.208  23.158  1.00  0.00     0.029 A 
ATOM     13  C   UNL A   1      30.039  29.849  22.413  1.00  0.00     0.013 A 
ATOM     14  C   UNL A   1      27.686  29.510  22.722  1.00  0.00     0.002 A 
ATOM     15  C   UNL A   1      28.734  30.322  22.311  1.00  0.00     0.001 A 
BRANCH   7  16
ATOM     16  S   UNL A   1      30.870  24.337  24.326  1.00  0.00    -0.076 SA
BRANCH  16  17
ATOM     17  C   UNL A   1      30.949  24.550  26.128  1.00  0.00     0.178 C 
BRANCH  17  18
ATOM     18  C   UNL A   1      30.922  23.252  26.905  1.00  0.00     0.234 C 
ATOM     19  N   UNL A   1      31.896  22.301  26.895  1.00  0.00    -0.325 N 
ATOM     20  H   UNL A   1      31.642  21.509  27.421  1.00  0.00     0.169 HD
ATOM     21  O   UNL A   1      29.931  22.989  27.603  1.00  0.00    -0.274 OA
BRANCH  19  22
ATOM     22  C   UNL A   1      33.176  22.163  26.319  1.00  0.00     0.044 A 
ATOM     23  C   UNL A   1      32.279  20.354  24.684  1.00  0.00     0.046 C 
ATOM     24  C   UNL A   1      33.370  21.186  25.312  1.00  0.00    -0.027 A 
ATOM     25  C   UNL A   1      34.675  20.918  24.848  1.00  0.00     0.005 A 
ATOM     26  C   UNL A   1      35.769  21.632  25.320  1.00  0.00     0.000 A 
ATOM     27  C   UNL A   1      34.280  22.925  26.712  1.00  0.00     0.026 A 
ATOM     28  C   UNL A   1      35.566  22.655  26.232  1.00  0.00     0.002 A 
ENDBRANCH  19  22
ENDBRANCH  17  18
ENDBRANCH  16  17
ENDBRANCH   7  16
ENDBRANCH   3   6
ENDBRANCH   1   2
BRANCH   1  29
ATOM     29  C   UNL A   1      32.478  30.023  27.161  1.00  0.00     0.023 C 
BRANCH  29  30
ATOM     30  C   UNL A   1      33.979  29.917  27.371  1.00  0.00     0.023 C 
BRANCH  30  31
ATOM     31  C   UNL A   1      34.748  31.217  27.554  1.00  0.00     0.116 C 
BRANCH  31  32
ATOM     32  N   UNL A   1      33.960  32.387  27.917  1.00  0.00    -0.352 N 
ATOM     33  C   UNL A   1      34.199  33.364  28.885  1.00  0.00     0.251 C 
ATOM     34  H   UNL A   1      33.131  32.508  27.400  1.00  0.00     0.163 HD
ATOM     35  O   UNL A   1      33.405  34.265  29.037  1.00  0.00    -0.269 OA
BRANCH  33  36
ATOM     36  C   UNL A   1      35.496  33.385  29.628  1.00  0.00     0.039 A 
ATOM     37  C   UNL A   1      36.610  33.954  28.995  1.00  0.00     0.014 A 
ATOM     38  C   UNL A   1      35.674  32.680  30.808  1.00  0.00     0.014 A 
ATOM     39  C   UNL A   1      37.892  33.561  29.378  1.00  0.00     0.010 A 
ATOM     40  C   UNL A   1      36.918  32.172  31.096  1.00  0.00     0.010 A 
ATOM     41  C   UNL A   1      38.021  32.562  30.336  1.00  0.00    -0.014 A 
BRANCH  41  42
ATOM     42  C   UNL A   1      39.217  31.753  30.527  1.00  0.00     0.031 A 
ATOM     43  C   UNL A   1      39.385  30.480  29.801  1.00  0.00     0.074 A 
ATOM     44  C   UNL A   1      40.255  32.303  31.193  1.00  0.00     0.049 A 
ATOM     45  N   UNL A   1      40.289  29.604  30.072  1.00  0.00    -0.248 NA
ATOM     46  C   UNL A   1      38.495  30.069  28.721  1.00  0.00     0.031 C 
ATOM     47  C   UNL A   1      41.660  31.906  31.158  1.00  0.00     0.029 A 
ATOM     48  N   UNL A   1      40.190  33.244  32.223  1.00  0.00    -0.354 N 
ATOM     49  C   UNL A   1      40.317  28.708  29.029  1.00  0.00     0.074 A 
ATOM     50  C   UNL A   1      39.117  28.975  28.273  1.00  0.00     0.031 C 
ATOM     51  C   UNL A   1      42.272  32.379  32.256  1.00  0.00     0.029 A 
ATOM     52  C   UNL A   1      41.241  32.942  33.110  1.00  0.00     0.049 A 
ATOM     53  H   UNL A   1      39.537  33.975  32.312  1.00  0.00     0.167 HD
ATOM     54  C   UNL A   1      41.432  27.946  28.844  1.00  0.00     0.031 A 
ATOM     55  C   UNL A   1      40.972  32.510  34.379  1.00  0.00     0.031 A 
ATOM     56  C   UNL A   1      42.375  28.100  29.953  1.00  0.00     0.049 A 
ATOM     57  C   UNL A   1      41.479  31.112  34.670  1.00  0.00     0.074 A 
ATOM     58  C   UNL A   1      43.569  28.789  30.102  1.00  0.00     0.029 A 
ATOM     59  N   UNL A   1      41.972  27.736  31.232  1.00  0.00    -0.354 N 
ATOM     60  N   UNL A   1      41.811  30.247  33.752  1.00  0.00    -0.248 NA
ATOM     61  C   UNL A   1      41.627  30.571  36.018  1.00  0.00     0.031 C 
ATOM     62  C   UNL A   1      43.841  28.899  31.493  1.00  0.00     0.029 A 
ATOM     63  C   UNL A   1      42.831  28.250  32.183  1.00  0.00     0.049 A 
ATOM     64  H   UNL A   1      41.181  27.186  31.433  1.00  0.00     0.167 HD
ATOM     65  C   UNL A   1      42.208  29.074  34.340  1.00  0.00     0.074 A 
ATOM     66  C   UNL A   1      42.084  29.332  35.763  1.00  0.00     0.031 C 
ATOM     67  C   UNL A   1      42.592  27.991  33.598  1.00  0.00     0.031 A 
BRANCH  54  68
ATOM     68  C   UNL A   1      41.788  27.279  27.532  1.00  0.00    -0.014 A 
ATOM     69  C   UNL A   1      41.787  25.874  27.447  1.00  0.00     0.009 A 
ATOM     70  C   UNL A   1      42.199  27.955  26.371  1.00  0.00     0.009 A 
ATOM     71  C   UNL A   1      42.248  25.193  26.311  1.00  0.00     0.001 A 
ATOM     72  C   UNL A   1      42.687  27.284  25.240  1.00  0.00     0.001 A 
ATOM     73  C   UNL A   1      42.722  25.900  25.213  1.00  0.00     0.000 A 
ENDBRANCH  54  68
BRANCH  55  74
ATOM     74  C   UNL A   1      39.734  33.112  34.954  1.00  0.00    -0.014 A 
ATOM     75  C   UNL A   1      38.527  32.394  34.823  1.00  0.00     0.009 A 
ATOM     76  C   UNL A   1      39.809  34.121  35.924  1.00  0.00     0.009 A 
ATOM     77  C   UNL A   1      37.473  32.591  35.721  1.00  0.00     0.001 A 
ATOM     78  C   UNL A   1      38.742  34.327  36.811  1.00  0.00     0.001 A 
ATOM     79  C   UNL A   1      37.595  33.537  36.734  1.00  0.00     0.000 A 
ENDBRANCH  55  74
BRANCH  67  80
ATOM     80  C   UNL A   1      42.833  26.583  34.103  1.00  0.00    -0.014 A 
ATOM     81  C   UNL A   1      43.988  25.831  33.861  1.00  0.00     0.009 A 
ATOM     82  C   UNL A   1      41.891  26.012  34.992  1.00  0.00     0.009 A 
ATOM     83  C   UNL A   1      44.174  24.567  34.442  1.00  0.00     0.001 A 
ATOM     84  C   UNL A   1      42.093  24.777  35.613  1.00  0.00     0.001 A 
ATOM     85  C   UNL A   1      43.234  24.047  35.327  1.00  0.00     0.000 A 
ENDBRANCH  67  80
ENDBRANCH  41  42
ENDBRANCH  33  36
ENDBRANCH  31  32
ENDBRANCH  30  31
ENDBRANCH  29  30
ENDBRANCH   1  29
TORSDOF 15
ENDMDL
