MODEL 1
REMARK VINA RESULT:     -12.5      0.000      0.000
REMARK SMILES CS(=O)(=O)Nc1ccc(-c2cc(Cl)cc3c2O[C@H](C(F)(F)F)C(C(=O)NCCCCNC(=O)c2ccc(-c4c5nc(c(-c6ccccc6)c6ccc([nH]6)c(-c6ccccc6)c6nc(c(-c7ccccc7)c7ccc4[nH]7)C=C6)C=C5)cc2)=C3)cc1
REMARK SMILES IDX 28 1 27 2 26 3 24 4 25 5 23 7 10 8 11 9 16 10 12 11 15 12
REMARK SMILES IDX 17 13 13 14 14 15 82 16 18 17 9 18 6 19 7 20 84 21 8 22
REMARK SMILES IDX 83 23 5 24 2 26 1 27 3 28 4 29 19 30 20 31 21 32 22 33 29 34
REMARK SMILES IDX 30 35 31 36 32 37 33 39 34 40 35 41 81 42 36 43 80 44 37 45
REMARK SMILES IDX 38 46 39 47 74 48 40 49 79 50 73 51 75 52 41 53 78 54 72 55
REMARK SMILES IDX 71 56 42 58 64 59 49 60 63 61 50 62 53 63 62 64 76 65 51 66
REMARK SMILES IDX 52 67 61 69 77 70 54 71 43 72 44 73 48 74 45 75 47 76 46 77
REMARK SMILES IDX 65 78 66 79 70 80 67 81 69 82 68 83 55 84 56 85 60 86 57 87
REMARK SMILES IDX 59 88 58 89
REMARK H PARENT 26 6 5 25 31 38 75 57 53 68
REMARK Flexibility Score: inf
ROOT
ATOM      1  C   UNL A   1      31.504  30.514  25.923  1.00  0.00     0.023 C 
ENDROOT
BRANCH   1   2
ATOM      2  C   UNL A   1      32.945  30.041  25.688  1.00  0.00     0.116 C 
BRANCH   2   3
ATOM      3  N   UNL A   1      33.132  28.738  26.289  1.00  0.00    -0.352 N 
ATOM      4  C   UNL A   1      32.540  27.558  26.002  1.00  0.00     0.251 C 
ATOM      5  O   UNL A   1      32.427  26.738  26.908  1.00  0.00    -0.270 OA
ATOM      6  H   UNL A   1      33.793  28.707  27.018  1.00  0.00     0.163 HD
BRANCH   4   7
ATOM      7  C   UNL A   1      32.162  27.261  24.587  1.00  0.00     0.067 C 
ATOM      8  C   UNL A   1      32.860  23.247  24.560  1.00  0.00     0.026 A 
ATOM      9  C   UNL A   1      34.112  23.053  25.205  1.00  0.00     0.033 A 
ATOM     10  C   UNL A   1      32.553  24.569  24.196  1.00  0.00     0.135 A 
ATOM     11  C   UNL A   1      35.067  24.059  25.317  1.00  0.00     0.042 A 
ATOM     12  C   UNL A   1      33.581  25.545  24.204  1.00  0.00     0.019 A 
ATOM     13  O   UNL A   1      31.268  24.993  23.887  1.00  0.00    -0.475 OA
ATOM     14  Cl  UNL A   1      36.539  23.750  26.149  1.00  0.00    -0.084 Cl
ATOM     15  C   UNL A   1      34.839  25.292  24.743  1.00  0.00     0.032 A 
ATOM     16  C   UNL A   1      33.222  26.931  23.824  1.00  0.00     0.025 C 
ATOM     17  C   UNL A   1      30.944  26.353  24.422  1.00  0.00     0.314 C 
BRANCH   8  18
ATOM     18  C   UNL A   1      32.171  21.986  24.167  1.00  0.00    -0.014 A 
ATOM     19  C   UNL A   1      32.275  19.281  23.287  1.00  0.00     0.048 A 
ATOM     20  C   UNL A   1      32.173  19.588  24.647  1.00  0.00     0.027 A 
ATOM     21  C   UNL A   1      32.133  20.316  22.367  1.00  0.00     0.027 A 
ATOM     22  C   UNL A   1      32.087  20.919  25.082  1.00  0.00     0.011 A 
ATOM     23  C   UNL A   1      32.072  21.657  22.802  1.00  0.00     0.011 A 
BRANCH  19  24
ATOM     24  N   UNL A   1      32.733  17.968  22.969  1.00  0.00    -0.284 N 
ATOM     25  H   UNL A   1      32.280  17.522  22.217  1.00  0.00     0.180 HD
BRANCH  24  26
ATOM     26  S   UNL A   1      33.940  17.104  23.715  1.00  0.00     0.229 S 
ATOM     27  C   UNL A   1      33.101  16.233  25.029  1.00  0.00     0.183 C 
ATOM     28  O   UNL A   1      34.907  18.013  24.291  1.00  0.00    -0.207 OA
ATOM     29  O   UNL A   1      34.339  16.110  22.741  1.00  0.00    -0.207 OA
ENDBRANCH  24  26
ENDBRANCH  19  24
ENDBRANCH   8  18
BRANCH  17  30
ATOM     30  C   UNL A   1      29.912  27.082  23.532  1.00  0.00     0.429 C 
ATOM     31  F   UNL A   1      28.691  26.504  23.565  1.00  0.00    -0.167 F 
ATOM     32  F   UNL A   1      29.769  28.376  23.908  1.00  0.00    -0.167 F 
ATOM     33  F   UNL A   1      30.287  27.111  22.224  1.00  0.00    -0.167 F 
ENDBRANCH  17  30
ENDBRANCH   4   7
ENDBRANCH   2   3
ENDBRANCH   1   2
BRANCH   1  34
ATOM     34  C   UNL A   1      31.363  31.930  26.502  1.00  0.00     0.023 C 
BRANCH  34  35
ATOM     35  C   UNL A   1      32.600  32.450  27.222  1.00  0.00     0.116 C 
BRANCH  35  36
ATOM     36  N   UNL A   1      32.460  33.847  27.603  1.00  0.00    -0.352 N 
ATOM     37  C   UNL A   1      33.210  34.575  28.493  1.00  0.00     0.251 C 
ATOM     38  H   UNL A   1      31.727  34.337  27.162  1.00  0.00     0.163 HD
ATOM     39  O   UNL A   1      32.845  35.690  28.849  1.00  0.00    -0.269 OA
BRANCH  37  40
ATOM     40  C   UNL A   1      34.455  33.994  29.041  1.00  0.00     0.039 A 
ATOM     41  C   UNL A   1      34.395  33.228  30.208  1.00  0.00     0.014 A 
ATOM     42  C   UNL A   1      35.674  34.193  28.388  1.00  0.00     0.014 A 
ATOM     43  C   UNL A   1      35.552  32.607  30.687  1.00  0.00     0.010 A 
ATOM     44  C   UNL A   1      36.806  33.514  28.823  1.00  0.00     0.010 A 
ATOM     45  C   UNL A   1      36.760  32.718  29.980  1.00  0.00    -0.014 A 
BRANCH  45  46
ATOM     46  C   UNL A   1      37.999  32.036  30.433  1.00  0.00     0.031 A 
ATOM     47  C   UNL A   1      38.891  32.708  31.441  1.00  0.00     0.074 A 
ATOM     48  C   UNL A   1      38.370  30.865  29.879  1.00  0.00     0.049 A 
ATOM     49  N   UNL A   1      40.077  32.354  31.863  1.00  0.00    -0.248 NA
ATOM     50  C   UNL A   1      38.393  33.964  32.031  1.00  0.00     0.031 C 
ATOM     51  C   UNL A   1      37.609  30.119  28.876  1.00  0.00     0.029 A 
ATOM     52  N   UNL A   1      39.496  30.104  30.074  1.00  0.00    -0.354 N 
ATOM     53  C   UNL A   1      40.478  33.353  32.742  1.00  0.00     0.074 A 
ATOM     54  C   UNL A   1      39.432  34.350  32.757  1.00  0.00     0.031 C 
ATOM     55  C   UNL A   1      38.283  29.002  28.554  1.00  0.00     0.029 A 
ATOM     56  C   UNL A   1      39.542  28.975  29.291  1.00  0.00     0.049 A 
ATOM     57  H   UNL A   1      40.204  30.343  30.715  1.00  0.00     0.167 HD
ATOM     58  C   UNL A   1      41.609  33.427  33.483  1.00  0.00     0.031 A 
ATOM     59  C   UNL A   1      40.499  28.036  29.166  1.00  0.00     0.031 A 
ATOM     60  C   UNL A   1      42.641  32.426  33.482  1.00  0.00     0.049 A 
ATOM     61  C   UNL A   1      41.757  28.152  29.984  1.00  0.00     0.074 A 
ATOM     62  C   UNL A   1      43.800  32.384  34.237  1.00  0.00     0.029 A 
ATOM     63  N   UNL A   1      42.637  31.289  32.690  1.00  0.00    -0.354 N 
ATOM     64  N   UNL A   1      42.097  29.076  30.850  1.00  0.00    -0.248 NA
ATOM     65  C   UNL A   1      42.760  27.090  29.815  1.00  0.00     0.031 C 
ATOM     66  C   UNL A   1      44.523  31.249  33.863  1.00  0.00     0.029 A 
ATOM     67  C   UNL A   1      43.782  30.550  32.924  1.00  0.00     0.049 A 
ATOM     68  H   UNL A   1      41.924  31.044  32.055  1.00  0.00     0.167 HD
ATOM     69  C   UNL A   1      43.329  28.683  31.359  1.00  0.00     0.074 A 
ATOM     70  C   UNL A   1      43.675  27.437  30.709  1.00  0.00     0.031 C 
ATOM     71  C   UNL A   1      44.102  29.299  32.286  1.00  0.00     0.031 A 
BRANCH  58  72
ATOM     72  C   UNL A   1      41.793  34.640  34.352  1.00  0.00    -0.014 A 
ATOM     73  C   UNL A   1      41.373  34.647  35.692  1.00  0.00     0.009 A 
ATOM     74  C   UNL A   1      42.434  35.777  33.837  1.00  0.00     0.009 A 
ATOM     75  C   UNL A   1      41.558  35.781  36.485  1.00  0.00     0.001 A 
ATOM     76  C   UNL A   1      42.646  36.897  34.640  1.00  0.00     0.001 A 
ATOM     77  C   UNL A   1      42.199  36.903  35.961  1.00  0.00     0.000 A 
ENDBRANCH  58  72
BRANCH  59  78
ATOM     78  C   UNL A   1      40.312  26.894  28.230  1.00  0.00    -0.014 A 
ATOM     79  C   UNL A   1      40.790  26.968  26.913  1.00  0.00     0.009 A 
ATOM     80  C   UNL A   1      39.634  25.735  28.639  1.00  0.00     0.009 A 
ATOM     81  C   UNL A   1      40.564  25.920  26.016  1.00  0.00     0.001 A 
ATOM     82  C   UNL A   1      39.437  24.676  27.751  1.00  0.00     0.001 A 
ATOM     83  C   UNL A   1      39.891  24.774  26.438  1.00  0.00     0.000 A 
ENDBRANCH  59  78
BRANCH  71  84
ATOM     84  C   UNL A   1      45.366  28.608  32.710  1.00  0.00    -0.014 A 
ATOM     85  C   UNL A   1      45.366  27.615  33.702  1.00  0.00     0.009 A 
ATOM     86  C   UNL A   1      46.569  28.912  32.050  1.00  0.00     0.009 A 
ATOM     87  C   UNL A   1      46.551  26.957  34.037  1.00  0.00     0.001 A 
ATOM     88  C   UNL A   1      47.744  28.231  32.367  1.00  0.00     0.001 A 
ATOM     89  C   UNL A   1      47.735  27.258  33.365  1.00  0.00     0.000 A 
ENDBRANCH  71  84
ENDBRANCH  45  46
ENDBRANCH  37  40
ENDBRANCH  35  36
ENDBRANCH  34  35
ENDBRANCH   1  34
TORSDOF 15
ENDMDL
MODEL 2
REMARK VINA RESULT:     -12.4      4.509      9.475
REMARK SMILES CS(=O)(=O)Nc1ccc(-c2cc(Cl)cc3c2O[C@H](C(F)(F)F)C(C(=O)NCCCCNC(=O)c2ccc(-c4c5nc(c(-c6ccccc6)c6ccc([nH]6)c(-c6ccccc6)c6nc(c(-c7ccccc7)c7ccc4[nH]7)C=C6)C=C5)cc2)=C3)cc1
REMARK SMILES IDX 28 1 27 2 26 3 24 4 25 5 23 7 10 8 11 9 16 10 12 11 15 12
REMARK SMILES IDX 17 13 13 14 14 15 82 16 18 17 9 18 6 19 7 20 84 21 8 22
REMARK SMILES IDX 83 23 5 24 2 26 1 27 3 28 4 29 19 30 20 31 21 32 22 33 29 34
REMARK SMILES IDX 30 35 31 36 32 37 33 39 34 40 35 41 81 42 36 43 80 44 37 45
REMARK SMILES IDX 38 46 39 47 74 48 40 49 79 50 73 51 75 52 41 53 78 54 72 55
REMARK SMILES IDX 71 56 42 58 64 59 49 60 63 61 50 62 53 63 62 64 76 65 51 66
REMARK SMILES IDX 52 67 61 69 77 70 54 71 43 72 44 73 48 74 45 75 47 76 46 77
REMARK SMILES IDX 65 78 66 79 70 80 67 81 69 82 68 83 55 84 56 85 60 86 57 87
REMARK SMILES IDX 59 88 58 89
REMARK H PARENT 26 6 5 25 31 38 75 57 53 68
REMARK Flexibility Score: inf
ROOT
ATOM      1  C   UNL A   1      37.066  20.872  24.673  1.00  0.00     0.023 C 
ENDROOT
BRANCH   1   2
ATOM      2  C   UNL A   1      36.750  21.870  25.796  1.00  0.00     0.116 C 
BRANCH   2   3
ATOM      3  N   UNL A   1      36.490  23.175  25.227  1.00  0.00    -0.352 N 
ATOM      4  C   UNL A   1      35.406  23.630  24.561  1.00  0.00     0.251 C 
ATOM      5  O   UNL A   1      35.573  24.524  23.736  1.00  0.00    -0.270 OA
ATOM      6  H   UNL A   1      37.214  23.832  25.343  1.00  0.00     0.163 HD
BRANCH   4   7
ATOM      7  C   UNL A   1      34.054  23.116  24.938  1.00  0.00     0.067 C 
ATOM      8  C   UNL A   1      31.842  26.430  24.088  1.00  0.00     0.026 A 
ATOM      9  C   UNL A   1      32.554  27.537  24.627  1.00  0.00     0.033 A 
ATOM     10  C   UNL A   1      32.266  25.160  24.512  1.00  0.00     0.135 A 
ATOM     11  C   UNL A   1      33.493  27.407  25.646  1.00  0.00     0.042 A 
ATOM     12  C   UNL A   1      33.129  25.056  25.633  1.00  0.00     0.019 A 
ATOM     13  O   UNL A   1      31.937  23.987  23.846  1.00  0.00    -0.475 OA
ATOM     14  Cl  UNL A   1      34.338  28.793  26.209  1.00  0.00    -0.084 Cl
ATOM     15  C   UNL A   1      33.727  26.172  26.213  1.00  0.00     0.032 A 
ATOM     16  C   UNL A   1      33.565  23.704  26.048  1.00  0.00     0.025 C 
ATOM     17  C   UNL A   1      33.062  23.002  23.782  1.00  0.00     0.314 C 
BRANCH   8  18
ATOM     18  C   UNL A   1      30.610  26.801  23.337  1.00  0.00    -0.014 A 
ATOM     19  C   UNL A   1      28.428  28.572  22.882  1.00  0.00     0.048 A 
ATOM     20  C   UNL A   1      29.606  28.682  22.139  1.00  0.00     0.027 A 
ATOM     21  C   UNL A   1      28.275  27.463  23.712  1.00  0.00     0.027 A 
ATOM     22  C   UNL A   1      30.671  27.790  22.336  1.00  0.00     0.011 A 
ATOM     23  C   UNL A   1      29.354  26.580  23.931  1.00  0.00     0.011 A 
BRANCH  19  24
ATOM     24  N   UNL A   1      27.578  29.716  22.892  1.00  0.00    -0.284 N 
ATOM     25  H   UNL A   1      26.644  29.564  22.620  1.00  0.00     0.180 HD
BRANCH  24  26
ATOM     26  S   UNL A   1      27.975  31.275  23.307  1.00  0.00     0.229 S 
ATOM     27  C   UNL A   1      28.136  32.114  21.740  1.00  0.00     0.183 C 
ATOM     28  O   UNL A   1      29.253  31.288  23.986  1.00  0.00    -0.207 OA
ATOM     29  O   UNL A   1      26.787  31.801  23.946  1.00  0.00    -0.207 OA
ENDBRANCH  24  26
ENDBRANCH  19  24
ENDBRANCH   8  18
BRANCH  17  30
ATOM     30  C   UNL A   1      32.541  21.548  23.731  1.00  0.00     0.429 C 
ATOM     31  F   UNL A   1      33.501  20.638  24.007  1.00  0.00    -0.167 F 
ATOM     32  F   UNL A   1      31.526  21.361  24.609  1.00  0.00    -0.167 F 
ATOM     33  F   UNL A   1      32.042  21.221  22.507  1.00  0.00    -0.167 F 
ENDBRANCH  17  30
ENDBRANCH   4   7
ENDBRANCH   2   3
ENDBRANCH   1   2
BRANCH   1  34
ATOM     34  C   UNL A   1      38.041  19.747  25.050  1.00  0.00     0.023 C 
BRANCH  34  35
ATOM     35  C   UNL A   1      39.293  20.206  25.783  1.00  0.00     0.116 C 
BRANCH  35  36
ATOM     36  N   UNL A   1      40.287  19.149  25.877  1.00  0.00    -0.352 N 
ATOM     37  C   UNL A   1      41.634  19.254  26.126  1.00  0.00     0.251 C 
ATOM     38  H   UNL A   1      39.948  18.233  25.745  1.00  0.00     0.163 HD
ATOM     39  O   UNL A   1      42.370  18.284  25.983  1.00  0.00    -0.269 OA
BRANCH  37  40
ATOM     40  C   UNL A   1      42.196  20.555  26.548  1.00  0.00     0.039 A 
ATOM     41  C   UNL A   1      42.779  21.388  25.591  1.00  0.00     0.014 A 
ATOM     42  C   UNL A   1      42.128  20.953  27.885  1.00  0.00     0.014 A 
ATOM     43  C   UNL A   1      43.240  22.654  25.966  1.00  0.00     0.010 A 
ATOM     44  C   UNL A   1      42.516  22.240  28.240  1.00  0.00     0.010 A 
ATOM     45  C   UNL A   1      43.081  23.102  27.287  1.00  0.00    -0.014 A 
BRANCH  45  46
ATOM     46  C   UNL A   1      43.516  24.457  27.712  1.00  0.00     0.031 A 
ATOM     47  C   UNL A   1      42.483  25.496  28.056  1.00  0.00     0.074 A 
ATOM     48  C   UNL A   1      44.824  24.783  27.704  1.00  0.00     0.049 A 
ATOM     49  N   UNL A   1      42.643  26.768  28.314  1.00  0.00    -0.248 NA
ATOM     50  C   UNL A   1      41.080  25.048  28.084  1.00  0.00     0.031 C 
ATOM     51  C   UNL A   1      45.925  23.879  27.370  1.00  0.00     0.029 A 
ATOM     52  N   UNL A   1      45.446  25.978  27.972  1.00  0.00    -0.354 N 
ATOM     53  C   UNL A   1      41.364  27.276  28.505  1.00  0.00     0.074 A 
ATOM     54  C   UNL A   1      40.437  26.188  28.288  1.00  0.00     0.031 C 
ATOM     55  C   UNL A   1      47.087  24.546  27.466  1.00  0.00     0.029 A 
ATOM     56  C   UNL A   1      46.812  25.935  27.822  1.00  0.00     0.049 A 
ATOM     57  H   UNL A   1      44.960  26.789  28.247  1.00  0.00     0.167 HD
ATOM     58  C   UNL A   1      40.993  28.534  28.846  1.00  0.00     0.031 A 
ATOM     59  C   UNL A   1      47.736  26.908  27.938  1.00  0.00     0.031 A 
ATOM     60  C   UNL A   1      41.915  29.611  29.081  1.00  0.00     0.049 A 
ATOM     61  C   UNL A   1      47.296  28.302  28.298  1.00  0.00     0.074 A 
ATOM     62  C   UNL A   1      41.641  30.906  29.483  1.00  0.00     0.029 A 
ATOM     63  N   UNL A   1      43.290  29.517  28.939  1.00  0.00    -0.354 N 
ATOM     64  N   UNL A   1      46.087  28.754  28.527  1.00  0.00    -0.248 NA
ATOM     65  C   UNL A   1      48.351  29.319  28.424  1.00  0.00     0.031 C 
ATOM     66  C   UNL A   1      42.846  31.612  29.532  1.00  0.00     0.029 A 
ATOM     67  C   UNL A   1      43.876  30.737  29.225  1.00  0.00     0.049 A 
ATOM     68  H   UNL A   1      43.778  28.704  28.673  1.00  0.00     0.167 HD
ATOM     69  C   UNL A   1      46.241  30.093  28.866  1.00  0.00     0.074 A 
ATOM     70  C   UNL A   1      47.659  30.379  28.816  1.00  0.00     0.031 C 
ATOM     71  C   UNL A   1      45.291  31.001  29.194  1.00  0.00     0.031 A 
BRANCH  58  72
ATOM     72  C   UNL A   1      39.522  28.813  28.979  1.00  0.00    -0.014 A 
ATOM     73  C   UNL A   1      38.848  28.614  30.195  1.00  0.00     0.009 A 
ATOM     74  C   UNL A   1      38.807  29.323  27.884  1.00  0.00     0.009 A 
ATOM     75  C   UNL A   1      37.482  28.885  30.299  1.00  0.00     0.001 A 
ATOM     76  C   UNL A   1      37.450  29.623  27.999  1.00  0.00     0.001 A 
ATOM     77  C   UNL A   1      36.786  29.394  29.204  1.00  0.00     0.000 A 
ENDBRANCH  58  72
BRANCH  59  78
ATOM     78  C   UNL A   1      49.176  26.605  27.718  1.00  0.00    -0.014 A 
ATOM     79  C   UNL A   1      49.737  26.713  26.435  1.00  0.00     0.009 A 
ATOM     80  C   UNL A   1      49.992  26.184  28.779  1.00  0.00     0.009 A 
ATOM     81  C   UNL A   1      51.074  26.374  26.215  1.00  0.00     0.001 A 
ATOM     82  C   UNL A   1      51.336  25.875  28.563  1.00  0.00     0.001 A 
ATOM     83  C   UNL A   1      51.873  25.959  27.280  1.00  0.00     0.000 A 
ENDBRANCH  59  78
BRANCH  71  84
ATOM     84  C   UNL A   1      45.749  32.375  29.594  1.00  0.00    -0.014 A 
ATOM     85  C   UNL A   1      46.102  32.678  30.917  1.00  0.00     0.009 A 
ATOM     86  C   UNL A   1      45.895  33.364  28.606  1.00  0.00     0.009 A 
ATOM     87  C   UNL A   1      46.572  33.951  31.246  1.00  0.00     0.001 A 
ATOM     88  C   UNL A   1      46.393  34.625  28.933  1.00  0.00     0.001 A 
ATOM     89  C   UNL A   1      46.725  34.920  30.254  1.00  0.00     0.000 A 
ENDBRANCH  71  84
ENDBRANCH  45  46
ENDBRANCH  37  40
ENDBRANCH  35  36
ENDBRANCH  34  35
ENDBRANCH   1  34
TORSDOF 15
ENDMDL
MODEL 3
REMARK VINA RESULT:     -12.0      2.618      3.912
REMARK SMILES CS(=O)(=O)Nc1ccc(-c2cc(Cl)cc3c2O[C@H](C(F)(F)F)C(C(=O)NCCCCNC(=O)c2ccc(-c4c5nc(c(-c6ccccc6)c6ccc([nH]6)c(-c6ccccc6)c6nc(c(-c7ccccc7)c7ccc4[nH]7)C=C6)C=C5)cc2)=C3)cc1
REMARK SMILES IDX 28 1 27 2 26 3 24 4 25 5 23 7 10 8 11 9 16 10 12 11 15 12
REMARK SMILES IDX 17 13 13 14 14 15 82 16 18 17 9 18 6 19 7 20 84 21 8 22
REMARK SMILES IDX 83 23 5 24 2 26 1 27 3 28 4 29 19 30 20 31 21 32 22 33 29 34
REMARK SMILES IDX 30 35 31 36 32 37 33 39 34 40 35 41 81 42 36 43 80 44 37 45
REMARK SMILES IDX 38 46 39 47 74 48 40 49 79 50 73 51 75 52 41 53 78 54 72 55
REMARK SMILES IDX 71 56 42 58 64 59 49 60 63 61 50 62 53 63 62 64 76 65 51 66
REMARK SMILES IDX 52 67 61 69 77 70 54 71 43 72 44 73 48 74 45 75 47 76 46 77
REMARK SMILES IDX 65 78 66 79 70 80 67 81 69 82 68 83 55 84 56 85 60 86 57 87
REMARK SMILES IDX 59 88 58 89
REMARK H PARENT 26 6 5 25 31 38 75 57 53 68
REMARK Flexibility Score: inf
ROOT
ATOM      1  C   UNL A   1      32.033  29.497  25.409  1.00  0.00     0.023 C 
ENDROOT
BRANCH   1   2
ATOM      2  C   UNL A   1      31.234  28.661  24.400  1.00  0.00     0.116 C 
BRANCH   2   3
ATOM      3  N   UNL A   1      30.956  27.357  24.963  1.00  0.00    -0.352 N 
ATOM      4  C   UNL A   1      31.178  26.126  24.451  1.00  0.00     0.251 C 
ATOM      5  O   UNL A   1      30.433  25.216  24.804  1.00  0.00    -0.270 OA
ATOM      6  H   UNL A   1      30.543  27.369  25.856  1.00  0.00     0.163 HD
BRANCH   4   7
ATOM      7  C   UNL A   1      32.374  25.905  23.583  1.00  0.00     0.067 C 
ATOM      8  C   UNL A   1      33.134  22.011  24.506  1.00  0.00     0.026 A 
ATOM      9  C   UNL A   1      33.030  21.906  25.920  1.00  0.00     0.033 A 
ATOM     10  C   UNL A   1      33.198  23.315  23.988  1.00  0.00     0.135 A 
ATOM     11  C   UNL A   1      33.164  23.000  26.770  1.00  0.00     0.042 A 
ATOM     12  C   UNL A   1      33.459  24.397  24.868  1.00  0.00     0.019 A 
ATOM     13  O   UNL A   1      32.953  23.617  22.656  1.00  0.00    -0.475 OA
ATOM     14  Cl  UNL A   1      32.983  22.790  28.466  1.00  0.00    -0.084 Cl
ATOM     15  C   UNL A   1      33.462  24.242  26.252  1.00  0.00     0.032 A 
ATOM     16  C   UNL A   1      33.511  25.760  24.292  1.00  0.00     0.025 C 
ATOM     17  C   UNL A   1      32.179  24.884  22.465  1.00  0.00     0.314 C 
BRANCH   8  18
ATOM     18  C   UNL A   1      33.388  20.717  23.813  1.00  0.00    -0.014 A 
ATOM     19  C   UNL A   1      33.176  17.880  23.713  1.00  0.00     0.048 A 
ATOM     20  C   UNL A   1      32.230  18.691  23.080  1.00  0.00     0.027 A 
ATOM     21  C   UNL A   1      34.321  18.484  24.227  1.00  0.00     0.027 A 
ATOM     22  C   UNL A   1      32.349  20.089  23.098  1.00  0.00     0.011 A 
ATOM     23  C   UNL A   1      34.431  19.890  24.269  1.00  0.00     0.011 A 
BRANCH  19  24
ATOM     24  N   UNL A   1      32.783  16.534  23.968  1.00  0.00    -0.284 N 
ATOM     25  H   UNL A   1      32.252  16.096  23.264  1.00  0.00     0.180 HD
BRANCH  24  26
ATOM     26  S   UNL A   1      33.115  15.615  25.312  1.00  0.00     0.229 S 
ATOM     27  C   UNL A   1      34.899  15.534  25.352  1.00  0.00     0.183 C 
ATOM     28  O   UNL A   1      32.584  14.282  25.136  1.00  0.00    -0.207 OA
ATOM     29  O   UNL A   1      32.708  16.438  26.432  1.00  0.00    -0.207 OA
ENDBRANCH  24  26
ENDBRANCH  19  24
ENDBRANCH   8  18
BRANCH  17  30
ATOM     30  C   UNL A   1      32.527  25.563  21.121  1.00  0.00     0.429 C 
ATOM     31  F   UNL A   1      31.458  26.146  20.536  1.00  0.00    -0.167 F 
ATOM     32  F   UNL A   1      33.479  26.514  21.284  1.00  0.00    -0.167 F 
ATOM     33  F   UNL A   1      33.030  24.683  20.212  1.00  0.00    -0.167 F 
ENDBRANCH  17  30
ENDBRANCH   4   7
ENDBRANCH   2   3
ENDBRANCH   1   2
BRANCH   1  34
ATOM     34  C   UNL A   1      33.435  28.964  25.741  1.00  0.00     0.023 C 
BRANCH  34  35
ATOM     35  C   UNL A   1      33.781  28.956  27.223  1.00  0.00     0.116 C 
BRANCH  35  36
ATOM     36  N   UNL A   1      33.764  30.293  27.793  1.00  0.00    -0.352 N 
ATOM     37  C   UNL A   1      34.724  30.918  28.551  1.00  0.00     0.251 C 
ATOM     38  H   UNL A   1      32.953  30.823  27.612  1.00  0.00     0.163 HD
ATOM     39  O   UNL A   1      34.477  31.976  29.119  1.00  0.00    -0.269 OA
BRANCH  37  40
ATOM     40  C   UNL A   1      36.056  30.292  28.697  1.00  0.00     0.039 A 
ATOM     41  C   UNL A   1      36.942  30.314  27.617  1.00  0.00     0.014 A 
ATOM     42  C   UNL A   1      36.429  29.700  29.906  1.00  0.00     0.014 A 
ATOM     43  C   UNL A   1      38.232  29.798  27.772  1.00  0.00     0.010 A 
ATOM     44  C   UNL A   1      37.736  29.257  30.080  1.00  0.00     0.010 A 
ATOM     45  C   UNL A   1      38.649  29.296  29.015  1.00  0.00    -0.014 A 
BRANCH  45  46
ATOM     46  C   UNL A   1      40.026  28.780  29.230  1.00  0.00     0.031 A 
ATOM     47  C   UNL A   1      41.082  29.694  29.790  1.00  0.00     0.074 A 
ATOM     48  C   UNL A   1      40.350  27.531  28.844  1.00  0.00     0.049 A 
ATOM     49  N   UNL A   1      42.367  29.489  29.925  1.00  0.00    -0.248 NA
ATOM     50  C   UNL A   1      40.637  31.029  30.228  1.00  0.00     0.031 C 
ATOM     51  C   UNL A   1      39.428  26.551  28.268  1.00  0.00     0.029 A 
ATOM     52  N   UNL A   1      41.558  26.876  28.865  1.00  0.00    -0.354 N 
ATOM     53  C   UNL A   1      42.886  30.673  30.434  1.00  0.00     0.074 A 
ATOM     54  C   UNL A   1      41.788  31.607  30.540  1.00  0.00     0.031 C 
ATOM     55  C   UNL A   1      40.099  25.418  28.003  1.00  0.00     0.029 A 
ATOM     56  C   UNL A   1      41.506  25.605  28.346  1.00  0.00     0.049 A 
ATOM     57  H   UNL A   1      42.383  27.280  29.219  1.00  0.00     0.167 HD
ATOM     58  C   UNL A   1      44.160  30.954  30.796  1.00  0.00     0.031 A 
ATOM     59  C   UNL A   1      42.483  24.699  28.151  1.00  0.00     0.031 A 
ATOM     60  C   UNL A   1      45.248  30.019  30.709  1.00  0.00     0.049 A 
ATOM     61  C   UNL A   1      43.895  25.044  28.542  1.00  0.00     0.074 A 
ATOM     62  C   UNL A   1      46.565  30.192  31.100  1.00  0.00     0.029 A 
ATOM     63  N   UNL A   1      45.147  28.736  30.198  1.00  0.00    -0.354 N 
ATOM     64  N   UNL A   1      44.360  26.149  29.072  1.00  0.00    -0.248 NA
ATOM     65  C   UNL A   1      44.917  24.010  28.317  1.00  0.00     0.031 C 
ATOM     66  C   UNL A   1      47.271  29.030  30.777  1.00  0.00     0.029 A 
ATOM     67  C   UNL A   1      46.380  28.112  30.245  1.00  0.00     0.049 A 
ATOM     68  H   UNL A   1      44.319  28.328  29.852  1.00  0.00     0.167 HD
ATOM     69  C   UNL A   1      45.716  25.928  29.282  1.00  0.00     0.074 A 
ATOM     70  C   UNL A   1      45.998  24.583  28.828  1.00  0.00     0.031 C 
ATOM     71  C   UNL A   1      46.641  26.764  29.811  1.00  0.00     0.031 A 
BRANCH  58  72
ATOM     72  C   UNL A   1      44.447  32.336  31.314  1.00  0.00    -0.014 A 
ATOM     73  C   UNL A   1      44.371  32.631  32.685  1.00  0.00     0.009 A 
ATOM     74  C   UNL A   1      44.842  33.347  30.424  1.00  0.00     0.009 A 
ATOM     75  C   UNL A   1      44.647  33.920  33.148  1.00  0.00     0.001 A 
ATOM     76  C   UNL A   1      45.148  34.625  30.892  1.00  0.00     0.001 A 
ATOM     77  C   UNL A   1      45.040  34.913  32.252  1.00  0.00     0.000 A 
ENDBRANCH  58  72
BRANCH  59  78
ATOM     78  C   UNL A   1      42.168  23.371  27.558  1.00  0.00    -0.014 A 
ATOM     79  C   UNL A   1      41.675  22.332  28.362  1.00  0.00     0.009 A 
ATOM     80  C   UNL A   1      42.380  23.127  26.192  1.00  0.00     0.009 A 
ATOM     81  C   UNL A   1      41.434  21.068  27.819  1.00  0.00     0.001 A 
ATOM     82  C   UNL A   1      42.107  21.872  25.644  1.00  0.00     0.001 A 
ATOM     83  C   UNL A   1      41.646  20.840  26.460  1.00  0.00     0.000 A 
ENDBRANCH  59  78
BRANCH  71  84
ATOM     84  C   UNL A   1      48.035  26.235  29.994  1.00  0.00    -0.014 A 
ATOM     85  C   UNL A   1      48.976  26.262  28.953  1.00  0.00     0.009 A 
ATOM     86  C   UNL A   1      48.431  25.766  31.258  1.00  0.00     0.009 A 
ATOM     87  C   UNL A   1      50.279  25.809  29.171  1.00  0.00     0.001 A 
ATOM     88  C   UNL A   1      49.741  25.343  31.480  1.00  0.00     0.001 A 
ATOM     89  C   UNL A   1      50.662  25.358  30.434  1.00  0.00     0.000 A 
ENDBRANCH  71  84
ENDBRANCH  45  46
ENDBRANCH  37  40
ENDBRANCH  35  36
ENDBRANCH  34  35
ENDBRANCH   1  34
TORSDOF 15
ENDMDL
