MODEL 1
REMARK VINA RESULT:     -10.8      0.000      0.000
REMARK SMILES O=C(NCCCCNC(=O)c1oc2cccc3c2c1CCC3)c1ccc(-c2c3nc(c(-c4ccccc4)c4ccc([nH]4)c(-c4ccccc4)c4nc(c(-c5ccccc5)c5ccc2[nH]5)C=C4)C=C3)cc1
REMARK SMILES IDX 4 1 3 2 1 3 2 4 23 6 24 7 70 8 25 9 69 10 26 11 27 12 28 13
REMARK SMILES IDX 63 14 29 15 68 16 62 17 64 18 30 19 67 20 61 21 60 22 31 24
REMARK SMILES IDX 53 25 38 26 52 27 39 28 42 29 51 30 65 31 40 32 41 33 50 35
REMARK SMILES IDX 66 36 43 37 32 38 33 39 37 40 34 41 36 42 35 43 54 44 55 45
REMARK SMILES IDX 59 46 56 47 58 48 57 49 44 50 45 51 49 52 46 53 48 54 47 55
REMARK SMILES IDX 5 56 6 57 7 58 8 59 9 60 10 62 11 63 12 64 19 65 13 66 18 67
REMARK SMILES IDX 20 68 14 69 17 70 21 71 15 72 16 73 22 74
REMARK H PARENT 3 5 64 23 42 34 8 61
REMARK Flexibility Score: inf
ROOT
ATOM      1  C   UNL A   1      46.644  25.647  28.956  1.00  0.00     0.116 C 
ENDROOT
BRANCH   1   2
ATOM      2  N   UNL A   1      46.068  24.818  30.001  1.00  0.00    -0.352 N 
ATOM      3  O   UNL A   1      44.642  23.979  31.505  1.00  0.00    -0.269 OA
ATOM      4  C   UNL A   1      44.888  24.875  30.698  1.00  0.00     0.251 C 
ATOM      5  H   UNL A   1      46.642  24.061  30.263  1.00  0.00     0.163 HD
BRANCH   4   6
ATOM      6  C   UNL A   1      43.942  26.008  30.577  1.00  0.00     0.039 A 
ATOM      7  C   UNL A   1      43.101  26.190  29.481  1.00  0.00     0.014 A 
ATOM      8  C   UNL A   1      43.898  26.928  31.636  1.00  0.00     0.014 A 
ATOM      9  C   UNL A   1      42.339  27.348  29.374  1.00  0.00     0.010 A 
ATOM     10  C   UNL A   1      43.092  28.064  31.557  1.00  0.00     0.010 A 
ATOM     11  C   UNL A   1      42.344  28.297  30.403  1.00  0.00    -0.014 A 
BRANCH  11  12
ATOM     12  C   UNL A   1      41.466  29.456  30.232  1.00  0.00     0.031 A 
ATOM     13  C   UNL A   1      42.132  30.767  29.966  1.00  0.00     0.074 A 
ATOM     14  C   UNL A   1      40.122  29.414  30.179  1.00  0.00     0.049 A 
ATOM     15  N   UNL A   1      42.029  31.878  30.625  1.00  0.00    -0.248 NA
ATOM     16  C   UNL A   1      43.040  30.828  28.812  1.00  0.00     0.031 C 
ATOM     17  C   UNL A   1      39.252  28.246  30.057  1.00  0.00     0.029 A 
ATOM     18  N   UNL A   1      39.254  30.467  30.114  1.00  0.00    -0.354 N 
ATOM     19  C   UNL A   1      42.773  32.815  29.914  1.00  0.00     0.074 A 
ATOM     20  C   UNL A   1      43.418  32.105  28.835  1.00  0.00     0.031 C 
ATOM     21  C   UNL A   1      38.012  28.658  29.712  1.00  0.00     0.029 A 
ATOM     22  C   UNL A   1      37.976  30.113  29.725  1.00  0.00     0.049 A 
ATOM     23  H   UNL A   1      39.514  31.393  30.327  1.00  0.00     0.167 HD
ATOM     24  C   UNL A   1      42.744  34.153  30.155  1.00  0.00     0.031 A 
ATOM     25  C   UNL A   1      36.983  30.958  29.363  1.00  0.00     0.031 A 
ATOM     26  C   UNL A   1      42.152  34.505  31.410  1.00  0.00     0.049 A 
ATOM     27  C   UNL A   1      37.287  32.303  29.899  1.00  0.00     0.074 A 
ATOM     28  C   UNL A   1      42.478  34.327  32.738  1.00  0.00     0.029 A 
ATOM     29  N   UNL A   1      40.857  34.954  31.393  1.00  0.00    -0.354 N 
ATOM     30  N   UNL A   1      37.276  32.615  31.163  1.00  0.00    -0.248 NA
ATOM     31  C   UNL A   1      37.870  33.307  29.019  1.00  0.00     0.031 C 
ATOM     32  C   UNL A   1      41.234  34.279  33.431  1.00  0.00     0.029 A 
ATOM     33  C   UNL A   1      40.222  34.401  32.476  1.00  0.00     0.049 A 
ATOM     34  H   UNL A   1      40.457  35.561  30.729  1.00  0.00     0.167 HD
ATOM     35  C   UNL A   1      38.175  33.660  31.285  1.00  0.00     0.074 A 
ATOM     36  C   UNL A   1      38.380  34.142  29.927  1.00  0.00     0.031 C 
ATOM     37  C   UNL A   1      38.884  33.851  32.435  1.00  0.00     0.031 A 
BRANCH  24  38
ATOM     38  C   UNL A   1      43.045  35.181  29.105  1.00  0.00    -0.014 A 
ATOM     39  C   UNL A   1      42.092  35.486  28.121  1.00  0.00     0.009 A 
ATOM     40  C   UNL A   1      44.344  35.698  28.932  1.00  0.00     0.009 A 
ATOM     41  C   UNL A   1      42.421  36.289  27.023  1.00  0.00     0.001 A 
ATOM     42  C   UNL A   1      44.666  36.527  27.855  1.00  0.00     0.001 A 
ATOM     43  C   UNL A   1      43.705  36.815  26.895  1.00  0.00     0.000 A 
ENDBRANCH  24  38
BRANCH  25  44
ATOM     44  C   UNL A   1      35.896  30.728  28.389  1.00  0.00    -0.014 A 
ATOM     45  C   UNL A   1      35.822  29.523  27.674  1.00  0.00     0.009 A 
ATOM     46  C   UNL A   1      34.784  31.589  28.339  1.00  0.00     0.009 A 
ATOM     47  C   UNL A   1      34.663  29.176  26.968  1.00  0.00     0.001 A 
ATOM     48  C   UNL A   1      33.633  31.250  27.622  1.00  0.00     0.001 A 
ATOM     49  C   UNL A   1      33.567  30.035  26.950  1.00  0.00     0.000 A 
ENDBRANCH  25  44
BRANCH  37  50
ATOM     50  C   UNL A   1      38.416  33.128  33.671  1.00  0.00    -0.014 A 
ATOM     51  C   UNL A   1      38.737  31.782  33.912  1.00  0.00     0.009 A 
ATOM     52  C   UNL A   1      37.768  33.854  34.681  1.00  0.00     0.009 A 
ATOM     53  C   UNL A   1      38.394  31.169  35.121  1.00  0.00     0.001 A 
ATOM     54  C   UNL A   1      37.441  33.246  35.897  1.00  0.00     0.001 A 
ATOM     55  C   UNL A   1      37.751  31.905  36.115  1.00  0.00     0.000 A 
ENDBRANCH  37  50
ENDBRANCH  11  12
ENDBRANCH   4   6
ENDBRANCH   1   2
BRANCH   1  56
ATOM     56  C   UNL A   1      46.067  25.443  27.554  1.00  0.00     0.023 C 
BRANCH  56  57
ATOM     57  C   UNL A   1      46.330  24.073  26.929  1.00  0.00     0.023 C 
BRANCH  57  58
ATOM     58  C   UNL A   1      45.161  23.098  26.986  1.00  0.00     0.116 C 
BRANCH  58  59
ATOM     59  N   UNL A   1      44.721  22.641  25.682  1.00  0.00    -0.349 N 
ATOM     60  C   UNL A   1      43.717  23.178  24.897  1.00  0.00     0.287 C 
ATOM     61  H   UNL A   1      45.192  21.859  25.312  1.00  0.00     0.163 HD
ATOM     62  O   UNL A   1      43.437  22.615  23.850  1.00  0.00    -0.266 OA
BRANCH  60  63
ATOM     63  C   UNL A   1      43.047  24.359  25.394  1.00  0.00     0.195 A 
ATOM     64  O   UNL A   1      43.548  25.589  25.010  1.00  0.00    -0.451 OA
ATOM     65  C   UNL A   1      41.905  24.541  26.155  1.00  0.00     0.012 A 
ATOM     66  C   UNL A   1      42.672  26.540  25.448  1.00  0.00     0.135 A 
ATOM     67  C   UNL A   1      41.659  25.923  26.140  1.00  0.00     0.028 A 
ATOM     68  C   UNL A   1      40.937  23.646  26.852  1.00  0.00     0.041 C 
ATOM     69  C   UNL A   1      42.706  27.910  25.244  1.00  0.00     0.048 A 
ATOM     70  C   UNL A   1      40.580  26.619  26.683  1.00  0.00    -0.037 A 
ATOM     71  C   UNL A   1      40.092  24.451  27.886  1.00  0.00     0.010 C 
ATOM     72  C   UNL A   1      41.614  28.628  25.768  1.00  0.00     0.004 A 
ATOM     73  C   UNL A   1      40.563  27.999  26.465  1.00  0.00     0.004 A 
ATOM     74  C   UNL A   1      39.512  25.797  27.351  1.00  0.00     0.036 C 
ENDBRANCH  60  63
ENDBRANCH  58  59
ENDBRANCH  57  58
ENDBRANCH  56  57
ENDBRANCH   1  56
TORSDOF 11
ENDMDL
MODEL 2
REMARK VINA RESULT:     -10.6      3.286     10.262
REMARK SMILES O=C(NCCCCNC(=O)c1oc2cccc3c2c1CCC3)c1ccc(-c2c3nc(c(-c4ccccc4)c4ccc([nH]4)c(-c4ccccc4)c4nc(c(-c5ccccc5)c5ccc2[nH]5)C=C4)C=C3)cc1
REMARK SMILES IDX 4 1 3 2 1 3 2 4 23 6 24 7 70 8 25 9 69 10 26 11 27 12 28 13
REMARK SMILES IDX 63 14 29 15 68 16 62 17 64 18 30 19 67 20 61 21 60 22 31 24
REMARK SMILES IDX 53 25 38 26 52 27 39 28 42 29 51 30 65 31 40 32 41 33 50 35
REMARK SMILES IDX 66 36 43 37 32 38 33 39 37 40 34 41 36 42 35 43 54 44 55 45
REMARK SMILES IDX 59 46 56 47 58 48 57 49 44 50 45 51 49 52 46 53 48 54 47 55
REMARK SMILES IDX 5 56 6 57 7 58 8 59 9 60 10 62 11 63 12 64 19 65 13 66 18 67
REMARK SMILES IDX 20 68 14 69 17 70 21 71 15 72 16 73 22 74
REMARK H PARENT 3 5 64 23 42 34 8 61
REMARK Flexibility Score: inf
ROOT
ATOM      1  C   UNL A   1      40.462  34.364  32.999  1.00  0.00     0.116 C 
ENDROOT
BRANCH   1   2
ATOM      2  N   UNL A   1      40.656  34.866  31.649  1.00  0.00    -0.352 N 
ATOM      3  O   UNL A   1      40.986  34.951  29.440  1.00  0.00    -0.269 OA
ATOM      4  C   UNL A   1      40.934  34.255  30.453  1.00  0.00     0.251 C 
ATOM      5  H   UNL A   1      40.571  35.845  31.579  1.00  0.00     0.163 HD
BRANCH   4   6
ATOM      6  C   UNL A   1      41.249  32.812  30.347  1.00  0.00     0.039 A 
ATOM      7  C   UNL A   1      42.535  32.323  30.121  1.00  0.00     0.014 A 
ATOM      8  C   UNL A   1      40.187  31.906  30.496  1.00  0.00     0.014 A 
ATOM      9  C   UNL A   1      42.734  30.966  29.898  1.00  0.00     0.010 A 
ATOM     10  C   UNL A   1      40.393  30.537  30.328  1.00  0.00     0.010 A 
ATOM     11  C   UNL A   1      41.661  30.070  29.983  1.00  0.00    -0.014 A 
BRANCH  11  12
ATOM     12  C   UNL A   1      41.973  28.652  29.793  1.00  0.00     0.031 A 
ATOM     13  C   UNL A   1      42.727  27.979  30.894  1.00  0.00     0.074 A 
ATOM     14  C   UNL A   1      41.538  27.888  28.774  1.00  0.00     0.049 A 
ATOM     15  N   UNL A   1      43.855  27.343  30.833  1.00  0.00    -0.248 NA
ATOM     16  C   UNL A   1      42.136  28.042  32.238  1.00  0.00     0.031 C 
ATOM     17  C   UNL A   1      40.517  28.200  27.775  1.00  0.00     0.029 A 
ATOM     18  N   UNL A   1      41.871  26.592  28.497  1.00  0.00    -0.354 N 
ATOM     19  C   UNL A   1      44.071  26.828  32.108  1.00  0.00     0.074 A 
ATOM     20  C   UNL A   1      43.012  27.331  32.948  1.00  0.00     0.031 C 
ATOM     21  C   UNL A   1      40.157  27.057  27.147  1.00  0.00     0.029 A 
ATOM     22  C   UNL A   1      41.015  25.975  27.606  1.00  0.00     0.049 A 
ATOM     23  H   UNL A   1      42.651  26.140  28.896  1.00  0.00     0.167 HD
ATOM     24  C   UNL A   1      45.036  25.917  32.408  1.00  0.00     0.031 A 
ATOM     25  C   UNL A   1      40.965  24.653  27.324  1.00  0.00     0.031 A 
ATOM     26  C   UNL A   1      46.033  25.770  31.393  1.00  0.00     0.049 A 
ATOM     27  C   UNL A   1      42.249  24.034  27.723  1.00  0.00     0.074 A 
ATOM     28  C   UNL A   1      47.027  26.567  30.863  1.00  0.00     0.029 A 
ATOM     29  N   UNL A   1      45.930  24.688  30.558  1.00  0.00    -0.354 N 
ATOM     30  N   UNL A   1      43.390  24.255  27.135  1.00  0.00    -0.248 NA
ATOM     31  C   UNL A   1      42.333  23.318  28.988  1.00  0.00     0.031 C 
ATOM     32  C   UNL A   1      47.182  26.135  29.514  1.00  0.00     0.029 A 
ATOM     33  C   UNL A   1      46.251  25.118  29.295  1.00  0.00     0.049 A 
ATOM     34  H   UNL A   1      45.672  23.773  30.816  1.00  0.00     0.167 HD
ATOM     35  C   UNL A   1      44.346  24.052  28.115  1.00  0.00     0.074 A 
ATOM     36  C   UNL A   1      43.656  23.327  29.172  1.00  0.00     0.031 C 
ATOM     37  C   UNL A   1      45.527  24.734  28.102  1.00  0.00     0.031 A 
BRANCH  24  38
ATOM     38  C   UNL A   1      44.927  24.959  33.557  1.00  0.00    -0.014 A 
ATOM     39  C   UNL A   1      44.161  23.791  33.433  1.00  0.00     0.009 A 
ATOM     40  C   UNL A   1      45.389  25.297  34.844  1.00  0.00     0.009 A 
ATOM     41  C   UNL A   1      43.884  22.987  34.546  1.00  0.00     0.001 A 
ATOM     42  C   UNL A   1      45.143  24.481  35.950  1.00  0.00     0.001 A 
ATOM     43  C   UNL A   1      44.382  23.329  35.802  1.00  0.00     0.000 A 
ENDBRANCH  24  38
BRANCH  25  44
ATOM     44  C   UNL A   1      39.791  23.843  26.938  1.00  0.00    -0.014 A 
ATOM     45  C   UNL A   1      38.540  24.449  26.744  1.00  0.00     0.009 A 
ATOM     46  C   UNL A   1      39.946  22.510  26.515  1.00  0.00     0.009 A 
ATOM     47  C   UNL A   1      37.497  23.757  26.114  1.00  0.00     0.001 A 
ATOM     48  C   UNL A   1      38.902  21.815  25.899  1.00  0.00     0.001 A 
ATOM     49  C   UNL A   1      37.681  22.445  25.684  1.00  0.00     0.000 A 
ENDBRANCH  25  44
BRANCH  37  50
ATOM     50  C   UNL A   1      45.910  25.440  26.827  1.00  0.00    -0.014 A 
ATOM     51  C   UNL A   1      45.382  26.696  26.484  1.00  0.00     0.009 A 
ATOM     52  C   UNL A   1      46.932  24.902  26.031  1.00  0.00     0.009 A 
ATOM     53  C   UNL A   1      45.844  27.384  25.358  1.00  0.00     0.001 A 
ATOM     54  C   UNL A   1      47.406  25.598  24.915  1.00  0.00     0.001 A 
ATOM     55  C   UNL A   1      46.860  26.836  24.578  1.00  0.00     0.000 A 
ENDBRANCH  37  50
ENDBRANCH  11  12
ENDBRANCH   4   6
ENDBRANCH   1   2
BRANCH   1  56
ATOM     56  C   UNL A   1      39.281  34.961  33.766  1.00  0.00     0.023 C 
BRANCH  56  57
ATOM     57  C   UNL A   1      37.981  34.160  33.695  1.00  0.00     0.023 C 
BRANCH  57  58
ATOM     58  C   UNL A   1      37.209  34.292  32.389  1.00  0.00     0.116 C 
BRANCH  58  59
ATOM     59  N   UNL A   1      35.798  33.976  32.512  1.00  0.00    -0.349 N 
ATOM     60  C   UNL A   1      35.182  32.766  32.254  1.00  0.00     0.287 C 
ATOM     61  H   UNL A   1      35.212  34.707  32.816  1.00  0.00     0.163 HD
ATOM     62  O   UNL A   1      33.965  32.704  32.349  1.00  0.00    -0.266 OA
BRANCH  60  63
ATOM     63  C   UNL A   1      36.027  31.662  31.858  1.00  0.00     0.195 A 
ATOM     64  O   UNL A   1      36.653  30.943  32.860  1.00  0.00    -0.451 OA
ATOM     65  C   UNL A   1      36.308  31.087  30.631  1.00  0.00     0.012 A 
ATOM     66  C   UNL A   1      37.249  29.864  32.275  1.00  0.00     0.135 A 
ATOM     67  C   UNL A   1      37.045  29.926  30.919  1.00  0.00     0.028 A 
ATOM     68  C   UNL A   1      35.956  31.382  29.213  1.00  0.00     0.041 C 
ATOM     69  C   UNL A   1      37.934  28.819  32.876  1.00  0.00     0.048 A 
ATOM     70  C   UNL A   1      37.496  28.945  30.039  1.00  0.00    -0.037 A 
ATOM     71  C   UNL A   1      36.909  30.621  28.241  1.00  0.00     0.010 C 
ATOM     72  C   UNL A   1      38.381  27.807  32.005  1.00  0.00     0.004 A 
ATOM     73  C   UNL A   1      38.160  27.858  30.614  1.00  0.00     0.004 A 
ATOM     74  C   UNL A   1      37.133  29.116  28.589  1.00  0.00     0.036 C 
ENDBRANCH  60  63
ENDBRANCH  58  59
ENDBRANCH  57  58
ENDBRANCH  56  57
ENDBRANCH   1  56
TORSDOF 11
ENDMDL
MODEL 3
REMARK VINA RESULT:     -10.2      4.281     10.321
REMARK SMILES O=C(NCCCCNC(=O)c1oc2cccc3c2c1CCC3)c1ccc(-c2c3nc(c(-c4ccccc4)c4ccc([nH]4)c(-c4ccccc4)c4nc(c(-c5ccccc5)c5ccc2[nH]5)C=C4)C=C3)cc1
REMARK SMILES IDX 4 1 3 2 1 3 2 4 23 6 24 7 70 8 25 9 69 10 26 11 27 12 28 13
REMARK SMILES IDX 63 14 29 15 68 16 62 17 64 18 30 19 67 20 61 21 60 22 31 24
REMARK SMILES IDX 53 25 38 26 52 27 39 28 42 29 51 30 65 31 40 32 41 33 50 35
REMARK SMILES IDX 66 36 43 37 32 38 33 39 37 40 34 41 36 42 35 43 54 44 55 45
REMARK SMILES IDX 59 46 56 47 58 48 57 49 44 50 45 51 49 52 46 53 48 54 47 55
REMARK SMILES IDX 5 56 6 57 7 58 8 59 9 60 10 62 11 63 12 64 19 65 13 66 18 67
REMARK SMILES IDX 20 68 14 69 17 70 21 71 15 72 16 73 22 74
REMARK H PARENT 3 5 64 23 42 34 8 61
REMARK Flexibility Score: inf
ROOT
ATOM      1  C   UNL A   1      34.432  31.794  27.638  1.00  0.00     0.116 C 
ENDROOT
BRANCH   1   2
ATOM      2  N   UNL A   1      34.466  32.282  29.007  1.00  0.00    -0.352 N 
ATOM      3  O   UNL A   1      35.136  32.697  31.099  1.00  0.00    -0.269 OA
ATOM      4  C   UNL A   1      35.341  32.095  30.046  1.00  0.00     0.251 C 
ATOM      5  H   UNL A   1      33.705  32.865  29.235  1.00  0.00     0.163 HD
BRANCH   4   6
ATOM      6  C   UNL A   1      36.472  31.140  29.977  1.00  0.00     0.039 A 
ATOM      7  C   UNL A   1      36.327  29.766  30.158  1.00  0.00     0.014 A 
ATOM      8  C   UNL A   1      37.744  31.666  29.704  1.00  0.00     0.014 A 
ATOM      9  C   UNL A   1      37.450  28.950  30.215  1.00  0.00     0.010 A 
ATOM     10  C   UNL A   1      38.868  30.840  29.705  1.00  0.00     0.010 A 
ATOM     11  C   UNL A   1      38.727  29.486  30.006  1.00  0.00    -0.014 A 
BRANCH  11  12
ATOM     12  C   UNL A   1      39.846  28.543  30.024  1.00  0.00     0.031 A 
ATOM     13  C   UNL A   1      40.535  28.347  31.336  1.00  0.00     0.074 A 
ATOM     14  C   UNL A   1      40.223  27.760  28.996  1.00  0.00     0.049 A 
ATOM     15  N   UNL A   1      41.789  28.499  31.624  1.00  0.00    -0.248 NA
ATOM     16  C   UNL A   1      39.696  27.935  32.471  1.00  0.00     0.031 C 
ATOM     17  C   UNL A   1      39.515  27.500  27.744  1.00  0.00     0.029 A 
ATOM     18  N   UNL A   1      41.310  26.935  28.927  1.00  0.00    -0.354 N 
ATOM     19  C   UNL A   1      41.927  28.101  32.950  1.00  0.00     0.074 A 
ATOM     20  C   UNL A   1      40.601  27.813  33.441  1.00  0.00     0.031 C 
ATOM     21  C   UNL A   1      40.070  26.423  27.144  1.00  0.00     0.029 A 
ATOM     22  C   UNL A   1      41.244  26.013  27.899  1.00  0.00     0.049 A 
ATOM     23  H   UNL A   1      42.070  26.993  29.550  1.00  0.00     0.167 HD
ATOM     24  C   UNL A   1      43.124  27.906  33.567  1.00  0.00     0.031 A 
ATOM     25  C   UNL A   1      42.054  24.943  27.728  1.00  0.00     0.031 A 
ATOM     26  C   UNL A   1      44.239  28.460  32.861  1.00  0.00     0.049 A 
ATOM     27  C   UNL A   1      43.299  25.162  28.497  1.00  0.00     0.074 A 
ATOM     28  C   UNL A   1      44.672  29.730  32.541  1.00  0.00     0.029 A 
ATOM     29  N   UNL A   1      45.009  27.599  32.122  1.00  0.00    -0.354 N 
ATOM     30  N   UNL A   1      44.198  26.059  28.208  1.00  0.00    -0.248 NA
ATOM     31  C   UNL A   1      43.456  24.525  29.797  1.00  0.00     0.031 C 
ATOM     32  C   UNL A   1      45.393  29.589  31.320  1.00  0.00     0.029 A 
ATOM     33  C   UNL A   1      45.330  28.243  30.954  1.00  0.00     0.049 A 
ATOM     34  H   UNL A   1      45.281  26.689  32.382  1.00  0.00     0.167 HD
ATOM     35  C   UNL A   1      44.798  26.370  29.416  1.00  0.00     0.074 A 
ATOM     36  C   UNL A   1      44.419  25.291  30.315  1.00  0.00     0.031 C 
ATOM     37  C   UNL A   1      45.308  27.614  29.651  1.00  0.00     0.031 A 
BRANCH  24  38
ATOM     38  C   UNL A   1      43.305  26.971  34.725  1.00  0.00    -0.014 A 
ATOM     39  C   UNL A   1      43.214  25.584  34.535  1.00  0.00     0.009 A 
ATOM     40  C   UNL A   1      43.344  27.442  36.052  1.00  0.00     0.009 A 
ATOM     41  C   UNL A   1      43.182  24.707  35.625  1.00  0.00     0.001 A 
ATOM     42  C   UNL A   1      43.345  26.567  37.141  1.00  0.00     0.001 A 
ATOM     43  C   UNL A   1      43.255  25.198  36.927  1.00  0.00     0.000 A 
ENDBRANCH  24  38
BRANCH  25  44
ATOM     44  C   UNL A   1      41.726  23.636  27.121  1.00  0.00    -0.014 A 
ATOM     45  C   UNL A   1      42.605  23.034  26.207  1.00  0.00     0.009 A 
ATOM     46  C   UNL A   1      40.670  22.855  27.626  1.00  0.00     0.009 A 
ATOM     47  C   UNL A   1      42.453  21.690  25.843  1.00  0.00     0.001 A 
ATOM     48  C   UNL A   1      40.509  21.519  27.251  1.00  0.00     0.001 A 
ATOM     49  C   UNL A   1      41.411  20.931  26.372  1.00  0.00     0.000 A 
ENDBRANCH  25  44
BRANCH  37  50
ATOM     50  C   UNL A   1      45.519  28.517  28.464  1.00  0.00    -0.014 A 
ATOM     51  C   UNL A   1      44.480  29.298  27.929  1.00  0.00     0.009 A 
ATOM     52  C   UNL A   1      46.818  28.699  27.968  1.00  0.00     0.009 A 
ATOM     53  C   UNL A   1      44.729  30.217  26.907  1.00  0.00     0.001 A 
ATOM     54  C   UNL A   1      47.070  29.632  26.958  1.00  0.00     0.001 A 
ATOM     55  C   UNL A   1      46.026  30.387  26.426  1.00  0.00     0.000 A 
ENDBRANCH  37  50
ENDBRANCH  11  12
ENDBRANCH   4   6
ENDBRANCH   1   2
BRANCH   1  56
ATOM     56  C   UNL A   1      33.601  30.531  27.405  1.00  0.00     0.023 C 
BRANCH  56  57
ATOM     57  C   UNL A   1      34.361  29.347  26.805  1.00  0.00     0.023 C 
BRANCH  57  58
ATOM     58  C   UNL A   1      33.571  28.506  25.811  1.00  0.00     0.116 C 
BRANCH  58  59
ATOM     59  N   UNL A   1      34.098  28.555  24.460  1.00  0.00    -0.349 N 
ATOM     60  C   UNL A   1      33.381  28.607  23.279  1.00  0.00     0.287 C 
ATOM     61  H   UNL A   1      35.079  28.551  24.374  1.00  0.00     0.163 HD
ATOM     62  O   UNL A   1      33.998  28.574  22.225  1.00  0.00    -0.266 OA
BRANCH  60  63
ATOM     63  C   UNL A   1      31.940  28.667  23.381  1.00  0.00     0.195 A 
ATOM     64  O   UNL A   1      31.323  29.856  23.036  1.00  0.00    -0.451 OA
ATOM     65  C   UNL A   1      30.980  27.721  23.696  1.00  0.00     0.012 A 
ATOM     66  C   UNL A   1      29.976  29.631  23.043  1.00  0.00     0.135 A 
ATOM     67  C   UNL A   1      29.745  28.336  23.433  1.00  0.00     0.028 A 
ATOM     68  C   UNL A   1      30.995  26.298  24.141  1.00  0.00     0.041 C 
ATOM     69  C   UNL A   1      28.951  30.498  22.696  1.00  0.00     0.048 A 
ATOM     70  C   UNL A   1      28.468  27.782  23.503  1.00  0.00    -0.037 A 
ATOM     71  C   UNL A   1      29.611  25.894  24.734  1.00  0.00     0.010 C 
ATOM     72  C   UNL A   1      27.654  29.950  22.740  1.00  0.00     0.004 A 
ATOM     73  C   UNL A   1      27.412  28.616  23.126  1.00  0.00     0.004 A 
ATOM     74  C   UNL A   1      28.380  26.328  23.878  1.00  0.00     0.036 C 
ENDBRANCH  60  63
ENDBRANCH  58  59
ENDBRANCH  57  58
ENDBRANCH  56  57
ENDBRANCH   1  56
TORSDOF 11
ENDMDL
