MODEL 1
REMARK VINA RESULT:     -11.4      0.000      0.000
REMARK SMILES O=C(Nc1c(F)cc(F)cc1F)N[C@H]1C=C[C@@H](C(=O)NCCCCNC(=O)c2ccc(-c3c4nc(c(-c5ccccc5)c5ccc([nH]5)c(-c5ccccc5)c5nc(c(-c6ccccc6)c6ccc3[nH]6)C=C5)C=C4)cc2)C1
REMARK SMILES IDX 22 1 21 2 20 3 18 4 19 5 17 7 14 8 15 9 76 10 16 11 13 12
REMARK SMILES IDX 1 13 2 14 3 15 4 18 5 19 11 20 6 21 7 22 10 23 12 24 8 25
REMARK SMILES IDX 9 26 23 27 24 28 25 29 26 30 27 32 28 33 29 34 75 35 30 36
REMARK SMILES IDX 74 37 31 38 32 39 33 40 68 41 34 42 73 43 67 44 69 45 35 46
REMARK SMILES IDX 72 47 66 48 65 49 36 51 58 52 43 53 57 54 44 55 47 56 56 57
REMARK SMILES IDX 70 58 45 59 46 60 55 62 71 63 48 64 37 65 38 66 42 67 39 68
REMARK SMILES IDX 41 69 40 70 59 71 60 72 64 73 61 74 63 75 62 76 49 77 50 78
REMARK SMILES IDX 54 79 51 80 53 81 52 82
REMARK H PARENT 20 6 3 16 13 17 25 31 69 50 47 61
REMARK Flexibility Score: inf
ROOT
ATOM      1  C   UNL A   1      34.863  24.656  25.262  1.00  0.00     0.023 C 
ENDROOT
BRANCH   1   2
ATOM      2  C   UNL A   1      33.500  24.551  25.937  1.00  0.00     0.116 C 
BRANCH   2   3
ATOM      3  N   UNL A   1      33.027  23.186  25.963  1.00  0.00    -0.356 N 
ATOM      4  C   UNL A   1      32.105  22.557  25.184  1.00  0.00     0.227 C 
ATOM      5  O   UNL A   1      31.890  21.364  25.425  1.00  0.00    -0.274 OA
ATOM      6  H   UNL A   1      33.438  22.619  26.655  1.00  0.00     0.163 HD
BRANCH   4   7
ATOM      7  C   UNL A   1      31.359  23.261  24.044  1.00  0.00     0.103 C 
ATOM      8  C   UNL A   1      30.981  25.571  23.279  1.00  0.00     0.107 C 
ATOM      9  C   UNL A   1      32.034  24.876  22.478  1.00  0.00    -0.006 C 
ATOM     10  C   UNL A   1      30.677  24.582  24.421  1.00  0.00     0.047 C 
ATOM     11  C   UNL A   1      32.241  23.619  22.887  1.00  0.00    -0.016 C 
BRANCH   8  12
ATOM     12  N   UNL A   1      31.517  26.822  23.764  1.00  0.00    -0.332 N 
ATOM     13  O   UNL A   1      30.699  28.084  22.059  1.00  0.00    -0.248 OA
ATOM     14  C   UNL A   1      31.305  28.001  23.125  1.00  0.00     0.319 C 
ATOM     15  N   UNL A   1      31.641  29.149  23.774  1.00  0.00    -0.303 N 
ATOM     16  H   UNL A   1      31.264  29.956  23.356  1.00  0.00     0.172 HD
ATOM     17  H   UNL A   1      32.054  26.820  24.588  1.00  0.00     0.165 HD
BRANCH  15  18
ATOM     18  C   UNL A   1      32.416  29.426  24.918  1.00  0.00     0.115 A 
ATOM     19  C   UNL A   1      33.637  28.828  25.236  1.00  0.00     0.152 A 
ATOM     20  C   UNL A   1      31.935  30.416  25.783  1.00  0.00     0.152 A 
ATOM     21  F   UNL A   1      34.184  27.904  24.434  1.00  0.00    -0.204 F 
ATOM     22  C   UNL A   1      34.337  29.186  26.388  1.00  0.00     0.081 A 
ATOM     23  C   UNL A   1      32.594  30.748  26.963  1.00  0.00     0.081 A 
ATOM     24  F   UNL A   1      30.777  31.034  25.501  1.00  0.00    -0.204 F 
ATOM     25  C   UNL A   1      33.794  30.122  27.256  1.00  0.00     0.129 A 
ATOM     26  F   UNL A   1      34.435  30.421  28.392  1.00  0.00    -0.207 F 
ENDBRANCH  15  18
ENDBRANCH   8  12
ENDBRANCH   4   7
ENDBRANCH   2   3
ENDBRANCH   1   2
BRANCH   1  27
ATOM     27  C   UNL A   1      35.909  23.670  25.777  1.00  0.00     0.023 C 
BRANCH  27  28
ATOM     28  C   UNL A   1      37.118  23.482  24.867  1.00  0.00     0.116 C 
BRANCH  28  29
ATOM     29  N   UNL A   1      38.079  22.523  25.394  1.00  0.00    -0.352 N 
ATOM     30  C   UNL A   1      39.188  22.749  26.174  1.00  0.00     0.251 C 
ATOM     31  H   UNL A   1      37.912  21.582  25.159  1.00  0.00     0.163 HD
ATOM     32  O   UNL A   1      39.997  21.848  26.374  1.00  0.00    -0.269 OA
BRANCH  30  33
ATOM     33  C   UNL A   1      39.395  24.086  26.763  1.00  0.00     0.039 A 
ATOM     34  C   UNL A   1      38.926  24.355  28.050  1.00  0.00     0.014 A 
ATOM     35  C   UNL A   1      40.079  25.066  26.040  1.00  0.00     0.014 A 
ATOM     36  C   UNL A   1      39.209  25.589  28.639  1.00  0.00     0.010 A 
ATOM     37  C   UNL A   1      40.436  26.257  26.659  1.00  0.00     0.010 A 
ATOM     38  C   UNL A   1      40.001  26.533  27.964  1.00  0.00    -0.014 A 
BRANCH  38  39
ATOM     39  C   UNL A   1      40.400  27.812  28.602  1.00  0.00     0.031 A 
ATOM     40  C   UNL A   1      41.781  27.974  29.175  1.00  0.00     0.074 A 
ATOM     41  C   UNL A   1      39.492  28.799  28.737  1.00  0.00     0.049 A 
ATOM     42  N   UNL A   1      42.292  28.992  29.822  1.00  0.00    -0.248 NA
ATOM     43  C   UNL A   1      42.701  26.835  29.028  1.00  0.00     0.031 C 
ATOM     44  C   UNL A   1      38.105  28.748  28.269  1.00  0.00     0.029 A 
ATOM     45  N   UNL A   1      39.600  30.039  29.316  1.00  0.00    -0.354 N 
ATOM     46  C   UNL A   1      43.581  28.607  30.171  1.00  0.00     0.074 A 
ATOM     47  C   UNL A   1      43.755  27.246  29.715  1.00  0.00     0.031 C 
ATOM     48  C   UNL A   1      37.504  29.915  28.547  1.00  0.00     0.029 A 
ATOM     49  C   UNL A   1      38.445  30.779  29.252  1.00  0.00     0.049 A 
ATOM     50  H   UNL A   1      40.428  30.366  29.736  1.00  0.00     0.167 HD
ATOM     51  C   UNL A   1      44.540  29.328  30.797  1.00  0.00     0.031 A 
ATOM     52  C   UNL A   1      38.171  32.014  29.713  1.00  0.00     0.031 A 
ATOM     53  C   UNL A   1      44.369  30.685  31.244  1.00  0.00     0.049 A 
ATOM     54  C   UNL A   1      39.249  32.787  30.422  1.00  0.00     0.074 A 
ATOM     55  C   UNL A   1      45.300  31.523  31.831  1.00  0.00     0.029 A 
ATOM     56  N   UNL A   1      43.184  31.400  31.159  1.00  0.00    -0.354 N 
ATOM     57  N   UNL A   1      40.488  32.438  30.672  1.00  0.00    -0.248 NA
ATOM     58  C   UNL A   1      38.892  34.128  30.900  1.00  0.00     0.031 C 
ATOM     59  C   UNL A   1      44.662  32.724  32.156  1.00  0.00     0.029 A 
ATOM     60  C   UNL A   1      43.351  32.658  31.710  1.00  0.00     0.049 A 
ATOM     61  H   UNL A   1      42.347  31.062  30.764  1.00  0.00     0.167 HD
ATOM     62  C   UNL A   1      41.066  33.529  31.309  1.00  0.00     0.074 A 
ATOM     63  C   UNL A   1      40.047  34.555  31.389  1.00  0.00     0.031 C 
ATOM     64  C   UNL A   1      42.328  33.668  31.786  1.00  0.00     0.031 A 
BRANCH  51  65
ATOM     65  C   UNL A   1      45.865  28.657  31.042  1.00  0.00    -0.014 A 
ATOM     66  C   UNL A   1      46.908  28.736  30.106  1.00  0.00     0.009 A 
ATOM     67  C   UNL A   1      46.085  27.966  32.243  1.00  0.00     0.009 A 
ATOM     68  C   UNL A   1      48.131  28.105  30.350  1.00  0.00     0.001 A 
ATOM     69  C   UNL A   1      47.319  27.363  32.500  1.00  0.00     0.001 A 
ATOM     70  C   UNL A   1      48.335  27.425  31.549  1.00  0.00     0.000 A 
ENDBRANCH  51  65
BRANCH  52  71
ATOM     71  C   UNL A   1      36.823  32.608  29.507  1.00  0.00    -0.014 A 
ATOM     72  C   UNL A   1      36.492  33.208  28.282  1.00  0.00     0.009 A 
ATOM     73  C   UNL A   1      35.867  32.591  30.533  1.00  0.00     0.009 A 
ATOM     74  C   UNL A   1      35.242  33.805  28.101  1.00  0.00     0.001 A 
ATOM     75  C   UNL A   1      34.607  33.161  30.339  1.00  0.00     0.001 A 
ATOM     76  C   UNL A   1      34.300  33.778  29.127  1.00  0.00     0.000 A 
ENDBRANCH  52  71
BRANCH  64  77
ATOM     77  C   UNL A   1      42.687  34.992  32.400  1.00  0.00    -0.014 A 
ATOM     78  C   UNL A   1      42.334  35.306  33.722  1.00  0.00     0.009 A 
ATOM     79  C   UNL A   1      43.421  35.927  31.653  1.00  0.00     0.009 A 
ATOM     80  C   UNL A   1      42.675  36.545  34.269  1.00  0.00     0.001 A 
ATOM     81  C   UNL A   1      43.791  37.150  32.213  1.00  0.00     0.001 A 
ATOM     82  C   UNL A   1      43.408  37.463  33.516  1.00  0.00     0.000 A 
ENDBRANCH  64  77
ENDBRANCH  38  39
ENDBRANCH  30  33
ENDBRANCH  28  29
ENDBRANCH  27  28
ENDBRANCH   1  27
TORSDOF 13
ENDMDL
MODEL 2
REMARK VINA RESULT:     -11.4      2.622      7.651
REMARK SMILES O=C(Nc1c(F)cc(F)cc1F)N[C@H]1C=C[C@@H](C(=O)NCCCCNC(=O)c2ccc(-c3c4nc(c(-c5ccccc5)c5ccc([nH]5)c(-c5ccccc5)c5nc(c(-c6ccccc6)c6ccc3[nH]6)C=C5)C=C4)cc2)C1
REMARK SMILES IDX 22 1 21 2 20 3 18 4 19 5 17 7 14 8 15 9 76 10 16 11 13 12
REMARK SMILES IDX 1 13 2 14 3 15 4 18 5 19 11 20 6 21 7 22 10 23 12 24 8 25
REMARK SMILES IDX 9 26 23 27 24 28 25 29 26 30 27 32 28 33 29 34 75 35 30 36
REMARK SMILES IDX 74 37 31 38 32 39 33 40 68 41 34 42 73 43 67 44 69 45 35 46
REMARK SMILES IDX 72 47 66 48 65 49 36 51 58 52 43 53 57 54 44 55 47 56 56 57
REMARK SMILES IDX 70 58 45 59 46 60 55 62 71 63 48 64 37 65 38 66 42 67 39 68
REMARK SMILES IDX 41 69 40 70 59 71 60 72 64 73 61 74 63 75 62 76 49 77 50 78
REMARK SMILES IDX 54 79 51 80 53 81 52 82
REMARK H PARENT 20 6 3 16 13 17 25 31 69 50 47 61
REMARK Flexibility Score: inf
ROOT
ATOM      1  C   UNL A   1      30.659  32.572  25.552  1.00  0.00     0.023 C 
ENDROOT
BRANCH   1   2
ATOM      2  C   UNL A   1      29.846  31.748  24.559  1.00  0.00     0.116 C 
BRANCH   2   3
ATOM      3  N   UNL A   1      29.198  32.590  23.580  1.00  0.00    -0.356 N 
ATOM      4  C   UNL A   1      28.587  32.269  22.407  1.00  0.00     0.227 C 
ATOM      5  O   UNL A   1      28.106  33.202  21.755  1.00  0.00    -0.274 OA
ATOM      6  H   UNL A   1      29.199  33.550  23.796  1.00  0.00     0.163 HD
BRANCH   4   7
ATOM      7  C   UNL A   1      28.470  30.828  21.896  1.00  0.00     0.103 C 
ATOM      8  C   UNL A   1      29.462  28.635  22.415  1.00  0.00     0.107 C 
ATOM      9  C   UNL A   1      28.096  28.789  23.001  1.00  0.00    -0.006 C 
ATOM     10  C   UNL A   1      29.783  30.035  21.858  1.00  0.00     0.047 C 
ATOM     11  C   UNL A   1      27.550  29.977  22.718  1.00  0.00    -0.016 C 
BRANCH   8  12
ATOM     12  N   UNL A   1      30.375  28.239  23.463  1.00  0.00    -0.332 N 
ATOM     13  O   UNL A   1      29.969  26.010  23.274  1.00  0.00    -0.248 OA
ATOM     14  C   UNL A   1      30.583  26.939  23.794  1.00  0.00     0.319 C 
ATOM     15  N   UNL A   1      31.625  26.649  24.620  1.00  0.00    -0.303 N 
ATOM     16  H   UNL A   1      31.851  25.692  24.640  1.00  0.00     0.172 HD
ATOM     17  H   UNL A   1      30.864  28.937  23.955  1.00  0.00     0.165 HD
BRANCH  15  18
ATOM     18  C   UNL A   1      32.449  27.431  25.454  1.00  0.00     0.115 A 
ATOM     19  C   UNL A   1      33.692  27.959  25.104  1.00  0.00     0.152 A 
ATOM     20  C   UNL A   1      31.951  27.737  26.728  1.00  0.00     0.152 A 
ATOM     21  F   UNL A   1      34.216  27.747  23.888  1.00  0.00    -0.204 F 
ATOM     22  C   UNL A   1      34.425  28.738  26.000  1.00  0.00     0.081 A 
ATOM     23  C   UNL A   1      32.690  28.468  27.652  1.00  0.00     0.081 A 
ATOM     24  F   UNL A   1      30.747  27.271  27.095  1.00  0.00    -0.204 F 
ATOM     25  C   UNL A   1      33.929  28.960  27.276  1.00  0.00     0.129 A 
ATOM     26  F   UNL A   1      34.658  29.656  28.156  1.00  0.00    -0.207 F 
ENDBRANCH  15  18
ENDBRANCH   8  12
ENDBRANCH   4   7
ENDBRANCH   2   3
ENDBRANCH   1   2
BRANCH   1  27
ATOM     27  C   UNL A   1      31.407  31.753  26.601  1.00  0.00     0.023 C 
BRANCH  27  28
ATOM     28  C   UNL A   1      32.655  32.421  27.169  1.00  0.00     0.116 C 
BRANCH  28  29
ATOM     29  N   UNL A   1      32.428  33.805  27.561  1.00  0.00    -0.352 N 
ATOM     30  C   UNL A   1      33.088  34.558  28.500  1.00  0.00     0.251 C 
ATOM     31  H   UNL A   1      31.698  34.265  27.086  1.00  0.00     0.163 HD
ATOM     32  O   UNL A   1      32.645  35.652  28.839  1.00  0.00    -0.269 OA
BRANCH  30  33
ATOM     33  C   UNL A   1      34.332  34.035  29.099  1.00  0.00     0.039 A 
ATOM     34  C   UNL A   1      34.272  33.286  30.275  1.00  0.00     0.014 A 
ATOM     35  C   UNL A   1      35.558  34.274  28.473  1.00  0.00     0.014 A 
ATOM     36  C   UNL A   1      35.440  32.713  30.783  1.00  0.00     0.010 A 
ATOM     37  C   UNL A   1      36.701  33.632  28.930  1.00  0.00     0.010 A 
ATOM     38  C   UNL A   1      36.656  32.848  30.092  1.00  0.00    -0.014 A 
BRANCH  38  39
ATOM     39  C   UNL A   1      37.892  32.171  30.555  1.00  0.00     0.031 A 
ATOM     40  C   UNL A   1      38.734  32.789  31.639  1.00  0.00     0.074 A 
ATOM     41  C   UNL A   1      38.299  31.040  29.946  1.00  0.00     0.049 A 
ATOM     42  N   UNL A   1      39.874  32.378  32.133  1.00  0.00    -0.248 NA
ATOM     43  C   UNL A   1      38.245  34.047  32.224  1.00  0.00     0.031 C 
ATOM     44  C   UNL A   1      37.600  30.366  28.849  1.00  0.00     0.029 A 
ATOM     45  N   UNL A   1      39.409  30.260  30.159  1.00  0.00    -0.354 N 
ATOM     46  C   UNL A   1      40.245  33.335  33.070  1.00  0.00     0.074 A 
ATOM     47  C   UNL A   1      39.238  34.372  33.037  1.00  0.00     0.031 C 
ATOM     48  C   UNL A   1      38.277  29.258  28.511  1.00  0.00     0.029 A 
ATOM     49  C   UNL A   1      39.479  29.165  29.332  1.00  0.00     0.049 A 
ATOM     50  H   UNL A   1      40.089  30.466  30.840  1.00  0.00     0.167 HD
ATOM     51  C   UNL A   1      41.315  33.339  33.899  1.00  0.00     0.031 A 
ATOM     52  C   UNL A   1      40.410  28.197  29.242  1.00  0.00     0.031 A 
ATOM     53  C   UNL A   1      42.312  32.303  33.937  1.00  0.00     0.049 A 
ATOM     54  C   UNL A   1      41.599  28.235  30.162  1.00  0.00     0.074 A 
ATOM     55  C   UNL A   1      43.399  32.184  34.784  1.00  0.00     0.029 A 
ATOM     56  N   UNL A   1      42.346  31.209  33.085  1.00  0.00    -0.354 N 
ATOM     57  N   UNL A   1      41.892  29.105  31.098  1.00  0.00    -0.248 NA
ATOM     58  C   UNL A   1      42.579  27.151  30.018  1.00  0.00     0.031 C 
ATOM     59  C   UNL A   1      44.126  31.050  34.406  1.00  0.00     0.029 A 
ATOM     60  C   UNL A   1      43.453  30.427  33.366  1.00  0.00     0.049 A 
ATOM     61  H   UNL A   1      41.681  31.018  32.385  1.00  0.00     0.167 HD
ATOM     62  C   UNL A   1      43.073  28.655  31.675  1.00  0.00     0.074 A 
ATOM     63  C   UNL A   1      43.430  27.427  30.996  1.00  0.00     0.031 C 
ATOM     64  C   UNL A   1      43.797  29.209  32.679  1.00  0.00     0.031 A 
BRANCH  51  65
ATOM     65  C   UNL A   1      41.466  34.511  34.832  1.00  0.00    -0.014 A 
ATOM     66  C   UNL A   1      42.210  35.644  34.466  1.00  0.00     0.009 A 
ATOM     67  C   UNL A   1      40.826  34.495  36.081  1.00  0.00     0.009 A 
ATOM     68  C   UNL A   1      42.341  36.721  35.346  1.00  0.00     0.001 A 
ATOM     69  C   UNL A   1      40.933  35.587  36.946  1.00  0.00     0.001 A 
ATOM     70  C   UNL A   1      41.698  36.693  36.582  1.00  0.00     0.000 A 
ENDBRANCH  51  65
BRANCH  52  71
ATOM     71  C   UNL A   1      40.251  27.096  28.255  1.00  0.00    -0.014 A 
ATOM     72  C   UNL A   1      39.563  25.923  28.605  1.00  0.00     0.009 A 
ATOM     73  C   UNL A   1      40.794  27.203  26.966  1.00  0.00     0.009 A 
ATOM     74  C   UNL A   1      39.450  24.870  27.694  1.00  0.00     0.001 A 
ATOM     75  C   UNL A   1      40.652  26.161  26.047  1.00  0.00     0.001 A 
ATOM     76  C   UNL A   1      39.991  24.991  26.415  1.00  0.00     0.000 A 
ENDBRANCH  52  71
BRANCH  64  77
ATOM     77  C   UNL A   1      45.027  28.470  33.127  1.00  0.00    -0.014 A 
ATOM     78  C   UNL A   1      46.289  28.747  32.578  1.00  0.00     0.009 A 
ATOM     79  C   UNL A   1      44.924  27.505  34.141  1.00  0.00     0.009 A 
ATOM     80  C   UNL A   1      47.416  28.043  33.007  1.00  0.00     0.001 A 
ATOM     81  C   UNL A   1      46.057  26.827  34.594  1.00  0.00     0.001 A 
ATOM     82  C   UNL A   1      47.299  27.089  34.018  1.00  0.00     0.000 A 
ENDBRANCH  64  77
ENDBRANCH  38  39
ENDBRANCH  30  33
ENDBRANCH  28  29
ENDBRANCH  27  28
ENDBRANCH   1  27
TORSDOF 13
ENDMDL
MODEL 3
REMARK VINA RESULT:     -11.3      3.022      7.467
REMARK SMILES O=C(Nc1c(F)cc(F)cc1F)N[C@H]1C=C[C@@H](C(=O)NCCCCNC(=O)c2ccc(-c3c4nc(c(-c5ccccc5)c5ccc([nH]5)c(-c5ccccc5)c5nc(c(-c6ccccc6)c6ccc3[nH]6)C=C5)C=C4)cc2)C1
REMARK SMILES IDX 22 1 21 2 20 3 18 4 19 5 17 7 14 8 15 9 76 10 16 11 13 12
REMARK SMILES IDX 1 13 2 14 3 15 4 18 5 19 11 20 6 21 7 22 10 23 12 24 8 25
REMARK SMILES IDX 9 26 23 27 24 28 25 29 26 30 27 32 28 33 29 34 75 35 30 36
REMARK SMILES IDX 74 37 31 38 32 39 33 40 68 41 34 42 73 43 67 44 69 45 35 46
REMARK SMILES IDX 72 47 66 48 65 49 36 51 58 52 43 53 57 54 44 55 47 56 56 57
REMARK SMILES IDX 70 58 45 59 46 60 55 62 71 63 48 64 37 65 38 66 42 67 39 68
REMARK SMILES IDX 41 69 40 70 59 71 60 72 64 73 61 74 63 75 62 76 49 77 50 78
REMARK SMILES IDX 54 79 51 80 53 81 52 82
REMARK H PARENT 20 6 3 16 13 17 25 31 69 50 47 61
REMARK Flexibility Score: inf
ROOT
ATOM      1  C   UNL A   1      30.683  32.531  25.666  1.00  0.00     0.023 C 
ENDROOT
BRANCH   1   2
ATOM      2  C   UNL A   1      29.952  31.723  24.600  1.00  0.00     0.116 C 
BRANCH   2   3
ATOM      3  N   UNL A   1      29.287  32.584  23.649  1.00  0.00    -0.356 N 
ATOM      4  C   UNL A   1      28.640  32.284  22.489  1.00  0.00     0.227 C 
ATOM      5  O   UNL A   1      28.152  33.230  21.862  1.00  0.00    -0.274 OA
ATOM      6  H   UNL A   1      29.304  33.542  23.876  1.00  0.00     0.163 HD
BRANCH   4   7
ATOM      7  C   UNL A   1      28.494  30.851  21.965  1.00  0.00     0.103 C 
ATOM      8  C   UNL A   1      29.436  28.632  22.466  1.00  0.00     0.107 C 
ATOM      9  C   UNL A   1      28.071  28.810  23.048  1.00  0.00    -0.006 C 
ATOM     10  C   UNL A   1      29.789  30.030  21.924  1.00  0.00     0.047 C 
ATOM     11  C   UNL A   1      27.553  30.013  22.775  1.00  0.00    -0.016 C 
BRANCH   8  12
ATOM     12  N   UNL A   1      30.335  28.206  23.514  1.00  0.00    -0.332 N 
ATOM     13  O   UNL A   1      29.775  26.006  23.400  1.00  0.00    -0.248 OA
ATOM     14  C   UNL A   1      30.460  26.906  23.883  1.00  0.00     0.319 C 
ATOM     15  N   UNL A   1      31.492  26.570  24.703  1.00  0.00    -0.303 N 
ATOM     16  H   UNL A   1      31.652  25.600  24.750  1.00  0.00     0.172 HD
ATOM     17  H   UNL A   1      30.878  28.883  23.976  1.00  0.00     0.165 HD
BRANCH  15  18
ATOM     18  C   UNL A   1      32.380  27.319  25.501  1.00  0.00     0.115 A 
ATOM     19  C   UNL A   1      33.655  27.741  25.121  1.00  0.00     0.152 A 
ATOM     20  C   UNL A   1      31.921  27.705  26.767  1.00  0.00     0.152 A 
ATOM     21  F   UNL A   1      34.147  27.448  23.908  1.00  0.00    -0.204 F 
ATOM     22  C   UNL A   1      34.453  28.495  25.982  1.00  0.00     0.081 A 
ATOM     23  C   UNL A   1      32.722  28.412  27.658  1.00  0.00     0.081 A 
ATOM     24  F   UNL A   1      30.691  27.342  27.162  1.00  0.00    -0.204 F 
ATOM     25  C   UNL A   1      33.989  28.799  27.253  1.00  0.00     0.129 A 
ATOM     26  F   UNL A   1      34.777  29.470  28.101  1.00  0.00    -0.207 F 
ENDBRANCH  15  18
ENDBRANCH   8  12
ENDBRANCH   4   7
ENDBRANCH   2   3
ENDBRANCH   1   2
BRANCH   1  27
ATOM     27  C   UNL A   1      31.518  31.700  26.637  1.00  0.00     0.023 C 
BRANCH  27  28
ATOM     28  C   UNL A   1      32.702  32.434  27.260  1.00  0.00     0.116 C 
BRANCH  28  29
ATOM     29  N   UNL A   1      32.420  33.837  27.527  1.00  0.00    -0.352 N 
ATOM     30  C   UNL A   1      33.005  34.679  28.441  1.00  0.00     0.251 C 
ATOM     31  H   UNL A   1      31.711  34.240  26.975  1.00  0.00     0.163 HD
ATOM     32  O   UNL A   1      32.519  35.783  28.666  1.00  0.00    -0.269 OA
BRANCH  30  33
ATOM     33  C   UNL A   1      34.222  34.238  29.151  1.00  0.00     0.039 A 
ATOM     34  C   UNL A   1      34.109  33.602  30.388  1.00  0.00     0.014 A 
ATOM     35  C   UNL A   1      35.477  34.439  28.570  1.00  0.00     0.014 A 
ATOM     36  C   UNL A   1      35.256  33.101  31.009  1.00  0.00     0.010 A 
ATOM     37  C   UNL A   1      36.603  33.864  29.144  1.00  0.00     0.010 A 
ATOM     38  C   UNL A   1      36.505  33.192  30.372  1.00  0.00    -0.014 A 
BRANCH  38  39
ATOM     39  C   UNL A   1      37.724  32.585  30.962  1.00  0.00     0.031 A 
ATOM     40  C   UNL A   1      38.330  31.353  30.346  1.00  0.00     0.074 A 
ATOM     41  C   UNL A   1      38.238  33.096  32.098  1.00  0.00     0.049 A 
ATOM     42  N   UNL A   1      39.355  30.647  30.752  1.00  0.00    -0.248 NA
ATOM     43  C   UNL A   1      37.684  30.830  29.132  1.00  0.00     0.031 C 
ATOM     44  C   UNL A   1      37.714  34.256  32.822  1.00  0.00     0.029 A 
ATOM     45  N   UNL A   1      39.316  32.696  32.849  1.00  0.00    -0.354 N 
ATOM     46  C   UNL A   1      39.463  29.590  29.855  1.00  0.00     0.074 A 
ATOM     47  C   UNL A   1      38.369  29.717  28.918  1.00  0.00     0.031 C 
ATOM     48  C   UNL A   1      38.492  34.496  33.889  1.00  0.00     0.029 A 
ATOM     49  C   UNL A   1      39.539  33.482  33.953  1.00  0.00     0.049 A 
ATOM     50  H   UNL A   1      39.876  31.921  32.617  1.00  0.00     0.167 HD
ATOM     51  C   UNL A   1      40.400  28.616  29.803  1.00  0.00     0.031 A 
ATOM     52  C   UNL A   1      40.479  33.394  34.913  1.00  0.00     0.031 A 
ATOM     53  C   UNL A   1      41.493  28.495  30.731  1.00  0.00     0.049 A 
ATOM     54  C   UNL A   1      41.497  32.290  34.842  1.00  0.00     0.074 A 
ATOM     55  C   UNL A   1      42.530  27.580  30.726  1.00  0.00     0.029 A 
ATOM     56  N   UNL A   1      41.685  29.312  31.834  1.00  0.00    -0.354 N 
ATOM     57  N   UNL A   1      41.633  31.347  33.942  1.00  0.00    -0.248 NA
ATOM     58  C   UNL A   1      42.498  32.247  35.916  1.00  0.00     0.031 C 
ATOM     59  C   UNL A   1      43.317  27.805  31.860  1.00  0.00     0.029 A 
ATOM     60  C   UNL A   1      42.806  28.904  32.535  1.00  0.00     0.049 A 
ATOM     61  H   UNL A   1      41.108  30.071  32.083  1.00  0.00     0.167 HD
ATOM     62  C   UNL A   1      42.752  30.618  34.323  1.00  0.00     0.074 A 
ATOM     63  C   UNL A   1      43.267  31.241  35.525  1.00  0.00     0.031 C 
ATOM     64  C   UNL A   1      43.305  29.531  33.731  1.00  0.00     0.031 A 
BRANCH  51  65
ATOM     65  C   UNL A   1      40.279  27.593  28.705  1.00  0.00    -0.014 A 
ATOM     66  C   UNL A   1      40.863  27.802  27.446  1.00  0.00     0.009 A 
ATOM     67  C   UNL A   1      39.601  26.388  28.946  1.00  0.00     0.009 A 
ATOM     68  C   UNL A   1      40.738  26.841  26.438  1.00  0.00     0.001 A 
ATOM     69  C   UNL A   1      39.505  25.416  27.948  1.00  0.00     0.001 A 
ATOM     70  C   UNL A   1      40.065  25.648  26.693  1.00  0.00     0.000 A 
ENDBRANCH  51  65
BRANCH  52  71
ATOM     71  C   UNL A   1      40.515  34.389  36.017  1.00  0.00    -0.014 A 
ATOM     72  C   UNL A   1      39.763  34.181  37.185  1.00  0.00     0.009 A 
ATOM     73  C   UNL A   1      41.286  35.556  35.908  1.00  0.00     0.009 A 
ATOM     74  C   UNL A   1      39.761  35.136  38.205  1.00  0.00     0.001 A 
ATOM     75  C   UNL A   1      41.307  36.493  36.943  1.00  0.00     0.001 A 
ATOM     76  C   UNL A   1      40.536  36.289  38.085  1.00  0.00     0.000 A 
ENDBRANCH  52  71
BRANCH  64  77
ATOM     77  C   UNL A   1      44.553  28.970  34.354  1.00  0.00    -0.014 A 
ATOM     78  C   UNL A   1      44.497  27.930  35.296  1.00  0.00     0.009 A 
ATOM     79  C   UNL A   1      45.806  29.468  33.966  1.00  0.00     0.009 A 
ATOM     80  C   UNL A   1      45.670  27.429  35.864  1.00  0.00     0.001 A 
ATOM     81  C   UNL A   1      46.979  28.943  34.509  1.00  0.00     0.001 A 
ATOM     82  C   UNL A   1      46.909  27.932  35.467  1.00  0.00     0.000 A 
ENDBRANCH  64  77
ENDBRANCH  38  39
ENDBRANCH  30  33
ENDBRANCH  28  29
ENDBRANCH  27  28
ENDBRANCH   1  27
TORSDOF 13
ENDMDL
