MODEL 1
REMARK VINA RESULT:     -11.3      0.000      0.000
REMARK SMILES O=C(NCCCCNC(=O)c1cc2nn[nH]n2n1)c1ccc(-c2c3nc(c(-c4ccccc4)c4ccc([nH]4)c(-c4ccccc4)c4nc(c(-c5ccccc5)c5ccc2[nH]5)C=C4)C=C3)cc1
REMARK SMILES IDX 4 1 3 2 1 3 2 4 19 6 20 7 66 8 21 9 65 10 22 11 23 12 24 13
REMARK SMILES IDX 59 14 25 15 64 16 58 17 60 18 26 19 63 20 57 21 56 22 27 24
REMARK SMILES IDX 49 25 34 26 48 27 35 28 38 29 47 30 61 31 36 32 37 33 46 35
REMARK SMILES IDX 62 36 39 37 28 38 29 39 33 40 30 41 32 42 31 43 50 44 51 45
REMARK SMILES IDX 55 46 52 47 54 48 53 49 40 50 41 51 45 52 42 53 44 54 43 55
REMARK SMILES IDX 5 56 6 57 7 58 8 59 9 60 10 62 11 63 12 64 18 65 13 66 17 67
REMARK SMILES IDX 14 68 16 69 15 70
REMARK H PARENT 3 5 60 23 38 34 8 61 16 71
REMARK Flexibility Score: inf
ROOT
ATOM      1  C   UNL A   1      36.041  31.578  30.616  1.00  0.00     0.116 C 
ENDROOT
BRANCH   1   2
ATOM      2  N   UNL A   1      35.435  30.786  29.565  1.00  0.00    -0.352 N 
ATOM      3  O   UNL A   1      35.028  29.324  27.964  1.00  0.00    -0.269 OA
ATOM      4  C   UNL A   1      35.882  29.828  28.698  1.00  0.00     0.251 C 
ATOM      5  H   UNL A   1      34.478  30.983  29.449  1.00  0.00     0.163 HD
BRANCH   4   6
ATOM      6  C   UNL A   1      37.297  29.380  28.557  1.00  0.00     0.039 A 
ATOM      7  C   UNL A   1      38.155  29.701  27.505  1.00  0.00     0.014 A 
ATOM      8  C   UNL A   1      37.801  28.578  29.601  1.00  0.00     0.014 A 
ATOM      9  C   UNL A   1      39.457  29.200  27.469  1.00  0.00     0.010 A 
ATOM     10  C   UNL A   1      39.109  28.093  29.580  1.00  0.00     0.010 A 
ATOM     11  C   UNL A   1      39.935  28.388  28.500  1.00  0.00    -0.014 A 
BRANCH  11  12
ATOM     12  C   UNL A   1      41.334  27.959  28.438  1.00  0.00     0.031 A 
ATOM     13  C   UNL A   1      41.618  26.662  27.752  1.00  0.00     0.074 A 
ATOM     14  C   UNL A   1      42.379  28.719  28.817  1.00  0.00     0.049 A 
ATOM     15  N   UNL A   1      42.256  25.629  28.205  1.00  0.00    -0.248 NA
ATOM     16  C   UNL A   1      41.119  26.502  26.377  1.00  0.00     0.031 C 
ATOM     17  C   UNL A   1      42.381  30.135  29.187  1.00  0.00     0.029 A 
ATOM     18  N   UNL A   1      43.704  28.384  28.839  1.00  0.00    -0.354 N 
ATOM     19  C   UNL A   1      42.353  24.731  27.143  1.00  0.00     0.074 A 
ATOM     20  C   UNL A   1      41.584  25.295  26.059  1.00  0.00     0.031 C 
ATOM     21  C   UNL A   1      43.655  30.589  29.183  1.00  0.00     0.029 A 
ATOM     22  C   UNL A   1      44.554  29.470  28.949  1.00  0.00     0.049 A 
ATOM     23  H   UNL A   1      44.024  27.455  28.782  1.00  0.00     0.167 HD
ATOM     24  C   UNL A   1      43.160  23.635  27.157  1.00  0.00     0.031 A 
ATOM     25  C   UNL A   1      45.898  29.468  28.803  1.00  0.00     0.031 A 
ATOM     26  C   UNL A   1      43.596  23.274  28.474  1.00  0.00     0.049 A 
ATOM     27  C   UNL A   1      46.391  28.084  28.954  1.00  0.00     0.074 A 
ATOM     28  C   UNL A   1      42.974  22.855  29.632  1.00  0.00     0.029 A 
ATOM     29  N   UNL A   1      44.882  23.586  28.835  1.00  0.00    -0.354 N 
ATOM     30  N   UNL A   1      46.403  27.431  30.080  1.00  0.00    -0.248 NA
ATOM     31  C   UNL A   1      46.603  27.275  27.764  1.00  0.00     0.031 C 
ATOM     32  C   UNL A   1      43.766  23.385  30.693  1.00  0.00     0.029 A 
ATOM     33  C   UNL A   1      44.822  24.087  30.110  1.00  0.00     0.049 A 
ATOM     34  H   UNL A   1      45.691  23.471  28.287  1.00  0.00     0.167 HD
ATOM     35  C   UNL A   1      46.211  26.106  29.725  1.00  0.00     0.074 A 
ATOM     36  C   UNL A   1      46.492  26.056  28.295  1.00  0.00     0.031 C 
ATOM     37  C   UNL A   1      45.574  25.237  30.564  1.00  0.00     0.031 A 
BRANCH  24  38
ATOM     38  C   UNL A   1      43.775  23.025  25.925  1.00  0.00    -0.014 A 
ATOM     39  C   UNL A   1      43.639  21.645  25.689  1.00  0.00     0.009 A 
ATOM     40  C   UNL A   1      44.693  23.720  25.115  1.00  0.00     0.009 A 
ATOM     41  C   UNL A   1      44.398  20.992  24.709  1.00  0.00     0.001 A 
ATOM     42  C   UNL A   1      45.425  23.079  24.110  1.00  0.00     0.001 A 
ATOM     43  C   UNL A   1      45.290  21.711  23.919  1.00  0.00     0.000 A 
ENDBRANCH  24  38
BRANCH  25  44
ATOM     44  C   UNL A   1      46.771  30.563  28.337  1.00  0.00    -0.014 A 
ATOM     45  C   UNL A   1      46.718  31.013  27.010  1.00  0.00     0.009 A 
ATOM     46  C   UNL A   1      47.488  31.335  29.269  1.00  0.00     0.009 A 
ATOM     47  C   UNL A   1      47.342  32.210  26.636  1.00  0.00     0.001 A 
ATOM     48  C   UNL A   1      48.116  32.526  28.894  1.00  0.00     0.001 A 
ATOM     49  C   UNL A   1      48.032  32.969  27.580  1.00  0.00     0.000 A 
ENDBRANCH  25  44
BRANCH  37  50
ATOM     50  C   UNL A   1      45.342  25.679  31.989  1.00  0.00    -0.014 A 
ATOM     51  C   UNL A   1      44.210  26.421  32.373  1.00  0.00     0.009 A 
ATOM     52  C   UNL A   1      46.206  25.221  32.995  1.00  0.00     0.009 A 
ATOM     53  C   UNL A   1      43.975  26.733  33.714  1.00  0.00     0.001 A 
ATOM     54  C   UNL A   1      45.958  25.513  34.339  1.00  0.00     0.001 A 
ATOM     55  C   UNL A   1      44.849  26.276  34.698  1.00  0.00     0.000 A 
ENDBRANCH  37  50
ENDBRANCH  11  12
ENDBRANCH   4   6
ENDBRANCH   1   2
BRANCH   1  56
ATOM     56  C   UNL A   1      37.167  32.494  30.135  1.00  0.00     0.023 C 
BRANCH  56  57
ATOM     57  C   UNL A   1      36.937  33.142  28.765  1.00  0.00     0.023 C 
BRANCH  57  58
ATOM     58  C   UNL A   1      35.997  34.345  28.751  1.00  0.00     0.116 C 
BRANCH  58  59
ATOM     59  N   UNL A   1      34.738  34.060  28.086  1.00  0.00    -0.351 N 
ATOM     60  C   UNL A   1      33.455  34.340  28.506  1.00  0.00     0.271 C 
ATOM     61  H   UNL A   1      34.811  33.605  27.216  1.00  0.00     0.163 HD
ATOM     62  O   UNL A   1      32.511  33.923  27.846  1.00  0.00    -0.267 OA
BRANCH  60  63
ATOM     63  C   UNL A   1      33.287  35.145  29.721  1.00  0.00     0.154 A 
ATOM     64  C   UNL A   1      33.138  36.578  29.798  1.00  0.00     0.089 A 
ATOM     65  N   UNL A   1      33.278  34.576  30.953  1.00  0.00    -0.143 NA
ATOM     66  C   UNL A   1      33.079  36.825  31.140  1.00  0.00     0.199 A 
ATOM     67  N   UNL A   1      33.129  35.630  31.731  1.00  0.00    -0.135 N 
ATOM     68  N   UNL A   1      33.008  37.789  32.086  1.00  0.00    -0.109 NA
ATOM     69  N   UNL A   1      33.154  35.856  33.029  1.00  0.00    -0.177 N 
ATOM     70  N   UNL A   1      33.007  37.216  33.233  1.00  0.00    -0.050 NA
ATOM     71  H   UNL A   1      33.258  35.174  33.731  1.00  0.00     0.216 HD
ENDBRANCH  60  63
ENDBRANCH  58  59
ENDBRANCH  57  58
ENDBRANCH  56  57
ENDBRANCH   1  56
TORSDOF 11
ENDMDL
MODEL 2
REMARK VINA RESULT:     -11.2      2.834      6.642
REMARK SMILES O=C(NCCCCNC(=O)c1cc2nn[nH]n2n1)c1ccc(-c2c3nc(c(-c4ccccc4)c4ccc([nH]4)c(-c4ccccc4)c4nc(c(-c5ccccc5)c5ccc2[nH]5)C=C4)C=C3)cc1
REMARK SMILES IDX 4 1 3 2 1 3 2 4 19 6 20 7 66 8 21 9 65 10 22 11 23 12 24 13
REMARK SMILES IDX 59 14 25 15 64 16 58 17 60 18 26 19 63 20 57 21 56 22 27 24
REMARK SMILES IDX 49 25 34 26 48 27 35 28 38 29 47 30 61 31 36 32 37 33 46 35
REMARK SMILES IDX 62 36 39 37 28 38 29 39 33 40 30 41 32 42 31 43 50 44 51 45
REMARK SMILES IDX 55 46 52 47 54 48 53 49 40 50 41 51 45 52 42 53 44 54 43 55
REMARK SMILES IDX 5 56 6 57 7 58 8 59 9 60 10 62 11 63 12 64 18 65 13 66 17 67
REMARK SMILES IDX 14 68 16 69 15 70
REMARK H PARENT 3 5 60 23 38 34 8 61 16 71
REMARK Flexibility Score: inf
ROOT
ATOM      1  C   UNL A   1      37.745  34.228  29.282  1.00  0.00     0.116 C 
ENDROOT
BRANCH   1   2
ATOM      2  N   UNL A   1      38.228  34.468  30.626  1.00  0.00    -0.352 N 
ATOM      3  O   UNL A   1      39.264  34.354  32.571  1.00  0.00    -0.269 OA
ATOM      4  C   UNL A   1      39.020  33.782  31.505  1.00  0.00     0.251 C 
ATOM      5  H   UNL A   1      37.913  35.326  30.993  1.00  0.00     0.163 HD
BRANCH   4   6
ATOM      6  C   UNL A   1      39.572  32.414  31.288  1.00  0.00     0.039 A 
ATOM      7  C   UNL A   1      38.944  31.217  31.629  1.00  0.00     0.014 A 
ATOM      8  C   UNL A   1      40.833  32.347  30.661  1.00  0.00     0.014 A 
ATOM      9  C   UNL A   1      39.571  29.992  31.397  1.00  0.00     0.010 A 
ATOM     10  C   UNL A   1      41.455  31.124  30.409  1.00  0.00     0.010 A 
ATOM     11  C   UNL A   1      40.831  29.941  30.796  1.00  0.00    -0.014 A 
BRANCH  11  12
ATOM     12  C   UNL A   1      41.400  28.622  30.514  1.00  0.00     0.031 A 
ATOM     13  C   UNL A   1      42.252  28.006  31.577  1.00  0.00     0.074 A 
ATOM     14  C   UNL A   1      41.086  27.873  29.439  1.00  0.00     0.049 A 
ATOM     15  N   UNL A   1      43.464  27.558  31.485  1.00  0.00    -0.248 NA
ATOM     16  C   UNL A   1      41.666  27.878  32.921  1.00  0.00     0.031 C 
ATOM     17  C   UNL A   1      40.030  28.105  28.453  1.00  0.00     0.029 A 
ATOM     18  N   UNL A   1      41.601  26.662  29.074  1.00  0.00    -0.354 N 
ATOM     19  C   UNL A   1      43.762  26.978  32.718  1.00  0.00     0.074 A 
ATOM     20  C   UNL A   1      42.641  27.256  33.583  1.00  0.00     0.031 C 
ATOM     21  C   UNL A   1      39.840  26.972  27.739  1.00  0.00     0.029 A 
ATOM     22  C   UNL A   1      40.847  25.996  28.123  1.00  0.00     0.049 A 
ATOM     23  H   UNL A   1      42.433  26.295  29.451  1.00  0.00     0.167 HD
ATOM     24  C   UNL A   1      44.850  26.189  32.934  1.00  0.00     0.031 A 
ATOM     25  C   UNL A   1      40.997  24.715  27.718  1.00  0.00     0.031 A 
ATOM     26  C   UNL A   1      45.851  26.321  31.916  1.00  0.00     0.049 A 
ATOM     27  C   UNL A   1      42.349  24.253  28.090  1.00  0.00     0.074 A 
ATOM     28  C   UNL A   1      46.657  27.344  31.461  1.00  0.00     0.029 A 
ATOM     29  N   UNL A   1      45.957  25.321  30.983  1.00  0.00    -0.354 N 
ATOM     30  N   UNL A   1      43.445  24.674  27.530  1.00  0.00    -0.248 NA
ATOM     31  C   UNL A   1      42.528  23.521  29.334  1.00  0.00     0.031 C 
ATOM     32  C   UNL A   1      46.823  27.096  30.066  1.00  0.00     0.029 A 
ATOM     33  C   UNL A   1      46.109  25.934  29.765  1.00  0.00     0.049 A 
ATOM     34  H   UNL A   1      45.930  24.353  31.153  1.00  0.00     0.167 HD
ATOM     35  C   UNL A   1      44.400  24.626  28.533  1.00  0.00     0.074 A 
ATOM     36  C   UNL A   1      43.818  23.774  29.563  1.00  0.00     0.031 C 
ATOM     37  C   UNL A   1      45.444  25.505  28.554  1.00  0.00     0.031 A 
BRANCH  24  38
ATOM     38  C   UNL A   1      44.902  25.085  33.956  1.00  0.00    -0.014 A 
ATOM     39  C   UNL A   1      44.021  23.992  33.845  1.00  0.00     0.009 A 
ATOM     40  C   UNL A   1      45.618  25.204  35.162  1.00  0.00     0.009 A 
ATOM     41  C   UNL A   1      43.852  23.081  34.896  1.00  0.00     0.001 A 
ATOM     42  C   UNL A   1      45.480  24.274  36.198  1.00  0.00     0.001 A 
ATOM     43  C   UNL A   1      44.584  23.221  36.071  1.00  0.00     0.000 A 
ENDBRANCH  24  38
BRANCH  25  44
ATOM     44  C   UNL A   1      39.968  23.791  27.203  1.00  0.00    -0.014 A 
ATOM     45  C   UNL A   1      38.753  24.273  26.696  1.00  0.00     0.009 A 
ATOM     46  C   UNL A   1      40.285  22.438  26.984  1.00  0.00     0.009 A 
ATOM     47  C   UNL A   1      37.896  23.434  25.972  1.00  0.00     0.001 A 
ATOM     48  C   UNL A   1      39.427  21.599  26.267  1.00  0.00     0.001 A 
ATOM     49  C   UNL A   1      38.239  22.101  25.751  1.00  0.00     0.000 A 
ENDBRANCH  25  44
BRANCH  37  50
ATOM     50  C   UNL A   1      45.691  26.334  27.316  1.00  0.00    -0.014 A 
ATOM     51  C   UNL A   1      46.591  25.935  26.311  1.00  0.00     0.009 A 
ATOM     52  C   UNL A   1      44.901  27.470  27.085  1.00  0.00     0.009 A 
ATOM     53  C   UNL A   1      46.729  26.674  25.134  1.00  0.00     0.001 A 
ATOM     54  C   UNL A   1      45.022  28.195  25.897  1.00  0.00     0.001 A 
ATOM     55  C   UNL A   1      45.941  27.803  24.925  1.00  0.00     0.000 A 
ENDBRANCH  37  50
ENDBRANCH  11  12
ENDBRANCH   4   6
ENDBRANCH   1   2
BRANCH   1  56
ATOM     56  C   UNL A   1      36.263  33.863  29.207  1.00  0.00     0.023 C 
BRANCH  56  57
ATOM     57  C   UNL A   1      35.911  32.467  29.736  1.00  0.00     0.023 C 
BRANCH  57  58
ATOM     58  C   UNL A   1      34.841  32.422  30.824  1.00  0.00     0.116 C 
BRANCH  58  59
ATOM     59  N   UNL A   1      35.406  32.291  32.155  1.00  0.00    -0.351 N 
ATOM     60  C   UNL A   1      35.451  33.223  33.171  1.00  0.00     0.271 C 
ATOM     61  H   UNL A   1      35.813  31.419  32.360  1.00  0.00     0.163 HD
ATOM     62  O   UNL A   1      36.068  32.954  34.194  1.00  0.00    -0.267 OA
BRANCH  60  63
ATOM     63  C   UNL A   1      34.734  34.488  32.979  1.00  0.00     0.154 A 
ATOM     64  C   UNL A   1      33.304  34.677  32.926  1.00  0.00     0.089 A 
ATOM     65  N   UNL A   1      35.397  35.659  32.802  1.00  0.00    -0.143 NA
ATOM     66  C   UNL A   1      33.164  36.011  32.672  1.00  0.00     0.199 A 
ATOM     67  N   UNL A   1      34.401  36.509  32.651  1.00  0.00    -0.135 N 
ATOM     68  N   UNL A   1      32.278  37.002  32.422  1.00  0.00    -0.109 NA
ATOM     69  N   UNL A   1      34.286  37.781  32.327  1.00  0.00    -0.177 N 
ATOM     70  N   UNL A   1      32.940  38.088  32.255  1.00  0.00    -0.050 NA
ATOM     71  H   UNL A   1      35.030  38.405  32.166  1.00  0.00     0.216 HD
ENDBRANCH  60  63
ENDBRANCH  58  59
ENDBRANCH  57  58
ENDBRANCH  56  57
ENDBRANCH   1  56
TORSDOF 11
ENDMDL
MODEL 3
REMARK VINA RESULT:     -11.0      2.195      6.651
REMARK SMILES O=C(NCCCCNC(=O)c1cc2nn[nH]n2n1)c1ccc(-c2c3nc(c(-c4ccccc4)c4ccc([nH]4)c(-c4ccccc4)c4nc(c(-c5ccccc5)c5ccc2[nH]5)C=C4)C=C3)cc1
REMARK SMILES IDX 4 1 3 2 1 3 2 4 19 6 20 7 66 8 21 9 65 10 22 11 23 12 24 13
REMARK SMILES IDX 59 14 25 15 64 16 58 17 60 18 26 19 63 20 57 21 56 22 27 24
REMARK SMILES IDX 49 25 34 26 48 27 35 28 38 29 47 30 61 31 36 32 37 33 46 35
REMARK SMILES IDX 62 36 39 37 28 38 29 39 33 40 30 41 32 42 31 43 50 44 51 45
REMARK SMILES IDX 55 46 52 47 54 48 53 49 40 50 41 51 45 52 42 53 44 54 43 55
REMARK SMILES IDX 5 56 6 57 7 58 8 59 9 60 10 62 11 63 12 64 18 65 13 66 17 67
REMARK SMILES IDX 14 68 16 69 15 70
REMARK H PARENT 3 5 60 23 38 34 8 61 16 71
REMARK Flexibility Score: inf
ROOT
ATOM      1  C   UNL A   1      36.267  33.409  28.380  1.00  0.00     0.116 C 
ENDROOT
BRANCH   1   2
ATOM      2  N   UNL A   1      35.374  32.364  27.925  1.00  0.00    -0.352 N 
ATOM      3  O   UNL A   1      34.404  30.433  27.482  1.00  0.00    -0.269 OA
ATOM      4  C   UNL A   1      35.412  30.997  27.913  1.00  0.00     0.251 C 
ATOM      5  H   UNL A   1      34.545  32.721  27.533  1.00  0.00     0.163 HD
BRANCH   4   6
ATOM      6  C   UNL A   1      36.568  30.160  28.345  1.00  0.00     0.039 A 
ATOM      7  C   UNL A   1      36.643  29.415  29.521  1.00  0.00     0.014 A 
ATOM      8  C   UNL A   1      37.664  30.113  27.459  1.00  0.00     0.014 A 
ATOM      9  C   UNL A   1      37.792  28.685  29.830  1.00  0.00     0.010 A 
ATOM     10  C   UNL A   1      38.807  29.368  27.754  1.00  0.00     0.010 A 
ATOM     11  C   UNL A   1      38.879  28.667  28.954  1.00  0.00    -0.014 A 
BRANCH  11  12
ATOM     12  C   UNL A   1      40.023  27.821  29.304  1.00  0.00     0.031 A 
ATOM     13  C   UNL A   1      40.547  27.928  30.700  1.00  0.00     0.074 A 
ATOM     14  C   UNL A   1      40.527  26.858  28.509  1.00  0.00     0.049 A 
ATOM     15  N   UNL A   1      41.756  28.179  31.094  1.00  0.00    -0.248 NA
ATOM     16  C   UNL A   1      39.588  27.729  31.798  1.00  0.00     0.031 C 
ATOM     17  C   UNL A   1      39.973  26.335  27.259  1.00  0.00     0.029 A 
ATOM     18  N   UNL A   1      41.613  26.060  28.732  1.00  0.00    -0.354 N 
ATOM     19  C   UNL A   1      41.750  28.051  32.482  1.00  0.00     0.074 A 
ATOM     20  C   UNL A   1      40.376  27.831  32.867  1.00  0.00     0.031 C 
ATOM     21  C   UNL A   1      40.597  25.175  26.953  1.00  0.00     0.029 A 
ATOM     22  C   UNL A   1      41.676  24.954  27.903  1.00  0.00     0.049 A 
ATOM     23  H   UNL A   1      42.291  26.254  29.420  1.00  0.00     0.167 HD
ATOM     24  C   UNL A   1      42.881  28.003  33.237  1.00  0.00     0.031 A 
ATOM     25  C   UNL A   1      42.514  23.900  28.016  1.00  0.00     0.031 A 
ATOM     26  C   UNL A   1      44.042  28.477  32.542  1.00  0.00     0.049 A 
ATOM     27  C   UNL A   1      43.655  24.288  28.871  1.00  0.00     0.074 A 
ATOM     28  C   UNL A   1      44.433  29.682  31.996  1.00  0.00     0.029 A 
ATOM     29  N   UNL A   1      44.936  27.549  32.072  1.00  0.00    -0.354 N 
ATOM     30  N   UNL A   1      44.583  25.127  28.514  1.00  0.00    -0.248 NA
ATOM     31  C   UNL A   1      43.614  23.972  30.290  1.00  0.00     0.031 C 
ATOM     32  C   UNL A   1      45.236  29.338  30.869  1.00  0.00     0.029 A 
ATOM     33  C   UNL A   1      45.285  27.944  30.806  1.00  0.00     0.049 A 
ATOM     34  H   UNL A   1      45.264  26.754  32.551  1.00  0.00     0.167 HD
ATOM     35  C   UNL A   1      44.968  25.753  29.688  1.00  0.00     0.074 A 
ATOM     36  C   UNL A   1      44.453  24.901  30.754  1.00  0.00     0.031 C 
ATOM     37  C   UNL A   1      45.422  27.040  29.684  1.00  0.00     0.031 A 
BRANCH  24  38
ATOM     38  C   UNL A   1      42.988  27.273  34.550  1.00  0.00    -0.014 A 
ATOM     39  C   UNL A   1      43.097  25.870  34.560  1.00  0.00     0.009 A 
ATOM     40  C   UNL A   1      42.737  27.900  35.786  1.00  0.00     0.009 A 
ATOM     41  C   UNL A   1      42.940  25.134  35.742  1.00  0.00     0.001 A 
ATOM     42  C   UNL A   1      42.619  27.171  36.973  1.00  0.00     0.001 A 
ATOM     43  C   UNL A   1      42.703  25.785  36.948  1.00  0.00     0.000 A 
ENDBRANCH  24  38
BRANCH  25  44
ATOM     44  C   UNL A   1      42.292  22.503  27.595  1.00  0.00    -0.014 A 
ATOM     45  C   UNL A   1      41.148  21.800  28.001  1.00  0.00     0.009 A 
ATOM     46  C   UNL A   1      43.091  21.937  26.587  1.00  0.00     0.009 A 
ATOM     47  C   UNL A   1      40.804  20.584  27.397  1.00  0.00     0.001 A 
ATOM     48  C   UNL A   1      42.752  20.720  25.988  1.00  0.00     0.001 A 
ATOM     49  C   UNL A   1      41.601  20.050  26.386  1.00  0.00     0.000 A 
ENDBRANCH  25  44
BRANCH  37  50
ATOM     50  C   UNL A   1      45.763  27.662  28.351  1.00  0.00    -0.014 A 
ATOM     51  C   UNL A   1      47.073  27.677  27.840  1.00  0.00     0.009 A 
ATOM     52  C   UNL A   1      44.724  28.119  27.526  1.00  0.00     0.009 A 
ATOM     53  C   UNL A   1      47.342  28.175  26.563  1.00  0.00     0.001 A 
ATOM     54  C   UNL A   1      44.990  28.595  26.239  1.00  0.00     0.001 A 
ATOM     55  C   UNL A   1      46.299  28.630  25.761  1.00  0.00     0.000 A 
ENDBRANCH  37  50
ENDBRANCH  11  12
ENDBRANCH   4   6
ENDBRANCH   1   2
BRANCH   1  56
ATOM     56  C   UNL A   1      36.019  33.858  29.820  1.00  0.00     0.023 C 
BRANCH  56  57
ATOM     57  C   UNL A   1      36.439  32.851  30.896  1.00  0.00     0.023 C 
BRANCH  57  58
ATOM     58  C   UNL A   1      35.309  32.287  31.754  1.00  0.00     0.116 C 
BRANCH  58  59
ATOM     59  N   UNL A   1      35.537  32.482  33.174  1.00  0.00    -0.351 N 
ATOM     60  C   UNL A   1      35.295  33.601  33.944  1.00  0.00     0.271 C 
ATOM     61  H   UNL A   1      35.916  31.711  33.653  1.00  0.00     0.163 HD
ATOM     62  O   UNL A   1      35.655  33.604  35.114  1.00  0.00    -0.267 OA
BRANCH  60  63
ATOM     63  C   UNL A   1      34.597  34.730  33.320  1.00  0.00     0.154 A 
ATOM     64  C   UNL A   1      33.306  34.702  32.675  1.00  0.00     0.089 A 
ATOM     65  N   UNL A   1      35.149  35.968  33.274  1.00  0.00    -0.143 NA
ATOM     66  C   UNL A   1      33.146  35.978  32.216  1.00  0.00     0.199 A 
ATOM     67  N   UNL A   1      34.223  36.649  32.628  1.00  0.00    -0.135 N 
ATOM     68  N   UNL A   1      32.347  36.808  31.507  1.00  0.00    -0.109 NA
ATOM     69  N   UNL A   1      34.123  37.862  32.126  1.00  0.00    -0.177 N 
ATOM     70  N   UNL A   1      32.903  37.963  31.481  1.00  0.00    -0.050 NA
ATOM     71  H   UNL A   1      34.799  38.575  32.197  1.00  0.00     0.216 HD
ENDBRANCH  60  63
ENDBRANCH  58  59
ENDBRANCH  57  58
ENDBRANCH  56  57
ENDBRANCH   1  56
TORSDOF 11
ENDMDL
