MODEL 1
REMARK VINA RESULT:     -13.0      0.000      0.000
REMARK SMILES Cc1cc(C(=O)NCCCCNC(=O)c2ccc(-c3c4nc(c(-c5ccccc5)c5ccc([nH]5)c(-c5ccccc5)c5nc(c(-c6ccccc6)c6ccc3[nH]6)C=C5)C=C4)cc2)ccc1NS(=O)(=O)c1ccc2c(c1)CCC2
REMARK SMILES IDX 9 1 8 2 7 3 5 4 6 5 4 7 1 8 2 9 3 10 65 11 64 12 63 13 66 14
REMARK SMILES IDX 67 16 68 17 69 18 70 19 71 20 75 21 72 22 74 23 73 24 76 25
REMARK SMILES IDX 78 26 77 27 10 28 11 29 12 30 13 31 14 33 15 34 16 35 62 36
REMARK SMILES IDX 17 37 61 38 18 39 19 40 20 41 55 42 21 43 60 44 54 45 56 46
REMARK SMILES IDX 22 47 59 48 53 49 52 50 23 52 45 53 30 54 44 55 31 56 34 57
REMARK SMILES IDX 43 58 57 59 32 60 33 61 42 63 58 64 35 65 24 66 25 67 29 68
REMARK SMILES IDX 26 69 28 70 27 71 46 72 47 73 51 74 48 75 50 76 49 77 36 78
REMARK SMILES IDX 37 79 41 80 38 81 40 82 39 83
REMARK H PARENT 7 6 66 15 12 32 56 51 34 62
REMARK Flexibility Score: inf
ROOT
ATOM      1  C   UNL A   1      32.510  29.627  25.429  1.00  0.00     0.023 C 
ENDROOT
BRANCH   1   2
ATOM      2  C   UNL A   1      31.030  29.913  25.142  1.00  0.00     0.116 C 
BRANCH   2   3
ATOM      3  N   UNL A   1      30.715  30.140  23.737  1.00  0.00    -0.352 N 
ATOM      4  C   UNL A   1      30.306  29.281  22.739  1.00  0.00     0.251 C 
ATOM      5  O   UNL A   1      30.136  29.719  21.604  1.00  0.00    -0.269 OA
ATOM      6  H   UNL A   1      30.811  31.076  23.449  1.00  0.00     0.163 HD
BRANCH   4   7
ATOM      7  C   UNL A   1      30.165  27.824  22.980  1.00  0.00     0.040 A 
ATOM      8  C   UNL A   1      32.380  24.776  22.563  1.00  0.00     0.046 C 
ATOM      9  C   UNL A   1      31.269  25.660  23.061  1.00  0.00    -0.026 A 
ATOM     10  C   UNL A   1      31.225  26.990  22.614  1.00  0.00     0.019 A 
ATOM     11  C   UNL A   1      30.276  25.216  23.950  1.00  0.00     0.052 A 
ATOM     12  C   UNL A   1      29.090  25.947  24.051  1.00  0.00     0.028 A 
ATOM     13  C   UNL A   1      29.034  27.258  23.565  1.00  0.00     0.016 A 
BRANCH  11  14
ATOM     14  N   UNL A   1      30.640  24.208  24.891  1.00  0.00    -0.279 N 
ATOM     15  H   UNL A   1      30.579  23.280  24.566  1.00  0.00     0.180 HD
BRANCH  14  16
ATOM     16  S   UNL A   1      31.155  24.386  26.465  1.00  0.00     0.261 S 
ATOM     17  O   UNL A   1      31.304  25.809  26.726  1.00  0.00    -0.201 OA
ATOM     18  O   UNL A   1      30.267  23.569  27.251  1.00  0.00    -0.201 OA
BRANCH  16  19
ATOM     19  C   UNL A   1      32.782  23.668  26.641  1.00  0.00     0.088 A 
ATOM     20  C   UNL A   1      33.040  22.551  27.450  1.00  0.00     0.022 A 
ATOM     21  C   UNL A   1      33.766  24.160  25.771  1.00  0.00     0.026 A 
ATOM     22  C   UNL A   1      34.189  21.785  27.234  1.00  0.00     0.005 A 
ATOM     23  C   UNL A   1      34.919  23.415  25.603  1.00  0.00    -0.043 A 
ATOM     24  C   UNL A   1      35.085  22.196  26.264  1.00  0.00    -0.045 A 
ATOM     25  C   UNL A   1      36.098  23.701  24.730  1.00  0.00     0.036 C 
ATOM     26  C   UNL A   1      36.292  21.473  25.750  1.00  0.00     0.036 C 
ATOM     27  C   UNL A   1      36.599  22.275  24.474  1.00  0.00     0.010 C 
ENDBRANCH  16  19
ENDBRANCH  14  16
ENDBRANCH  11  14
ENDBRANCH   4   7
ENDBRANCH   2   3
ENDBRANCH   1   2
BRANCH   1  28
ATOM     28  C   UNL A   1      33.114  30.319  26.651  1.00  0.00     0.023 C 
BRANCH  28  29
ATOM     29  C   UNL A   1      34.551  29.930  26.984  1.00  0.00     0.116 C 
BRANCH  29  30
ATOM     30  N   UNL A   1      35.323  30.944  27.695  1.00  0.00    -0.352 N 
ATOM     31  C   UNL A   1      36.595  30.863  28.243  1.00  0.00     0.251 C 
ATOM     32  H   UNL A   1      34.876  31.815  27.800  1.00  0.00     0.163 HD
ATOM     33  O   UNL A   1      37.059  31.826  28.846  1.00  0.00    -0.269 OA
BRANCH  31  34
ATOM     34  C   UNL A   1      37.455  29.680  27.976  1.00  0.00     0.039 A 
ATOM     35  C   UNL A   1      37.420  28.626  28.898  1.00  0.00     0.014 A 
ATOM     36  C   UNL A   1      38.439  29.703  26.993  1.00  0.00     0.014 A 
ATOM     37  C   UNL A   1      38.527  27.792  29.024  1.00  0.00     0.010 A 
ATOM     38  C   UNL A   1      39.584  28.957  27.186  1.00  0.00     0.010 A 
ATOM     39  C   UNL A   1      39.661  28.069  28.262  1.00  0.00    -0.014 A 
BRANCH  39  40
ATOM     40  C   UNL A   1      41.005  27.675  28.671  1.00  0.00     0.031 A 
ATOM     41  C   UNL A   1      41.657  26.464  28.135  1.00  0.00     0.074 A 
ATOM     42  C   UNL A   1      41.703  28.508  29.475  1.00  0.00     0.049 A 
ATOM     43  N   UNL A   1      42.656  25.869  28.697  1.00  0.00    -0.248 NA
ATOM     44  C   UNL A   1      41.184  25.784  26.936  1.00  0.00     0.031 C 
ATOM     45  C   UNL A   1      43.141  28.517  29.728  1.00  0.00     0.029 A 
ATOM     46  N   UNL A   1      41.216  29.436  30.379  1.00  0.00    -0.354 N 
ATOM     47  C   UNL A   1      43.154  24.962  27.790  1.00  0.00     0.074 A 
ATOM     48  C   UNL A   1      42.137  24.863  26.771  1.00  0.00     0.031 C 
ATOM     49  C   UNL A   1      43.382  29.213  30.852  1.00  0.00     0.029 A 
ATOM     50  C   UNL A   1      42.095  29.526  31.456  1.00  0.00     0.049 A 
ATOM     51  H   UNL A   1      40.382  29.949  30.277  1.00  0.00     0.167 HD
ATOM     52  C   UNL A   1      44.441  24.525  27.917  1.00  0.00     0.031 A 
ATOM     53  C   UNL A   1      41.725  29.138  32.713  1.00  0.00     0.031 A 
ATOM     54  C   UNL A   1      45.058  24.997  29.159  1.00  0.00     0.049 A 
ATOM     55  C   UNL A   1      42.530  27.972  33.259  1.00  0.00     0.074 A 
ATOM     56  C   UNL A   1      45.976  25.996  29.438  1.00  0.00     0.029 A 
ATOM     57  N   UNL A   1      44.527  24.602  30.382  1.00  0.00    -0.354 N 
ATOM     58  N   UNL A   1      43.259  27.181  32.523  1.00  0.00    -0.248 NA
ATOM     59  C   UNL A   1      42.527  27.573  34.666  1.00  0.00     0.031 C 
ATOM     60  C   UNL A   1      45.934  26.257  30.833  1.00  0.00     0.029 A 
ATOM     61  C   UNL A   1      45.013  25.396  31.403  1.00  0.00     0.049 A 
ATOM     62  H   UNL A   1      43.893  23.859  30.504  1.00  0.00     0.167 HD
ATOM     63  C   UNL A   1      43.792  26.189  33.302  1.00  0.00     0.074 A 
ATOM     64  C   UNL A   1      43.320  26.487  34.640  1.00  0.00     0.031 C 
ATOM     65  C   UNL A   1      44.559  25.192  32.772  1.00  0.00     0.031 A 
BRANCH  52  66
ATOM     66  C   UNL A   1      45.238  23.934  26.770  1.00  0.00    -0.014 A 
ATOM     67  C   UNL A   1      45.987  24.784  25.934  1.00  0.00     0.009 A 
ATOM     68  C   UNL A   1      45.235  22.578  26.402  1.00  0.00     0.009 A 
ATOM     69  C   UNL A   1      46.597  24.330  24.756  1.00  0.00     0.001 A 
ATOM     70  C   UNL A   1      45.815  22.118  25.211  1.00  0.00     0.001 A 
ATOM     71  C   UNL A   1      46.485  22.999  24.378  1.00  0.00     0.000 A 
ENDBRANCH  52  66
BRANCH  53  72
ATOM     72  C   UNL A   1      40.285  29.360  33.024  1.00  0.00    -0.014 A 
ATOM     73  C   UNL A   1      39.852  30.663  33.335  1.00  0.00     0.009 A 
ATOM     74  C   UNL A   1      39.320  28.397  32.692  1.00  0.00     0.009 A 
ATOM     75  C   UNL A   1      38.505  31.018  33.216  1.00  0.00     0.001 A 
ATOM     76  C   UNL A   1      37.971  28.755  32.581  1.00  0.00     0.001 A 
ATOM     77  C   UNL A   1      37.570  30.072  32.810  1.00  0.00     0.000 A 
ENDBRANCH  53  72
BRANCH  65  78
ATOM     78  C   UNL A   1      45.006  23.950  33.497  1.00  0.00    -0.014 A 
ATOM     79  C   UNL A   1      46.289  23.772  34.033  1.00  0.00     0.009 A 
ATOM     80  C   UNL A   1      44.049  22.953  33.790  1.00  0.00     0.009 A 
ATOM     81  C   UNL A   1      46.610  22.636  34.788  1.00  0.00     0.001 A 
ATOM     82  C   UNL A   1      44.354  21.840  34.577  1.00  0.00     0.001 A 
ATOM     83  C   UNL A   1      45.640  21.676  35.069  1.00  0.00     0.000 A 
ENDBRANCH  65  78
ENDBRANCH  39  40
ENDBRANCH  31  34
ENDBRANCH  29  30
ENDBRANCH  28  29
ENDBRANCH   1  28
TORSDOF 14
ENDMDL
MODEL 2
REMARK VINA RESULT:     -12.9      3.321      8.369
REMARK SMILES Cc1cc(C(=O)NCCCCNC(=O)c2ccc(-c3c4nc(c(-c5ccccc5)c5ccc([nH]5)c(-c5ccccc5)c5nc(c(-c6ccccc6)c6ccc3[nH]6)C=C5)C=C4)cc2)ccc1NS(=O)(=O)c1ccc2c(c1)CCC2
REMARK SMILES IDX 9 1 8 2 7 3 5 4 6 5 4 7 1 8 2 9 3 10 65 11 64 12 63 13 66 14
REMARK SMILES IDX 67 16 68 17 69 18 70 19 71 20 75 21 72 22 74 23 73 24 76 25
REMARK SMILES IDX 78 26 77 27 10 28 11 29 12 30 13 31 14 33 15 34 16 35 62 36
REMARK SMILES IDX 17 37 61 38 18 39 19 40 20 41 55 42 21 43 60 44 54 45 56 46
REMARK SMILES IDX 22 47 59 48 53 49 52 50 23 52 45 53 30 54 44 55 31 56 34 57
REMARK SMILES IDX 43 58 57 59 32 60 33 61 42 63 58 64 35 65 24 66 25 67 29 68
REMARK SMILES IDX 26 69 28 70 27 71 46 72 47 73 51 74 48 75 50 76 49 77 36 78
REMARK SMILES IDX 37 79 41 80 38 81 40 82 39 83
REMARK H PARENT 7 6 66 15 12 32 56 51 34 62
REMARK Flexibility Score: inf
ROOT
ATOM      1  C   UNL A   1      37.646  23.602  25.789  1.00  0.00     0.023 C 
ENDROOT
BRANCH   1   2
ATOM      2  C   UNL A   1      36.111  23.605  25.804  1.00  0.00     0.116 C 
BRANCH   2   3
ATOM      3  N   UNL A   1      35.509  22.661  26.739  1.00  0.00    -0.352 N 
ATOM      4  C   UNL A   1      34.274  22.048  26.754  1.00  0.00     0.251 C 
ATOM      5  O   UNL A   1      33.987  21.304  27.689  1.00  0.00    -0.269 OA
ATOM      6  H   UNL A   1      36.091  22.416  27.494  1.00  0.00     0.163 HD
BRANCH   4   7
ATOM      7  C   UNL A   1      33.249  22.344  25.724  1.00  0.00     0.040 A 
ATOM      8  C   UNL A   1      30.470  24.890  25.313  1.00  0.00     0.046 C 
ATOM      9  C   UNL A   1      31.516  23.867  24.959  1.00  0.00    -0.026 A 
ATOM     10  C   UNL A   1      32.323  23.358  25.988  1.00  0.00     0.019 A 
ATOM     11  C   UNL A   1      31.719  23.399  23.650  1.00  0.00     0.052 A 
ATOM     12  C   UNL A   1      32.409  22.198  23.466  1.00  0.00     0.028 A 
ATOM     13  C   UNL A   1      33.179  21.669  24.507  1.00  0.00     0.016 A 
BRANCH  11  14
ATOM     14  N   UNL A   1      31.451  24.304  22.581  1.00  0.00    -0.279 N 
ATOM     15  H   UNL A   1      30.578  24.194  22.139  1.00  0.00     0.180 HD
BRANCH  14  16
ATOM     16  S   UNL A   1      32.414  25.522  21.978  1.00  0.00     0.261 S 
ATOM     17  O   UNL A   1      33.793  25.058  22.014  1.00  0.00    -0.201 OA
ATOM     18  O   UNL A   1      31.792  25.923  20.742  1.00  0.00    -0.201 OA
BRANCH  16  19
ATOM     19  C   UNL A   1      32.330  26.937  23.064  1.00  0.00     0.088 A 
ATOM     20  C   UNL A   1      31.244  27.827  23.075  1.00  0.00     0.022 A 
ATOM     21  C   UNL A   1      33.321  27.011  24.053  1.00  0.00     0.026 A 
ATOM     22  C   UNL A   1      31.021  28.639  24.191  1.00  0.00     0.005 A 
ATOM     23  C   UNL A   1      33.108  27.855  25.127  1.00  0.00    -0.043 A 
ATOM     24  C   UNL A   1      31.928  28.594  25.234  1.00  0.00    -0.045 A 
ATOM     25  C   UNL A   1      33.987  28.100  26.312  1.00  0.00     0.036 C 
ATOM     26  C   UNL A   1      31.828  29.245  26.579  1.00  0.00     0.036 C 
ATOM     27  C   UNL A   1      32.936  28.506  27.351  1.00  0.00     0.010 C 
ENDBRANCH  16  19
ENDBRANCH  14  16
ENDBRANCH  11  14
ENDBRANCH   4   7
ENDBRANCH   2   3
ENDBRANCH   1   2
BRANCH   1  28
ATOM     28  C   UNL A   1      38.325  22.234  25.741  1.00  0.00     0.023 C 
BRANCH  28  29
ATOM     29  C   UNL A   1      39.701  22.159  26.396  1.00  0.00     0.116 C 
BRANCH  29  30
ATOM     30  N   UNL A   1      40.542  21.051  25.955  1.00  0.00    -0.352 N 
ATOM     31  C   UNL A   1      41.911  20.873  26.088  1.00  0.00     0.251 C 
ATOM     32  H   UNL A   1      40.067  20.320  25.497  1.00  0.00     0.163 HD
ATOM     33  O   UNL A   1      42.445  19.878  25.607  1.00  0.00    -0.269 OA
BRANCH  31  34
ATOM     34  C   UNL A   1      42.711  21.797  26.936  1.00  0.00     0.039 A 
ATOM     35  C   UNL A   1      42.420  21.840  28.306  1.00  0.00     0.014 A 
ATOM     36  C   UNL A   1      43.544  22.760  26.378  1.00  0.00     0.014 A 
ATOM     37  C   UNL A   1      42.704  22.996  29.028  1.00  0.00     0.010 A 
ATOM     38  C   UNL A   1      43.725  23.950  27.053  1.00  0.00     0.010 A 
ATOM     39  C   UNL A   1      43.219  24.098  28.347  1.00  0.00    -0.014 A 
BRANCH  39  40
ATOM     40  C   UNL A   1      43.036  25.470  28.808  1.00  0.00     0.031 A 
ATOM     41  C   UNL A   1      41.893  26.292  28.367  1.00  0.00     0.074 A 
ATOM     42  C   UNL A   1      43.880  25.951  29.749  1.00  0.00     0.049 A 
ATOM     43  N   UNL A   1      41.857  27.582  28.436  1.00  0.00    -0.248 NA
ATOM     44  C   UNL A   1      40.706  25.717  27.747  1.00  0.00     0.031 C 
ATOM     45  C   UNL A   1      43.700  27.121  30.604  1.00  0.00     0.029 A 
ATOM     46  N   UNL A   1      45.181  25.560  30.014  1.00  0.00    -0.354 N 
ATOM     47  C   UNL A   1      40.559  27.968  28.193  1.00  0.00     0.074 A 
ATOM     48  C   UNL A   1      39.918  26.792  27.655  1.00  0.00     0.031 C 
ATOM     49  C   UNL A   1      44.894  27.483  31.105  1.00  0.00     0.029 A 
ATOM     50  C   UNL A   1      45.906  26.667  30.451  1.00  0.00     0.049 A 
ATOM     51  H   UNL A   1      45.536  24.649  29.910  1.00  0.00     0.167 HD
ATOM     52  C   UNL A   1      40.130  29.187  28.631  1.00  0.00     0.031 A 
ATOM     53  C   UNL A   1      46.943  27.174  29.720  1.00  0.00     0.031 A 
ATOM     54  C   UNL A   1      41.228  29.990  29.174  1.00  0.00     0.049 A 
ATOM     55  C   UNL A   1      46.715  28.593  29.231  1.00  0.00     0.074 A 
ATOM     56  C   UNL A   1      41.622  30.305  30.464  1.00  0.00     0.029 A 
ATOM     57  N   UNL A   1      42.277  30.367  28.342  1.00  0.00    -0.354 N 
ATOM     58  N   UNL A   1      45.547  29.173  29.193  1.00  0.00    -0.248 NA
ATOM     59  C   UNL A   1      47.773  29.446  28.693  1.00  0.00     0.031 C 
ATOM     60  C   UNL A   1      42.952  30.800  30.411  1.00  0.00     0.029 A 
ATOM     61  C   UNL A   1      43.352  30.812  29.087  1.00  0.00     0.049 A 
ATOM     62  H   UNL A   1      42.257  30.323  27.359  1.00  0.00     0.167 HD
ATOM     63  C   UNL A   1      45.668  30.416  28.633  1.00  0.00     0.074 A 
ATOM     64  C   UNL A   1      47.084  30.550  28.352  1.00  0.00     0.031 C 
ATOM     65  C   UNL A   1      44.585  31.221  28.426  1.00  0.00     0.031 A 
BRANCH  52  66
ATOM     66  C   UNL A   1      38.669  29.525  28.856  1.00  0.00    -0.014 A 
ATOM     67  C   UNL A   1      38.065  29.210  30.089  1.00  0.00     0.009 A 
ATOM     68  C   UNL A   1      37.810  30.070  27.888  1.00  0.00     0.009 A 
ATOM     69  C   UNL A   1      36.683  29.329  30.299  1.00  0.00     0.001 A 
ATOM     70  C   UNL A   1      36.423  30.165  28.075  1.00  0.00     0.001 A 
ATOM     71  C   UNL A   1      35.856  29.780  29.279  1.00  0.00     0.000 A 
ENDBRANCH  52  66
BRANCH  53  72
ATOM     72  C   UNL A   1      47.707  26.153  28.949  1.00  0.00    -0.014 A 
ATOM     73  C   UNL A   1      47.444  26.007  27.574  1.00  0.00     0.009 A 
ATOM     74  C   UNL A   1      48.883  25.590  29.468  1.00  0.00     0.009 A 
ATOM     75  C   UNL A   1      48.379  25.407  26.725  1.00  0.00     0.001 A 
ATOM     76  C   UNL A   1      49.813  24.983  28.615  1.00  0.00     0.001 A 
ATOM     77  C   UNL A   1      49.576  24.921  27.242  1.00  0.00     0.000 A 
ENDBRANCH  53  72
BRANCH  65  78
ATOM     78  C   UNL A   1      44.581  32.498  27.629  1.00  0.00    -0.014 A 
ATOM     79  C   UNL A   1      44.571  32.550  26.228  1.00  0.00     0.009 A 
ATOM     80  C   UNL A   1      44.435  33.726  28.313  1.00  0.00     0.009 A 
ATOM     81  C   UNL A   1      44.462  33.770  25.547  1.00  0.00     0.001 A 
ATOM     82  C   UNL A   1      44.283  34.939  27.637  1.00  0.00     0.001 A 
ATOM     83  C   UNL A   1      44.306  34.961  26.251  1.00  0.00     0.000 A 
ENDBRANCH  65  78
ENDBRANCH  39  40
ENDBRANCH  31  34
ENDBRANCH  29  30
ENDBRANCH  28  29
ENDBRANCH   1  28
TORSDOF 14
ENDMDL
MODEL 3
REMARK VINA RESULT:     -12.8      1.474      1.876
REMARK SMILES Cc1cc(C(=O)NCCCCNC(=O)c2ccc(-c3c4nc(c(-c5ccccc5)c5ccc([nH]5)c(-c5ccccc5)c5nc(c(-c6ccccc6)c6ccc3[nH]6)C=C5)C=C4)cc2)ccc1NS(=O)(=O)c1ccc2c(c1)CCC2
REMARK SMILES IDX 9 1 8 2 7 3 5 4 6 5 4 7 1 8 2 9 3 10 65 11 64 12 63 13 66 14
REMARK SMILES IDX 67 16 68 17 69 18 70 19 71 20 75 21 72 22 74 23 73 24 76 25
REMARK SMILES IDX 78 26 77 27 10 28 11 29 12 30 13 31 14 33 15 34 16 35 62 36
REMARK SMILES IDX 17 37 61 38 18 39 19 40 20 41 55 42 21 43 60 44 54 45 56 46
REMARK SMILES IDX 22 47 59 48 53 49 52 50 23 52 45 53 30 54 44 55 31 56 34 57
REMARK SMILES IDX 43 58 57 59 32 60 33 61 42 63 58 64 35 65 24 66 25 67 29 68
REMARK SMILES IDX 26 69 28 70 27 71 46 72 47 73 51 74 48 75 50 76 49 77 36 78
REMARK SMILES IDX 37 79 41 80 38 81 40 82 39 83
REMARK H PARENT 7 6 66 15 12 32 56 51 34 62
REMARK Flexibility Score: inf
ROOT
ATOM      1  C   UNL A   1      33.737  28.960  27.150  1.00  0.00     0.023 C 
ENDROOT
BRANCH   1   2
ATOM      2  C   UNL A   1      34.124  28.121  25.925  1.00  0.00     0.116 C 
BRANCH   2   3
ATOM      3  N   UNL A   1      34.034  28.826  24.651  1.00  0.00    -0.352 N 
ATOM      4  C   UNL A   1      33.240  28.618  23.543  1.00  0.00     0.251 C 
ATOM      5  O   UNL A   1      33.381  29.343  22.562  1.00  0.00    -0.269 OA
ATOM      6  H   UNL A   1      34.650  29.588  24.569  1.00  0.00     0.163 HD
BRANCH   4   7
ATOM      7  C   UNL A   1      32.294  27.478  23.470  1.00  0.00     0.040 A 
ATOM      8  C   UNL A   1      32.522  23.817  22.507  1.00  0.00     0.046 C 
ATOM      9  C   UNL A   1      32.014  25.086  23.139  1.00  0.00    -0.026 A 
ATOM     10  C   UNL A   1      32.768  26.258  22.977  1.00  0.00     0.019 A 
ATOM     11  C   UNL A   1      30.821  25.150  23.879  1.00  0.00     0.052 A 
ATOM     12  C   UNL A   1      30.226  26.396  24.087  1.00  0.00     0.028 A 
ATOM     13  C   UNL A   1      30.966  27.566  23.883  1.00  0.00     0.016 A 
BRANCH  11  14
ATOM     14  N   UNL A   1      30.434  23.983  24.601  1.00  0.00    -0.279 N 
ATOM     15  H   UNL A   1      29.761  23.413  24.162  1.00  0.00     0.180 HD
BRANCH  14  16
ATOM     16  S   UNL A   1      30.966  23.450  26.087  1.00  0.00     0.261 S 
ATOM     17  O   UNL A   1      31.144  24.616  26.940  1.00  0.00    -0.201 OA
ATOM     18  O   UNL A   1      30.069  22.385  26.454  1.00  0.00    -0.201 OA
BRANCH  16  19
ATOM     19  C   UNL A   1      32.580  22.706  25.907  1.00  0.00     0.088 A 
ATOM     20  C   UNL A   1      32.772  21.418  25.381  1.00  0.00     0.022 A 
ATOM     21  C   UNL A   1      33.675  23.551  26.139  1.00  0.00     0.026 A 
ATOM     22  C   UNL A   1      34.023  21.054  24.873  1.00  0.00     0.005 A 
ATOM     23  C   UNL A   1      34.914  23.155  25.672  1.00  0.00    -0.043 A 
ATOM     24  C   UNL A   1      35.065  21.957  24.970  1.00  0.00    -0.045 A 
ATOM     25  C   UNL A   1      36.222  23.872  25.769  1.00  0.00     0.036 C 
ATOM     26  C   UNL A   1      36.435  21.860  24.373  1.00  0.00     0.036 C 
ATOM     27  C   UNL A   1      36.935  23.307  24.535  1.00  0.00     0.010 C 
ENDBRANCH  16  19
ENDBRANCH  14  16
ENDBRANCH  11  14
ENDBRANCH   4   7
ENDBRANCH   2   3
ENDBRANCH   1   2
BRANCH   1  28
ATOM     28  C   UNL A   1      34.191  30.419  27.149  1.00  0.00     0.023 C 
BRANCH  28  29
ATOM     29  C   UNL A   1      34.422  31.036  28.525  1.00  0.00     0.116 C 
BRANCH  29  30
ATOM     30  N   UNL A   1      35.573  31.929  28.624  1.00  0.00    -0.352 N 
ATOM     31  C   UNL A   1      36.922  31.623  28.729  1.00  0.00     0.251 C 
ATOM     32  H   UNL A   1      35.360  32.890  28.613  1.00  0.00     0.163 HD
ATOM     33  O   UNL A   1      37.742  32.529  28.845  1.00  0.00    -0.269 OA
BRANCH  31  34
ATOM     34  C   UNL A   1      37.392  30.224  28.550  1.00  0.00     0.039 A 
ATOM     35  C   UNL A   1      37.414  29.394  29.678  1.00  0.00     0.014 A 
ATOM     36  C   UNL A   1      38.019  29.812  27.378  1.00  0.00     0.014 A 
ATOM     37  C   UNL A   1      38.305  28.326  29.722  1.00  0.00     0.010 A 
ATOM     38  C   UNL A   1      38.984  28.829  27.455  1.00  0.00     0.010 A 
ATOM     39  C   UNL A   1      39.190  28.151  28.660  1.00  0.00    -0.014 A 
BRANCH  39  40
ATOM     40  C   UNL A   1      40.480  27.486  28.806  1.00  0.00     0.031 A 
ATOM     41  C   UNL A   1      40.646  26.045  28.531  1.00  0.00     0.074 A 
ATOM     42  C   UNL A   1      41.566  28.239  29.092  1.00  0.00     0.049 A 
ATOM     43  N   UNL A   1      41.629  25.331  28.970  1.00  0.00    -0.248 NA
ATOM     44  C   UNL A   1      39.667  25.272  27.777  1.00  0.00     0.031 C 
ATOM     45  C   UNL A   1      42.973  27.882  28.943  1.00  0.00     0.029 A 
ATOM     46  N   UNL A   1      41.615  29.456  29.749  1.00  0.00    -0.354 N 
ATOM     47  C   UNL A   1      41.593  24.129  28.301  1.00  0.00     0.074 A 
ATOM     48  C   UNL A   1      40.295  24.098  27.669  1.00  0.00     0.031 C 
ATOM     49  C   UNL A   1      43.717  28.720  29.684  1.00  0.00     0.029 A 
ATOM     50  C   UNL A   1      42.803  29.534  30.472  1.00  0.00     0.049 A 
ATOM     51  H   UNL A   1      40.922  30.154  29.712  1.00  0.00     0.167 HD
ATOM     52  C   UNL A   1      42.726  23.374  28.219  1.00  0.00     0.031 A 
ATOM     53  C   UNL A   1      42.805  29.583  31.838  1.00  0.00     0.031 A 
ATOM     54  C   UNL A   1      43.809  23.922  29.039  1.00  0.00     0.049 A 
ATOM     55  C   UNL A   1      43.485  28.395  32.495  1.00  0.00     0.074 A 
ATOM     56  C   UNL A   1      44.954  24.640  28.736  1.00  0.00     0.029 A 
ATOM     57  N   UNL A   1      43.650  24.003  30.419  1.00  0.00    -0.354 N 
ATOM     58  N   UNL A   1      43.743  27.272  31.884  1.00  0.00    -0.248 NA
ATOM     59  C   UNL A   1      43.872  28.359  33.905  1.00  0.00     0.031 C 
ATOM     60  C   UNL A   1      45.438  25.223  29.937  1.00  0.00     0.029 A 
ATOM     61  C   UNL A   1      44.605  24.835  30.970  1.00  0.00     0.049 A 
ATOM     62  H   UNL A   1      42.954  23.532  30.931  1.00  0.00     0.167 HD
ATOM     63  C   UNL A   1      44.287  26.380  32.769  1.00  0.00     0.074 A 
ATOM     64  C   UNL A   1      44.365  27.113  34.018  1.00  0.00     0.031 C 
ATOM     65  C   UNL A   1      44.606  25.105  32.402  1.00  0.00     0.031 A 
BRANCH  52  66
ATOM     66  C   UNL A   1      42.949  22.319  27.152  1.00  0.00    -0.014 A 
ATOM     67  C   UNL A   1      42.167  21.148  27.158  1.00  0.00     0.009 A 
ATOM     68  C   UNL A   1      43.954  22.366  26.171  1.00  0.00     0.009 A 
ATOM     69  C   UNL A   1      42.440  20.059  26.317  1.00  0.00     0.001 A 
ATOM     70  C   UNL A   1      44.256  21.272  25.347  1.00  0.00     0.001 A 
ATOM     71  C   UNL A   1      43.506  20.110  25.430  1.00  0.00     0.000 A 
ENDBRANCH  52  66
BRANCH  53  72
ATOM     72  C   UNL A   1      41.633  30.288  32.429  1.00  0.00    -0.014 A 
ATOM     73  C   UNL A   1      41.561  31.690  32.318  1.00  0.00     0.009 A 
ATOM     74  C   UNL A   1      40.471  29.585  32.779  1.00  0.00     0.009 A 
ATOM     75  C   UNL A   1      40.340  32.358  32.452  1.00  0.00     0.001 A 
ATOM     76  C   UNL A   1      39.251  30.258  32.920  1.00  0.00     0.001 A 
ATOM     77  C   UNL A   1      39.180  31.638  32.723  1.00  0.00     0.000 A 
ENDBRANCH  53  72
BRANCH  65  78
ATOM     78  C   UNL A   1      45.001  23.995  33.339  1.00  0.00    -0.014 A 
ATOM     79  C   UNL A   1      46.281  23.854  33.895  1.00  0.00     0.009 A 
ATOM     80  C   UNL A   1      44.001  23.116  33.812  1.00  0.00     0.009 A 
ATOM     81  C   UNL A   1      46.556  22.859  34.843  1.00  0.00     0.001 A 
ATOM     82  C   UNL A   1      44.261  22.152  34.788  1.00  0.00     0.001 A 
ATOM     83  C   UNL A   1      45.545  22.017  35.297  1.00  0.00     0.000 A 
ENDBRANCH  65  78
ENDBRANCH  39  40
ENDBRANCH  31  34
ENDBRANCH  29  30
ENDBRANCH  28  29
ENDBRANCH   1  28
TORSDOF 14
ENDMDL
