MODEL 1
REMARK VINA RESULT:     -12.1      0.000      0.000
REMARK SMILES Cc1ccc(C)c(-n2nc(C)c(/C=C(/C#N)C(=O)NCCCCNC(=O)c3ccc(-c4c5nc(c(-c6ccccc6)c6ccc([nH]6)c(-c6ccccc6)c6nc(c(-c7ccccc7)c7ccc4[nH]7)C=C6)C=C5)cc3)c2Cl)c1
REMARK SMILES IDX 21 1 20 2 19 3 17 4 18 5 14 7 13 8 12 9 8 10 9 11 75 12
REMARK SMILES IDX 10 13 76 14 11 15 7 16 1 17 2 18 3 19 77 20 4 21 5 22 6 23
REMARK SMILES IDX 15 24 16 25 22 26 23 27 24 28 25 29 26 31 27 32 28 33 74 34
REMARK SMILES IDX 29 35 73 36 30 37 31 38 32 39 67 40 33 41 72 42 66 43 68 44
REMARK SMILES IDX 34 45 71 46 65 47 64 48 35 50 57 51 42 52 56 53 43 54 46 55
REMARK SMILES IDX 55 56 69 57 44 58 45 59 54 61 70 62 47 63 36 64 37 65 41 66
REMARK SMILES IDX 38 67 40 68 39 69 58 70 59 71 63 72 60 73 62 74 61 75 48 76
REMARK SMILES IDX 49 77 53 78 50 79 52 80 51 81
REMARK H PARENT 19 6 24 30 68 49 46 60
REMARK Flexibility Score: inf
ROOT
ATOM      1  C   UNL A   1      32.370  29.966  26.957  1.00  0.00     0.023 C 
ENDROOT
BRANCH   1   2
ATOM      2  C   UNL A   1      31.591  29.826  25.634  1.00  0.00     0.116 C 
BRANCH   2   3
ATOM      3  N   UNL A   1      32.498  29.775  24.498  1.00  0.00    -0.351 N 
ATOM      4  C   UNL A   1      32.525  29.033  23.353  1.00  0.00     0.261 C 
ATOM      5  O   UNL A   1      33.603  28.982  22.761  1.00  0.00    -0.268 OA
ATOM      6  H   UNL A   1      33.249  30.407  24.569  1.00  0.00     0.163 HD
BRANCH   4   7
ATOM      7  C   UNL A   1      31.314  28.322  22.817  1.00  0.00     0.117 C 
ATOM      8  C   UNL A   1      30.998  27.063  23.175  1.00  0.00     0.038 C 
BRANCH   8   9
ATOM      9  C   UNL A   1      31.706  26.150  24.041  1.00  0.00     0.036 A 
ATOM     10  N   UNL A   1      33.156  24.561  24.665  1.00  0.00    -0.221 N 
ATOM     11  N   UNL A   1      32.403  24.798  25.767  1.00  0.00    -0.171 NA
ATOM     12  C   UNL A   1      32.776  25.385  23.627  1.00  0.00     0.140 A 
ATOM     13  C   UNL A   1      31.556  25.776  25.413  1.00  0.00     0.069 A 
ATOM     14  Cl  UNL A   1      33.495  25.237  22.079  1.00  0.00    -0.061 Cl
ATOM     15  C   UNL A   1      30.652  26.287  26.480  1.00  0.00     0.069 C 
BRANCH  10  16
ATOM     16  C   UNL A   1      34.270  23.689  24.766  1.00  0.00     0.069 A 
ATOM     17  C   UNL A   1      37.822  23.911  26.143  1.00  0.00     0.044 C 
ATOM     18  C   UNL A   1      36.567  23.378  25.517  1.00  0.00    -0.049 A 
ATOM     19  C   UNL A   1      36.493  22.037  25.133  1.00  0.00     0.004 A 
ATOM     20  C   UNL A   1      35.457  24.205  25.317  1.00  0.00     0.032 A 
ATOM     21  C   UNL A   1      35.317  21.522  24.583  1.00  0.00     0.006 A 
ATOM     22  C   UNL A   1      34.182  22.332  24.400  1.00  0.00    -0.025 A 
ATOM     23  C   UNL A   1      32.982  21.693  23.755  1.00  0.00     0.047 C 
ENDBRANCH  10  16
ENDBRANCH   8   9
BRANCH   7  24
ATOM     24  C   UNL A   1      30.363  29.239  22.064  1.00  0.00     0.105 C 
ATOM     25  N   UNL A   1      29.574  29.999  21.440  1.00  0.00    -0.192 NA
ENDBRANCH   7  24
ENDBRANCH   4   7
ENDBRANCH   2   3
ENDBRANCH   1   2
BRANCH   1  26
ATOM     26  C   UNL A   1      33.388  28.847  27.265  1.00  0.00     0.023 C 
BRANCH  26  27
ATOM     27  C   UNL A   1      34.888  29.204  27.270  1.00  0.00     0.116 C 
BRANCH  27  28
ATOM     28  N   UNL A   1      35.269  30.190  28.299  1.00  0.00    -0.352 N 
ATOM     29  C   UNL A   1      36.261  30.264  29.267  1.00  0.00     0.251 C 
ATOM     30  H   UNL A   1      34.683  30.982  28.299  1.00  0.00     0.163 HD
ATOM     31  O   UNL A   1      36.157  31.108  30.164  1.00  0.00    -0.269 OA
BRANCH  29  32
ATOM     32  C   UNL A   1      37.458  29.393  29.254  1.00  0.00     0.039 A 
ATOM     33  C   UNL A   1      37.808  28.478  30.254  1.00  0.00     0.014 A 
ATOM     34  C   UNL A   1      38.333  29.539  28.215  1.00  0.00     0.014 A 
ATOM     35  C   UNL A   1      39.086  27.882  30.215  1.00  0.00     0.010 A 
ATOM     36  C   UNL A   1      39.277  28.600  27.965  1.00  0.00     0.010 A 
ATOM     37  C   UNL A   1      39.858  28.024  29.063  1.00  0.00    -0.014 A 
BRANCH  37  38
ATOM     38  C   UNL A   1      41.271  27.686  28.899  1.00  0.00     0.031 A 
ATOM     39  C   UNL A   1      41.550  26.449  28.134  1.00  0.00     0.074 A 
ATOM     40  C   UNL A   1      42.257  28.616  28.947  1.00  0.00     0.049 A 
ATOM     41  N   UNL A   1      41.955  25.311  28.587  1.00  0.00    -0.248 NA
ATOM     42  C   UNL A   1      41.214  26.441  26.701  1.00  0.00     0.031 C 
ATOM     43  C   UNL A   1      42.146  30.070  29.139  1.00  0.00     0.029 A 
ATOM     44  N   UNL A   1      43.589  28.452  28.683  1.00  0.00    -0.354 N 
ATOM     45  C   UNL A   1      42.074  24.495  27.466  1.00  0.00     0.074 A 
ATOM     46  C   UNL A   1      41.339  25.147  26.418  1.00  0.00     0.031 C 
ATOM     47  C   UNL A   1      43.318  30.662  28.799  1.00  0.00     0.029 A 
ATOM     48  C   UNL A   1      44.296  29.632  28.488  1.00  0.00     0.049 A 
ATOM     49  H   UNL A   1      44.013  27.565  28.635  1.00  0.00     0.167 HD
ATOM     50  C   UNL A   1      43.004  23.504  27.377  1.00  0.00     0.031 A 
ATOM     51  C   UNL A   1      45.579  29.742  28.057  1.00  0.00     0.031 A 
ATOM     52  C   UNL A   1      43.684  23.302  28.633  1.00  0.00     0.049 A 
ATOM     53  C   UNL A   1      46.218  28.408  28.192  1.00  0.00     0.074 A 
ATOM     54  C   UNL A   1      43.293  23.016  29.926  1.00  0.00     0.029 A 
ATOM     55  N   UNL A   1      44.965  23.793  28.729  1.00  0.00    -0.354 N 
ATOM     56  N   UNL A   1      46.479  27.837  29.331  1.00  0.00    -0.248 NA
ATOM     57  C   UNL A   1      46.220  27.520  27.039  1.00  0.00     0.031 C 
ATOM     58  C   UNL A   1      44.166  23.783  30.754  1.00  0.00     0.029 A 
ATOM     59  C   UNL A   1      45.064  24.456  29.923  1.00  0.00     0.049 A 
ATOM     60  H   UNL A   1      45.681  23.688  28.061  1.00  0.00     0.167 HD
ATOM     61  C   UNL A   1      46.261  26.483  29.113  1.00  0.00     0.074 A 
ATOM     62  C   UNL A   1      46.232  26.338  27.661  1.00  0.00     0.031 C 
ATOM     63  C   UNL A   1      45.835  25.666  30.122  1.00  0.00     0.031 A 
BRANCH  50  64
ATOM     64  C   UNL A   1      43.590  22.995  26.077  1.00  0.00    -0.014 A 
ATOM     65  C   UNL A   1      43.638  21.605  25.871  1.00  0.00     0.009 A 
ATOM     66  C   UNL A   1      44.301  23.785  25.153  1.00  0.00     0.009 A 
ATOM     67  C   UNL A   1      44.414  21.040  24.852  1.00  0.00     0.001 A 
ATOM     68  C   UNL A   1      45.035  23.229  24.102  1.00  0.00     0.001 A 
ATOM     69  C   UNL A   1      45.116  21.853  23.970  1.00  0.00     0.000 A 
ENDBRANCH  50  64
BRANCH  51  70
ATOM     70  C   UNL A   1      46.256  30.856  27.356  1.00  0.00    -0.014 A 
ATOM     71  C   UNL A   1      45.512  31.879  26.743  1.00  0.00     0.009 A 
ATOM     72  C   UNL A   1      47.641  31.053  27.496  1.00  0.00     0.009 A 
ATOM     73  C   UNL A   1      46.127  33.065  26.314  1.00  0.00     0.001 A 
ATOM     74  C   UNL A   1      48.254  32.236  27.064  1.00  0.00     0.001 A 
ATOM     75  C   UNL A   1      47.496  33.248  26.485  1.00  0.00     0.000 A 
ENDBRANCH  51  70
BRANCH  63  76
ATOM     76  C   UNL A   1      45.891  26.195  31.534  1.00  0.00    -0.014 A 
ATOM     77  C   UNL A   1      44.894  27.022  32.079  1.00  0.00     0.009 A 
ATOM     78  C   UNL A   1      46.892  25.708  32.389  1.00  0.00     0.009 A 
ATOM     79  C   UNL A   1      44.912  27.371  33.433  1.00  0.00     0.001 A 
ATOM     80  C   UNL A   1      46.898  26.038  33.746  1.00  0.00     0.001 A 
ATOM     81  C   UNL A   1      45.911  26.873  34.266  1.00  0.00     0.000 A 
ENDBRANCH  63  76
ENDBRANCH  37  38
ENDBRANCH  29  32
ENDBRANCH  27  28
ENDBRANCH  26  27
ENDBRANCH   1  26
TORSDOF 14
ENDMDL
MODEL 2
REMARK VINA RESULT:     -11.9      3.401      5.473
REMARK SMILES Cc1ccc(C)c(-n2nc(C)c(/C=C(/C#N)C(=O)NCCCCNC(=O)c3ccc(-c4c5nc(c(-c6ccccc6)c6ccc([nH]6)c(-c6ccccc6)c6nc(c(-c7ccccc7)c7ccc4[nH]7)C=C6)C=C5)cc3)c2Cl)c1
REMARK SMILES IDX 21 1 20 2 19 3 17 4 18 5 14 7 13 8 12 9 8 10 9 11 75 12
REMARK SMILES IDX 10 13 76 14 11 15 7 16 1 17 2 18 3 19 77 20 4 21 5 22 6 23
REMARK SMILES IDX 15 24 16 25 22 26 23 27 24 28 25 29 26 31 27 32 28 33 74 34
REMARK SMILES IDX 29 35 73 36 30 37 31 38 32 39 67 40 33 41 72 42 66 43 68 44
REMARK SMILES IDX 34 45 71 46 65 47 64 48 35 50 57 51 42 52 56 53 43 54 46 55
REMARK SMILES IDX 55 56 69 57 44 58 45 59 54 61 70 62 47 63 36 64 37 65 41 66
REMARK SMILES IDX 38 67 40 68 39 69 58 70 59 71 63 72 60 73 62 74 61 75 48 76
REMARK SMILES IDX 49 77 53 78 50 79 52 80 51 81
REMARK H PARENT 19 6 24 30 68 49 46 60
REMARK Flexibility Score: inf
ROOT
ATOM      1  C   UNL A   1      31.301  27.601  26.291  1.00  0.00     0.023 C 
ENDROOT
BRANCH   1   2
ATOM      2  C   UNL A   1      32.372  26.495  26.235  1.00  0.00     0.116 C 
BRANCH   2   3
ATOM      3  N   UNL A   1      33.111  26.547  24.982  1.00  0.00    -0.351 N 
ATOM      4  C   UNL A   1      32.836  26.124  23.714  1.00  0.00     0.261 C 
ATOM      5  O   UNL A   1      33.799  26.006  22.957  1.00  0.00    -0.268 OA
ATOM      6  H   UNL A   1      33.992  26.976  25.066  1.00  0.00     0.163 HD
BRANCH   4   7
ATOM      7  C   UNL A   1      31.440  25.830  23.241  1.00  0.00     0.117 C 
ATOM      8  C   UNL A   1      30.806  24.678  23.531  1.00  0.00     0.038 C 
BRANCH   8   9
ATOM      9  C   UNL A   1      31.285  23.525  24.257  1.00  0.00     0.036 A 
ATOM     10  N   UNL A   1      32.372  21.607  24.650  1.00  0.00    -0.221 N 
ATOM     11  N   UNL A   1      31.629  21.821  25.763  1.00  0.00    -0.171 NA
ATOM     12  C   UNL A   1      32.206  22.635  23.746  1.00  0.00     0.140 A 
ATOM     13  C   UNL A   1      31.003  22.988  25.552  1.00  0.00     0.069 A 
ATOM     14  Cl  UNL A   1      32.954  22.580  22.205  1.00  0.00    -0.061 Cl
ATOM     15  C   UNL A   1      30.165  23.503  26.670  1.00  0.00     0.069 C 
BRANCH  10  16
ATOM     16  C   UNL A   1      33.292  20.528  24.633  1.00  0.00     0.069 A 
ATOM     17  C   UNL A   1      33.250  16.892  23.475  1.00  0.00     0.044 C 
ATOM     18  C   UNL A   1      33.717  18.205  24.030  1.00  0.00    -0.049 A 
ATOM     19  C   UNL A   1      35.046  18.362  24.431  1.00  0.00     0.004 A 
ATOM     20  C   UNL A   1      32.839  19.288  24.148  1.00  0.00     0.032 A 
ATOM     21  C   UNL A   1      35.499  19.591  24.915  1.00  0.00     0.006 A 
ATOM     22  C   UNL A   1      34.637  20.699  25.015  1.00  0.00    -0.025 A 
ATOM     23  C   UNL A   1      35.212  21.963  25.594  1.00  0.00     0.047 C 
ENDBRANCH  10  16
ENDBRANCH   8   9
BRANCH   7  24
ATOM     24  C   UNL A   1      30.737  27.043  22.650  1.00  0.00     0.105 C 
ATOM     25  N   UNL A   1      30.154  28.048  22.161  1.00  0.00    -0.192 NA
ENDBRANCH   7  24
ENDBRANCH   4   7
ENDBRANCH   2   3
ENDBRANCH   1   2
BRANCH   1  26
ATOM     26  C   UNL A   1      31.742  28.996  25.798  1.00  0.00     0.023 C 
BRANCH  26  27
ATOM     27  C   UNL A   1      32.463  29.929  26.791  1.00  0.00     0.116 C 
BRANCH  27  28
ATOM     28  N   UNL A   1      32.029  31.338  26.717  1.00  0.00    -0.352 N 
ATOM     29  C   UNL A   1      32.456  32.527  27.293  1.00  0.00     0.251 C 
ATOM     30  H   UNL A   1      31.256  31.464  26.121  1.00  0.00     0.163 HD
ATOM     31  O   UNL A   1      31.714  33.514  27.243  1.00  0.00    -0.269 OA
BRANCH  29  32
ATOM     32  C   UNL A   1      33.780  32.672  27.940  1.00  0.00     0.039 A 
ATOM     33  C   UNL A   1      34.672  33.732  27.735  1.00  0.00     0.014 A 
ATOM     34  C   UNL A   1      34.200  31.657  28.752  1.00  0.00     0.014 A 
ATOM     35  C   UNL A   1      35.984  33.625  28.242  1.00  0.00     0.010 A 
ATOM     36  C   UNL A   1      35.238  31.834  29.604  1.00  0.00     0.010 A 
ATOM     37  C   UNL A   1      36.276  32.597  29.137  1.00  0.00    -0.014 A 
BRANCH  37  38
ATOM     38  C   UNL A   1      37.598  32.177  29.600  1.00  0.00     0.031 A 
ATOM     39  C   UNL A   1      37.959  30.769  29.318  1.00  0.00     0.074 A 
ATOM     40  C   UNL A   1      38.620  33.049  29.787  1.00  0.00     0.049 A 
ATOM     41  N   UNL A   1      38.022  29.784  30.150  1.00  0.00    -0.248 NA
ATOM     42  C   UNL A   1      38.149  30.380  27.911  1.00  0.00     0.031 C 
ATOM     43  C   UNL A   1      38.645  34.502  29.566  1.00  0.00     0.029 A 
ATOM     44  N   UNL A   1      39.924  32.772  30.089  1.00  0.00    -0.354 N 
ATOM     45  C   UNL A   1      38.416  28.689  29.388  1.00  0.00     0.074 A 
ATOM     46  C   UNL A   1      38.190  29.055  28.017  1.00  0.00     0.031 C 
ATOM     47  C   UNL A   1      39.930  34.936  29.557  1.00  0.00     0.029 A 
ATOM     48  C   UNL A   1      40.807  33.826  29.893  1.00  0.00     0.049 A 
ATOM     49  H   UNL A   1      40.215  31.891  30.418  1.00  0.00     0.167 HD
ATOM     50  C   UNL A   1      39.176  27.679  29.895  1.00  0.00     0.031 A 
ATOM     51  C   UNL A   1      42.162  33.769  29.961  1.00  0.00     0.031 A 
ATOM     52  C   UNL A   1      39.338  27.805  31.323  1.00  0.00     0.049 A 
ATOM     53  C   UNL A   1      42.528  32.501  30.642  1.00  0.00     0.074 A 
ATOM     54  C   UNL A   1      38.484  27.898  32.404  1.00  0.00     0.029 A 
ATOM     55  N   UNL A   1      40.558  28.258  31.769  1.00  0.00    -0.354 N 
ATOM     56  N   UNL A   1      42.293  32.255  31.899  1.00  0.00    -0.248 NA
ATOM     57  C   UNL A   1      42.815  31.331  29.825  1.00  0.00     0.031 C 
ATOM     58  C   UNL A   1      39.106  28.831  33.287  1.00  0.00     0.029 A 
ATOM     59  C   UNL A   1      40.320  29.218  32.716  1.00  0.00     0.049 A 
ATOM     60  H   UNL A   1      41.442  27.948  31.464  1.00  0.00     0.167 HD
ATOM     61  C   UNL A   1      41.986  30.902  31.948  1.00  0.00     0.074 A 
ATOM     62  C   UNL A   1      42.449  30.366  30.672  1.00  0.00     0.031 C 
ATOM     63  C   UNL A   1      41.127  30.408  32.890  1.00  0.00     0.031 A 
BRANCH  50  64
ATOM     64  C   UNL A   1      40.107  26.813  29.072  1.00  0.00    -0.014 A 
ATOM     65  C   UNL A   1      39.587  25.637  28.503  1.00  0.00     0.009 A 
ATOM     66  C   UNL A   1      41.505  26.962  29.019  1.00  0.00     0.009 A 
ATOM     67  C   UNL A   1      40.422  24.640  27.984  1.00  0.00     0.001 A 
ATOM     68  C   UNL A   1      42.341  25.995  28.456  1.00  0.00     0.001 A 
ATOM     69  C   UNL A   1      41.800  24.818  27.966  1.00  0.00     0.000 A 
ENDBRANCH  50  64
BRANCH  51  70
ATOM     70  C   UNL A   1      43.185  34.623  29.317  1.00  0.00    -0.014 A 
ATOM     71  C   UNL A   1      43.353  34.619  27.922  1.00  0.00     0.009 A 
ATOM     72  C   UNL A   1      43.837  35.632  30.047  1.00  0.00     0.009 A 
ATOM     73  C   UNL A   1      44.119  35.604  27.280  1.00  0.00     0.001 A 
ATOM     74  C   UNL A   1      44.605  36.612  29.406  1.00  0.00     0.001 A 
ATOM     75  C   UNL A   1      44.735  36.607  28.022  1.00  0.00     0.000 A 
ENDBRANCH  51  70
BRANCH  63  76
ATOM     76  C   UNL A   1      40.755  31.301  34.047  1.00  0.00    -0.014 A 
ATOM     77  C   UNL A   1      39.717  32.246  33.979  1.00  0.00     0.009 A 
ATOM     78  C   UNL A   1      41.358  31.065  35.293  1.00  0.00     0.009 A 
ATOM     79  C   UNL A   1      39.311  32.950  35.117  1.00  0.00     0.001 A 
ATOM     80  C   UNL A   1      40.938  31.753  36.434  1.00  0.00     0.001 A 
ATOM     81  C   UNL A   1      39.918  32.698  36.344  1.00  0.00     0.000 A 
ENDBRANCH  63  76
ENDBRANCH  37  38
ENDBRANCH  29  32
ENDBRANCH  27  28
ENDBRANCH  26  27
ENDBRANCH   1  26
TORSDOF 14
ENDMDL
MODEL 3
REMARK VINA RESULT:     -11.9      3.071      7.696
REMARK SMILES Cc1ccc(C)c(-n2nc(C)c(/C=C(/C#N)C(=O)NCCCCNC(=O)c3ccc(-c4c5nc(c(-c6ccccc6)c6ccc([nH]6)c(-c6ccccc6)c6nc(c(-c7ccccc7)c7ccc4[nH]7)C=C6)C=C5)cc3)c2Cl)c1
REMARK SMILES IDX 21 1 20 2 19 3 17 4 18 5 14 7 13 8 12 9 8 10 9 11 75 12
REMARK SMILES IDX 10 13 76 14 11 15 7 16 1 17 2 18 3 19 77 20 4 21 5 22 6 23
REMARK SMILES IDX 15 24 16 25 22 26 23 27 24 28 25 29 26 31 27 32 28 33 74 34
REMARK SMILES IDX 29 35 73 36 30 37 31 38 32 39 67 40 33 41 72 42 66 43 68 44
REMARK SMILES IDX 34 45 71 46 65 47 64 48 35 50 57 51 42 52 56 53 43 54 46 55
REMARK SMILES IDX 55 56 69 57 44 58 45 59 54 61 70 62 47 63 36 64 37 65 41 66
REMARK SMILES IDX 38 67 40 68 39 69 58 70 59 71 63 72 60 73 62 74 61 75 48 76
REMARK SMILES IDX 49 77 53 78 50 79 52 80 51 81
REMARK H PARENT 19 6 24 30 68 49 46 60
REMARK Flexibility Score: inf
ROOT
ATOM      1  C   UNL A   1      37.777  22.329  25.783  1.00  0.00     0.023 C 
ENDROOT
BRANCH   1   2
ATOM      2  C   UNL A   1      36.331  21.982  25.378  1.00  0.00     0.116 C 
BRANCH   2   3
ATOM      3  N   UNL A   1      35.521  21.678  26.547  1.00  0.00    -0.351 N 
ATOM      4  C   UNL A   1      34.190  21.433  26.728  1.00  0.00     0.261 C 
ATOM      5  O   UNL A   1      33.765  21.550  27.876  1.00  0.00    -0.268 OA
ATOM      6  H   UNL A   1      36.040  21.642  27.383  1.00  0.00     0.163 HD
BRANCH   4   7
ATOM      7  C   UNL A   1      33.281  21.025  25.603  1.00  0.00     0.117 C 
ATOM      8  C   UNL A   1      32.317  21.833  25.123  1.00  0.00     0.038 C 
BRANCH   8   9
ATOM      9  C   UNL A   1      31.920  23.150  25.565  1.00  0.00     0.036 A 
ATOM     10  N   UNL A   1      31.996  25.371  25.845  1.00  0.00    -0.221 N 
ATOM     11  N   UNL A   1      30.967  24.955  26.624  1.00  0.00    -0.171 NA
ATOM     12  C   UNL A   1      32.561  24.307  25.174  1.00  0.00     0.140 A 
ATOM     13  C   UNL A   1      30.891  23.630  26.433  1.00  0.00     0.069 A 
ATOM     14  Cl  UNL A   1      33.946  24.525  24.189  1.00  0.00    -0.061 Cl
ATOM     15  C   UNL A   1      29.778  22.924  27.126  1.00  0.00     0.069 C 
BRANCH  10  16
ATOM     16  C   UNL A   1      32.227  26.761  25.692  1.00  0.00     0.069 A 
ATOM     17  C   UNL A   1      34.742  29.297  27.037  1.00  0.00     0.044 C 
ATOM     18  C   UNL A   1      33.603  28.686  26.275  1.00  0.00    -0.049 A 
ATOM     19  C   UNL A   1      32.862  29.465  25.382  1.00  0.00     0.004 A 
ATOM     20  C   UNL A   1      33.271  27.337  26.438  1.00  0.00     0.032 A 
ATOM     21  C   UNL A   1      31.823  28.897  24.642  1.00  0.00     0.006 A 
ATOM     22  C   UNL A   1      31.494  27.535  24.773  1.00  0.00    -0.025 A 
ATOM     23  C   UNL A   1      30.327  27.033  23.966  1.00  0.00     0.047 C 
ENDBRANCH  10  16
ENDBRANCH   8   9
BRANCH   7  24
ATOM     24  C   UNL A   1      33.726  19.750  24.902  1.00  0.00     0.105 C 
ATOM     25  N   UNL A   1      34.095  18.694  24.321  1.00  0.00    -0.192 NA
ENDBRANCH   7  24
ENDBRANCH   4   7
ENDBRANCH   2   3
ENDBRANCH   1   2
BRANCH   1  26
ATOM     26  C   UNL A   1      38.841  21.251  25.486  1.00  0.00     0.023 C 
BRANCH  26  27
ATOM     27  C   UNL A   1      40.023  21.100  26.465  1.00  0.00     0.116 C 
BRANCH  27  28
ATOM     28  N   UNL A   1      41.303  21.621  25.949  1.00  0.00    -0.352 N 
ATOM     29  C   UNL A   1      41.910  22.869  25.907  1.00  0.00     0.251 C 
ATOM     30  H   UNL A   1      41.857  20.919  25.535  1.00  0.00     0.163 HD
ATOM     31  O   UNL A   1      42.881  23.036  25.162  1.00  0.00    -0.269 OA
BRANCH  29  32
ATOM     32  C   UNL A   1      41.461  24.004  26.745  1.00  0.00     0.039 A 
ATOM     33  C   UNL A   1      40.246  24.685  26.607  1.00  0.00     0.014 A 
ATOM     34  C   UNL A   1      42.330  24.474  27.689  1.00  0.00     0.014 A 
ATOM     35  C   UNL A   1      40.051  25.883  27.325  1.00  0.00     0.010 A 
ATOM     36  C   UNL A   1      41.902  25.291  28.681  1.00  0.00     0.010 A 
ATOM     37  C   UNL A   1      40.956  26.219  28.330  1.00  0.00    -0.014 A 
BRANCH  37  38
ATOM     38  C   UNL A   1      41.068  27.497  29.029  1.00  0.00     0.031 A 
ATOM     39  C   UNL A   1      41.931  28.511  28.381  1.00  0.00     0.074 A 
ATOM     40  C   UNL A   1      40.112  27.955  29.877  1.00  0.00     0.049 A 
ATOM     41  N   UNL A   1      43.107  28.900  28.744  1.00  0.00    -0.248 NA
ATOM     42  C   UNL A   1      41.484  29.068  27.094  1.00  0.00     0.031 C 
ATOM     43  C   UNL A   1      38.832  27.333  30.246  1.00  0.00     0.029 A 
ATOM     44  N   UNL A   1      40.035  29.176  30.486  1.00  0.00    -0.354 N 
ATOM     45  C   UNL A   1      43.473  29.867  27.813  1.00  0.00     0.074 A 
ATOM     46  C   UNL A   1      42.583  29.706  26.698  1.00  0.00     0.031 C 
ATOM     47  C   UNL A   1      38.040  28.252  30.851  1.00  0.00     0.029 A 
ATOM     48  C   UNL A   1      38.793  29.484  31.026  1.00  0.00     0.049 A 
ATOM     49  H   UNL A   1      40.803  29.791  30.536  1.00  0.00     0.167 HD
ATOM     50  C   UNL A   1      44.270  30.925  28.132  1.00  0.00     0.031 A 
ATOM     51  C   UNL A   1      38.408  30.682  31.535  1.00  0.00     0.031 A 
ATOM     52  C   UNL A   1      44.818  30.794  29.460  1.00  0.00     0.049 A 
ATOM     53  C   UNL A   1      39.633  31.490  31.767  1.00  0.00     0.074 A 
ATOM     54  C   UNL A   1      45.568  29.844  30.124  1.00  0.00     0.029 A 
ATOM     55  N   UNL A   1      44.257  31.581  30.440  1.00  0.00    -0.354 N 
ATOM     56  N   UNL A   1      40.529  31.212  32.669  1.00  0.00    -0.248 NA
ATOM     57  C   UNL A   1      40.067  32.408  30.725  1.00  0.00     0.031 C 
ATOM     58  C   UNL A   1      45.043  29.819  31.451  1.00  0.00     0.029 A 
ATOM     59  C   UNL A   1      44.036  30.783  31.532  1.00  0.00     0.049 A 
ATOM     60  H   UNL A   1      44.052  32.541  30.370  1.00  0.00     0.167 HD
ATOM     61  C   UNL A   1      41.741  31.567  32.093  1.00  0.00     0.074 A 
ATOM     62  C   UNL A   1      41.382  32.411  30.958  1.00  0.00     0.031 C 
ATOM     63  C   UNL A   1      42.894  30.907  32.413  1.00  0.00     0.031 A 
BRANCH  50  64
ATOM     64  C   UNL A   1      44.239  32.263  27.424  1.00  0.00    -0.014 A 
ATOM     65  C   UNL A   1      43.779  33.382  28.142  1.00  0.00     0.009 A 
ATOM     66  C   UNL A   1      44.413  32.443  26.039  1.00  0.00     0.009 A 
ATOM     67  C   UNL A   1      43.440  34.579  27.499  1.00  0.00     0.001 A 
ATOM     68  C   UNL A   1      44.127  33.651  25.399  1.00  0.00     0.001 A 
ATOM     69  C   UNL A   1      43.610  34.711  26.126  1.00  0.00     0.000 A 
ENDBRANCH  50  64
BRANCH  51  70
ATOM     70  C   UNL A   1      37.057  31.273  31.664  1.00  0.00    -0.014 A 
ATOM     71  C   UNL A   1      36.611  31.790  32.892  1.00  0.00     0.009 A 
ATOM     72  C   UNL A   1      36.288  31.556  30.522  1.00  0.00     0.009 A 
ATOM     73  C   UNL A   1      35.458  32.585  32.969  1.00  0.00     0.001 A 
ATOM     74  C   UNL A   1      35.134  32.346  30.600  1.00  0.00     0.001 A 
ATOM     75  C   UNL A   1      34.726  32.872  31.821  1.00  0.00     0.000 A 
ENDBRANCH  51  70
BRANCH  63  76
ATOM     76  C   UNL A   1      42.877  29.993  33.613  1.00  0.00    -0.014 A 
ATOM     77  C   UNL A   1      42.350  28.690  33.574  1.00  0.00     0.009 A 
ATOM     78  C   UNL A   1      43.564  30.397  34.769  1.00  0.00     0.009 A 
ATOM     79  C   UNL A   1      42.485  27.828  34.665  1.00  0.00     0.001 A 
ATOM     80  C   UNL A   1      43.717  29.528  35.852  1.00  0.00     0.001 A 
ATOM     81  C   UNL A   1      43.174  28.245  35.801  1.00  0.00     0.000 A 
ENDBRANCH  63  76
ENDBRANCH  37  38
ENDBRANCH  29  32
ENDBRANCH  27  28
ENDBRANCH  26  27
ENDBRANCH   1  26
TORSDOF 14
ENDMDL
