MODEL 1
REMARK VINA RESULT:     -10.3      0.000      0.000
REMARK SMILES COCCS(=O)(=O)Cc1c(C(=O)NCCCCNC(=O)c2ccc(-c3c4nc(c(-c5ccccc5)c5ccc([nH]5)c(-c5ccccc5)c5nc(c(-c6ccccc6)c6ccc3[nH]6)C=C5)C=C4)cc2)oc2ccccc12
REMARK SMILES IDX 14 1 13 2 11 3 12 4 10 6 9 7 75 8 69 9 70 10 74 11 71 12
REMARK SMILES IDX 73 13 72 14 8 15 5 16 6 17 7 18 4 19 3 20 2 21 1 22 15 23
REMARK SMILES IDX 16 24 17 25 18 26 19 27 20 29 21 30 22 31 68 32 23 33 67 34
REMARK SMILES IDX 24 35 25 36 26 37 61 38 27 39 66 40 60 41 62 42 28 43 65 44
REMARK SMILES IDX 59 45 58 46 29 48 51 49 36 50 50 51 37 52 40 53 49 54 63 55
REMARK SMILES IDX 38 56 39 57 48 59 64 60 41 61 30 62 31 63 35 64 32 65 34 66
REMARK SMILES IDX 33 67 52 68 53 69 57 70 54 71 56 72 55 73 42 74 43 75 47 76
REMARK SMILES IDX 44 77 46 78 45 79
REMARK H PARENT 13 5 18 28 62 47 40 58
REMARK Flexibility Score: inf
ROOT
ATOM      1  C   UNL A   1      33.876  22.923  27.015  1.00  0.00     0.116 C 
ENDROOT
BRANCH   1   2
ATOM      2  N   UNL A   1      32.688  22.863  26.193  1.00  0.00    -0.349 N 
ATOM      3  C   UNL A   1      31.788  23.848  25.872  1.00  0.00     0.287 C 
ATOM      4  O   UNL A   1      30.679  23.474  25.488  1.00  0.00    -0.266 OA
ATOM      5  H   UNL A   1      32.493  21.980  25.804  1.00  0.00     0.163 HD
BRANCH   3   6
ATOM      6  C   UNL A   1      32.144  25.253  25.954  1.00  0.00     0.196 A 
ATOM      7  C   UNL A   1      33.018  25.995  25.165  1.00  0.00     0.027 A 
ATOM      8  C   UNL A   1      32.958  27.341  25.657  1.00  0.00     0.025 A 
ATOM      9  O   UNL A   1      31.598  26.061  26.908  1.00  0.00    -0.451 OA
ATOM     10  C   UNL A   1      32.099  27.308  26.745  1.00  0.00     0.135 A 
ATOM     11  C   UNL A   1      33.544  28.576  25.320  1.00  0.00     0.012 A 
ATOM     12  C   UNL A   1      31.797  28.403  27.551  1.00  0.00     0.048 A 
ATOM     13  C   UNL A   1      33.256  29.703  26.106  1.00  0.00     0.001 A 
ATOM     14  C   UNL A   1      32.404  29.614  27.209  1.00  0.00     0.004 A 
BRANCH   7  15
ATOM     15  C   UNL A   1      33.843  25.479  24.035  1.00  0.00     0.177 C 
BRANCH  15  16
ATOM     16  S   UNL A   1      33.031  25.454  22.421  1.00  0.00     0.156 S 
ATOM     17  O   UNL A   1      33.747  26.390  21.571  1.00  0.00    -0.228 OA
ATOM     18  O   UNL A   1      31.602  25.629  22.613  1.00  0.00    -0.228 OA
BRANCH  16  19
ATOM     19  C   UNL A   1      33.223  23.814  21.745  1.00  0.00     0.165 C 
BRANCH  19  20
ATOM     20  C   UNL A   1      33.728  22.788  22.736  1.00  0.00     0.176 C 
BRANCH  20  21
ATOM     21  O   UNL A   1      32.655  22.031  23.298  1.00  0.00    -0.384 OA
ATOM     22  C   UNL A   1      32.004  21.186  22.361  1.00  0.00     0.194 C 
ENDBRANCH  20  21
ENDBRANCH  19  20
ENDBRANCH  16  19
ENDBRANCH  15  16
ENDBRANCH   7  15
ENDBRANCH   3   6
ENDBRANCH   1   2
BRANCH   1  23
ATOM     23  C   UNL A   1      35.104  22.603  26.163  1.00  0.00     0.023 C 
BRANCH  23  24
ATOM     24  C   UNL A   1      36.150  23.726  26.156  1.00  0.00     0.023 C 
BRANCH  24  25
ATOM     25  C   UNL A   1      37.214  23.595  25.071  1.00  0.00     0.116 C 
BRANCH  25  26
ATOM     26  N   UNL A   1      38.267  22.657  25.431  1.00  0.00    -0.352 N 
ATOM     27  C   UNL A   1      39.402  22.889  26.164  1.00  0.00     0.251 C 
ATOM     28  H   UNL A   1      38.148  21.735  25.105  1.00  0.00     0.163 HD
ATOM     29  O   UNL A   1      40.265  22.025  26.273  1.00  0.00    -0.269 OA
BRANCH  27  30
ATOM     30  C   UNL A   1      39.587  24.210  26.791  1.00  0.00     0.039 A 
ATOM     31  C   UNL A   1      39.113  24.411  28.088  1.00  0.00     0.014 A 
ATOM     32  C   UNL A   1      40.262  25.228  26.110  1.00  0.00     0.014 A 
ATOM     33  C   UNL A   1      39.369  25.620  28.730  1.00  0.00     0.010 A 
ATOM     34  C   UNL A   1      40.572  26.407  26.775  1.00  0.00     0.010 A 
ATOM     35  C   UNL A   1      40.127  26.615  28.090  1.00  0.00    -0.014 A 
BRANCH  35  36
ATOM     36  C   UNL A   1      40.469  27.879  28.782  1.00  0.00     0.031 A 
ATOM     37  C   UNL A   1      41.809  28.039  29.442  1.00  0.00     0.074 A 
ATOM     38  C   UNL A   1      39.547  28.857  28.873  1.00  0.00     0.049 A 
ATOM     39  N   UNL A   1      42.271  29.046  30.138  1.00  0.00    -0.248 NA
ATOM     40  C   UNL A   1      42.744  26.908  29.326  1.00  0.00     0.031 C 
ATOM     41  C   UNL A   1      38.195  28.804  28.312  1.00  0.00     0.029 A 
ATOM     42  N   UNL A   1      39.607  30.086  29.480  1.00  0.00    -0.354 N 
ATOM     43  C   UNL A   1      43.538  28.663  30.558  1.00  0.00     0.074 A 
ATOM     44  C   UNL A   1      43.753  27.315  30.080  1.00  0.00     0.031 C 
ATOM     45  C   UNL A   1      37.564  29.959  28.579  1.00  0.00     0.029 A 
ATOM     46  C   UNL A   1      38.451  30.816  29.359  1.00  0.00     0.049 A 
ATOM     47  H   UNL A   1      40.405  30.414  29.956  1.00  0.00     0.167 HD
ATOM     48  C   UNL A   1      44.448  29.376  31.263  1.00  0.00     0.031 A 
ATOM     49  C   UNL A   1      38.138  32.038  29.827  1.00  0.00     0.031 A 
ATOM     50  C   UNL A   1      44.235  30.720  31.729  1.00  0.00     0.049 A 
ATOM     51  C   UNL A   1      39.163  32.808  30.610  1.00  0.00     0.074 A 
ATOM     52  C   UNL A   1      45.117  31.549  32.398  1.00  0.00     0.029 A 
ATOM     53  N   UNL A   1      43.054  31.429  31.575  1.00  0.00    -0.354 N 
ATOM     54  N   UNL A   1      40.384  32.461  30.938  1.00  0.00    -0.248 NA
ATOM     55  C   UNL A   1      38.771  34.145  31.076  1.00  0.00     0.031 C 
ATOM     56  C   UNL A   1      44.453  32.745  32.692  1.00  0.00     0.029 A 
ATOM     57  C   UNL A   1      43.177  32.679  32.157  1.00  0.00     0.049 A 
ATOM     58  H   UNL A   1      42.249  31.094  31.120  1.00  0.00     0.167 HD
ATOM     59  C   UNL A   1      40.914  33.544  31.624  1.00  0.00     0.074 A 
ATOM     60  C   UNL A   1      39.887  34.565  31.654  1.00  0.00     0.031 C 
ATOM     61  C   UNL A   1      42.143  33.682  32.179  1.00  0.00     0.031 A 
BRANCH  48  62
ATOM     62  C   UNL A   1      45.755  28.703  31.578  1.00  0.00    -0.014 A 
ATOM     63  C   UNL A   1      45.923  27.959  32.758  1.00  0.00     0.009 A 
ATOM     64  C   UNL A   1      46.825  28.798  30.677  1.00  0.00     0.009 A 
ATOM     65  C   UNL A   1      47.150  27.359  33.046  1.00  0.00     0.001 A 
ATOM     66  C   UNL A   1      48.042  28.173  30.953  1.00  0.00     0.001 A 
ATOM     67  C   UNL A   1      48.207  27.463  32.142  1.00  0.00     0.000 A 
ENDBRANCH  48  62
BRANCH  49  68
ATOM     68  C   UNL A   1      36.800  32.618  29.546  1.00  0.00    -0.014 A 
ATOM     69  C   UNL A   1      36.548  33.262  28.324  1.00  0.00     0.009 A 
ATOM     70  C   UNL A   1      35.767  32.528  30.492  1.00  0.00     0.009 A 
ATOM     71  C   UNL A   1      35.296  33.822  28.066  1.00  0.00     0.001 A 
ATOM     72  C   UNL A   1      34.508  33.066  30.219  1.00  0.00     0.001 A 
ATOM     73  C   UNL A   1      34.276  33.719  29.010  1.00  0.00     0.000 A 
ENDBRANCH  49  68
BRANCH  61  74
ATOM     74  C   UNL A   1      42.457  34.998  32.834  1.00  0.00    -0.014 A 
ATOM     75  C   UNL A   1      42.018  35.287  34.135  1.00  0.00     0.009 A 
ATOM     76  C   UNL A   1      43.241  35.941  32.152  1.00  0.00     0.009 A 
ATOM     77  C   UNL A   1      42.333  36.511  34.728  1.00  0.00     0.001 A 
ATOM     78  C   UNL A   1      43.578  37.152  32.758  1.00  0.00     0.001 A 
ATOM     79  C   UNL A   1      43.116  37.439  34.041  1.00  0.00     0.000 A 
ENDBRANCH  61  74
ENDBRANCH  35  36
ENDBRANCH  27  30
ENDBRANCH  25  26
ENDBRANCH  24  25
ENDBRANCH  23  24
ENDBRANCH   1  23
TORSDOF 16
ENDMDL
MODEL 2
REMARK VINA RESULT:     -10.2      2.500      4.160
REMARK SMILES COCCS(=O)(=O)Cc1c(C(=O)NCCCCNC(=O)c2ccc(-c3c4nc(c(-c5ccccc5)c5ccc([nH]5)c(-c5ccccc5)c5nc(c(-c6ccccc6)c6ccc3[nH]6)C=C5)C=C4)cc2)oc2ccccc12
REMARK SMILES IDX 14 1 13 2 11 3 12 4 10 6 9 7 75 8 69 9 70 10 74 11 71 12
REMARK SMILES IDX 73 13 72 14 8 15 5 16 6 17 7 18 4 19 3 20 2 21 1 22 15 23
REMARK SMILES IDX 16 24 17 25 18 26 19 27 20 29 21 30 22 31 68 32 23 33 67 34
REMARK SMILES IDX 24 35 25 36 26 37 61 38 27 39 66 40 60 41 62 42 28 43 65 44
REMARK SMILES IDX 59 45 58 46 29 48 51 49 36 50 50 51 37 52 40 53 49 54 63 55
REMARK SMILES IDX 38 56 39 57 48 59 64 60 41 61 30 62 31 63 35 64 32 65 34 66
REMARK SMILES IDX 33 67 52 68 53 69 57 70 54 71 56 72 55 73 42 74 43 75 47 76
REMARK SMILES IDX 44 77 46 78 45 79
REMARK H PARENT 13 5 18 28 62 47 40 58
REMARK Flexibility Score: inf
ROOT
ATOM      1  C   UNL A   1      37.780  23.466  26.039  1.00  0.00     0.116 C 
ENDROOT
BRANCH   1   2
ATOM      2  N   UNL A   1      37.532  23.418  24.615  1.00  0.00    -0.349 N 
ATOM      3  C   UNL A   1      36.344  23.407  23.927  1.00  0.00     0.287 C 
ATOM      4  O   UNL A   1      36.382  22.981  22.773  1.00  0.00    -0.266 OA
ATOM      5  H   UNL A   1      38.338  23.388  24.051  1.00  0.00     0.163 HD
BRANCH   3   6
ATOM      6  C   UNL A   1      35.119  23.900  24.529  1.00  0.00     0.196 A 
ATOM      7  C   UNL A   1      34.119  23.205  25.205  1.00  0.00     0.027 A 
ATOM      8  C   UNL A   1      33.163  24.188  25.626  1.00  0.00     0.025 A 
ATOM      9  O   UNL A   1      34.799  25.225  24.487  1.00  0.00    -0.451 OA
ATOM     10  C   UNL A   1      33.618  25.398  25.126  1.00  0.00     0.135 A 
ATOM     11  C   UNL A   1      31.959  24.191  26.356  1.00  0.00     0.012 A 
ATOM     12  C   UNL A   1      32.954  26.614  25.264  1.00  0.00     0.048 A 
ATOM     13  C   UNL A   1      31.266  25.400  26.522  1.00  0.00     0.001 A 
ATOM     14  C   UNL A   1      31.752  26.590  25.975  1.00  0.00     0.004 A 
BRANCH   7  15
ATOM     15  C   UNL A   1      34.070  21.733  25.440  1.00  0.00     0.177 C 
BRANCH  15  16
ATOM     16  S   UNL A   1      32.799  20.837  24.522  1.00  0.00     0.156 S 
ATOM     17  O   UNL A   1      32.717  21.444  23.204  1.00  0.00    -0.228 OA
ATOM     18  O   UNL A   1      31.600  20.760  25.337  1.00  0.00    -0.228 OA
BRANCH  16  19
ATOM     19  C   UNL A   1      33.355  19.151  24.334  1.00  0.00     0.165 C 
BRANCH  19  20
ATOM     20  C   UNL A   1      32.480  18.304  23.436  1.00  0.00     0.176 C 
BRANCH  20  21
ATOM     21  O   UNL A   1      33.258  17.424  22.625  1.00  0.00    -0.384 OA
ATOM     22  C   UNL A   1      33.999  16.471  23.371  1.00  0.00     0.194 C 
ENDBRANCH  20  21
ENDBRANCH  19  20
ENDBRANCH  16  19
ENDBRANCH  15  16
ENDBRANCH   7  15
ENDBRANCH   3   6
ENDBRANCH   1   2
BRANCH   1  23
ATOM     23  C   UNL A   1      39.033  22.655  26.366  1.00  0.00     0.023 C 
BRANCH  23  24
ATOM     24  C   UNL A   1      39.090  21.304  25.640  1.00  0.00     0.023 C 
BRANCH  24  25
ATOM     25  C   UNL A   1      39.543  20.135  26.509  1.00  0.00     0.116 C 
BRANCH  25  26
ATOM     26  N   UNL A   1      40.673  19.418  25.939  1.00  0.00    -0.352 N 
ATOM     27  C   UNL A   1      41.970  19.840  25.803  1.00  0.00     0.251 C 
ATOM     28  H   UNL A   1      40.481  18.511  25.608  1.00  0.00     0.163 HD
ATOM     29  O   UNL A   1      42.785  19.169  25.180  1.00  0.00    -0.269 OA
BRANCH  27  30
ATOM     30  C   UNL A   1      42.363  21.135  26.387  1.00  0.00     0.039 A 
ATOM     31  C   UNL A   1      42.711  22.181  25.531  1.00  0.00     0.014 A 
ATOM     32  C   UNL A   1      42.345  21.320  27.773  1.00  0.00     0.014 A 
ATOM     33  C   UNL A   1      42.987  23.438  26.064  1.00  0.00     0.010 A 
ATOM     34  C   UNL A   1      42.556  22.589  28.296  1.00  0.00     0.010 A 
ATOM     35  C   UNL A   1      42.880  23.659  27.447  1.00  0.00    -0.014 A 
BRANCH  35  36
ATOM     36  C   UNL A   1      43.101  25.005  28.026  1.00  0.00     0.031 A 
ATOM     37  C   UNL A   1      44.473  25.410  28.488  1.00  0.00     0.074 A 
ATOM     38  C   UNL A   1      42.055  25.836  28.196  1.00  0.00     0.049 A 
ATOM     39  N   UNL A   1      44.853  26.520  29.066  1.00  0.00    -0.248 NA
ATOM     40  C   UNL A   1      45.552  24.428  28.299  1.00  0.00     0.031 C 
ATOM     41  C   UNL A   1      40.669  25.541  27.828  1.00  0.00     0.029 A 
ATOM     42  N   UNL A   1      41.997  27.098  28.730  1.00  0.00    -0.354 N 
ATOM     43  C   UNL A   1      46.208  26.362  29.326  1.00  0.00     0.074 A 
ATOM     44  C   UNL A   1      46.572  25.033  28.887  1.00  0.00     0.031 C 
ATOM     45  C   UNL A   1      39.901  26.602  28.124  1.00  0.00     0.029 A 
ATOM     46  C   UNL A   1      40.733  27.635  28.734  1.00  0.00     0.049 A 
ATOM     47  H   UNL A   1      42.786  27.574  29.076  1.00  0.00     0.167 HD
ATOM     48  C   UNL A   1      47.076  27.251  29.865  1.00  0.00     0.031 A 
ATOM     49  C   UNL A   1      40.292  28.825  29.182  1.00  0.00     0.031 A 
ATOM     50  C   UNL A   1      46.714  28.576  30.292  1.00  0.00     0.049 A 
ATOM     51  C   UNL A   1      41.273  29.792  29.780  1.00  0.00     0.074 A 
ATOM     52  C   UNL A   1      47.531  29.572  30.795  1.00  0.00     0.029 A 
ATOM     53  N   UNL A   1      45.425  29.086  30.268  1.00  0.00    -0.354 N 
ATOM     54  N   UNL A   1      42.566  29.656  29.954  1.00  0.00    -0.248 NA
ATOM     55  C   UNL A   1      40.736  31.083  30.232  1.00  0.00     0.031 C 
ATOM     56  C   UNL A   1      46.728  30.671  31.120  1.00  0.00     0.029 A 
ATOM     57  C   UNL A   1      45.421  30.377  30.768  1.00  0.00     0.049 A 
ATOM     58  H   UNL A   1      44.631  28.603  29.944  1.00  0.00     0.167 HD
ATOM     59  C   UNL A   1      43.000  30.852  30.510  1.00  0.00     0.074 A 
ATOM     60  C   UNL A   1      41.836  31.705  30.632  1.00  0.00     0.031 C 
ATOM     61  C   UNL A   1      44.252  31.212  30.884  1.00  0.00     0.031 A 
BRANCH  48  62
ATOM     62  C   UNL A   1      48.502  26.806  30.030  1.00  0.00    -0.014 A 
ATOM     63  C   UNL A   1      49.456  27.035  29.024  1.00  0.00     0.009 A 
ATOM     64  C   UNL A   1      48.903  26.167  31.212  1.00  0.00     0.009 A 
ATOM     65  C   UNL A   1      50.772  26.596  29.185  1.00  0.00     0.001 A 
ATOM     66  C   UNL A   1      50.226  25.755  31.382  1.00  0.00     0.001 A 
ATOM     67  C   UNL A   1      51.156  25.959  30.364  1.00  0.00     0.000 A 
ENDBRANCH  48  62
BRANCH  49  68
ATOM     68  C   UNL A   1      38.854  29.175  29.060  1.00  0.00    -0.014 A 
ATOM     69  C   UNL A   1      37.987  29.001  30.150  1.00  0.00     0.009 A 
ATOM     70  C   UNL A   1      38.342  29.690  27.859  1.00  0.00     0.009 A 
ATOM     71  C   UNL A   1      36.631  29.316  30.031  1.00  0.00     0.001 A 
ATOM     72  C   UNL A   1      36.992  30.028  27.753  1.00  0.00     0.001 A 
ATOM     73  C   UNL A   1      36.136  29.833  28.836  1.00  0.00     0.000 A 
ENDBRANCH  49  68
BRANCH  61  74
ATOM     74  C   UNL A   1      44.434  32.601  31.427  1.00  0.00    -0.014 A 
ATOM     75  C   UNL A   1      44.357  32.861  32.804  1.00  0.00     0.009 A 
ATOM     76  C   UNL A   1      44.730  33.655  30.548  1.00  0.00     0.009 A 
ATOM     77  C   UNL A   1      44.542  34.158  33.287  1.00  0.00     0.001 A 
ATOM     78  C   UNL A   1      44.943  34.944  31.037  1.00  0.00     0.001 A 
ATOM     79  C   UNL A   1      44.840  35.196  32.404  1.00  0.00     0.000 A 
ENDBRANCH  61  74
ENDBRANCH  35  36
ENDBRANCH  27  30
ENDBRANCH  25  26
ENDBRANCH  24  25
ENDBRANCH  23  24
ENDBRANCH   1  23
TORSDOF 16
ENDMDL
MODEL 3
REMARK VINA RESULT:     -10.1      2.339      6.935
REMARK SMILES COCCS(=O)(=O)Cc1c(C(=O)NCCCCNC(=O)c2ccc(-c3c4nc(c(-c5ccccc5)c5ccc([nH]5)c(-c5ccccc5)c5nc(c(-c6ccccc6)c6ccc3[nH]6)C=C5)C=C4)cc2)oc2ccccc12
REMARK SMILES IDX 14 1 13 2 11 3 12 4 10 6 9 7 75 8 69 9 70 10 74 11 71 12
REMARK SMILES IDX 73 13 72 14 8 15 5 16 6 17 7 18 4 19 3 20 2 21 1 22 15 23
REMARK SMILES IDX 16 24 17 25 18 26 19 27 20 29 21 30 22 31 68 32 23 33 67 34
REMARK SMILES IDX 24 35 25 36 26 37 61 38 27 39 66 40 60 41 62 42 28 43 65 44
REMARK SMILES IDX 59 45 58 46 29 48 51 49 36 50 50 51 37 52 40 53 49 54 63 55
REMARK SMILES IDX 38 56 39 57 48 59 64 60 41 61 30 62 31 63 35 64 32 65 34 66
REMARK SMILES IDX 33 67 52 68 53 69 57 70 54 71 56 72 55 73 42 74 43 75 47 76
REMARK SMILES IDX 44 77 46 78 45 79
REMARK H PARENT 13 5 18 28 62 47 40 58
REMARK Flexibility Score: inf
ROOT
ATOM      1  C   UNL A   1      35.667  23.042  24.338  1.00  0.00     0.116 C 
ENDROOT
BRANCH   1   2
ATOM      2  N   UNL A   1      34.844  23.332  23.183  1.00  0.00    -0.349 N 
ATOM      3  C   UNL A   1      33.682  24.055  23.090  1.00  0.00     0.287 C 
ATOM      4  O   UNL A   1      32.980  23.840  22.101  1.00  0.00    -0.266 OA
ATOM      5  H   UNL A   1      35.166  22.952  22.335  1.00  0.00     0.163 HD
BRANCH   3   6
ATOM      6  C   UNL A   1      33.322  25.041  24.092  1.00  0.00     0.196 A 
ATOM      7  C   UNL A   1      32.217  25.084  24.938  1.00  0.00     0.027 A 
ATOM      8  C   UNL A   1      32.384  26.251  25.756  1.00  0.00     0.025 A 
ATOM      9  O   UNL A   1      34.114  26.126  24.326  1.00  0.00    -0.451 OA
ATOM     10  C   UNL A   1      33.545  26.863  25.309  1.00  0.00     0.135 A 
ATOM     11  C   UNL A   1      31.680  26.868  26.807  1.00  0.00     0.012 A 
ATOM     12  C   UNL A   1      34.049  28.064  25.802  1.00  0.00     0.048 A 
ATOM     13  C   UNL A   1      32.164  28.075  27.335  1.00  0.00     0.001 A 
ATOM     14  C   UNL A   1      33.324  28.667  26.832  1.00  0.00     0.004 A 
BRANCH   7  15
ATOM     15  C   UNL A   1      31.095  24.103  24.977  1.00  0.00     0.177 C 
BRANCH  15  16
ATOM     16  S   UNL A   1      31.191  22.855  26.279  1.00  0.00     0.156 S 
ATOM     17  O   UNL A   1      30.027  21.996  26.131  1.00  0.00    -0.228 OA
ATOM     18  O   UNL A   1      31.418  23.520  27.549  1.00  0.00    -0.228 OA
BRANCH  16  19
ATOM     19  C   UNL A   1      32.655  21.878  25.984  1.00  0.00     0.165 C 
BRANCH  19  20
ATOM     20  C   UNL A   1      32.435  20.686  25.078  1.00  0.00     0.176 C 
BRANCH  20  21
ATOM     21  O   UNL A   1      33.360  19.635  25.360  1.00  0.00    -0.384 OA
ATOM     22  C   UNL A   1      32.744  18.369  25.540  1.00  0.00     0.194 C 
ENDBRANCH  20  21
ENDBRANCH  19  20
ENDBRANCH  16  19
ENDBRANCH  15  16
ENDBRANCH   7  15
ENDBRANCH   3   6
ENDBRANCH   1   2
BRANCH   1  23
ATOM     23  C   UNL A   1      36.955  22.353  23.886  1.00  0.00     0.023 C 
BRANCH  23  24
ATOM     24  C   UNL A   1      37.223  21.028  24.613  1.00  0.00     0.023 C 
BRANCH  24  25
ATOM     25  C   UNL A   1      38.292  21.105  25.698  1.00  0.00     0.116 C 
BRANCH  25  26
ATOM     26  N   UNL A   1      39.242  20.004  25.627  1.00  0.00    -0.352 N 
ATOM     27  C   UNL A   1      40.574  20.005  25.950  1.00  0.00     0.251 C 
ATOM     28  H   UNL A   1      38.879  19.147  25.307  1.00  0.00     0.163 HD
ATOM     29  O   UNL A   1      41.276  19.029  25.713  1.00  0.00    -0.269 OA
BRANCH  27  30
ATOM     30  C   UNL A   1      41.160  21.215  26.555  1.00  0.00     0.039 A 
ATOM     31  C   UNL A   1      41.731  22.175  25.718  1.00  0.00     0.014 A 
ATOM     32  C   UNL A   1      41.105  21.412  27.937  1.00  0.00     0.014 A 
ATOM     33  C   UNL A   1      42.197  23.369  26.265  1.00  0.00     0.010 A 
ATOM     34  C   UNL A   1      41.511  22.629  28.471  1.00  0.00     0.010 A 
ATOM     35  C   UNL A   1      42.061  23.617  27.641  1.00  0.00    -0.014 A 
BRANCH  35  36
ATOM     36  C   UNL A   1      42.488  24.907  28.231  1.00  0.00     0.031 A 
ATOM     37  C   UNL A   1      41.482  25.998  28.465  1.00  0.00     0.074 A 
ATOM     38  C   UNL A   1      43.792  25.120  28.493  1.00  0.00     0.049 A 
ATOM     39  N   UNL A   1      41.670  27.211  28.920  1.00  0.00    -0.248 NA
ATOM     40  C   UNL A   1      40.084  25.696  28.116  1.00  0.00     0.031 C 
ATOM     41  C   UNL A   1      44.871  24.155  28.269  1.00  0.00     0.029 A 
ATOM     42  N   UNL A   1      44.432  26.222  29.000  1.00  0.00    -0.354 N 
ATOM     43  C   UNL A   1      40.422  27.819  28.894  1.00  0.00     0.074 A 
ATOM     44  C   UNL A   1      39.494  26.861  28.335  1.00  0.00     0.031 C 
ATOM     45  C   UNL A   1      46.034  24.699  28.661  1.00  0.00     0.029 A 
ATOM     46  C   UNL A   1      45.789  26.059  29.128  1.00  0.00     0.049 A 
ATOM     47  H   UNL A   1      43.962  27.051  29.250  1.00  0.00     0.167 HD
ATOM     48  C   UNL A   1      40.076  29.058  29.316  1.00  0.00     0.031 A 
ATOM     49  C   UNL A   1      46.732  26.913  29.568  1.00  0.00     0.031 A 
ATOM     50  C   UNL A   1      40.999  30.006  29.881  1.00  0.00     0.049 A 
ATOM     51  C   UNL A   1      46.323  28.284  30.027  1.00  0.00     0.074 A 
ATOM     52  C   UNL A   1      40.736  31.264  30.394  1.00  0.00     0.029 A 
ATOM     53  N   UNL A   1      42.364  29.798  30.005  1.00  0.00    -0.354 N 
ATOM     54  N   UNL A   1      45.128  28.820  30.064  1.00  0.00    -0.248 NA
ATOM     55  C   UNL A   1      47.394  29.163  30.518  1.00  0.00     0.031 C 
ATOM     56  C   UNL A   1      41.951  31.837  30.785  1.00  0.00     0.029 A 
ATOM     57  C   UNL A   1      42.961  30.914  30.566  1.00  0.00     0.049 A 
ATOM     58  H   UNL A   1      42.838  28.980  29.735  1.00  0.00     0.167 HD
ATOM     59  C   UNL A   1      45.298  30.087  30.605  1.00  0.00     0.074 A 
ATOM     60  C   UNL A   1      46.710  30.234  30.894  1.00  0.00     0.031 C 
ATOM     61  C   UNL A   1      44.368  31.043  30.844  1.00  0.00     0.031 A 
BRANCH  48  62
ATOM     62  C   UNL A   1      38.635  29.457  29.169  1.00  0.00    -0.014 A 
ATOM     63  C   UNL A   1      38.142  29.966  27.955  1.00  0.00     0.009 A 
ATOM     64  C   UNL A   1      37.754  29.307  30.249  1.00  0.00     0.009 A 
ATOM     65  C   UNL A   1      36.805  30.353  27.842  1.00  0.00     0.001 A 
ATOM     66  C   UNL A   1      36.411  29.667  30.124  1.00  0.00     0.001 A 
ATOM     67  C   UNL A   1      35.940  30.200  28.925  1.00  0.00     0.000 A 
ENDBRANCH  48  62
BRANCH  49  68
ATOM     68  C   UNL A   1      48.153  26.484  29.619  1.00  0.00    -0.014 A 
ATOM     69  C   UNL A   1      49.005  26.725  28.529  1.00  0.00     0.009 A 
ATOM     70  C   UNL A   1      48.667  25.839  30.754  1.00  0.00     0.009 A 
ATOM     71  C   UNL A   1      50.337  26.308  28.569  1.00  0.00     0.001 A 
ATOM     72  C   UNL A   1      50.006  25.447  30.800  1.00  0.00     0.001 A 
ATOM     73  C   UNL A   1      50.838  25.675  29.705  1.00  0.00     0.000 A 
ENDBRANCH  49  68
BRANCH  61  74
ATOM     74  C   UNL A   1      44.843  32.319  31.481  1.00  0.00    -0.014 A 
ATOM     75  C   UNL A   1      45.247  33.415  30.703  1.00  0.00     0.009 A 
ATOM     76  C   UNL A   1      44.842  32.437  32.880  1.00  0.00     0.009 A 
ATOM     77  C   UNL A   1      45.671  34.595  31.317  1.00  0.00     0.001 A 
ATOM     78  C   UNL A   1      45.240  33.627  33.489  1.00  0.00     0.001 A 
ATOM     79  C   UNL A   1      45.663  34.701  32.708  1.00  0.00     0.000 A 
ENDBRANCH  61  74
ENDBRANCH  35  36
ENDBRANCH  27  30
ENDBRANCH  25  26
ENDBRANCH  24  25
ENDBRANCH  23  24
ENDBRANCH   1  23
TORSDOF 16
ENDMDL
