MODEL 1
REMARK VINA RESULT:     -12.5      0.000      0.000
REMARK SMILES O=C(NCCCCNC(=O)c1nn(Cc2ccc(F)cc2)c2c1CN(C(=O)[C@H]1CC1(F)F)CC2)c1ccc(-c2c3nc(c(-c4ccccc4)c4ccc([nH]4)c(-c4ccccc4)c4nc(c(-c5ccccc5)c5ccc2[nH]5)C=C4)C=C3)cc1
REMARK SMILES IDX 5 1 4 2 3 3 1 4 2 5 35 7 36 8 82 9 37 10 81 11 38 12 39 13
REMARK SMILES IDX 40 14 75 15 41 16 80 17 74 18 76 19 42 20 79 21 73 22 72 23
REMARK SMILES IDX 43 25 65 26 50 27 64 28 51 29 54 30 63 31 77 32 52 33 53 34
REMARK SMILES IDX 62 36 78 37 55 38 44 39 45 40 49 41 46 42 48 43 47 44 66 45
REMARK SMILES IDX 67 46 71 47 68 48 70 49 69 50 56 51 57 52 61 53 58 54 60 55
REMARK SMILES IDX 59 56 6 57 7 58 8 59 9 60 10 62 11 63 12 64 23 65 13 66
REMARK SMILES IDX 22 67 24 68 34 69 25 70 33 71 14 72 15 73 16 74 21 75 17 76
REMARK SMILES IDX 20 77 18 78 19 79 26 80 27 81 28 82 29 83 30 84 31 85 32 86
REMARK H PARENT 3 6 76 24 54 35 8 61
REMARK Flexibility Score: inf
ROOT
ATOM      1  C   UNL A   1      33.990  31.180  27.612  1.00  0.00     0.023 C 
ENDROOT
BRANCH   1   2
ATOM      2  C   UNL A   1      34.675  32.443  28.135  1.00  0.00     0.116 C 
BRANCH   2   3
ATOM      3  N   UNL A   1      34.732  32.553  29.578  1.00  0.00    -0.352 N 
ATOM      4  O   UNL A   1      35.481  32.700  31.648  1.00  0.00    -0.269 OA
ATOM      5  C   UNL A   1      35.634  32.184  30.536  1.00  0.00     0.251 C 
ATOM      6  H   UNL A   1      33.939  32.997  29.956  1.00  0.00     0.163 HD
BRANCH   5   7
ATOM      7  C   UNL A   1      36.704  31.162  30.371  1.00  0.00     0.039 A 
ATOM      8  C   UNL A   1      36.566  29.787  30.562  1.00  0.00     0.014 A 
ATOM      9  C   UNL A   1      37.983  31.672  30.068  1.00  0.00     0.014 A 
ATOM     10  C   UNL A   1      37.690  28.960  30.554  1.00  0.00     0.010 A 
ATOM     11  C   UNL A   1      39.105  30.855  30.060  1.00  0.00     0.010 A 
ATOM     12  C   UNL A   1      38.960  29.504  30.349  1.00  0.00    -0.014 A 
BRANCH  12  13
ATOM     13  C   UNL A   1      40.108  28.603  30.276  1.00  0.00     0.031 A 
ATOM     14  C   UNL A   1      40.797  28.390  31.579  1.00  0.00     0.074 A 
ATOM     15  C   UNL A   1      40.431  27.889  29.177  1.00  0.00     0.049 A 
ATOM     16  N   UNL A   1      42.016  28.683  31.893  1.00  0.00    -0.248 NA
ATOM     17  C   UNL A   1      39.990  27.890  32.706  1.00  0.00     0.031 C 
ATOM     18  C   UNL A   1      39.671  27.776  27.930  1.00  0.00     0.029 A 
ATOM     19  N   UNL A   1      41.458  27.009  28.987  1.00  0.00    -0.354 N 
ATOM     20  C   UNL A   1      42.192  28.232  33.199  1.00  0.00     0.074 A 
ATOM     21  C   UNL A   1      40.880  27.908  33.697  1.00  0.00     0.031 C 
ATOM     22  C   UNL A   1      40.126  26.715  27.223  1.00  0.00     0.029 A 
ATOM     23  C   UNL A   1      41.284  26.156  27.901  1.00  0.00     0.049 A 
ATOM     24  H   UNL A   1      42.252  26.980  29.568  1.00  0.00     0.167 HD
ATOM     25  C   UNL A   1      43.426  27.906  33.678  1.00  0.00     0.031 A 
ATOM     26  C   UNL A   1      41.997  25.035  27.615  1.00  0.00     0.031 A 
ATOM     27  C   UNL A   1      44.476  28.476  32.874  1.00  0.00     0.049 A 
ATOM     28  C   UNL A   1      43.266  25.099  28.372  1.00  0.00     0.074 A 
ATOM     29  C   UNL A   1      44.851  29.750  32.500  1.00  0.00     0.029 A 
ATOM     30  N   UNL A   1      45.130  27.627  32.015  1.00  0.00    -0.354 N 
ATOM     31  N   UNL A   1      44.218  25.945  28.110  1.00  0.00    -0.248 NA
ATOM     32  C   UNL A   1      43.300  24.507  29.699  1.00  0.00     0.031 C 
ATOM     33  C   UNL A   1      45.313  29.618  31.157  1.00  0.00     0.029 A 
ATOM     34  C   UNL A   1      45.256  28.267  30.814  1.00  0.00     0.049 A 
ATOM     35  H   UNL A   1      45.453  26.721  32.226  1.00  0.00     0.167 HD
ATOM     36  C   UNL A   1      44.683  26.339  29.355  1.00  0.00     0.074 A 
ATOM     37  C   UNL A   1      44.155  25.345  30.289  1.00  0.00     0.031 C 
ATOM     38  C   UNL A   1      45.205  27.587  29.543  1.00  0.00     0.031 A 
BRANCH  25  39
ATOM     39  C   UNL A   1      43.673  26.687  34.547  1.00  0.00    -0.014 A 
ATOM     40  C   UNL A   1      43.498  25.413  33.970  1.00  0.00     0.009 A 
ATOM     41  C   UNL A   1      43.733  26.733  35.953  1.00  0.00     0.009 A 
ATOM     42  C   UNL A   1      43.249  24.283  34.756  1.00  0.00     0.001 A 
ATOM     43  C   UNL A   1      43.532  25.597  36.741  1.00  0.00     0.001 A 
ATOM     44  C   UNL A   1      43.247  24.380  36.143  1.00  0.00     0.000 A 
ENDBRANCH  25  39
BRANCH  26  45
ATOM     45  C   UNL A   1      41.553  23.782  26.961  1.00  0.00    -0.014 A 
ATOM     46  C   UNL A   1      42.461  22.976  26.253  1.00  0.00     0.009 A 
ATOM     47  C   UNL A   1      40.297  23.229  27.272  1.00  0.00     0.009 A 
ATOM     48  C   UNL A   1      42.137  21.655  25.907  1.00  0.00     0.001 A 
ATOM     49  C   UNL A   1      39.973  21.913  26.924  1.00  0.00     0.001 A 
ATOM     50  C   UNL A   1      40.899  21.120  26.254  1.00  0.00     0.000 A 
ENDBRANCH  26  45
BRANCH  38  51
ATOM     51  C   UNL A   1      45.518  28.418  28.327  1.00  0.00    -0.014 A 
ATOM     52  C   UNL A   1      44.598  29.307  27.743  1.00  0.00     0.009 A 
ATOM     53  C   UNL A   1      46.835  28.411  27.849  1.00  0.00     0.009 A 
ATOM     54  C   UNL A   1      44.984  30.142  26.690  1.00  0.00     0.001 A 
ATOM     55  C   UNL A   1      47.227  29.260  26.814  1.00  0.00     0.001 A 
ATOM     56  C   UNL A   1      46.301  30.121  26.230  1.00  0.00     0.000 A 
ENDBRANCH  38  51
ENDBRANCH  12  13
ENDBRANCH   5   7
ENDBRANCH   2   3
ENDBRANCH   1   2
BRANCH   1  57
ATOM     57  C   UNL A   1      34.924  30.026  27.232  1.00  0.00     0.023 C 
BRANCH  57  58
ATOM     58  C   UNL A   1      34.245  28.726  26.797  1.00  0.00     0.116 C 
BRANCH  58  59
ATOM     59  N   UNL A   1      33.081  28.412  27.614  1.00  0.00    -0.351 N 
ATOM     60  C   UNL A   1      31.902  27.789  27.247  1.00  0.00     0.272 C 
ATOM     61  H   UNL A   1      33.142  28.679  28.559  1.00  0.00     0.163 HD
ATOM     62  O   UNL A   1      30.962  27.810  28.040  1.00  0.00    -0.267 OA
BRANCH  60  63
ATOM     63  C   UNL A   1      31.780  27.173  25.915  1.00  0.00     0.155 A 
ATOM     64  N   UNL A   1      31.351  27.856  24.832  1.00  0.00    -0.167 NA
ATOM     65  C   UNL A   1      32.110  25.837  25.557  1.00  0.00     0.026 A 
ATOM     66  N   UNL A   1      31.263  26.937  23.848  1.00  0.00    -0.264 N 
ATOM     67  C   UNL A   1      31.661  25.701  24.257  1.00  0.00     0.046 A 
ATOM     68  C   UNL A   1      32.701  24.719  26.359  1.00  0.00     0.159 C 
ATOM     69  C   UNL A   1      31.638  24.423  23.502  1.00  0.00     0.078 C 
ATOM     70  N   UNL A   1      32.836  23.529  25.485  1.00  0.00    -0.337 N 
ATOM     71  C   UNL A   1      31.734  23.278  24.535  1.00  0.00     0.126 C 
BRANCH  66  72
ATOM     72  C   UNL A   1      30.864  27.351  22.508  1.00  0.00     0.180 C 
BRANCH  72  73
ATOM     73  C   UNL A   1      29.855  28.476  22.530  1.00  0.00    -0.026 A 
ATOM     74  C   UNL A   1      30.188  29.733  21.996  1.00  0.00     0.008 A 
ATOM     75  C   UNL A   1      28.574  28.285  23.070  1.00  0.00     0.008 A 
ATOM     76  C   UNL A   1      29.262  30.774  21.995  1.00  0.00     0.039 A 
ATOM     77  C   UNL A   1      27.645  29.328  23.063  1.00  0.00     0.039 A 
ATOM     78  C   UNL A   1      27.997  30.560  22.525  1.00  0.00     0.123 A 
ATOM     79  F   UNL A   1      27.099  31.555  22.516  1.00  0.00    -0.207 F 
ENDBRANCH  72  73
ENDBRANCH  66  72
BRANCH  70  80
ATOM     80  C   UNL A   1      33.976  22.738  25.603  1.00  0.00     0.232 C 
ATOM     81  O   UNL A   1      33.989  21.649  26.144  1.00  0.00    -0.274 OA
BRANCH  80  82
ATOM     82  C   UNL A   1      35.211  23.251  24.967  1.00  0.00     0.154 C 
ATOM     83  C   UNL A   1      36.306  23.903  25.796  1.00  0.00     0.097 C 
ATOM     84  C   UNL A   1      36.509  22.570  25.185  1.00  0.00     0.260 C 
ATOM     85  F   UNL A   1      36.680  21.487  26.013  1.00  0.00    -0.206 F 
ATOM     86  F   UNL A   1      37.421  22.448  24.159  1.00  0.00    -0.206 F 
ENDBRANCH  80  82
ENDBRANCH  70  80
ENDBRANCH  60  63
ENDBRANCH  58  59
ENDBRANCH  57  58
ENDBRANCH   1  57
TORSDOF 15
ENDMDL
MODEL 2
REMARK VINA RESULT:     -12.3      1.175      4.742
REMARK SMILES O=C(NCCCCNC(=O)c1nn(Cc2ccc(F)cc2)c2c1CN(C(=O)[C@H]1CC1(F)F)CC2)c1ccc(-c2c3nc(c(-c4ccccc4)c4ccc([nH]4)c(-c4ccccc4)c4nc(c(-c5ccccc5)c5ccc2[nH]5)C=C4)C=C3)cc1
REMARK SMILES IDX 5 1 4 2 3 3 1 4 2 5 35 7 36 8 82 9 37 10 81 11 38 12 39 13
REMARK SMILES IDX 40 14 75 15 41 16 80 17 74 18 76 19 42 20 79 21 73 22 72 23
REMARK SMILES IDX 43 25 65 26 50 27 64 28 51 29 54 30 63 31 77 32 52 33 53 34
REMARK SMILES IDX 62 36 78 37 55 38 44 39 45 40 49 41 46 42 48 43 47 44 66 45
REMARK SMILES IDX 67 46 71 47 68 48 70 49 69 50 56 51 57 52 61 53 58 54 60 55
REMARK SMILES IDX 59 56 6 57 7 58 8 59 9 60 10 62 11 63 12 64 23 65 13 66
REMARK SMILES IDX 22 67 24 68 34 69 25 70 33 71 14 72 15 73 16 74 21 75 17 76
REMARK SMILES IDX 20 77 18 78 19 79 26 80 27 81 28 82 29 83 30 84 31 85 32 86
REMARK H PARENT 3 6 76 24 54 35 8 61
REMARK Flexibility Score: inf
ROOT
ATOM      1  C   UNL A   1      34.243  31.228  27.684  1.00  0.00     0.023 C 
ENDROOT
BRANCH   1   2
ATOM      2  C   UNL A   1      34.957  32.294  28.518  1.00  0.00     0.116 C 
BRANCH   2   3
ATOM      3  N   UNL A   1      34.697  32.231  29.941  1.00  0.00    -0.352 N 
ATOM      4  O   UNL A   1      34.963  32.257  32.131  1.00  0.00    -0.269 OA
ATOM      5  C   UNL A   1      35.445  31.924  31.043  1.00  0.00     0.251 C 
ATOM      6  H   UNL A   1      33.767  32.464  30.167  1.00  0.00     0.163 HD
BRANCH   5   7
ATOM      7  C   UNL A   1      36.719  31.155  31.039  1.00  0.00     0.039 A 
ATOM      8  C   UNL A   1      38.005  31.693  31.097  1.00  0.00     0.014 A 
ATOM      9  C   UNL A   1      36.581  29.761  30.883  1.00  0.00     0.014 A 
ATOM     10  C   UNL A   1      39.118  30.875  30.900  1.00  0.00     0.010 A 
ATOM     11  C   UNL A   1      37.684  28.942  30.685  1.00  0.00     0.010 A 
ATOM     12  C   UNL A   1      38.952  29.511  30.649  1.00  0.00    -0.014 A 
BRANCH  12  13
ATOM     13  C   UNL A   1      40.138  28.668  30.518  1.00  0.00     0.031 A 
ATOM     14  C   UNL A   1      40.876  28.455  31.794  1.00  0.00     0.074 A 
ATOM     15  C   UNL A   1      40.460  27.997  29.392  1.00  0.00     0.049 A 
ATOM     16  N   UNL A   1      42.088  28.798  32.080  1.00  0.00    -0.248 NA
ATOM     17  C   UNL A   1      40.129  27.890  32.931  1.00  0.00     0.031 C 
ATOM     18  C   UNL A   1      39.668  27.879  28.165  1.00  0.00     0.029 A 
ATOM     19  N   UNL A   1      41.520  27.172  29.149  1.00  0.00    -0.354 N 
ATOM     20  C   UNL A   1      42.326  28.324  33.368  1.00  0.00     0.074 A 
ATOM     21  C   UNL A   1      41.046  27.926  33.896  1.00  0.00     0.031 C 
ATOM     22  C   UNL A   1      40.150  26.858  27.419  1.00  0.00     0.029 A 
ATOM     23  C   UNL A   1      41.353  26.338  28.047  1.00  0.00     0.049 A 
ATOM     24  H   UNL A   1      42.333  27.166  29.706  1.00  0.00     0.167 HD
ATOM     25  C   UNL A   1      43.588  28.045  33.801  1.00  0.00     0.031 A 
ATOM     26  C   UNL A   1      42.108  25.260  27.711  1.00  0.00     0.031 A 
ATOM     27  C   UNL A   1      44.585  28.684  32.982  1.00  0.00     0.049 A 
ATOM     28  C   UNL A   1      43.396  25.365  28.431  1.00  0.00     0.074 A 
ATOM     29  C   UNL A   1      44.888  29.984  32.631  1.00  0.00     0.029 A 
ATOM     30  N   UNL A   1      45.252  27.888  32.082  1.00  0.00    -0.354 N 
ATOM     31  N   UNL A   1      44.298  26.262  28.163  1.00  0.00    -0.248 NA
ATOM     32  C   UNL A   1      43.498  24.743  29.740  1.00  0.00     0.031 C 
ATOM     33  C   UNL A   1      45.315  29.907  31.271  1.00  0.00     0.029 A 
ATOM     34  C   UNL A   1      45.310  28.563  30.895  1.00  0.00     0.049 A 
ATOM     35  H   UNL A   1      45.622  26.994  32.260  1.00  0.00     0.167 HD
ATOM     36  C   UNL A   1      44.783  26.647  29.403  1.00  0.00     0.074 A 
ATOM     37  C   UNL A   1      44.332  25.606  30.327  1.00  0.00     0.031 C 
ATOM     38  C   UNL A   1      45.252  27.913  29.609  1.00  0.00     0.031 A 
BRANCH  25  39
ATOM     39  C   UNL A   1      43.918  26.818  34.631  1.00  0.00    -0.014 A 
ATOM     40  C   UNL A   1      44.810  26.968  35.712  1.00  0.00     0.009 A 
ATOM     41  C   UNL A   1      43.670  25.500  34.203  1.00  0.00     0.009 A 
ATOM     42  C   UNL A   1      45.519  25.879  36.230  1.00  0.00     0.001 A 
ATOM     43  C   UNL A   1      44.342  24.404  34.750  1.00  0.00     0.001 A 
ATOM     44  C   UNL A   1      45.299  24.599  35.734  1.00  0.00     0.000 A 
ENDBRANCH  25  39
BRANCH  26  45
ATOM     45  C   UNL A   1      41.704  24.005  27.037  1.00  0.00    -0.014 A 
ATOM     46  C   UNL A   1      42.557  23.370  26.118  1.00  0.00     0.009 A 
ATOM     47  C   UNL A   1      40.599  23.274  27.511  1.00  0.00     0.009 A 
ATOM     48  C   UNL A   1      42.333  22.043  25.721  1.00  0.00     0.001 A 
ATOM     49  C   UNL A   1      40.373  21.951  27.111  1.00  0.00     0.001 A 
ATOM     50  C   UNL A   1      41.250  21.330  26.227  1.00  0.00     0.000 A 
ENDBRANCH  26  45
BRANCH  38  51
ATOM     51  C   UNL A   1      45.488  28.788  28.406  1.00  0.00    -0.014 A 
ATOM     52  C   UNL A   1      44.508  29.643  27.870  1.00  0.00     0.009 A 
ATOM     53  C   UNL A   1      46.790  28.859  27.892  1.00  0.00     0.009 A 
ATOM     54  C   UNL A   1      44.823  30.522  26.829  1.00  0.00     0.001 A 
ATOM     55  C   UNL A   1      47.108  29.751  26.868  1.00  0.00     0.001 A 
ATOM     56  C   UNL A   1      46.124  30.578  26.332  1.00  0.00     0.000 A 
ENDBRANCH  38  51
ENDBRANCH  12  13
ENDBRANCH   5   7
ENDBRANCH   2   3
ENDBRANCH   1   2
BRANCH   1  57
ATOM     57  C   UNL A   1      35.089  30.009  27.298  1.00  0.00     0.023 C 
BRANCH  57  58
ATOM     58  C   UNL A   1      34.314  28.736  26.953  1.00  0.00     0.116 C 
BRANCH  58  59
ATOM     59  N   UNL A   1      33.109  28.588  27.756  1.00  0.00    -0.351 N 
ATOM     60  C   UNL A   1      31.942  27.909  27.459  1.00  0.00     0.272 C 
ATOM     61  H   UNL A   1      33.128  29.034  28.634  1.00  0.00     0.163 HD
ATOM     62  O   UNL A   1      30.965  28.085  28.186  1.00  0.00    -0.267 OA
BRANCH  60  63
ATOM     63  C   UNL A   1      31.878  27.046  26.268  1.00  0.00     0.155 A 
ATOM     64  N   UNL A   1      32.276  25.756  26.279  1.00  0.00    -0.167 NA
ATOM     65  C   UNL A   1      31.378  27.397  24.983  1.00  0.00     0.026 A 
ATOM     66  N   UNL A   1      32.178  25.345  24.997  1.00  0.00    -0.264 N 
ATOM     67  C   UNL A   1      31.691  26.318  24.179  1.00  0.00     0.046 A 
ATOM     68  C   UNL A   1      30.749  28.660  24.483  1.00  0.00     0.159 C 
ATOM     69  C   UNL A   1      31.512  26.285  22.706  1.00  0.00     0.078 C 
ATOM     70  N   UNL A   1      30.411  28.485  23.049  1.00  0.00    -0.337 N 
ATOM     71  C   UNL A   1      31.390  27.749  22.224  1.00  0.00     0.126 C 
BRANCH  66  72
ATOM     72  C   UNL A   1      32.495  23.964  24.655  1.00  0.00     0.180 C 
BRANCH  72  73
ATOM     73  C   UNL A   1      33.977  23.679  24.724  1.00  0.00    -0.026 A 
ATOM     74  C   UNL A   1      34.617  23.571  25.972  1.00  0.00     0.008 A 
ATOM     75  C   UNL A   1      34.734  23.510  23.555  1.00  0.00     0.008 A 
ATOM     76  C   UNL A   1      35.981  23.294  26.050  1.00  0.00     0.039 A 
ATOM     77  C   UNL A   1      36.099  23.226  23.636  1.00  0.00     0.039 A 
ATOM     78  C   UNL A   1      36.708  23.119  24.881  1.00  0.00     0.123 A 
ATOM     79  F   UNL A   1      38.017  22.841  24.952  1.00  0.00    -0.207 F 
ENDBRANCH  72  73
ENDBRANCH  66  72
BRANCH  70  80
ATOM     80  C   UNL A   1      29.210  29.007  22.576  1.00  0.00     0.232 C 
ATOM     81  O   UNL A   1      28.126  28.490  22.770  1.00  0.00    -0.274 OA
BRANCH  80  82
ATOM     82  C   UNL A   1      29.283  30.299  21.855  1.00  0.00     0.154 C 
ATOM     83  C   UNL A   1      28.095  30.823  21.063  1.00  0.00     0.097 C 
ATOM     84  C   UNL A   1      28.511  31.471  22.329  1.00  0.00     0.260 C 
ATOM     85  F   UNL A   1      27.646  31.441  23.395  1.00  0.00    -0.206 F 
ATOM     86  F   UNL A   1      29.049  32.739  22.273  1.00  0.00    -0.206 F 
ENDBRANCH  80  82
ENDBRANCH  70  80
ENDBRANCH  60  63
ENDBRANCH  58  59
ENDBRANCH  57  58
ENDBRANCH   1  57
TORSDOF 15
ENDMDL
MODEL 3
REMARK VINA RESULT:     -12.2      2.962      5.373
REMARK SMILES O=C(NCCCCNC(=O)c1nn(Cc2ccc(F)cc2)c2c1CN(C(=O)[C@H]1CC1(F)F)CC2)c1ccc(-c2c3nc(c(-c4ccccc4)c4ccc([nH]4)c(-c4ccccc4)c4nc(c(-c5ccccc5)c5ccc2[nH]5)C=C4)C=C3)cc1
REMARK SMILES IDX 5 1 4 2 3 3 1 4 2 5 35 7 36 8 82 9 37 10 81 11 38 12 39 13
REMARK SMILES IDX 40 14 75 15 41 16 80 17 74 18 76 19 42 20 79 21 73 22 72 23
REMARK SMILES IDX 43 25 65 26 50 27 64 28 51 29 54 30 63 31 77 32 52 33 53 34
REMARK SMILES IDX 62 36 78 37 55 38 44 39 45 40 49 41 46 42 48 43 47 44 66 45
REMARK SMILES IDX 67 46 71 47 68 48 70 49 69 50 56 51 57 52 61 53 58 54 60 55
REMARK SMILES IDX 59 56 6 57 7 58 8 59 9 60 10 62 11 63 12 64 23 65 13 66
REMARK SMILES IDX 22 67 24 68 34 69 25 70 33 71 14 72 15 73 16 74 21 75 17 76
REMARK SMILES IDX 20 77 18 78 19 79 26 80 27 81 28 82 29 83 30 84 31 85 32 86
REMARK H PARENT 3 6 76 24 54 35 8 61
REMARK Flexibility Score: inf
ROOT
ATOM      1  C   UNL A   1      33.080  28.255  25.843  1.00  0.00     0.023 C 
ENDROOT
BRANCH   1   2
ATOM      2  C   UNL A   1      32.771  28.683  27.279  1.00  0.00     0.116 C 
BRANCH   2   3
ATOM      3  N   UNL A   1      32.973  30.091  27.553  1.00  0.00    -0.352 N 
ATOM      4  O   UNL A   1      33.835  32.120  27.605  1.00  0.00    -0.269 OA
ATOM      5  C   UNL A   1      34.065  30.907  27.637  1.00  0.00     0.251 C 
ATOM      6  H   UNL A   1      32.128  30.570  27.714  1.00  0.00     0.163 HD
BRANCH   5   7
ATOM      7  C   UNL A   1      35.468  30.458  27.855  1.00  0.00     0.039 A 
ATOM      8  C   UNL A   1      35.967  29.177  27.623  1.00  0.00     0.014 A 
ATOM      9  C   UNL A   1      36.328  31.422  28.421  1.00  0.00     0.014 A 
ATOM     10  C   UNL A   1      37.255  28.838  28.042  1.00  0.00     0.010 A 
ATOM     11  C   UNL A   1      37.609  31.091  28.840  1.00  0.00     0.010 A 
ATOM     12  C   UNL A   1      38.054  29.783  28.689  1.00  0.00    -0.014 A 
BRANCH  12  13
ATOM     13  C   UNL A   1      39.422  29.420  29.051  1.00  0.00     0.031 A 
ATOM     14  C   UNL A   1      39.631  29.215  30.511  1.00  0.00     0.074 A 
ATOM     15  C   UNL A   1      40.383  29.126  28.149  1.00  0.00     0.049 A 
ATOM     16  N   UNL A   1      40.409  29.875  31.304  1.00  0.00    -0.248 NA
ATOM     17  C   UNL A   1      38.779  28.225  31.193  1.00  0.00     0.031 C 
ATOM     18  C   UNL A   1      40.236  28.998  26.697  1.00  0.00     0.029 A 
ATOM     19  N   UNL A   1      41.682  28.760  28.356  1.00  0.00    -0.354 N 
ATOM     20  C   UNL A   1      40.292  29.262  32.550  1.00  0.00     0.074 A 
ATOM     21  C   UNL A   1      39.164  28.370  32.459  1.00  0.00     0.031 C 
ATOM     22  C   UNL A   1      41.318  28.360  26.193  1.00  0.00     0.029 A 
ATOM     23  C   UNL A   1      42.284  28.151  27.259  1.00  0.00     0.049 A 
ATOM     24  H   UNL A   1      42.152  28.913  29.208  1.00  0.00     0.167 HD
ATOM     25  C   UNL A   1      41.291  29.334  33.474  1.00  0.00     0.031 A 
ATOM     26  C   UNL A   1      43.459  27.469  27.241  1.00  0.00     0.031 A 
ATOM     27  C   UNL A   1      42.202  30.413  33.190  1.00  0.00     0.049 A 
ATOM     28  C   UNL A   1      44.222  27.848  28.449  1.00  0.00     0.074 A 
ATOM     29  C   UNL A   1      42.097  31.782  33.053  1.00  0.00     0.029 A 
ATOM     30  N   UNL A   1      43.412  30.074  32.636  1.00  0.00    -0.354 N 
ATOM     31  N   UNL A   1      44.743  29.027  28.631  1.00  0.00    -0.248 NA
ATOM     32  C   UNL A   1      44.041  27.051  29.649  1.00  0.00     0.031 C 
ATOM     33  C   UNL A   1      43.010  32.118  32.009  1.00  0.00     0.029 A 
ATOM     34  C   UNL A   1      43.662  30.949  31.617  1.00  0.00     0.049 A 
ATOM     35  H   UNL A   1      43.996  29.334  32.922  1.00  0.00     0.167 HD
ATOM     36  C   UNL A   1      44.525  29.298  29.972  1.00  0.00     0.074 A 
ATOM     37  C   UNL A   1      44.186  28.007  30.570  1.00  0.00     0.031 C 
ATOM     38  C   UNL A   1      44.358  30.582  30.408  1.00  0.00     0.031 A 
BRANCH  25  39
ATOM     39  C   UNL A   1      41.715  28.147  34.318  1.00  0.00    -0.014 A 
ATOM     40  C   UNL A   1      41.762  28.309  35.718  1.00  0.00     0.009 A 
ATOM     41  C   UNL A   1      42.379  27.020  33.797  1.00  0.00     0.009 A 
ATOM     42  C   UNL A   1      42.549  27.479  36.523  1.00  0.00     0.001 A 
ATOM     43  C   UNL A   1      43.127  26.161  34.606  1.00  0.00     0.001 A 
ATOM     44  C   UNL A   1      43.247  26.416  35.963  1.00  0.00     0.000 A 
ENDBRANCH  25  39
BRANCH  26  45
ATOM     45  C   UNL A   1      43.857  26.309  26.411  1.00  0.00    -0.014 A 
ATOM     46  C   UNL A   1      45.085  26.296  25.726  1.00  0.00     0.009 A 
ATOM     47  C   UNL A   1      43.161  25.091  26.521  1.00  0.00     0.009 A 
ATOM     48  C   UNL A   1      45.612  25.103  25.208  1.00  0.00     0.001 A 
ATOM     49  C   UNL A   1      43.685  23.902  26.001  1.00  0.00     0.001 A 
ATOM     50  C   UNL A   1      44.919  23.905  25.357  1.00  0.00     0.000 A 
ENDBRANCH  26  45
BRANCH  38  51
ATOM     51  C   UNL A   1      44.687  31.703  29.458  1.00  0.00    -0.014 A 
ATOM     52  C   UNL A   1      43.807  32.148  28.455  1.00  0.00     0.009 A 
ATOM     53  C   UNL A   1      45.864  32.430  29.685  1.00  0.00     0.009 A 
ATOM     54  C   UNL A   1      44.116  33.272  27.684  1.00  0.00     0.001 A 
ATOM     55  C   UNL A   1      46.161  33.565  28.931  1.00  0.00     0.001 A 
ATOM     56  C   UNL A   1      45.292  33.983  27.926  1.00  0.00     0.000 A 
ENDBRANCH  38  51
ENDBRANCH  12  13
ENDBRANCH   5   7
ENDBRANCH   2   3
ENDBRANCH   1   2
BRANCH   1  57
ATOM     57  C   UNL A   1      32.104  27.248  25.225  1.00  0.00     0.023 C 
BRANCH  57  58
ATOM     58  C   UNL A   1      32.517  25.777  25.305  1.00  0.00     0.116 C 
BRANCH  58  59
ATOM     59  N   UNL A   1      31.907  25.092  26.435  1.00  0.00    -0.351 N 
ATOM     60  C   UNL A   1      31.819  23.736  26.688  1.00  0.00     0.272 C 
ATOM     61  H   UNL A   1      31.501  25.677  27.115  1.00  0.00     0.163 HD
ATOM     62  O   UNL A   1      31.076  23.360  27.594  1.00  0.00    -0.267 OA
BRANCH  60  63
ATOM     63  C   UNL A   1      32.559  22.782  25.845  1.00  0.00     0.155 A 
ATOM     64  N   UNL A   1      31.948  21.954  24.972  1.00  0.00    -0.167 NA
ATOM     65  C   UNL A   1      33.969  22.607  25.786  1.00  0.00     0.026 A 
ATOM     66  N   UNL A   1      32.930  21.166  24.486  1.00  0.00    -0.264 N 
ATOM     67  C   UNL A   1      34.151  21.493  24.990  1.00  0.00     0.046 A 
ATOM     68  C   UNL A   1      35.081  23.331  26.480  1.00  0.00     0.159 C 
ATOM     69  C   UNL A   1      35.456  20.822  24.765  1.00  0.00     0.078 C 
ATOM     70  N   UNL A   1      36.371  22.737  26.054  1.00  0.00    -0.337 N 
ATOM     71  C   UNL A   1      36.405  21.269  25.900  1.00  0.00     0.126 C 
BRANCH  66  72
ATOM     72  C   UNL A   1      32.619  20.169  23.468  1.00  0.00     0.180 C 
BRANCH  72  73
ATOM     73  C   UNL A   1      32.820  18.757  23.964  1.00  0.00    -0.026 A 
ATOM     74  C   UNL A   1      33.392  17.787  23.121  1.00  0.00     0.008 A 
ATOM     75  C   UNL A   1      32.453  18.391  25.269  1.00  0.00     0.008 A 
ATOM     76  C   UNL A   1      33.599  16.485  23.572  1.00  0.00     0.039 A 
ATOM     77  C   UNL A   1      32.666  17.087  25.720  1.00  0.00     0.039 A 
ATOM     78  C   UNL A   1      33.238  16.148  24.869  1.00  0.00     0.123 A 
ATOM     79  F   UNL A   1      33.445  14.900  25.310  1.00  0.00    -0.207 F 
ENDBRANCH  72  73
ENDBRANCH  66  72
BRANCH  70  80
ATOM     80  C   UNL A   1      37.453  23.583  25.820  1.00  0.00     0.232 C 
ATOM     81  O   UNL A   1      37.742  24.020  24.722  1.00  0.00    -0.274 OA
BRANCH  80  82
ATOM     82  C   UNL A   1      38.236  24.007  27.004  1.00  0.00     0.154 C 
ATOM     83  C   UNL A   1      39.644  23.484  27.240  1.00  0.00     0.097 C 
ATOM     84  C   UNL A   1      39.412  24.894  26.850  1.00  0.00     0.260 C 
ATOM     85  F   UNL A   1      39.895  25.327  25.639  1.00  0.00    -0.206 F 
ATOM     86  F   UNL A   1      39.674  25.884  27.773  1.00  0.00    -0.206 F 
ENDBRANCH  80  82
ENDBRANCH  70  80
ENDBRANCH  60  63
ENDBRANCH  58  59
ENDBRANCH  57  58
ENDBRANCH   1  57
TORSDOF 15
ENDMDL
