MODEL 1
REMARK VINA RESULT:     -11.2      0.000      0.000
REMARK SMILES CC(C)[C@H]([NH2+]Cc1ccc(O)cn1)C(=O)NCCCCNC(=O)c1ccc(-c2c3nc(c(-c4ccccc4)c4ccc([nH]4)c(-c4ccccc4)c4nc(c(-c5ccccc5)c5ccc2[nH]5)C=C4)C=C3)cc1
REMARK SMILES IDX 17 1 16 2 14 3 15 4 4 6 2 7 1 8 3 9 5 10 6 13 7 14 8 15
REMARK SMILES IDX 13 16 9 17 12 18 10 19 11 20 18 22 19 23 20 24 21 25 22 26
REMARK SMILES IDX 23 28 24 29 25 30 71 31 26 32 70 33 27 34 28 35 29 36 64 37
REMARK SMILES IDX 30 38 69 39 63 40 65 41 31 42 68 43 62 44 61 45 32 47 54 48
REMARK SMILES IDX 39 49 53 50 40 51 43 52 52 53 66 54 41 55 42 56 51 58 67 59
REMARK SMILES IDX 44 60 33 61 34 62 38 63 35 64 37 65 36 66 55 67 56 68 60 69
REMARK SMILES IDX 57 70 59 71 58 72 45 73 46 74 50 75 47 76 49 77 48 78
REMARK H PARENT 16 5 5 11 5 12 11 21 21 27 65 46 43 57
REMARK Flexibility Score: inf
ROOT
ATOM      1  C   UNL A   1      35.647  20.730  24.995  1.00  0.00     0.116 C 
ENDROOT
BRANCH   1   2
ATOM      2  N   UNL A   1      35.133  21.077  26.298  1.00  0.00    -0.351 N 
ATOM      3  C   UNL A   1      33.938  21.628  26.645  1.00  0.00     0.278 C 
ATOM      4  O   UNL A   1      33.802  21.940  27.833  1.00  0.00    -0.268 OA
ATOM      5  H   UNL A   1      35.739  20.887  27.049  1.00  0.00     0.163 HD
BRANCH   3   6
ATOM      6  C   UNL A   1      32.794  21.877  25.620  1.00  0.00     0.275 C 
BRANCH   6   7
ATOM      7  C   UNL A   1      32.009  23.213  25.796  1.00  0.00     0.051 C 
ATOM      8  C   UNL A   1      31.724  23.936  24.472  1.00  0.00     0.014 C 
ATOM      9  C   UNL A   1      30.664  22.966  26.499  1.00  0.00     0.014 C 
ENDBRANCH   6   7
BRANCH   6  10
ATOM     10  N   UNL A   1      32.037  20.622  25.363  1.00  0.00    -0.331 N 
ATOM     11  H   UNL A   1      31.048  20.867  25.326  1.00  0.00     0.347 HD
ATOM     12  H   UNL A   1      32.314  20.001  26.124  1.00  0.00     0.347 HD
BRANCH  10  13
ATOM     13  C   UNL A   1      32.343  19.868  24.151  1.00  0.00     0.318 C 
BRANCH  13  14
ATOM     14  C   UNL A   1      32.673  18.396  24.377  1.00  0.00     0.095 A 
ATOM     15  C   UNL A   1      33.477  17.694  23.475  1.00  0.00     0.033 A 
ATOM     16  N   UNL A   1      32.246  17.833  25.534  1.00  0.00    -0.251 NA
ATOM     17  C   UNL A   1      33.879  16.393  23.773  1.00  0.00     0.050 A 
ATOM     18  C   UNL A   1      32.636  16.560  25.792  1.00  0.00     0.157 A 
ATOM     19  C   UNL A   1      33.453  15.819  24.957  1.00  0.00     0.133 A 
BRANCH  19  20
ATOM     20  O   UNL A   1      33.824  14.560  25.319  1.00  0.00    -0.506 OA
ATOM     21  H   UNL A   1      34.183  14.405  26.170  1.00  0.00     0.293 HD
ENDBRANCH  19  20
ENDBRANCH  13  14
ENDBRANCH  10  13
ENDBRANCH   6  10
ENDBRANCH   3   6
ENDBRANCH   1   2
BRANCH   1  22
ATOM     22  C   UNL A   1      37.128  21.073  24.900  1.00  0.00     0.023 C 
BRANCH  22  23
ATOM     23  C   UNL A   1      38.079  19.884  24.991  1.00  0.00     0.023 C 
BRANCH  23  24
ATOM     24  C   UNL A   1      39.293  20.100  25.881  1.00  0.00     0.116 C 
BRANCH  24  25
ATOM     25  N   UNL A   1      40.279  19.033  25.803  1.00  0.00    -0.352 N 
ATOM     26  C   UNL A   1      41.632  19.103  26.035  1.00  0.00     0.251 C 
ATOM     27  H   UNL A   1      39.932  18.147  25.550  1.00  0.00     0.163 HD
ATOM     28  O   UNL A   1      42.345  18.126  25.843  1.00  0.00    -0.269 OA
BRANCH  26  29
ATOM     29  C   UNL A   1      42.225  20.386  26.467  1.00  0.00     0.039 A 
ATOM     30  C   UNL A   1      42.769  21.228  25.496  1.00  0.00     0.014 A 
ATOM     31  C   UNL A   1      42.197  20.778  27.808  1.00  0.00     0.014 A 
ATOM     32  C   UNL A   1      43.218  22.497  25.861  1.00  0.00     0.010 A 
ATOM     33  C   UNL A   1      42.564  22.073  28.156  1.00  0.00     0.010 A 
ATOM     34  C   UNL A   1      43.080  22.943  27.188  1.00  0.00    -0.014 A 
BRANCH  34  35
ATOM     35  C   UNL A   1      43.454  24.330  27.557  1.00  0.00     0.031 A 
ATOM     36  C   UNL A   1      44.881  24.788  27.465  1.00  0.00     0.074 A 
ATOM     37  C   UNL A   1      42.504  25.166  28.019  1.00  0.00     0.049 A 
ATOM     38  N   UNL A   1      45.379  25.977  27.695  1.00  0.00    -0.248 NA
ATOM     39  C   UNL A   1      45.885  23.778  27.097  1.00  0.00     0.031 C 
ATOM     40  C   UNL A   1      41.096  24.816  28.232  1.00  0.00     0.029 A 
ATOM     41  N   UNL A   1      42.576  26.486  28.384  1.00  0.00    -0.354 N 
ATOM     42  C   UNL A   1      46.750  25.853  27.511  1.00  0.00     0.074 A 
ATOM     43  C   UNL A   1      47.013  24.464  27.208  1.00  0.00     0.031 C 
ATOM     44  C   UNL A   1      40.431  25.907  28.645  1.00  0.00     0.029 A 
ATOM     45  C   UNL A   1      41.365  27.022  28.748  1.00  0.00     0.049 A 
ATOM     46  H   UNL A   1      43.417  26.999  28.386  1.00  0.00     0.167 HD
ATOM     47  C   UNL A   1      47.703  26.813  27.565  1.00  0.00     0.031 A 
ATOM     48  C   UNL A   1      41.040  28.278  29.105  1.00  0.00     0.031 A 
ATOM     49  C   UNL A   1      47.440  28.198  27.853  1.00  0.00     0.049 A 
ATOM     50  C   UNL A   1      42.105  29.337  29.110  1.00  0.00     0.074 A 
ATOM     51  C   UNL A   1      48.324  29.262  27.863  1.00  0.00     0.029 A 
ATOM     52  N   UNL A   1      46.195  28.708  28.186  1.00  0.00    -0.354 N 
ATOM     53  N   UNL A   1      43.382  29.224  28.835  1.00  0.00    -0.248 NA
ATOM     54  C   UNL A   1      41.676  30.700  29.449  1.00  0.00     0.031 C 
ATOM     55  C   UNL A   1      47.621  30.411  28.244  1.00  0.00     0.029 A 
ATOM     56  C   UNL A   1      46.289  30.070  28.421  1.00  0.00     0.049 A 
ATOM     57  H   UNL A   1      45.365  28.180  28.247  1.00  0.00     0.167 HD
ATOM     58  C   UNL A   1      43.906  30.506  28.943  1.00  0.00     0.074 A 
ATOM     59  C   UNL A   1      42.802  31.380  29.288  1.00  0.00     0.031 C 
ATOM     60  C   UNL A   1      45.184  30.922  28.772  1.00  0.00     0.031 A 
BRANCH  47  61
ATOM     61  C   UNL A   1      49.122  26.390  27.304  1.00  0.00    -0.014 A 
ATOM     62  C   UNL A   1      49.971  26.006  28.355  1.00  0.00     0.009 A 
ATOM     63  C   UNL A   1      49.610  26.356  25.989  1.00  0.00     0.009 A 
ATOM     64  C   UNL A   1      51.293  25.635  28.097  1.00  0.00     0.001 A 
ATOM     65  C   UNL A   1      50.924  25.957  25.732  1.00  0.00     0.001 A 
ATOM     66  C   UNL A   1      51.767  25.608  26.786  1.00  0.00     0.000 A 
ENDBRANCH  47  61
BRANCH  48  67
ATOM     67  C   UNL A   1      39.630  28.613  29.433  1.00  0.00    -0.014 A 
ATOM     68  C   UNL A   1      38.754  29.060  28.432  1.00  0.00     0.009 A 
ATOM     69  C   UNL A   1      39.151  28.479  30.745  1.00  0.00     0.009 A 
ATOM     70  C   UNL A   1      37.434  29.390  28.742  1.00  0.00     0.001 A 
ATOM     71  C   UNL A   1      37.822  28.786  31.047  1.00  0.00     0.001 A 
ATOM     72  C   UNL A   1      36.968  29.250  30.047  1.00  0.00     0.000 A 
ENDBRANCH  48  67
BRANCH  60  73
ATOM     73  C   UNL A   1      45.447  32.392  28.932  1.00  0.00    -0.014 A 
ATOM     74  C   UNL A   1      45.817  32.937  30.171  1.00  0.00     0.009 A 
ATOM     75  C   UNL A   1      45.337  33.241  27.820  1.00  0.00     0.009 A 
ATOM     76  C   UNL A   1      46.029  34.311  30.302  1.00  0.00     0.001 A 
ATOM     77  C   UNL A   1      45.577  34.609  27.948  1.00  0.00     0.001 A 
ATOM     78  C   UNL A   1      45.911  35.145  29.191  1.00  0.00     0.000 A 
ENDBRANCH  60  73
ENDBRANCH  34  35
ENDBRANCH  26  29
ENDBRANCH  24  25
ENDBRANCH  23  24
ENDBRANCH  22  23
ENDBRANCH   1  22
TORSDOF 16
ENDMDL
MODEL 2
REMARK VINA RESULT:     -11.1      6.378     11.272
REMARK SMILES CC(C)[C@H]([NH2+]Cc1ccc(O)cn1)C(=O)NCCCCNC(=O)c1ccc(-c2c3nc(c(-c4ccccc4)c4ccc([nH]4)c(-c4ccccc4)c4nc(c(-c5ccccc5)c5ccc2[nH]5)C=C4)C=C3)cc1
REMARK SMILES IDX 17 1 16 2 14 3 15 4 4 6 2 7 1 8 3 9 5 10 6 13 7 14 8 15
REMARK SMILES IDX 13 16 9 17 12 18 10 19 11 20 18 22 19 23 20 24 21 25 22 26
REMARK SMILES IDX 23 28 24 29 25 30 71 31 26 32 70 33 27 34 28 35 29 36 64 37
REMARK SMILES IDX 30 38 69 39 63 40 65 41 31 42 68 43 62 44 61 45 32 47 54 48
REMARK SMILES IDX 39 49 53 50 40 51 43 52 52 53 66 54 41 55 42 56 51 58 67 59
REMARK SMILES IDX 44 60 33 61 34 62 38 63 35 64 37 65 36 66 55 67 56 68 60 69
REMARK SMILES IDX 57 70 59 71 58 72 45 73 46 74 50 75 47 76 49 77 48 78
REMARK H PARENT 16 5 5 11 5 12 11 21 21 27 65 46 43 57
REMARK Flexibility Score: inf
ROOT
ATOM      1  C   UNL A   1      33.116  29.644  26.099  1.00  0.00     0.116 C 
ENDROOT
BRANCH   1   2
ATOM      2  N   UNL A   1      33.212  29.732  24.662  1.00  0.00    -0.351 N 
ATOM      3  C   UNL A   1      32.786  28.863  23.705  1.00  0.00     0.278 C 
ATOM      4  O   UNL A   1      33.110  29.126  22.541  1.00  0.00    -0.268 OA
ATOM      5  H   UNL A   1      33.653  30.543  24.323  1.00  0.00     0.163 HD
BRANCH   3   6
ATOM      6  C   UNL A   1      31.950  27.592  24.030  1.00  0.00     0.275 C 
BRANCH   6   7
ATOM      7  C   UNL A   1      32.480  26.260  23.417  1.00  0.00     0.051 C 
ATOM      8  C   UNL A   1      33.783  25.764  24.061  1.00  0.00     0.014 C 
ATOM      9  C   UNL A   1      31.432  25.144  23.553  1.00  0.00     0.014 C 
ENDBRANCH   6   7
BRANCH   6  10
ATOM     10  N   UNL A   1      30.494  27.890  23.963  1.00  0.00    -0.331 N 
ATOM     11  H   UNL A   1      30.322  28.692  24.569  1.00  0.00     0.347 HD
ATOM     12  H   UNL A   1      30.045  27.018  24.240  1.00  0.00     0.347 HD
BRANCH  10  13
ATOM     13  C   UNL A   1      29.912  28.199  22.660  1.00  0.00     0.318 C 
BRANCH  13  14
ATOM     14  C   UNL A   1      29.300  29.591  22.545  1.00  0.00     0.095 A 
ATOM     15  C   UNL A   1      29.300  30.469  23.632  1.00  0.00     0.033 A 
ATOM     16  N   UNL A   1      28.854  29.975  21.323  1.00  0.00    -0.251 NA
ATOM     17  C   UNL A   1      28.862  31.782  23.462  1.00  0.00     0.050 A 
ATOM     18  C   UNL A   1      28.416  31.251  21.188  1.00  0.00     0.157 A 
ATOM     19  C   UNL A   1      28.417  32.180  22.215  1.00  0.00     0.133 A 
BRANCH  19  20
ATOM     20  O   UNL A   1      27.994  33.451  21.975  1.00  0.00    -0.506 OA
ATOM     21  H   UNL A   1      27.480  33.902  22.617  1.00  0.00     0.293 HD
ENDBRANCH  19  20
ENDBRANCH  13  14
ENDBRANCH  10  13
ENDBRANCH   6  10
ENDBRANCH   3   6
ENDBRANCH   1   2
BRANCH   1  22
ATOM     22  C   UNL A   1      31.765  30.162  26.573  1.00  0.00     0.023 C 
BRANCH  22  23
ATOM     23  C   UNL A   1      31.599  31.679  26.533  1.00  0.00     0.023 C 
BRANCH  23  24
ATOM     24  C   UNL A   1      32.709  32.463  27.217  1.00  0.00     0.116 C 
BRANCH  24  25
ATOM     25  N   UNL A   1      32.337  33.824  27.571  1.00  0.00    -0.352 N 
ATOM     26  C   UNL A   1      32.971  34.685  28.435  1.00  0.00     0.251 C 
ATOM     27  H   UNL A   1      31.525  34.173  27.136  1.00  0.00     0.163 HD
ATOM     28  O   UNL A   1      32.481  35.776  28.693  1.00  0.00    -0.269 OA
BRANCH  26  29
ATOM     29  C   UNL A   1      34.224  34.255  29.092  1.00  0.00     0.039 A 
ATOM     30  C   UNL A   1      34.136  33.488  30.255  1.00  0.00     0.014 A 
ATOM     31  C   UNL A   1      35.469  34.559  28.537  1.00  0.00     0.014 A 
ATOM     32  C   UNL A   1      35.299  32.964  30.821  1.00  0.00     0.010 A 
ATOM     33  C   UNL A   1      36.617  33.967  29.052  1.00  0.00     0.010 A 
ATOM     34  C   UNL A   1      36.544  33.166  30.198  1.00  0.00    -0.014 A 
BRANCH  34  35
ATOM     35  C   UNL A   1      37.765  32.519  30.734  1.00  0.00     0.031 A 
ATOM     36  C   UNL A   1      38.410  33.025  31.993  1.00  0.00     0.074 A 
ATOM     37  C   UNL A   1      38.320  31.496  30.055  1.00  0.00     0.049 A 
ATOM     38  N   UNL A   1      39.448  32.549  32.634  1.00  0.00    -0.248 NA
ATOM     39  C   UNL A   1      37.836  34.238  32.597  1.00  0.00     0.031 C 
ATOM     40  C   UNL A   1      37.836  30.965  28.777  1.00  0.00     0.029 A 
ATOM     41  N   UNL A   1      39.407  30.713  30.349  1.00  0.00    -0.354 N 
ATOM     42  C   UNL A   1      39.656  33.408  33.704  1.00  0.00     0.074 A 
ATOM     43  C   UNL A   1      38.675  34.466  33.596  1.00  0.00     0.031 C 
ATOM     44  C   UNL A   1      38.595  29.916  28.423  1.00  0.00     0.029 A 
ATOM     45  C   UNL A   1      39.628  29.715  29.432  1.00  0.00     0.049 A 
ATOM     46  H   UNL A   1      39.974  30.855  31.142  1.00  0.00     0.167 HD
ATOM     47  C   UNL A   1      40.566  33.314  34.703  1.00  0.00     0.031 A 
ATOM     48  C   UNL A   1      40.549  28.734  29.418  1.00  0.00     0.031 A 
ATOM     49  C   UNL A   1      41.532  32.255  34.818  1.00  0.00     0.049 A 
ATOM     50  C   UNL A   1      41.516  28.620  30.561  1.00  0.00     0.074 A 
ATOM     51  C   UNL A   1      42.451  32.029  35.828  1.00  0.00     0.029 A 
ATOM     52  N   UNL A   1      41.705  31.244  33.886  1.00  0.00    -0.354 N 
ATOM     53  N   UNL A   1      41.636  29.384  31.620  1.00  0.00    -0.248 NA
ATOM     54  C   UNL A   1      42.456  27.492  30.518  1.00  0.00     0.031 C 
ATOM     55  C   UNL A   1      43.209  30.904  35.485  1.00  0.00     0.029 A 
ATOM     56  C   UNL A   1      42.728  30.400  34.287  1.00  0.00     0.049 A 
ATOM     57  H   UNL A   1      41.179  31.141  33.059  1.00  0.00     0.167 HD
ATOM     58  C   UNL A   1      42.647  28.816  32.383  1.00  0.00     0.074 A 
ATOM     59  C   UNL A   1      43.092  27.633  31.673  1.00  0.00     0.031 C 
ATOM     60  C   UNL A   1      43.163  29.235  33.564  1.00  0.00     0.031 A 
BRANCH  47  61
ATOM     61  C   UNL A   1      40.551  34.392  35.750  1.00  0.00    -0.014 A 
ATOM     62  C   UNL A   1      41.375  35.525  35.640  1.00  0.00     0.009 A 
ATOM     63  C   UNL A   1      39.690  34.284  36.853  1.00  0.00     0.009 A 
ATOM     64  C   UNL A   1      41.364  36.507  36.633  1.00  0.00     0.001 A 
ATOM     65  C   UNL A   1      39.661  35.283  37.829  1.00  0.00     0.001 A 
ATOM     66  C   UNL A   1      40.506  36.387  37.724  1.00  0.00     0.000 A 
ENDBRANCH  47  61
BRANCH  48  67
ATOM     67  C   UNL A   1      40.562  27.747  28.307  1.00  0.00    -0.014 A 
ATOM     68  C   UNL A   1      41.268  28.017  27.124  1.00  0.00     0.009 A 
ATOM     69  C   UNL A   1      39.876  26.529  28.426  1.00  0.00     0.009 A 
ATOM     70  C   UNL A   1      41.266  27.098  26.074  1.00  0.00     0.001 A 
ATOM     71  C   UNL A   1      39.899  25.600  27.383  1.00  0.00     0.001 A 
ATOM     72  C   UNL A   1      40.585  25.890  26.205  1.00  0.00     0.000 A 
ENDBRANCH  48  67
BRANCH  60  73
ATOM     73  C   UNL A   1      44.246  28.390  34.171  1.00  0.00    -0.014 A 
ATOM     74  C   UNL A   1      45.602  28.643  33.909  1.00  0.00     0.009 A 
ATOM     75  C   UNL A   1      43.904  27.334  35.029  1.00  0.00     0.009 A 
ATOM     76  C   UNL A   1      46.591  27.827  34.461  1.00  0.00     0.001 A 
ATOM     77  C   UNL A   1      44.896  26.538  35.602  1.00  0.00     0.001 A 
ATOM     78  C   UNL A   1      46.238  26.777  35.308  1.00  0.00     0.000 A 
ENDBRANCH  60  73
ENDBRANCH  34  35
ENDBRANCH  26  29
ENDBRANCH  24  25
ENDBRANCH  23  24
ENDBRANCH  22  23
ENDBRANCH   1  22
TORSDOF 16
ENDMDL
MODEL 3
REMARK VINA RESULT:     -11.0      1.492      6.271
REMARK SMILES CC(C)[C@H]([NH2+]Cc1ccc(O)cn1)C(=O)NCCCCNC(=O)c1ccc(-c2c3nc(c(-c4ccccc4)c4ccc([nH]4)c(-c4ccccc4)c4nc(c(-c5ccccc5)c5ccc2[nH]5)C=C4)C=C3)cc1
REMARK SMILES IDX 17 1 16 2 14 3 15 4 4 6 2 7 1 8 3 9 5 10 6 13 7 14 8 15
REMARK SMILES IDX 13 16 9 17 12 18 10 19 11 20 18 22 19 23 20 24 21 25 22 26
REMARK SMILES IDX 23 28 24 29 25 30 71 31 26 32 70 33 27 34 28 35 29 36 64 37
REMARK SMILES IDX 30 38 69 39 63 40 65 41 31 42 68 43 62 44 61 45 32 47 54 48
REMARK SMILES IDX 39 49 53 50 40 51 43 52 52 53 66 54 41 55 42 56 51 58 67 59
REMARK SMILES IDX 44 60 33 61 34 62 38 63 35 64 37 65 36 66 55 67 56 68 60 69
REMARK SMILES IDX 57 70 59 71 58 72 45 73 46 74 50 75 47 76 49 77 48 78
REMARK H PARENT 16 5 5 11 5 12 11 21 21 27 65 46 43 57
REMARK Flexibility Score: inf
ROOT
ATOM      1  C   UNL A   1      35.814  22.250  26.010  1.00  0.00     0.116 C 
ENDROOT
BRANCH   1   2
ATOM      2  N   UNL A   1      34.900  22.101  27.115  1.00  0.00    -0.351 N 
ATOM      3  C   UNL A   1      33.539  22.089  27.126  1.00  0.00     0.278 C 
ATOM      4  O   UNL A   1      32.999  22.071  28.237  1.00  0.00    -0.268 OA
ATOM      5  H   UNL A   1      35.325  21.992  27.996  1.00  0.00     0.163 HD
BRANCH   3   6
ATOM      6  C   UNL A   1      32.684  22.113  25.826  1.00  0.00     0.275 C 
BRANCH   6   7
ATOM      7  C   UNL A   1      31.753  23.352  25.654  1.00  0.00     0.051 C 
ATOM      8  C   UNL A   1      32.459  24.691  25.907  1.00  0.00     0.014 C 
ATOM      9  C   UNL A   1      31.159  23.392  24.236  1.00  0.00     0.014 C 
ENDBRANCH   6   7
BRANCH   6  10
ATOM     10  N   UNL A   1      32.150  20.758  25.525  1.00  0.00    -0.331 N 
ATOM     11  H   UNL A   1      31.137  20.844  25.441  1.00  0.00     0.347 HD
ATOM     12  H   UNL A   1      32.485  20.178  26.294  1.00  0.00     0.347 HD
BRANCH  10  13
ATOM     13  C   UNL A   1      32.627  20.078  24.325  1.00  0.00     0.318 C 
BRANCH  13  14
ATOM     14  C   UNL A   1      32.881  18.584  24.491  1.00  0.00     0.095 A 
ATOM     15  C   UNL A   1      33.688  17.888  23.587  1.00  0.00     0.033 A 
ATOM     16  N   UNL A   1      32.382  17.987  25.602  1.00  0.00    -0.251 NA
ATOM     17  C   UNL A   1      34.019  16.556  23.837  1.00  0.00     0.050 A 
ATOM     18  C   UNL A   1      32.702  16.687  25.812  1.00  0.00     0.157 A 
ATOM     19  C   UNL A   1      33.519  15.948  24.974  1.00  0.00     0.133 A 
BRANCH  19  20
ATOM     20  O   UNL A   1      33.818  14.658  25.288  1.00  0.00    -0.506 OA
ATOM     21  H   UNL A   1      33.170  14.112  25.688  1.00  0.00     0.293 HD
ENDBRANCH  19  20
ENDBRANCH  13  14
ENDBRANCH  10  13
ENDBRANCH   6  10
ENDBRANCH   3   6
ENDBRANCH   1   2
BRANCH   1  22
ATOM     22  C   UNL A   1      36.062  20.904  25.340  1.00  0.00     0.023 C 
BRANCH  22  23
ATOM     23  C   UNL A   1      37.449  20.728  24.729  1.00  0.00     0.023 C 
BRANCH  23  24
ATOM     24  C   UNL A   1      38.604  20.859  25.711  1.00  0.00     0.116 C 
BRANCH  24  25
ATOM     25  N   UNL A   1      39.552  19.757  25.656  1.00  0.00    -0.352 N 
ATOM     26  C   UNL A   1      40.877  19.752  26.023  1.00  0.00     0.251 C 
ATOM     27  H   UNL A   1      39.198  18.905  25.311  1.00  0.00     0.163 HD
ATOM     28  O   UNL A   1      41.568  18.760  25.835  1.00  0.00    -0.269 OA
BRANCH  26  29
ATOM     29  C   UNL A   1      41.471  20.978  26.596  1.00  0.00     0.039 A 
ATOM     30  C   UNL A   1      42.044  21.908  25.728  1.00  0.00     0.014 A 
ATOM     31  C   UNL A   1      41.416  21.231  27.969  1.00  0.00     0.014 A 
ATOM     32  C   UNL A   1      42.497  23.128  26.231  1.00  0.00     0.010 A 
ATOM     33  C   UNL A   1      41.788  22.480  28.456  1.00  0.00     0.010 A 
ATOM     34  C   UNL A   1      42.333  23.439  27.593  1.00  0.00    -0.014 A 
BRANCH  34  35
ATOM     35  C   UNL A   1      42.711  24.776  28.110  1.00  0.00     0.031 A 
ATOM     36  C   UNL A   1      41.670  25.837  28.319  1.00  0.00     0.074 A 
ATOM     37  C   UNL A   1      44.009  25.045  28.350  1.00  0.00     0.049 A 
ATOM     38  N   UNL A   1      41.812  27.042  28.813  1.00  0.00    -0.248 NA
ATOM     39  C   UNL A   1      40.297  25.522  27.894  1.00  0.00     0.031 C 
ATOM     40  C   UNL A   1      45.125  24.126  28.109  1.00  0.00     0.029 A 
ATOM     41  N   UNL A   1      44.609  26.168  28.859  1.00  0.00    -0.354 N 
ATOM     42  C   UNL A   1      40.554  27.627  28.746  1.00  0.00     0.074 A 
ATOM     43  C   UNL A   1      39.674  26.670  28.112  1.00  0.00     0.031 C 
ATOM     44  C   UNL A   1      46.266  24.705  28.514  1.00  0.00     0.029 A 
ATOM     45  C   UNL A   1      45.967  26.040  29.020  1.00  0.00     0.049 A 
ATOM     46  H   UNL A   1      44.113  26.988  29.087  1.00  0.00     0.167 HD
ATOM     47  C   UNL A   1      40.159  28.843  29.194  1.00  0.00     0.031 A 
ATOM     48  C   UNL A   1      46.868  26.896  29.536  1.00  0.00     0.031 A 
ATOM     49  C   UNL A   1      41.031  29.789  29.836  1.00  0.00     0.049 A 
ATOM     50  C   UNL A   1      46.399  28.218  30.072  1.00  0.00     0.074 A 
ATOM     51  C   UNL A   1      40.716  31.018  30.389  1.00  0.00     0.029 A 
ATOM     52  N   UNL A   1      42.395  29.610  30.009  1.00  0.00    -0.354 N 
ATOM     53  N   UNL A   1      45.186  28.717  30.092  1.00  0.00    -0.248 NA
ATOM     54  C   UNL A   1      47.420  29.082  30.679  1.00  0.00     0.031 C 
ATOM     55  C   UNL A   1      41.898  31.602  30.859  1.00  0.00     0.029 A 
ATOM     56  C   UNL A   1      42.940  30.714  30.645  1.00  0.00     0.049 A 
ATOM     57  H   UNL A   1      42.902  28.816  29.722  1.00  0.00     0.167 HD
ATOM     58  C   UNL A   1      45.294  29.943  30.736  1.00  0.00     0.074 A 
ATOM     59  C   UNL A   1      46.686  30.100  31.107  1.00  0.00     0.031 C 
ATOM     60  C   UNL A   1      44.327  30.857  30.997  1.00  0.00     0.031 A 
BRANCH  47  61
ATOM     61  C   UNL A   1      38.715  29.211  29.000  1.00  0.00    -0.014 A 
ATOM     62  C   UNL A   1      38.252  29.720  27.775  1.00  0.00     0.009 A 
ATOM     63  C   UNL A   1      37.800  29.029  30.049  1.00  0.00     0.009 A 
ATOM     64  C   UNL A   1      36.910  30.077  27.619  1.00  0.00     0.001 A 
ATOM     65  C   UNL A   1      36.454  29.360  29.879  1.00  0.00     0.001 A 
ATOM     66  C   UNL A   1      36.013  29.894  28.669  1.00  0.00     0.000 A 
ENDBRANCH  47  61
BRANCH  48  67
ATOM     67  C   UNL A   1      48.298  26.502  29.623  1.00  0.00    -0.014 A 
ATOM     68  C   UNL A   1      48.770  25.775  30.727  1.00  0.00     0.009 A 
ATOM     69  C   UNL A   1      49.195  26.843  28.599  1.00  0.00     0.009 A 
ATOM     70  C   UNL A   1      50.117  25.419  30.816  1.00  0.00     0.001 A 
ATOM     71  C   UNL A   1      50.537  26.462  28.679  1.00  0.00     0.001 A 
ATOM     72  C   UNL A   1      50.998  25.759  29.792  1.00  0.00     0.000 A 
ENDBRANCH  48  67
BRANCH  60  73
ATOM     73  C   UNL A   1      44.745  32.093  31.741  1.00  0.00    -0.014 A 
ATOM     74  C   UNL A   1      45.171  33.245  31.062  1.00  0.00     0.009 A 
ATOM     75  C   UNL A   1      44.696  32.108  33.143  1.00  0.00     0.009 A 
ATOM     76  C   UNL A   1      45.581  34.373  31.775  1.00  0.00     0.001 A 
ATOM     77  C   UNL A   1      45.079  33.247  33.852  1.00  0.00     0.001 A 
ATOM     78  C   UNL A   1      45.532  34.374  33.168  1.00  0.00     0.000 A 
ENDBRANCH  60  73
ENDBRANCH  34  35
ENDBRANCH  26  29
ENDBRANCH  24  25
ENDBRANCH  23  24
ENDBRANCH  22  23
ENDBRANCH   1  22
TORSDOF 16
ENDMDL
