MODEL 1
REMARK VINA RESULT:     -12.0      0.000      0.000
REMARK SMILES CC1(C)C[C@@H](Nc2ccc(Cl)c(C(=O)NCCCCNC(=O)c3ccc(-c4c5nc(c(-c6ccccc6)c6ccc([nH]6)c(-c6ccccc6)c6nc(c(-c7ccccc7)c7ccc4[nH]7)C=C6)C=C5)cc3)c2)C(C)(C)O1
REMARK SMILES IDX 17 1 16 2 15 3 13 4 14 5 12 7 7 8 8 9 71 10 9 11 10 12 11 13
REMARK SMILES IDX 6 14 5 16 1 17 2 18 3 19 4 20 75 21 72 22 73 23 74 24 18 25
REMARK SMILES IDX 19 26 20 27 21 28 22 30 23 31 24 32 70 33 25 34 69 35 26 36
REMARK SMILES IDX 27 37 28 38 63 39 29 40 68 41 62 42 64 43 30 44 67 45 61 46
REMARK SMILES IDX 60 47 31 49 53 50 38 51 52 52 39 53 42 54 51 55 65 56 40 57
REMARK SMILES IDX 41 58 50 60 66 61 43 62 32 63 33 64 37 65 34 66 36 67 35 68
REMARK SMILES IDX 54 69 55 70 59 71 56 72 58 73 57 74 44 75 45 76 49 77 46 78
REMARK SMILES IDX 48 79 47 80
REMARK H PARENT 15 6 6 15 20 29 64 48 42 59
REMARK Flexibility Score: inf
ROOT
ATOM      1  C   UNL A   1      36.640  20.281  25.014  1.00  0.00     0.023 C 
ENDROOT
BRANCH   1   2
ATOM      2  C   UNL A   1      36.402  21.668  25.592  1.00  0.00     0.116 C 
BRANCH   2   3
ATOM      3  N   UNL A   1      35.366  21.754  26.602  1.00  0.00    -0.352 N 
ATOM      4  C   UNL A   1      34.024  21.452  26.525  1.00  0.00     0.252 C 
ATOM      5  O   UNL A   1      33.352  21.533  27.554  1.00  0.00    -0.269 OA
ATOM      6  H   UNL A   1      35.669  22.080  27.481  1.00  0.00     0.163 HD
BRANCH   4   7
ATOM      7  C   UNL A   1      33.334  21.144  25.242  1.00  0.00     0.060 A 
ATOM      8  C   UNL A   1      32.280  22.103  23.250  1.00  0.00     0.035 A 
ATOM      9  C   UNL A   1      32.145  20.816  22.729  1.00  0.00     0.027 A 
ATOM     10  C   UNL A   1      32.946  22.261  24.471  1.00  0.00     0.041 A 
ATOM     11  C   UNL A   1      32.467  19.704  23.499  1.00  0.00     0.023 A 
ATOM     12  C   UNL A   1      32.961  19.872  24.795  1.00  0.00     0.053 A 
ATOM     13  Cl  UNL A   1      32.861  18.480  25.816  1.00  0.00    -0.083 Cl
BRANCH   8  14
ATOM     14  N   UNL A   1      31.588  23.171  22.683  1.00  0.00    -0.379 N 
ATOM     15  H   UNL A   1      31.122  23.089  21.819  1.00  0.00     0.160 HD
BRANCH  14  16
ATOM     16  C   UNL A   1      31.591  24.425  23.447  1.00  0.00     0.113 C 
ATOM     17  C   UNL A   1      29.411  27.425  23.482  1.00  0.00     0.042 C 
ATOM     18  C   UNL A   1      30.515  26.472  23.933  1.00  0.00     0.065 C 
ATOM     19  C   UNL A   1      30.753  26.637  25.440  1.00  0.00     0.042 C 
ATOM     20  C   UNL A   1      30.207  25.031  23.539  1.00  0.00     0.062 C 
ATOM     21  O   UNL A   1      31.737  26.811  23.249  1.00  0.00    -0.367 OA
ATOM     22  C   UNL A   1      32.427  25.590  22.865  1.00  0.00     0.083 C 
ATOM     23  C   UNL A   1      32.534  25.615  21.340  1.00  0.00     0.044 C 
ATOM     24  C   UNL A   1      33.828  25.635  23.480  1.00  0.00     0.044 C 
ENDBRANCH  14  16
ENDBRANCH   8  14
ENDBRANCH   4   7
ENDBRANCH   2   3
ENDBRANCH   1   2
BRANCH   1  25
ATOM     25  C   UNL A   1      38.087  19.910  24.698  1.00  0.00     0.023 C 
BRANCH  25  26
ATOM     26  C   UNL A   1      39.102  20.070  25.825  1.00  0.00     0.116 C 
BRANCH  26  27
ATOM     27  N   UNL A   1      40.168  19.079  25.816  1.00  0.00    -0.352 N 
ATOM     28  C   UNL A   1      41.508  19.210  26.099  1.00  0.00     0.251 C 
ATOM     29  H   UNL A   1      39.884  18.170  25.568  1.00  0.00     0.163 HD
ATOM     30  O   UNL A   1      42.256  18.245  25.957  1.00  0.00    -0.269 OA
BRANCH  28  31
ATOM     31  C   UNL A   1      42.068  20.510  26.528  1.00  0.00     0.039 A 
ATOM     32  C   UNL A   1      42.481  21.417  25.547  1.00  0.00     0.014 A 
ATOM     33  C   UNL A   1      42.183  20.849  27.877  1.00  0.00     0.014 A 
ATOM     34  C   UNL A   1      42.926  22.688  25.919  1.00  0.00     0.010 A 
ATOM     35  C   UNL A   1      42.533  22.148  28.241  1.00  0.00     0.010 A 
ATOM     36  C   UNL A   1      42.911  23.083  27.268  1.00  0.00    -0.014 A 
BRANCH  36  37
ATOM     37  C   UNL A   1      43.275  24.471  27.657  1.00  0.00     0.031 A 
ATOM     38  C   UNL A   1      44.709  24.926  27.632  1.00  0.00     0.074 A 
ATOM     39  C   UNL A   1      42.311  25.318  28.067  1.00  0.00     0.049 A 
ATOM     40  N   UNL A   1      45.202  26.112  27.895  1.00  0.00    -0.248 NA
ATOM     41  C   UNL A   1      45.726  23.918  27.293  1.00  0.00     0.031 C 
ATOM     42  C   UNL A   1      40.890  24.988  28.196  1.00  0.00     0.029 A 
ATOM     43  N   UNL A   1      42.377  26.639  28.438  1.00  0.00    -0.354 N 
ATOM     44  C   UNL A   1      46.579  25.986  27.760  1.00  0.00     0.074 A 
ATOM     45  C   UNL A   1      46.849  24.599  27.459  1.00  0.00     0.031 C 
ATOM     46  C   UNL A   1      40.213  26.087  28.563  1.00  0.00     0.029 A 
ATOM     47  C   UNL A   1      41.153  27.190  28.733  1.00  0.00     0.049 A 
ATOM     48  H   UNL A   1      43.222  27.143  28.489  1.00  0.00     0.167 HD
ATOM     49  C   UNL A   1      47.534  26.943  27.853  1.00  0.00     0.031 A 
ATOM     50  C   UNL A   1      40.819  28.445  29.089  1.00  0.00     0.031 A 
ATOM     51  C   UNL A   1      47.268  28.324  28.156  1.00  0.00     0.049 A 
ATOM     52  C   UNL A   1      41.896  29.489  29.189  1.00  0.00     0.074 A 
ATOM     53  C   UNL A   1      48.160  29.382  28.221  1.00  0.00     0.029 A 
ATOM     54  N   UNL A   1      46.015  28.840  28.453  1.00  0.00    -0.354 N 
ATOM     55  N   UNL A   1      43.185  29.373  28.974  1.00  0.00    -0.248 NA
ATOM     56  C   UNL A   1      41.467  30.844  29.564  1.00  0.00     0.031 C 
ATOM     57  C   UNL A   1      47.456  30.524  28.614  1.00  0.00     0.029 A 
ATOM     58  C   UNL A   1      46.115  30.195  28.726  1.00  0.00     0.049 A 
ATOM     59  H   UNL A   1      45.180  28.320  28.468  1.00  0.00     0.167 HD
ATOM     60  C   UNL A   1      43.715  30.644  29.154  1.00  0.00     0.074 A 
ATOM     61  C   UNL A   1      42.605  31.518  29.478  1.00  0.00     0.031 C 
ATOM     62  C   UNL A   1      45.004  31.051  29.054  1.00  0.00     0.031 A 
BRANCH  49  63
ATOM     63  C   UNL A   1      48.962  26.518  27.628  1.00  0.00    -0.014 A 
ATOM     64  C   UNL A   1      49.781  26.121  28.698  1.00  0.00     0.009 A 
ATOM     65  C   UNL A   1      49.489  26.492  26.328  1.00  0.00     0.009 A 
ATOM     66  C   UNL A   1      51.110  25.752  28.475  1.00  0.00     0.001 A 
ATOM     67  C   UNL A   1      50.807  26.090  26.104  1.00  0.00     0.001 A 
ATOM     68  C   UNL A   1      51.620  25.732  27.178  1.00  0.00     0.000 A 
ENDBRANCH  49  63
BRANCH  50  69
ATOM     69  C   UNL A   1      39.395  28.795  29.337  1.00  0.00    -0.014 A 
ATOM     70  C   UNL A   1      38.836  28.645  30.616  1.00  0.00     0.009 A 
ATOM     71  C   UNL A   1      38.588  29.282  28.297  1.00  0.00     0.009 A 
ATOM     72  C   UNL A   1      37.492  28.950  30.842  1.00  0.00     0.001 A 
ATOM     73  C   UNL A   1      37.252  29.615  28.534  1.00  0.00     0.001 A 
ATOM     74  C   UNL A   1      36.703  29.440  29.803  1.00  0.00     0.000 A 
ENDBRANCH  50  69
BRANCH  62  75
ATOM     75  C   UNL A   1      45.278  32.517  29.256  1.00  0.00    -0.014 A 
ATOM     76  C   UNL A   1      45.170  33.439  28.203  1.00  0.00     0.009 A 
ATOM     77  C   UNL A   1      45.630  32.984  30.534  1.00  0.00     0.009 A 
ATOM     78  C   UNL A   1      45.452  34.790  28.416  1.00  0.00     0.001 A 
ATOM     79  C   UNL A   1      45.876  34.339  30.750  1.00  0.00     0.001 A 
ATOM     80  C   UNL A   1      45.800  35.239  29.689  1.00  0.00     0.000 A 
ENDBRANCH  62  75
ENDBRANCH  36  37
ENDBRANCH  28  31
ENDBRANCH  26  27
ENDBRANCH  25  26
ENDBRANCH   1  25
TORSDOF 13
ENDMDL
MODEL 2
REMARK VINA RESULT:     -11.9      4.746      9.746
REMARK SMILES CC1(C)C[C@@H](Nc2ccc(Cl)c(C(=O)NCCCCNC(=O)c3ccc(-c4c5nc(c(-c6ccccc6)c6ccc([nH]6)c(-c6ccccc6)c6nc(c(-c7ccccc7)c7ccc4[nH]7)C=C6)C=C5)cc3)c2)C(C)(C)O1
REMARK SMILES IDX 17 1 16 2 15 3 13 4 14 5 12 7 7 8 8 9 71 10 9 11 10 12 11 13
REMARK SMILES IDX 6 14 5 16 1 17 2 18 3 19 4 20 75 21 72 22 73 23 74 24 18 25
REMARK SMILES IDX 19 26 20 27 21 28 22 30 23 31 24 32 70 33 25 34 69 35 26 36
REMARK SMILES IDX 27 37 28 38 63 39 29 40 68 41 62 42 64 43 30 44 67 45 61 46
REMARK SMILES IDX 60 47 31 49 53 50 38 51 52 52 39 53 42 54 51 55 65 56 40 57
REMARK SMILES IDX 41 58 50 60 66 61 43 62 32 63 33 64 37 65 34 66 36 67 35 68
REMARK SMILES IDX 54 69 55 70 59 71 56 72 58 73 57 74 44 75 45 76 49 77 46 78
REMARK SMILES IDX 48 79 47 80
REMARK H PARENT 15 6 6 15 20 29 64 48 42 59
REMARK Flexibility Score: inf
ROOT
ATOM      1  C   UNL A   1      31.497  30.486  25.691  1.00  0.00     0.023 C 
ENDROOT
BRANCH   1   2
ATOM      2  C   UNL A   1      32.839  29.770  25.648  1.00  0.00     0.116 C 
BRANCH   2   3
ATOM      3  N   UNL A   1      33.333  29.447  24.324  1.00  0.00    -0.352 N 
ATOM      4  C   UNL A   1      32.694  28.848  23.261  1.00  0.00     0.252 C 
ATOM      5  O   UNL A   1      33.307  28.750  22.197  1.00  0.00    -0.269 OA
ATOM      6  H   UNL A   1      34.272  29.694  24.160  1.00  0.00     0.163 HD
BRANCH   4   7
ATOM      7  C   UNL A   1      31.349  28.218  23.372  1.00  0.00     0.060 A 
ATOM      8  C   UNL A   1      30.122  26.217  24.069  1.00  0.00     0.035 A 
ATOM      9  C   UNL A   1      28.926  26.886  23.808  1.00  0.00     0.027 A 
ATOM     10  C   UNL A   1      31.324  26.919  23.922  1.00  0.00     0.041 A 
ATOM     11  C   UNL A   1      28.935  28.141  23.211  1.00  0.00     0.023 A 
ATOM     12  C   UNL A   1      30.148  28.757  22.897  1.00  0.00     0.053 A 
ATOM     13  Cl  UNL A   1      30.056  30.043  21.745  1.00  0.00    -0.083 Cl
BRANCH   8  14
ATOM     14  N   UNL A   1      30.132  24.837  24.262  1.00  0.00    -0.379 N 
ATOM     15  H   UNL A   1      29.301  24.320  24.369  1.00  0.00     0.160 HD
BRANCH  14  16
ATOM     16  C   UNL A   1      31.453  24.196  24.293  1.00  0.00     0.113 C 
ATOM     17  C   UNL A   1      32.670  20.767  23.574  1.00  0.00     0.042 C 
ATOM     18  C   UNL A   1      32.745  22.259  23.887  1.00  0.00     0.065 C 
ATOM     19  C   UNL A   1      34.065  22.831  23.351  1.00  0.00     0.042 C 
ATOM     20  C   UNL A   1      31.523  23.005  23.362  1.00  0.00     0.062 C 
ATOM     21  O   UNL A   1      32.729  22.441  25.316  1.00  0.00    -0.367 OA
ATOM     22  C   UNL A   1      31.898  23.588  25.644  1.00  0.00     0.083 C 
ATOM     23  C   UNL A   1      30.763  23.063  26.526  1.00  0.00     0.044 C 
ATOM     24  C   UNL A   1      32.757  24.571  26.444  1.00  0.00     0.044 C 
ENDBRANCH  14  16
ENDBRANCH   8  14
ENDBRANCH   4   7
ENDBRANCH   2   3
ENDBRANCH   1   2
BRANCH   1  25
ATOM     25  C   UNL A   1      31.348  31.600  26.725  1.00  0.00     0.023 C 
BRANCH  25  26
ATOM     26  C   UNL A   1      32.601  32.404  27.059  1.00  0.00     0.116 C 
BRANCH  26  27
ATOM     27  N   UNL A   1      32.336  33.751  27.541  1.00  0.00    -0.352 N 
ATOM     28  C   UNL A   1      33.054  34.544  28.406  1.00  0.00     0.251 C 
ATOM     29  H   UNL A   1      31.511  34.160  27.193  1.00  0.00     0.163 HD
ATOM     30  O   UNL A   1      32.607  35.639  28.741  1.00  0.00    -0.269 OA
BRANCH  28  31
ATOM     31  C   UNL A   1      34.338  34.076  28.975  1.00  0.00     0.039 A 
ATOM     32  C   UNL A   1      34.313  33.333  30.159  1.00  0.00     0.014 A 
ATOM     33  C   UNL A   1      35.557  34.352  28.354  1.00  0.00     0.014 A 
ATOM     34  C   UNL A   1      35.499  32.799  30.668  1.00  0.00     0.010 A 
ATOM     35  C   UNL A   1      36.723  33.738  28.808  1.00  0.00     0.010 A 
ATOM     36  C   UNL A   1      36.710  32.956  29.971  1.00  0.00    -0.014 A 
BRANCH  36  37
ATOM     37  C   UNL A   1      37.952  32.293  30.449  1.00  0.00     0.031 A 
ATOM     38  C   UNL A   1      38.726  32.854  31.611  1.00  0.00     0.074 A 
ATOM     39  C   UNL A   1      38.405  31.196  29.810  1.00  0.00     0.049 A 
ATOM     40  N   UNL A   1      39.803  32.382  32.189  1.00  0.00    -0.248 NA
ATOM     41  C   UNL A   1      38.245  34.121  32.186  1.00  0.00     0.031 C 
ATOM     42  C   UNL A   1      37.786  30.584  28.633  1.00  0.00     0.029 A 
ATOM     43  N   UNL A   1      39.487  30.391  30.070  1.00  0.00    -0.354 N 
ATOM     44  C   UNL A   1      40.129  33.296  33.184  1.00  0.00     0.074 A 
ATOM     45  C   UNL A   1      39.178  34.381  33.089  1.00  0.00     0.031 C 
ATOM     46  C   UNL A   1      38.463  29.472  28.306  1.00  0.00     0.029 A 
ATOM     47  C   UNL A   1      39.587  29.313  29.224  1.00  0.00     0.049 A 
ATOM     48  H   UNL A   1      40.131  30.570  30.794  1.00  0.00     0.167 HD
ATOM     49  C   UNL A   1      41.114  33.228  34.112  1.00  0.00     0.031 A 
ATOM     50  C   UNL A   1      40.474  28.300  29.195  1.00  0.00     0.031 A 
ATOM     51  C   UNL A   1      42.063  32.152  34.207  1.00  0.00     0.049 A 
ATOM     52  C   UNL A   1      41.561  28.249  30.232  1.00  0.00     0.074 A 
ATOM     53  C   UNL A   1      43.067  31.964  35.142  1.00  0.00     0.029 A 
ATOM     54  N   UNL A   1      42.132  31.082  33.327  1.00  0.00    -0.354 N 
ATOM     55  N   UNL A   1      41.803  29.076  31.220  1.00  0.00    -0.248 NA
ATOM     56  C   UNL A   1      42.487  27.109  30.159  1.00  0.00     0.031 C 
ATOM     57  C   UNL A   1      43.779  30.813  34.795  1.00  0.00     0.029 A 
ATOM     58  C   UNL A   1      43.177  30.244  33.684  1.00  0.00     0.049 A 
ATOM     59  H   UNL A   1      41.530  30.939  32.562  1.00  0.00     0.167 HD
ATOM     60  C   UNL A   1      42.886  28.541  31.906  1.00  0.00     0.074 A 
ATOM     61  C   UNL A   1      43.241  27.309  31.231  1.00  0.00     0.031 C 
ATOM     62  C   UNL A   1      43.524  29.024  33.000  1.00  0.00     0.031 A 
BRANCH  49  63
ATOM     63  C   UNL A   1      41.214  34.364  35.097  1.00  0.00    -0.014 A 
ATOM     64  C   UNL A   1      40.519  34.333  36.318  1.00  0.00     0.009 A 
ATOM     65  C   UNL A   1      42.030  35.469  34.812  1.00  0.00     0.009 A 
ATOM     66  C   UNL A   1      40.604  35.405  37.210  1.00  0.00     0.001 A 
ATOM     67  C   UNL A   1      42.140  36.524  35.721  1.00  0.00     0.001 A 
ATOM     68  C   UNL A   1      41.419  36.496  36.912  1.00  0.00     0.000 A 
ENDBRANCH  49  63
BRANCH  50  69
ATOM     69  C   UNL A   1      40.347  27.228  28.173  1.00  0.00    -0.014 A 
ATOM     70  C   UNL A   1      39.568  26.088  28.428  1.00  0.00     0.009 A 
ATOM     71  C   UNL A   1      41.002  27.338  26.936  1.00  0.00     0.009 A 
ATOM     72  C   UNL A   1      39.470  25.069  27.478  1.00  0.00     0.001 A 
ATOM     73  C   UNL A   1      40.877  26.331  25.976  1.00  0.00     0.001 A 
ATOM     74  C   UNL A   1      40.119  25.194  26.251  1.00  0.00     0.000 A 
ENDBRANCH  50  69
BRANCH  62  75
ATOM     75  C   UNL A   1      44.647  28.195  33.561  1.00  0.00    -0.014 A 
ATOM     76  C   UNL A   1      44.416  27.188  34.511  1.00  0.00     0.009 A 
ATOM     77  C   UNL A   1      45.960  28.415  33.109  1.00  0.00     0.009 A 
ATOM     78  C   UNL A   1      45.482  26.449  35.029  1.00  0.00     0.001 A 
ATOM     79  C   UNL A   1      47.017  27.651  33.604  1.00  0.00     0.001 A 
ATOM     80  C   UNL A   1      46.779  26.678  34.573  1.00  0.00     0.000 A 
ENDBRANCH  62  75
ENDBRANCH  36  37
ENDBRANCH  28  31
ENDBRANCH  26  27
ENDBRANCH  25  26
ENDBRANCH   1  25
TORSDOF 13
ENDMDL
MODEL 3
REMARK VINA RESULT:     -11.8      4.714      9.746
REMARK SMILES CC1(C)C[C@@H](Nc2ccc(Cl)c(C(=O)NCCCCNC(=O)c3ccc(-c4c5nc(c(-c6ccccc6)c6ccc([nH]6)c(-c6ccccc6)c6nc(c(-c7ccccc7)c7ccc4[nH]7)C=C6)C=C5)cc3)c2)C(C)(C)O1
REMARK SMILES IDX 17 1 16 2 15 3 13 4 14 5 12 7 7 8 8 9 71 10 9 11 10 12 11 13
REMARK SMILES IDX 6 14 5 16 1 17 2 18 3 19 4 20 75 21 72 22 73 23 74 24 18 25
REMARK SMILES IDX 19 26 20 27 21 28 22 30 23 31 24 32 70 33 25 34 69 35 26 36
REMARK SMILES IDX 27 37 28 38 63 39 29 40 68 41 62 42 64 43 30 44 67 45 61 46
REMARK SMILES IDX 60 47 31 49 53 50 38 51 52 52 39 53 42 54 51 55 65 56 40 57
REMARK SMILES IDX 41 58 50 60 66 61 43 62 32 63 33 64 37 65 34 66 36 67 35 68
REMARK SMILES IDX 54 69 55 70 59 71 56 72 58 73 57 74 44 75 45 76 49 77 46 78
REMARK SMILES IDX 48 79 47 80
REMARK H PARENT 15 6 6 15 20 29 64 48 42 59
REMARK Flexibility Score: inf
ROOT
ATOM      1  C   UNL A   1      31.640  30.590  25.829  1.00  0.00     0.023 C 
ENDROOT
BRANCH   1   2
ATOM      2  C   UNL A   1      32.960  29.879  26.088  1.00  0.00     0.116 C 
BRANCH   2   3
ATOM      3  N   UNL A   1      33.579  29.268  24.928  1.00  0.00    -0.352 N 
ATOM      4  C   UNL A   1      33.326  28.058  24.321  1.00  0.00     0.252 C 
ATOM      5  O   UNL A   1      33.937  27.790  23.286  1.00  0.00    -0.269 OA
ATOM      6  H   UNL A   1      34.293  29.802  24.509  1.00  0.00     0.163 HD
BRANCH   4   7
ATOM      7  C   UNL A   1      32.437  27.022  24.916  1.00  0.00     0.060 A 
ATOM      8  C   UNL A   1      32.366  24.872  26.087  1.00  0.00     0.035 A 
ATOM      9  C   UNL A   1      30.984  25.015  26.218  1.00  0.00     0.027 A 
ATOM     10  C   UNL A   1      33.091  25.918  25.504  1.00  0.00     0.041 A 
ATOM     11  C   UNL A   1      30.320  26.064  25.594  1.00  0.00     0.023 A 
ATOM     12  C   UNL A   1      31.039  27.005  24.854  1.00  0.00     0.053 A 
ATOM     13  Cl  UNL A   1      30.110  27.948  23.743  1.00  0.00    -0.083 Cl
BRANCH   8  14
ATOM     14  N   UNL A   1      32.976  23.643  26.331  1.00  0.00    -0.379 N 
ATOM     15  H   UNL A   1      33.326  23.404  27.220  1.00  0.00     0.160 HD
BRANCH  14  16
ATOM     16  C   UNL A   1      33.063  22.724  25.190  1.00  0.00     0.113 C 
ATOM     17  C   UNL A   1      32.637  19.062  24.791  1.00  0.00     0.042 C 
ATOM     18  C   UNL A   1      32.824  20.518  24.376  1.00  0.00     0.065 C 
ATOM     19  C   UNL A   1      32.245  20.731  22.970  1.00  0.00     0.042 C 
ATOM     20  C   UNL A   1      32.235  21.476  25.406  1.00  0.00     0.062 C 
ATOM     21  O   UNL A   1      34.233  20.816  24.327  1.00  0.00    -0.367 OA
ATOM     22  C   UNL A   1      34.462  22.145  24.871  1.00  0.00     0.083 C 
ATOM     23  C   UNL A   1      35.382  21.964  26.080  1.00  0.00     0.044 C 
ATOM     24  C   UNL A   1      35.179  22.969  23.799  1.00  0.00     0.044 C 
ENDBRANCH  14  16
ENDBRANCH   8  14
ENDBRANCH   4   7
ENDBRANCH   2   3
ENDBRANCH   1   2
BRANCH   1  25
ATOM     25  C   UNL A   1      31.390  31.877  26.610  1.00  0.00     0.023 C 
BRANCH  25  26
ATOM     26  C   UNL A   1      32.610  32.563  27.218  1.00  0.00     0.116 C 
BRANCH  26  27
ATOM     27  N   UNL A   1      32.362  33.917  27.691  1.00  0.00    -0.352 N 
ATOM     28  C   UNL A   1      33.089  34.706  28.551  1.00  0.00     0.251 C 
ATOM     29  H   UNL A   1      31.543  34.333  27.338  1.00  0.00     0.163 HD
ATOM     30  O   UNL A   1      32.655  35.809  28.878  1.00  0.00    -0.269 OA
BRANCH  28  31
ATOM     31  C   UNL A   1      34.365  34.226  29.125  1.00  0.00     0.039 A 
ATOM     32  C   UNL A   1      34.324  33.425  30.271  1.00  0.00     0.014 A 
ATOM     33  C   UNL A   1      35.595  34.545  28.546  1.00  0.00     0.014 A 
ATOM     34  C   UNL A   1      35.506  32.880  30.780  1.00  0.00     0.010 A 
ATOM     35  C   UNL A   1      36.758  33.923  28.995  1.00  0.00     0.010 A 
ATOM     36  C   UNL A   1      36.729  33.085  30.119  1.00  0.00    -0.014 A 
BRANCH  36  37
ATOM     37  C   UNL A   1      37.968  32.414  30.591  1.00  0.00     0.031 A 
ATOM     38  C   UNL A   1      38.745  32.963  31.758  1.00  0.00     0.074 A 
ATOM     39  C   UNL A   1      38.418  31.321  29.944  1.00  0.00     0.049 A 
ATOM     40  N   UNL A   1      39.820  32.482  32.333  1.00  0.00    -0.248 NA
ATOM     41  C   UNL A   1      38.268  34.227  32.343  1.00  0.00     0.031 C 
ATOM     42  C   UNL A   1      37.797  30.719  28.762  1.00  0.00     0.029 A 
ATOM     43  N   UNL A   1      39.497  30.510  30.198  1.00  0.00    -0.354 N 
ATOM     44  C   UNL A   1      40.149  33.387  33.335  1.00  0.00     0.074 A 
ATOM     45  C   UNL A   1      39.202  34.476  33.248  1.00  0.00     0.031 C 
ATOM     46  C   UNL A   1      38.470  29.608  28.427  1.00  0.00     0.029 A 
ATOM     47  C   UNL A   1      39.593  29.438  29.343  1.00  0.00     0.049 A 
ATOM     48  H   UNL A   1      40.141  30.680  30.923  1.00  0.00     0.167 HD
ATOM     49  C   UNL A   1      41.134  33.308  34.262  1.00  0.00     0.031 A 
ATOM     50  C   UNL A   1      40.476  28.422  29.307  1.00  0.00     0.031 A 
ATOM     51  C   UNL A   1      42.079  32.228  34.348  1.00  0.00     0.049 A 
ATOM     52  C   UNL A   1      41.563  28.358  30.343  1.00  0.00     0.074 A 
ATOM     53  C   UNL A   1      43.082  32.029  35.283  1.00  0.00     0.029 A 
ATOM     54  N   UNL A   1      42.144  31.164  33.460  1.00  0.00    -0.354 N 
ATOM     55  N   UNL A   1      41.808  29.177  31.338  1.00  0.00    -0.248 NA
ATOM     56  C   UNL A   1      42.485  27.216  30.261  1.00  0.00     0.031 C 
ATOM     57  C   UNL A   1      43.789  30.877  34.926  1.00  0.00     0.029 A 
ATOM     58  C   UNL A   1      43.186  30.320  33.811  1.00  0.00     0.049 A 
ATOM     59  H   UNL A   1      41.541  31.030  32.695  1.00  0.00     0.167 HD
ATOM     60  C   UNL A   1      42.889  28.632  32.019  1.00  0.00     0.074 A 
ATOM     61  C   UNL A   1      43.240  27.405  31.334  1.00  0.00     0.031 C 
ATOM     62  C   UNL A   1      43.529  29.105  33.117  1.00  0.00     0.031 A 
BRANCH  49  63
ATOM     63  C   UNL A   1      41.237  34.436  35.256  1.00  0.00    -0.014 A 
ATOM     64  C   UNL A   1      42.069  35.543  35.018  1.00  0.00     0.009 A 
ATOM     65  C   UNL A   1      40.478  34.403  36.435  1.00  0.00     0.009 A 
ATOM     66  C   UNL A   1      42.172  36.569  35.961  1.00  0.00     0.001 A 
ATOM     67  C   UNL A   1      40.556  35.446  37.360  1.00  0.00     0.001 A 
ATOM     68  C   UNL A   1      41.411  36.521  37.128  1.00  0.00     0.000 A 
ENDBRANCH  49  63
BRANCH  50  69
ATOM     69  C   UNL A   1      40.345  27.358  28.275  1.00  0.00    -0.014 A 
ATOM     70  C   UNL A   1      39.586  26.205  28.532  1.00  0.00     0.009 A 
ATOM     71  C   UNL A   1      40.977  27.489  27.029  1.00  0.00     0.009 A 
ATOM     72  C   UNL A   1      39.485  25.195  27.574  1.00  0.00     0.001 A 
ATOM     73  C   UNL A   1      40.848  26.491  26.061  1.00  0.00     0.001 A 
ATOM     74  C   UNL A   1      40.111  25.341  26.337  1.00  0.00     0.000 A 
ENDBRANCH  50  69
BRANCH  62  75
ATOM     75  C   UNL A   1      44.649  28.267  33.671  1.00  0.00    -0.014 A 
ATOM     76  C   UNL A   1      45.981  28.461  33.273  1.00  0.00     0.009 A 
ATOM     77  C   UNL A   1      44.364  27.279  34.629  1.00  0.00     0.009 A 
ATOM     78  C   UNL A   1      46.997  27.653  33.789  1.00  0.00     0.001 A 
ATOM     79  C   UNL A   1      45.386  26.498  35.168  1.00  0.00     0.001 A 
ATOM     80  C   UNL A   1      46.699  26.677  34.738  1.00  0.00     0.000 A 
ENDBRANCH  62  75
ENDBRANCH  36  37
ENDBRANCH  28  31
ENDBRANCH  26  27
ENDBRANCH  25  26
ENDBRANCH   1  25
TORSDOF 13
ENDMDL
