MODEL 1
REMARK VINA RESULT:     -13.2      0.000      0.000
REMARK SMILES Cc1ccc(C(=O)NC2CC2)cc1NC(=O)[C@@H]1[C@@H](C(=O)NCCCCNC(=O)c2ccc(-c3c4nc(c(-c5ccccc5)c5ccc([nH]5)c(-c5ccccc5)c5nc(c(-c6ccccc6)c6ccc3[nH]6)C=C5)C=C4)cc2)[C@H]2C=C[C@@H]1C2
REMARK SMILES IDX 22 1 21 2 19 3 20 4 18 6 17 7 80 8 77 9 79 10 81 11 78 12
REMARK SMILES IDX 15 13 14 14 16 16 13 17 1 18 2 19 3 20 4 21 12 22 5 23 6 24
REMARK SMILES IDX 7 25 8 26 9 28 10 29 11 30 23 31 24 32 25 33 26 34 27 35
REMARK SMILES IDX 28 37 29 38 30 39 76 40 31 41 75 42 32 43 33 44 34 45 69 46
REMARK SMILES IDX 35 47 74 48 68 49 70 50 36 51 73 52 67 53 66 54 37 56 59 57
REMARK SMILES IDX 44 58 58 59 45 60 48 61 57 62 71 63 46 64 47 65 56 67 72 68
REMARK SMILES IDX 49 69 38 70 39 71 43 72 40 73 42 74 41 75 60 76 61 77 65 78
REMARK SMILES IDX 62 79 64 80 63 81 50 82 51 83 55 84 52 85 54 86 53 87
REMARK H PARENT 21 5 14 15 8 27 26 36 70 55 48 66
REMARK Flexibility Score: inf
ROOT
ATOM      1  C   UNL A   1      32.065  29.230  25.416  1.00  0.00     0.116 C 
ENDROOT
BRANCH   1   2
ATOM      2  N   UNL A   1      32.970  28.109  25.578  1.00  0.00    -0.356 N 
ATOM      3  C   UNL A   1      32.821  26.765  25.525  1.00  0.00     0.224 C 
ATOM      4  O   UNL A   1      33.838  26.118  25.812  1.00  0.00    -0.275 OA
ATOM      5  H   UNL A   1      33.895  28.385  25.770  1.00  0.00     0.163 HD
BRANCH   3   6
ATOM      6  C   UNL A   1      31.511  26.032  25.245  1.00  0.00     0.098 C 
ATOM      7  C   UNL A   1      31.814  24.474  25.151  1.00  0.00     0.099 C 
ATOM      8  C   UNL A   1      31.069  24.052  23.858  1.00  0.00     0.025 C 
ATOM      9  C   UNL A   1      30.749  26.266  23.924  1.00  0.00     0.025 C 
ATOM     10  C   UNL A   1      31.808  24.649  22.680  1.00  0.00    -0.027 C 
ATOM     11  C   UNL A   1      29.875  25.004  23.865  1.00  0.00     0.017 C 
ATOM     12  C   UNL A   1      31.638  25.978  22.736  1.00  0.00    -0.027 C 
BRANCH   7  13
ATOM     13  C   UNL A   1      31.374  23.655  26.353  1.00  0.00     0.228 C 
ATOM     14  N   UNL A   1      31.770  22.351  26.526  1.00  0.00    -0.326 N 
ATOM     15  H   UNL A   1      31.367  21.922  27.316  1.00  0.00     0.169 HD
ATOM     16  O   UNL A   1      30.574  24.112  27.176  1.00  0.00    -0.274 OA
BRANCH  14  17
ATOM     17  C   UNL A   1      32.634  21.495  25.804  1.00  0.00     0.044 A 
ATOM     18  C   UNL A   1      34.702  22.757  26.703  1.00  0.00     0.046 C 
ATOM     19  C   UNL A   1      34.028  21.642  25.947  1.00  0.00    -0.027 A 
ATOM     20  C   UNL A   1      34.876  20.710  25.325  1.00  0.00     0.006 A 
ATOM     21  C   UNL A   1      34.358  19.655  24.571  1.00  0.00     0.014 A 
ATOM     22  C   UNL A   1      32.151  20.508  24.926  1.00  0.00     0.040 A 
ATOM     23  C   UNL A   1      32.981  19.541  24.346  1.00  0.00     0.041 A 
BRANCH  23  24
ATOM     24  C   UNL A   1      32.533  18.392  23.490  1.00  0.00     0.251 C 
ATOM     25  O   UNL A   1      32.348  18.590  22.286  1.00  0.00    -0.269 OA
ATOM     26  N   UNL A   1      32.341  17.102  23.941  1.00  0.00    -0.349 N 
ATOM     27  H   UNL A   1      32.072  16.465  23.241  1.00  0.00     0.164 HD
BRANCH  26  28
ATOM     28  C   UNL A   1      32.462  16.532  25.232  1.00  0.00     0.082 C 
ATOM     29  C   UNL A   1      32.674  15.050  25.374  1.00  0.00     0.027 C 
ATOM     30  C   UNL A   1      33.764  16.003  25.764  1.00  0.00     0.027 C 
ENDBRANCH  26  28
ENDBRANCH  23  24
ENDBRANCH  14  17
ENDBRANCH   7  13
ENDBRANCH   3   6
ENDBRANCH   1   2
BRANCH   1  31
ATOM     31  C   UNL A   1      31.726  29.904  26.749  1.00  0.00     0.023 C 
BRANCH  31  32
ATOM     32  C   UNL A   1      32.576  31.131  27.088  1.00  0.00     0.023 C 
BRANCH  32  33
ATOM     33  C   UNL A   1      34.042  30.831  27.379  1.00  0.00     0.116 C 
BRANCH  33  34
ATOM     34  N   UNL A   1      34.634  31.650  28.429  1.00  0.00    -0.352 N 
ATOM     35  C   UNL A   1      35.746  31.404  29.226  1.00  0.00     0.251 C 
ATOM     36  H   UNL A   1      34.178  32.505  28.599  1.00  0.00     0.163 HD
ATOM     37  O   UNL A   1      36.075  32.202  30.079  1.00  0.00    -0.269 OA
BRANCH  35  38
ATOM     38  C   UNL A   1      36.610  30.228  28.934  1.00  0.00     0.039 A 
ATOM     39  C   UNL A   1      36.864  29.333  29.982  1.00  0.00     0.014 A 
ATOM     40  C   UNL A   1      37.315  30.117  27.741  1.00  0.00     0.014 A 
ATOM     41  C   UNL A   1      37.999  28.528  29.932  1.00  0.00     0.010 A 
ATOM     42  C   UNL A   1      38.494  29.399  27.727  1.00  0.00     0.010 A 
ATOM     43  C   UNL A   1      38.875  28.672  28.857  1.00  0.00    -0.014 A 
BRANCH  43  44
ATOM     44  C   UNL A   1      40.265  28.235  28.906  1.00  0.00     0.031 A 
ATOM     45  C   UNL A   1      40.661  26.919  28.373  1.00  0.00     0.074 A 
ATOM     46  C   UNL A   1      41.203  29.076  29.400  1.00  0.00     0.049 A 
ATOM     47  N   UNL A   1      41.665  26.229  28.801  1.00  0.00    -0.248 NA
ATOM     48  C   UNL A   1      39.904  26.250  27.321  1.00  0.00     0.031 C 
ATOM     49  C   UNL A   1      42.653  28.920  29.336  1.00  0.00     0.029 A 
ATOM     50  N   UNL A   1      41.020  30.153  30.274  1.00  0.00    -0.354 N 
ATOM     51  C   UNL A   1      41.876  25.214  27.893  1.00  0.00     0.074 A 
ATOM     52  C   UNL A   1      40.695  25.206  27.058  1.00  0.00     0.031 C 
ATOM     53  C   UNL A   1      43.202  29.622  30.342  1.00  0.00     0.029 A 
ATOM     54  C   UNL A   1      42.107  30.120  31.160  1.00  0.00     0.049 A 
ATOM     55  H   UNL A   1      40.280  30.801  30.268  1.00  0.00     0.167 HD
ATOM     56  C   UNL A   1      43.094  24.603  27.827  1.00  0.00     0.031 A 
ATOM     57  C   UNL A   1      41.976  29.923  32.505  1.00  0.00     0.031 A 
ATOM     58  C   UNL A   1      44.006  25.092  28.859  1.00  0.00     0.049 A 
ATOM     59  C   UNL A   1      42.755  28.725  33.008  1.00  0.00     0.074 A 
ATOM     60  C   UNL A   1      45.045  26.008  28.831  1.00  0.00     0.029 A 
ATOM     61  N   UNL A   1      43.720  24.860  30.199  1.00  0.00    -0.354 N 
ATOM     62  N   UNL A   1      43.192  27.769  32.237  1.00  0.00    -0.248 NA
ATOM     63  C   UNL A   1      43.032  28.470  34.421  1.00  0.00     0.031 C 
ATOM     64  C   UNL A   1      45.326  26.393  30.166  1.00  0.00     0.029 A 
ATOM     65  C   UNL A   1      44.478  25.689  31.003  1.00  0.00     0.049 A 
ATOM     66  H   UNL A   1      43.071  24.198  30.529  1.00  0.00     0.167 HD
ATOM     67  C   UNL A   1      43.785  26.800  33.001  1.00  0.00     0.074 A 
ATOM     68  C   UNL A   1      43.666  27.286  34.363  1.00  0.00     0.031 C 
ATOM     69  C   UNL A   1      44.314  25.671  32.449  1.00  0.00     0.031 A 
BRANCH  56  70
ATOM     70  C   UNL A   1      43.557  23.817  26.619  1.00  0.00    -0.014 A 
ATOM     71  C   UNL A   1      43.582  22.409  26.674  1.00  0.00     0.009 A 
ATOM     72  C   UNL A   1      44.045  24.388  25.432  1.00  0.00     0.009 A 
ATOM     73  C   UNL A   1      44.164  21.632  25.664  1.00  0.00     0.001 A 
ATOM     74  C   UNL A   1      44.665  23.621  24.434  1.00  0.00     0.001 A 
ATOM     75  C   UNL A   1      44.739  22.241  24.558  1.00  0.00     0.000 A 
ENDBRANCH  56  70
BRANCH  57  76
ATOM     76  C   UNL A   1      40.669  30.347  33.076  1.00  0.00    -0.014 A 
ATOM     77  C   UNL A   1      40.358  31.720  33.116  1.00  0.00     0.009 A 
ATOM     78  C   UNL A   1      39.632  29.420  33.252  1.00  0.00     0.009 A 
ATOM     79  C   UNL A   1      39.033  32.151  33.225  1.00  0.00     0.001 A 
ATOM     80  C   UNL A   1      38.306  29.857  33.372  1.00  0.00     0.001 A 
ATOM     81  C   UNL A   1      38.005  31.217  33.324  1.00  0.00     0.000 A 
ENDBRANCH  57  76
BRANCH  69  82
ATOM     82  C   UNL A   1      44.795  24.468  33.212  1.00  0.00    -0.014 A 
ATOM     83  C   UNL A   1      46.078  24.356  33.763  1.00  0.00     0.009 A 
ATOM     84  C   UNL A   1      43.872  23.445  33.523  1.00  0.00     0.009 A 
ATOM     85  C   UNL A   1      46.435  23.251  34.549  1.00  0.00     0.001 A 
ATOM     86  C   UNL A   1      44.213  22.364  34.338  1.00  0.00     0.001 A 
ATOM     87  C   UNL A   1      45.501  22.262  34.843  1.00  0.00     0.000 A 
ENDBRANCH  69  82
ENDBRANCH  43  44
ENDBRANCH  35  38
ENDBRANCH  33  34
ENDBRANCH  32  33
ENDBRANCH  31  32
ENDBRANCH   1  31
TORSDOF 15
ENDMDL
MODEL 2
REMARK VINA RESULT:     -13.0      3.311      9.158
REMARK SMILES Cc1ccc(C(=O)NC2CC2)cc1NC(=O)[C@@H]1[C@@H](C(=O)NCCCCNC(=O)c2ccc(-c3c4nc(c(-c5ccccc5)c5ccc([nH]5)c(-c5ccccc5)c5nc(c(-c6ccccc6)c6ccc3[nH]6)C=C5)C=C4)cc2)[C@H]2C=C[C@@H]1C2
REMARK SMILES IDX 22 1 21 2 19 3 20 4 18 6 17 7 80 8 77 9 79 10 81 11 78 12
REMARK SMILES IDX 15 13 14 14 16 16 13 17 1 18 2 19 3 20 4 21 12 22 5 23 6 24
REMARK SMILES IDX 7 25 8 26 9 28 10 29 11 30 23 31 24 32 25 33 26 34 27 35
REMARK SMILES IDX 28 37 29 38 30 39 76 40 31 41 75 42 32 43 33 44 34 45 69 46
REMARK SMILES IDX 35 47 74 48 68 49 70 50 36 51 73 52 67 53 66 54 37 56 59 57
REMARK SMILES IDX 44 58 58 59 45 60 48 61 57 62 71 63 46 64 47 65 56 67 72 68
REMARK SMILES IDX 49 69 38 70 39 71 43 72 40 73 42 74 41 75 60 76 61 77 65 78
REMARK SMILES IDX 62 79 64 80 63 81 50 82 51 83 55 84 52 85 54 86 53 87
REMARK H PARENT 21 5 14 15 8 27 26 36 70 55 48 66
REMARK Flexibility Score: inf
ROOT
ATOM      1  C   UNL A   1      35.460  20.690  25.389  1.00  0.00     0.116 C 
ENDROOT
BRANCH   1   2
ATOM      2  N   UNL A   1      34.132  20.942  24.865  1.00  0.00    -0.356 N 
ATOM      3  C   UNL A   1      33.285  21.995  24.918  1.00  0.00     0.224 C 
ATOM      4  O   UNL A   1      32.173  21.793  24.410  1.00  0.00    -0.275 OA
ATOM      5  H   UNL A   1      33.766  20.179  24.362  1.00  0.00     0.163 HD
BRANCH   3   6
ATOM      6  C   UNL A   1      33.566  23.321  25.622  1.00  0.00     0.098 C 
ATOM      7  C   UNL A   1      32.386  24.331  25.286  1.00  0.00     0.099 C 
ATOM      8  C   UNL A   1      33.140  25.627  24.887  1.00  0.00     0.025 C 
ATOM      9  C   UNL A   1      34.799  24.166  25.238  1.00  0.00     0.025 C 
ATOM     10  C   UNL A   1      33.812  25.380  23.554  1.00  0.00    -0.027 C 
ATOM     11  C   UNL A   1      34.382  25.545  25.770  1.00  0.00     0.017 C 
ATOM     12  C   UNL A   1      34.788  24.484  23.760  1.00  0.00    -0.027 C 
BRANCH   7  13
ATOM     13  C   UNL A   1      31.400  24.574  26.417  1.00  0.00     0.228 C 
ATOM     14  N   UNL A   1      30.851  25.813  26.647  1.00  0.00    -0.326 N 
ATOM     15  H   UNL A   1      30.273  25.841  27.445  1.00  0.00     0.169 HD
ATOM     16  O   UNL A   1      31.122  23.679  27.222  1.00  0.00    -0.274 OA
BRANCH  14  17
ATOM     17  C   UNL A   1      30.945  27.055  25.979  1.00  0.00     0.044 A 
ATOM     18  C   UNL A   1      32.124  28.111  28.022  1.00  0.00     0.046 C 
ATOM     19  C   UNL A   1      31.616  28.125  26.603  1.00  0.00    -0.027 A 
ATOM     20  C   UNL A   1      31.813  29.316  25.883  1.00  0.00     0.006 A 
ATOM     21  C   UNL A   1      31.352  29.449  24.572  1.00  0.00     0.014 A 
ATOM     22  C   UNL A   1      30.373  27.271  24.713  1.00  0.00     0.040 A 
ATOM     23  C   UNL A   1      30.610  28.430  23.964  1.00  0.00     0.041 A 
BRANCH  23  24
ATOM     24  C   UNL A   1      30.129  28.691  22.566  1.00  0.00     0.251 C 
ATOM     25  O   UNL A   1      30.358  27.846  21.696  1.00  0.00    -0.269 OA
ATOM     26  N   UNL A   1      29.410  29.801  22.174  1.00  0.00    -0.349 N 
ATOM     27  H   UNL A   1      29.151  29.801  21.225  1.00  0.00     0.164 HD
BRANCH  26  28
ATOM     28  C   UNL A   1      28.978  30.942  22.896  1.00  0.00     0.082 C 
ATOM     29  C   UNL A   1      27.965  31.869  22.284  1.00  0.00     0.027 C 
ATOM     30  C   UNL A   1      27.601  31.051  23.487  1.00  0.00     0.027 C 
ENDBRANCH  26  28
ENDBRANCH  23  24
ENDBRANCH  14  17
ENDBRANCH   7  13
ENDBRANCH   3   6
ENDBRANCH   1   2
BRANCH   1  31
ATOM     31  C   UNL A   1      36.557  21.320  24.525  1.00  0.00     0.023 C 
BRANCH  31  32
ATOM     32  C   UNL A   1      37.974  21.205  25.092  1.00  0.00     0.023 C 
BRANCH  32  33
ATOM     33  C   UNL A   1      38.453  22.429  25.864  1.00  0.00     0.116 C 
BRANCH  33  34
ATOM     34  N   UNL A   1      39.879  22.439  26.164  1.00  0.00    -0.352 N 
ATOM     35  C   UNL A   1      40.685  23.479  26.613  1.00  0.00     0.251 C 
ATOM     36  H   UNL A   1      40.342  21.581  26.027  1.00  0.00     0.163 HD
ATOM     37  O   UNL A   1      41.874  23.302  26.782  1.00  0.00    -0.269 OA
BRANCH  35  38
ATOM     38  C   UNL A   1      40.059  24.767  27.020  1.00  0.00     0.039 A 
ATOM     39  C   UNL A   1      40.492  25.932  26.374  1.00  0.00     0.014 A 
ATOM     40  C   UNL A   1      39.232  24.857  28.134  1.00  0.00     0.014 A 
ATOM     41  C   UNL A   1      40.331  27.163  27.006  1.00  0.00     0.010 A 
ATOM     42  C   UNL A   1      39.158  26.057  28.814  1.00  0.00     0.010 A 
ATOM     43  C   UNL A   1      39.781  27.191  28.287  1.00  0.00    -0.014 A 
BRANCH  43  44
ATOM     44  C   UNL A   1      39.964  28.312  29.201  1.00  0.00     0.031 A 
ATOM     45  C   UNL A   1      38.927  29.352  29.335  1.00  0.00     0.074 A 
ATOM     46  C   UNL A   1      41.076  28.360  29.969  1.00  0.00     0.049 A 
ATOM     47  N   UNL A   1      39.161  30.578  29.663  1.00  0.00    -0.248 NA
ATOM     48  C   UNL A   1      37.521  29.084  29.056  1.00  0.00     0.031 C 
ATOM     49  C   UNL A   1      41.341  29.263  31.086  1.00  0.00     0.029 A 
ATOM     50  N   UNL A   1      42.307  27.735  29.744  1.00  0.00    -0.354 N 
ATOM     51  C   UNL A   1      37.945  31.160  29.949  1.00  0.00     0.074 A 
ATOM     52  C   UNL A   1      36.957  30.229  29.452  1.00  0.00     0.031 C 
ATOM     53  C   UNL A   1      42.671  29.374  31.237  1.00  0.00     0.029 A 
ATOM     54  C   UNL A   1      43.286  28.664  30.127  1.00  0.00     0.049 A 
ATOM     55  H   UNL A   1      42.455  26.830  29.390  1.00  0.00     0.167 HD
ATOM     56  C   UNL A   1      37.894  32.279  30.728  1.00  0.00     0.031 A 
ATOM     57  C   UNL A   1      44.200  29.194  29.261  1.00  0.00     0.031 A 
ATOM     58  C   UNL A   1      39.228  32.763  31.077  1.00  0.00     0.049 A 
ATOM     59  C   UNL A   1      44.150  30.707  29.200  1.00  0.00     0.074 A 
ATOM     60  C   UNL A   1      39.999  32.634  32.221  1.00  0.00     0.029 A 
ATOM     61  N   UNL A   1      40.075  33.233  30.080  1.00  0.00    -0.354 N 
ATOM     62  N   UNL A   1      43.137  31.415  29.613  1.00  0.00    -0.248 NA
ATOM     63  C   UNL A   1      45.198  31.532  28.599  1.00  0.00     0.031 C 
ATOM     64  C   UNL A   1      41.340  32.949  31.884  1.00  0.00     0.029 A 
ATOM     65  C   UNL A   1      41.375  33.295  30.544  1.00  0.00     0.049 A 
ATOM     66  H   UNL A   1      39.789  33.486  29.173  1.00  0.00     0.167 HD
ATOM     67  C   UNL A   1      43.368  32.739  29.350  1.00  0.00     0.074 A 
ATOM     68  C   UNL A   1      44.674  32.764  28.719  1.00  0.00     0.031 C 
ATOM     69  C   UNL A   1      42.456  33.705  29.662  1.00  0.00     0.031 A 
BRANCH  56  70
ATOM     70  C   UNL A   1      36.638  32.727  31.445  1.00  0.00    -0.014 A 
ATOM     71  C   UNL A   1      35.735  33.590  30.793  1.00  0.00     0.009 A 
ATOM     72  C   UNL A   1      36.316  32.400  32.773  1.00  0.00     0.009 A 
ATOM     73  C   UNL A   1      34.653  34.181  31.458  1.00  0.00     0.001 A 
ATOM     74  C   UNL A   1      35.258  33.017  33.459  1.00  0.00     0.001 A 
ATOM     75  C   UNL A   1      34.435  33.922  32.804  1.00  0.00     0.000 A 
ENDBRANCH  56  70
BRANCH  57  76
ATOM     76  C   UNL A   1      44.521  28.338  28.087  1.00  0.00    -0.014 A 
ATOM     77  C   UNL A   1      45.196  27.121  28.298  1.00  0.00     0.009 A 
ATOM     78  C   UNL A   1      43.883  28.546  26.856  1.00  0.00     0.009 A 
ATOM     79  C   UNL A   1      45.146  26.100  27.345  1.00  0.00     0.001 A 
ATOM     80  C   UNL A   1      43.844  27.524  25.899  1.00  0.00     0.001 A 
ATOM     81  C   UNL A   1      44.446  26.293  26.157  1.00  0.00     0.000 A 
ENDBRANCH  57  76
BRANCH  69  82
ATOM     82  C   UNL A   1      42.526  35.144  29.230  1.00  0.00    -0.014 A 
ATOM     83  C   UNL A   1      43.351  36.101  29.836  1.00  0.00     0.009 A 
ATOM     84  C   UNL A   1      41.837  35.540  28.063  1.00  0.00     0.009 A 
ATOM     85  C   UNL A   1      43.446  37.403  29.327  1.00  0.00     0.001 A 
ATOM     86  C   UNL A   1      41.961  36.823  27.530  1.00  0.00     0.001 A 
ATOM     87  C   UNL A   1      42.759  37.761  28.170  1.00  0.00     0.000 A 
ENDBRANCH  69  82
ENDBRANCH  43  44
ENDBRANCH  35  38
ENDBRANCH  33  34
ENDBRANCH  32  33
ENDBRANCH  31  32
ENDBRANCH   1  31
TORSDOF 15
ENDMDL
MODEL 3
REMARK VINA RESULT:     -13.0      1.874      3.132
REMARK SMILES Cc1ccc(C(=O)NC2CC2)cc1NC(=O)[C@@H]1[C@@H](C(=O)NCCCCNC(=O)c2ccc(-c3c4nc(c(-c5ccccc5)c5ccc([nH]5)c(-c5ccccc5)c5nc(c(-c6ccccc6)c6ccc3[nH]6)C=C5)C=C4)cc2)[C@H]2C=C[C@@H]1C2
REMARK SMILES IDX 22 1 21 2 19 3 20 4 18 6 17 7 80 8 77 9 79 10 81 11 78 12
REMARK SMILES IDX 15 13 14 14 16 16 13 17 1 18 2 19 3 20 4 21 12 22 5 23 6 24
REMARK SMILES IDX 7 25 8 26 9 28 10 29 11 30 23 31 24 32 25 33 26 34 27 35
REMARK SMILES IDX 28 37 29 38 30 39 76 40 31 41 75 42 32 43 33 44 34 45 69 46
REMARK SMILES IDX 35 47 74 48 68 49 70 50 36 51 73 52 67 53 66 54 37 56 59 57
REMARK SMILES IDX 44 58 58 59 45 60 48 61 57 62 71 63 46 64 47 65 56 67 72 68
REMARK SMILES IDX 49 69 38 70 39 71 43 72 40 73 42 74 41 75 60 76 61 77 65 78
REMARK SMILES IDX 62 79 64 80 63 81 50 82 51 83 55 84 52 85 54 86 53 87
REMARK H PARENT 21 5 14 15 8 27 26 36 70 55 48 66
REMARK Flexibility Score: inf
ROOT
ATOM      1  C   UNL A   1      32.819  28.589  27.350  1.00  0.00     0.116 C 
ENDROOT
BRANCH   1   2
ATOM      2  N   UNL A   1      33.533  27.651  26.505  1.00  0.00    -0.356 N 
ATOM      3  C   UNL A   1      33.151  26.631  25.702  1.00  0.00     0.224 C 
ATOM      4  O   UNL A   1      34.085  25.989  25.200  1.00  0.00    -0.275 OA
ATOM      5  H   UNL A   1      34.507  27.784  26.520  1.00  0.00     0.163 HD
BRANCH   3   6
ATOM      6  C   UNL A   1      31.711  26.181  25.469  1.00  0.00     0.098 C 
ATOM      7  C   UNL A   1      31.708  24.612  25.212  1.00  0.00     0.099 C 
ATOM      8  C   UNL A   1      30.812  24.467  23.954  1.00  0.00     0.025 C 
ATOM      9  C   UNL A   1      30.921  26.684  24.242  1.00  0.00     0.025 C 
ATOM     10  C   UNL A   1      31.572  25.038  22.776  1.00  0.00    -0.027 C 
ATOM     11  C   UNL A   1      29.823  25.615  24.145  1.00  0.00     0.017 C 
ATOM     12  C   UNL A   1      31.660  26.363  22.963  1.00  0.00    -0.027 C 
BRANCH   7  13
ATOM     13  C   UNL A   1      31.200  23.767  26.370  1.00  0.00     0.228 C 
ATOM     14  N   UNL A   1      31.593  22.462  26.541  1.00  0.00    -0.326 N 
ATOM     15  H   UNL A   1      31.146  22.016  27.297  1.00  0.00     0.169 HD
ATOM     16  O   UNL A   1      30.349  24.204  27.151  1.00  0.00    -0.274 OA
BRANCH  14  17
ATOM     17  C   UNL A   1      32.505  21.625  25.857  1.00  0.00     0.044 A 
ATOM     18  C   UNL A   1      34.506  22.929  26.842  1.00  0.00     0.046 C 
ATOM     19  C   UNL A   1      33.888  21.800  26.059  1.00  0.00    -0.027 A 
ATOM     20  C   UNL A   1      34.781  20.887  25.473  1.00  0.00     0.006 A 
ATOM     21  C   UNL A   1      34.317  19.822  24.699  1.00  0.00     0.014 A 
ATOM     22  C   UNL A   1      32.080  20.629  24.959  1.00  0.00     0.040 A 
ATOM     23  C   UNL A   1      32.954  19.680  24.416  1.00  0.00     0.041 A 
BRANCH  23  24
ATOM     24  C   UNL A   1      32.566  18.522  23.542  1.00  0.00     0.251 C 
ATOM     25  O   UNL A   1      32.285  18.743  22.361  1.00  0.00    -0.269 OA
ATOM     26  N   UNL A   1      32.533  17.204  23.949  1.00  0.00    -0.349 N 
ATOM     27  H   UNL A   1      32.283  16.568  23.241  1.00  0.00     0.164 HD
BRANCH  26  28
ATOM     28  C   UNL A   1      32.794  16.604  25.205  1.00  0.00     0.082 C 
ATOM     29  C   UNL A   1      32.632  15.118  25.368  1.00  0.00     0.027 C 
ATOM     30  C   UNL A   1      33.995  15.735  25.453  1.00  0.00     0.027 C 
ENDBRANCH  26  28
ENDBRANCH  23  24
ENDBRANCH  14  17
ENDBRANCH   7  13
ENDBRANCH   3   6
ENDBRANCH   1   2
BRANCH   1  31
ATOM     31  C   UNL A   1      33.235  30.040  27.091  1.00  0.00     0.023 C 
BRANCH  31  32
ATOM     32  C   UNL A   1      34.473  30.506  27.861  1.00  0.00     0.023 C 
BRANCH  32  33
ATOM     33  C   UNL A   1      34.850  31.966  27.640  1.00  0.00     0.116 C 
BRANCH  33  34
ATOM     34  N   UNL A   1      33.996  32.926  28.327  1.00  0.00    -0.352 N 
ATOM     35  C   UNL A   1      34.210  33.615  29.515  1.00  0.00     0.251 C 
ATOM     36  H   UNL A   1      33.137  33.113  27.884  1.00  0.00     0.163 HD
ATOM     37  O   UNL A   1      33.359  34.361  29.951  1.00  0.00    -0.269 OA
BRANCH  35  38
ATOM     38  C   UNL A   1      35.544  33.540  30.173  1.00  0.00     0.039 A 
ATOM     39  C   UNL A   1      36.609  34.212  29.559  1.00  0.00     0.014 A 
ATOM     40  C   UNL A   1      35.787  32.676  31.235  1.00  0.00     0.014 A 
ATOM     41  C   UNL A   1      37.915  33.803  29.821  1.00  0.00     0.010 A 
ATOM     42  C   UNL A   1      37.069  32.197  31.424  1.00  0.00     0.010 A 
ATOM     43  C   UNL A   1      38.118  32.705  30.655  1.00  0.00    -0.014 A 
BRANCH  43  44
ATOM     44  C   UNL A   1      39.352  31.929  30.652  1.00  0.00     0.031 A 
ATOM     45  C   UNL A   1      39.438  30.652  29.919  1.00  0.00     0.074 A 
ATOM     46  C   UNL A   1      40.441  32.421  31.286  1.00  0.00     0.049 A 
ATOM     47  N   UNL A   1      40.216  29.674  30.244  1.00  0.00    -0.248 NA
ATOM     48  C   UNL A   1      38.596  30.364  28.764  1.00  0.00     0.031 C 
ATOM     49  C   UNL A   1      41.809  31.916  31.216  1.00  0.00     0.029 A 
ATOM     50  N   UNL A   1      40.484  33.364  32.318  1.00  0.00    -0.354 N 
ATOM     51  C   UNL A   1      40.218  28.790  29.189  1.00  0.00     0.074 A 
ATOM     52  C   UNL A   1      39.117  29.206  28.348  1.00  0.00     0.031 C 
ATOM     53  C   UNL A   1      42.460  32.295  32.329  1.00  0.00     0.029 A 
ATOM     54  C   UNL A   1      41.480  32.923  33.202  1.00  0.00     0.049 A 
ATOM     55  H   UNL A   1      39.928  34.170  32.407  1.00  0.00     0.167 HD
ATOM     56  C   UNL A   1      41.249  27.908  29.041  1.00  0.00     0.031 A 
ATOM     57  C   UNL A   1      41.234  32.565  34.496  1.00  0.00     0.031 A 
ATOM     58  C   UNL A   1      42.198  27.989  30.151  1.00  0.00     0.049 A 
ATOM     59  C   UNL A   1      41.666  31.147  34.811  1.00  0.00     0.074 A 
ATOM     60  C   UNL A   1      43.431  28.606  30.282  1.00  0.00     0.029 A 
ATOM     61  N   UNL A   1      41.793  27.635  31.432  1.00  0.00    -0.354 N 
ATOM     62  N   UNL A   1      41.893  30.240  33.902  1.00  0.00    -0.248 NA
ATOM     63  C   UNL A   1      41.797  30.619  36.169  1.00  0.00     0.031 C 
ATOM     64  C   UNL A   1      43.727  28.701  31.666  1.00  0.00     0.029 A 
ATOM     65  C   UNL A   1      42.689  28.115  32.368  1.00  0.00     0.049 A 
ATOM     66  H   UNL A   1      40.984  27.116  31.643  1.00  0.00     0.167 HD
ATOM     67  C   UNL A   1      42.188  29.048  34.509  1.00  0.00     0.074 A 
ATOM     68  C   UNL A   1      42.120  29.336  35.930  1.00  0.00     0.031 C 
ATOM     69  C   UNL A   1      42.449  27.920  33.790  1.00  0.00     0.031 A 
BRANCH  56  70
ATOM     70  C   UNL A   1      41.567  27.223  27.729  1.00  0.00    -0.014 A 
ATOM     71  C   UNL A   1      40.857  26.063  27.361  1.00  0.00     0.009 A 
ATOM     72  C   UNL A   1      42.588  27.616  26.848  1.00  0.00     0.009 A 
ATOM     73  C   UNL A   1      41.221  25.284  26.255  1.00  0.00     0.001 A 
ATOM     74  C   UNL A   1      42.984  26.822  25.762  1.00  0.00     0.001 A 
ATOM     75  C   UNL A   1      42.309  25.644  25.474  1.00  0.00     0.000 A 
ENDBRANCH  56  70
BRANCH  57  76
ATOM     76  C   UNL A   1      40.044  33.213  35.111  1.00  0.00    -0.014 A 
ATOM     77  C   UNL A   1      38.791  32.583  34.992  1.00  0.00     0.009 A 
ATOM     78  C   UNL A   1      40.198  34.226  36.068  1.00  0.00     0.009 A 
ATOM     79  C   UNL A   1      37.751  32.886  35.876  1.00  0.00     0.001 A 
ATOM     80  C   UNL A   1      39.149  34.534  36.945  1.00  0.00     0.001 A 
ATOM     81  C   UNL A   1      37.941  33.842  36.870  1.00  0.00     0.000 A 
ENDBRANCH  57  76
BRANCH  69  82
ATOM     82  C   UNL A   1      42.577  26.533  34.357  1.00  0.00    -0.014 A 
ATOM     83  C   UNL A   1      41.597  25.919  35.147  1.00  0.00     0.009 A 
ATOM     84  C   UNL A   1      43.676  25.736  33.966  1.00  0.00     0.009 A 
ATOM     85  C   UNL A   1      41.730  24.588  35.564  1.00  0.00     0.001 A 
ATOM     86  C   UNL A   1      43.792  24.398  34.346  1.00  0.00     0.001 A 
ATOM     87  C   UNL A   1      42.822  23.826  35.157  1.00  0.00     0.000 A 
ENDBRANCH  69  82
ENDBRANCH  43  44
ENDBRANCH  35  38
ENDBRANCH  33  34
ENDBRANCH  32  33
ENDBRANCH  31  32
ENDBRANCH   1  31
TORSDOF 15
ENDMDL
