MODEL 1
REMARK VINA RESULT:     -13.0      0.000      0.000
REMARK SMILES O=C(NCCCCNC(=O)[C@H]1CCCN(c2cc(-c3ccccn3)nc(-c3ccccc3F)n2)C1)c1ccc(-c2c3nc(c(-c4ccccc4)c4ccc([nH]4)c(-c4ccccc4)c4nc(c(-c5ccccc5)c5ccc2[nH]5)C=C4)C=C3)cc1
REMARK SMILES IDX 5 1 4 2 3 3 1 4 2 5 36 7 37 8 83 9 38 10 82 11 39 12 40 13
REMARK SMILES IDX 41 14 76 15 42 16 81 17 75 18 77 19 43 20 80 21 74 22 73 23
REMARK SMILES IDX 44 25 66 26 51 27 65 28 52 29 55 30 64 31 78 32 53 33 54 34
REMARK SMILES IDX 63 36 79 37 56 38 45 39 46 40 50 41 47 42 49 43 48 44 67 45
REMARK SMILES IDX 68 46 72 47 69 48 71 49 70 50 57 51 58 52 62 53 59 54 61 55
REMARK SMILES IDX 60 56 6 57 7 58 8 59 9 60 10 62 11 63 12 64 35 65 13 66
REMARK SMILES IDX 15 67 14 68 16 69 17 70 34 71 18 72 26 73 25 74 19 75 20 76
REMARK SMILES IDX 24 77 21 78 23 79 22 80 27 81 28 82 32 83 29 84 31 85 33 86
REMARK SMILES IDX 30 87
REMARK H PARENT 3 6 77 24 55 35 8 61
REMARK Flexibility Score: inf
ROOT
ATOM      1  C   UNL A   1      32.380  28.163  26.305  1.00  0.00     0.023 C 
ENDROOT
BRANCH   1   2
ATOM      2  C   UNL A   1      33.475  28.624  27.249  1.00  0.00     0.116 C 
BRANCH   2   3
ATOM      3  N   UNL A   1      33.454  30.057  27.504  1.00  0.00    -0.352 N 
ATOM      4  O   UNL A   1      34.228  32.034  28.286  1.00  0.00    -0.269 OA
ATOM      5  C   UNL A   1      34.437  30.849  28.048  1.00  0.00     0.251 C 
ATOM      6  H   UNL A   1      32.624  30.523  27.251  1.00  0.00     0.163 HD
BRANCH   5   7
ATOM      7  C   UNL A   1      35.741  30.244  28.388  1.00  0.00     0.039 A 
ATOM      8  C   UNL A   1      35.955  29.696  29.654  1.00  0.00     0.014 A 
ATOM      9  C   UNL A   1      36.775  30.279  27.449  1.00  0.00     0.014 A 
ATOM     10  C   UNL A   1      37.243  29.354  30.041  1.00  0.00     0.010 A 
ATOM     11  C   UNL A   1      38.052  29.842  27.811  1.00  0.00     0.010 A 
ATOM     12  C   UNL A   1      38.306  29.422  29.125  1.00  0.00    -0.014 A 
BRANCH  12  13
ATOM     13  C   UNL A   1      39.664  29.027  29.573  1.00  0.00     0.031 A 
ATOM     14  C   UNL A   1      40.393  29.803  30.635  1.00  0.00     0.074 A 
ATOM     15  C   UNL A   1      40.216  27.913  29.053  1.00  0.00     0.049 A 
ATOM     16  N   UNL A   1      41.554  29.549  31.188  1.00  0.00    -0.248 NA
ATOM     17  C   UNL A   1      39.746  31.025  31.139  1.00  0.00     0.031 C 
ATOM     18  C   UNL A   1      39.607  27.077  28.016  1.00  0.00     0.029 A 
ATOM     19  N   UNL A   1      41.389  27.272  29.352  1.00  0.00    -0.354 N 
ATOM     20  C   UNL A   1      41.791  30.591  32.076  1.00  0.00     0.074 A 
ATOM     21  C   UNL A   1      40.660  31.490  31.982  1.00  0.00     0.031 C 
ATOM     22  C   UNL A   1      40.375  25.996  27.818  1.00  0.00     0.029 A 
ATOM     23  C   UNL A   1      41.556  26.094  28.666  1.00  0.00     0.049 A 
ATOM     24  H   UNL A   1      42.048  27.620  29.996  1.00  0.00     0.167 HD
ATOM     25  C   UNL A   1      42.851  30.779  32.897  1.00  0.00     0.031 A 
ATOM     26  C   UNL A   1      42.549  25.189  28.712  1.00  0.00     0.031 A 
ATOM     27  C   UNL A   1      43.966  29.875  33.008  1.00  0.00     0.049 A 
ATOM     28  C   UNL A   1      43.707  25.421  29.635  1.00  0.00     0.074 A 
ATOM     29  C   UNL A   1      45.071  29.965  33.838  1.00  0.00     0.029 A 
ATOM     30  N   UNL A   1      44.116  28.713  32.268  1.00  0.00    -0.354 N 
ATOM     31  N   UNL A   1      43.902  26.400  30.483  1.00  0.00    -0.248 NA
ATOM     32  C   UNL A   1      44.782  24.421  29.604  1.00  0.00     0.031 C 
ATOM     33  C   UNL A   1      45.908  28.875  33.572  1.00  0.00     0.029 A 
ATOM     34  C   UNL A   1      45.302  28.085  32.609  1.00  0.00     0.049 A 
ATOM     35  H   UNL A   1      43.473  28.382  31.599  1.00  0.00     0.167 HD
ATOM     36  C   UNL A   1      45.115  26.129  31.098  1.00  0.00     0.074 A 
ATOM     37  C   UNL A   1      45.599  24.882  30.541  1.00  0.00     0.031 C 
ATOM     38  C   UNL A   1      45.771  26.849  32.039  1.00  0.00     0.031 A 
BRANCH  25  39
ATOM     39  C   UNL A   1      42.874  32.034  33.725  1.00  0.00    -0.014 A 
ATOM     40  C   UNL A   1      42.326  32.069  35.017  1.00  0.00     0.009 A 
ATOM     41  C   UNL A   1      43.495  33.187  33.219  1.00  0.00     0.009 A 
ATOM     42  C   UNL A   1      42.374  33.243  35.773  1.00  0.00     0.001 A 
ATOM     43  C   UNL A   1      43.560  34.352  33.986  1.00  0.00     0.001 A 
ATOM     44  C   UNL A   1      42.993  34.382  35.259  1.00  0.00     0.000 A 
ENDBRANCH  25  39
BRANCH  26  45
ATOM     45  C   UNL A   1      42.481  23.976  27.859  1.00  0.00    -0.014 A 
ATOM     46  C   UNL A   1      42.779  24.052  26.491  1.00  0.00     0.009 A 
ATOM     47  C   UNL A   1      42.140  22.733  28.415  1.00  0.00     0.009 A 
ATOM     48  C   UNL A   1      42.721  22.909  25.692  1.00  0.00     0.001 A 
ATOM     49  C   UNL A   1      42.109  21.588  27.620  1.00  0.00     0.001 A 
ATOM     50  C   UNL A   1      42.391  21.677  26.258  1.00  0.00     0.000 A 
ENDBRANCH  26  45
BRANCH  38  51
ATOM     51  C   UNL A   1      47.069  26.287  32.538  1.00  0.00    -0.014 A 
ATOM     52  C   UNL A   1      47.107  25.413  33.637  1.00  0.00     0.009 A 
ATOM     53  C   UNL A   1      48.267  26.627  31.894  1.00  0.00     0.009 A 
ATOM     54  C   UNL A   1      48.326  24.920  34.102  1.00  0.00     0.001 A 
ATOM     55  C   UNL A   1      49.483  26.113  32.348  1.00  0.00     0.001 A 
ATOM     56  C   UNL A   1      49.512  25.268  33.457  1.00  0.00     0.000 A 
ENDBRANCH  38  51
ENDBRANCH  12  13
ENDBRANCH   5   7
ENDBRANCH   2   3
ENDBRANCH   1   2
BRANCH   1  57
ATOM     57  C   UNL A   1      32.651  28.429  24.828  1.00  0.00     0.023 C 
BRANCH  57  58
ATOM     58  C   UNL A   1      33.958  27.842  24.289  1.00  0.00     0.116 C 
BRANCH  58  59
ATOM     59  N   UNL A   1      33.892  27.552  22.866  1.00  0.00    -0.356 N 
ATOM     60  C   UNL A   1      33.352  26.472  22.224  1.00  0.00     0.224 C 
ATOM     61  H   UNL A   1      34.293  28.233  22.278  1.00  0.00     0.163 HD
ATOM     62  O   UNL A   1      33.389  26.453  20.993  1.00  0.00    -0.275 OA
BRANCH  60  63
ATOM     63  C   UNL A   1      32.742  25.342  23.040  1.00  0.00     0.098 C 
ATOM     64  C   UNL A   1      31.228  25.519  23.249  1.00  0.00     0.017 C 
ATOM     65  C   UNL A   1      32.967  24.022  22.316  1.00  0.00     0.131 C 
ATOM     66  C   UNL A   1      30.648  24.333  24.033  1.00  0.00     0.022 C 
ATOM     67  N   UNL A   1      32.394  22.916  23.062  1.00  0.00    -0.356 N 
ATOM     68  C   UNL A   1      30.978  22.983  23.384  1.00  0.00     0.118 C 
BRANCH  67  69
ATOM     69  C   UNL A   1      33.252  22.107  23.785  1.00  0.00     0.133 A 
ATOM     70  C   UNL A   1      32.880  20.798  24.010  1.00  0.00     0.077 A 
ATOM     71  N   UNL A   1      34.468  22.563  24.138  1.00  0.00    -0.211 NA
ATOM     72  C   UNL A   1      33.821  19.954  24.562  1.00  0.00     0.095 A 
ATOM     73  C   UNL A   1      35.307  21.683  24.726  1.00  0.00     0.165 A 
ATOM     74  N   UNL A   1      35.041  20.387  24.934  1.00  0.00    -0.226 NA
BRANCH  72  75
ATOM     75  C   UNL A   1      33.563  18.516  24.691  1.00  0.00     0.089 A 
ATOM     76  C   UNL A   1      34.346  17.581  24.011  1.00  0.00     0.030 A 
ATOM     77  N   UNL A   1      32.514  18.152  25.471  1.00  0.00    -0.255 NA
ATOM     78  C   UNL A   1      34.048  16.227  24.138  1.00  0.00     0.004 A 
ATOM     79  C   UNL A   1      32.258  16.831  25.586  1.00  0.00     0.112 A 
ATOM     80  C   UNL A   1      32.984  15.842  24.943  1.00  0.00     0.020 A 
ENDBRANCH  72  75
BRANCH  73  81
ATOM     81  C   UNL A   1      36.577  22.179  25.248  1.00  0.00     0.055 A 
ATOM     82  C   UNL A   1      36.669  23.449  25.847  1.00  0.00     0.015 A 
ATOM     83  C   UNL A   1      37.730  21.383  25.237  1.00  0.00     0.134 A 
ATOM     84  C   UNL A   1      37.862  23.885  26.436  1.00  0.00     0.001 A 
ATOM     85  C   UNL A   1      38.925  21.816  25.815  1.00  0.00     0.040 A 
ATOM     86  F   UNL A   1      37.716  20.177  24.647  1.00  0.00    -0.206 F 
ATOM     87  C   UNL A   1      38.989  23.065  26.425  1.00  0.00     0.003 A 
ENDBRANCH  73  81
ENDBRANCH  67  69
ENDBRANCH  60  63
ENDBRANCH  58  59
ENDBRANCH  57  58
ENDBRANCH   1  57
TORSDOF 14
ENDMDL
MODEL 2
REMARK VINA RESULT:     -13.0      3.516      8.754
REMARK SMILES O=C(NCCCCNC(=O)[C@H]1CCCN(c2cc(-c3ccccn3)nc(-c3ccccc3F)n2)C1)c1ccc(-c2c3nc(c(-c4ccccc4)c4ccc([nH]4)c(-c4ccccc4)c4nc(c(-c5ccccc5)c5ccc2[nH]5)C=C4)C=C3)cc1
REMARK SMILES IDX 5 1 4 2 3 3 1 4 2 5 36 7 37 8 83 9 38 10 82 11 39 12 40 13
REMARK SMILES IDX 41 14 76 15 42 16 81 17 75 18 77 19 43 20 80 21 74 22 73 23
REMARK SMILES IDX 44 25 66 26 51 27 65 28 52 29 55 30 64 31 78 32 53 33 54 34
REMARK SMILES IDX 63 36 79 37 56 38 45 39 46 40 50 41 47 42 49 43 48 44 67 45
REMARK SMILES IDX 68 46 72 47 69 48 71 49 70 50 57 51 58 52 62 53 59 54 61 55
REMARK SMILES IDX 60 56 6 57 7 58 8 59 9 60 10 62 11 63 12 64 35 65 13 66
REMARK SMILES IDX 15 67 14 68 16 69 17 70 34 71 18 72 26 73 25 74 19 75 20 76
REMARK SMILES IDX 24 77 21 78 23 79 22 80 27 81 28 82 32 83 29 84 31 85 33 86
REMARK SMILES IDX 30 87
REMARK H PARENT 3 6 77 24 55 35 8 61
REMARK Flexibility Score: inf
ROOT
ATOM      1  C   UNL A   1      35.791  22.826  24.725  1.00  0.00     0.023 C 
ENDROOT
BRANCH   1   2
ATOM      2  C   UNL A   1      37.017  23.501  25.312  1.00  0.00     0.116 C 
BRANCH   2   3
ATOM      3  N   UNL A   1      38.122  22.585  25.556  1.00  0.00    -0.352 N 
ATOM      4  O   UNL A   1      40.195  21.970  26.221  1.00  0.00    -0.269 OA
ATOM      5  C   UNL A   1      39.324  22.832  26.177  1.00  0.00     0.251 C 
ATOM      6  H   UNL A   1      37.990  21.663  25.235  1.00  0.00     0.163 HD
BRANCH   5   7
ATOM      7  C   UNL A   1      39.574  24.169  26.752  1.00  0.00     0.039 A 
ATOM      8  C   UNL A   1      40.172  25.167  25.982  1.00  0.00     0.014 A 
ATOM      9  C   UNL A   1      39.260  24.404  28.093  1.00  0.00     0.014 A 
ATOM     10  C   UNL A   1      40.620  26.328  26.596  1.00  0.00     0.010 A 
ATOM     11  C   UNL A   1      39.626  25.615  28.687  1.00  0.00     0.010 A 
ATOM     12  C   UNL A   1      40.352  26.566  27.955  1.00  0.00    -0.014 A 
BRANCH  12  13
ATOM     13  C   UNL A   1      40.830  27.829  28.568  1.00  0.00     0.031 A 
ATOM     14  C   UNL A   1      42.298  28.098  28.761  1.00  0.00     0.074 A 
ATOM     15  C   UNL A   1      39.923  28.770  28.898  1.00  0.00     0.049 A 
ATOM     16  N   UNL A   1      42.882  29.179  29.216  1.00  0.00    -0.248 NA
ATOM     17  C   UNL A   1      43.232  27.018  28.406  1.00  0.00     0.031 C 
ATOM     18  C   UNL A   1      38.472  28.625  28.760  1.00  0.00     0.029 A 
ATOM     19  N   UNL A   1      40.087  30.043  29.376  1.00  0.00    -0.354 N 
ATOM     20  C   UNL A   1      44.243  28.899  29.234  1.00  0.00     0.074 A 
ATOM     21  C   UNL A   1      44.400  27.541  28.756  1.00  0.00     0.031 C 
ATOM     22  C   UNL A   1      37.884  29.788  29.075  1.00  0.00     0.029 A 
ATOM     23  C   UNL A   1      38.908  30.736  29.495  1.00  0.00     0.049 A 
ATOM     24  H   UNL A   1      40.965  30.424  29.612  1.00  0.00     0.167 HD
ATOM     25  C   UNL A   1      45.268  29.701  29.610  1.00  0.00     0.031 A 
ATOM     26  C   UNL A   1      38.673  31.997  29.896  1.00  0.00     0.031 A 
ATOM     27  C   UNL A   1      45.115  31.058  30.064  1.00  0.00     0.049 A 
ATOM     28  C   UNL A   1      39.826  32.863  30.301  1.00  0.00     0.074 A 
ATOM     29  C   UNL A   1      46.099  31.960  30.435  1.00  0.00     0.029 A 
ATOM     30  N   UNL A   1      43.901  31.710  30.207  1.00  0.00    -0.354 N 
ATOM     31  N   UNL A   1      41.108  32.588  30.290  1.00  0.00    -0.248 NA
ATOM     32  C   UNL A   1      39.500  34.215  30.775  1.00  0.00     0.031 C 
ATOM     33  C   UNL A   1      45.475  33.147  30.838  1.00  0.00     0.029 A 
ATOM     34  C   UNL A   1      44.108  32.997  30.675  1.00  0.00     0.049 A 
ATOM     35  H   UNL A   1      43.021  31.318  30.003  1.00  0.00     0.167 HD
ATOM     36  C   UNL A   1      41.743  33.736  30.742  1.00  0.00     0.074 A 
ATOM     37  C   UNL A   1      40.707  34.716  30.997  1.00  0.00     0.031 C 
ATOM     38  C   UNL A   1      43.065  33.956  30.930  1.00  0.00     0.031 A 
BRANCH  25  39
ATOM     39  C   UNL A   1      46.653  29.118  29.577  1.00  0.00    -0.014 A 
ATOM     40  C   UNL A   1      47.458  29.209  28.431  1.00  0.00     0.009 A 
ATOM     41  C   UNL A   1      47.177  28.508  30.728  1.00  0.00     0.009 A 
ATOM     42  C   UNL A   1      48.749  28.673  28.429  1.00  0.00     0.001 A 
ATOM     43  C   UNL A   1      48.475  27.994  30.731  1.00  0.00     0.001 A 
ATOM     44  C   UNL A   1      49.257  28.070  29.579  1.00  0.00     0.000 A 
ENDBRANCH  25  39
BRANCH  26  45
ATOM     45  C   UNL A   1      37.281  32.513  29.925  1.00  0.00    -0.014 A 
ATOM     46  C   UNL A   1      36.397  32.118  30.939  1.00  0.00     0.009 A 
ATOM     47  C   UNL A   1      36.839  33.422  28.950  1.00  0.00     0.009 A 
ATOM     48  C   UNL A   1      35.091  32.611  30.967  1.00  0.00     0.001 A 
ATOM     49  C   UNL A   1      35.542  33.933  28.996  1.00  0.00     0.001 A 
ATOM     50  C   UNL A   1      34.666  33.522  30.000  1.00  0.00     0.000 A 
ENDBRANCH  26  45
BRANCH  38  51
ATOM     51  C   UNL A   1      43.461  35.321  31.413  1.00  0.00    -0.014 A 
ATOM     52  C   UNL A   1      43.478  35.628  32.783  1.00  0.00     0.009 A 
ATOM     53  C   UNL A   1      43.832  36.306  30.487  1.00  0.00     0.009 A 
ATOM     54  C   UNL A   1      43.825  36.910  33.212  1.00  0.00     0.001 A 
ATOM     55  C   UNL A   1      44.201  37.580  30.921  1.00  0.00     0.001 A 
ATOM     56  C   UNL A   1      44.188  37.884  32.282  1.00  0.00     0.000 A 
ENDBRANCH  38  51
ENDBRANCH  12  13
ENDBRANCH   5   7
ENDBRANCH   2   3
ENDBRANCH   1   2
BRANCH   1  57
ATOM     57  C   UNL A   1      34.783  22.323  25.750  1.00  0.00     0.023 C 
BRANCH  57  58
ATOM     58  C   UNL A   1      34.379  23.339  26.822  1.00  0.00     0.116 C 
BRANCH  58  59
ATOM     59  N   UNL A   1      33.086  23.038  27.415  1.00  0.00    -0.356 N 
ATOM     60  C   UNL A   1      31.831  23.307  26.945  1.00  0.00     0.224 C 
ATOM     61  H   UNL A   1      33.120  22.571  28.282  1.00  0.00     0.163 HD
ATOM     62  O   UNL A   1      30.869  22.930  27.615  1.00  0.00    -0.275 OA
BRANCH  60  63
ATOM     63  C   UNL A   1      31.667  24.061  25.634  1.00  0.00     0.098 C 
ATOM     64  C   UNL A   1      31.507  23.118  24.429  1.00  0.00     0.017 C 
ATOM     65  C   UNL A   1      30.426  24.940  25.712  1.00  0.00     0.131 C 
ATOM     66  C   UNL A   1      31.295  23.920  23.137  1.00  0.00     0.022 C 
ATOM     67  N   UNL A   1      30.230  25.674  24.475  1.00  0.00    -0.356 N 
ATOM     68  C   UNL A   1      30.125  24.907  23.245  1.00  0.00     0.118 C 
BRANCH  67  69
ATOM     69  C   UNL A   1      30.582  27.012  24.453  1.00  0.00     0.133 A 
ATOM     70  C   UNL A   1      29.905  27.850  23.592  1.00  0.00     0.077 A 
ATOM     71  N   UNL A   1      31.470  27.489  25.345  1.00  0.00    -0.211 NA
ATOM     72  C   UNL A   1      30.129  29.205  23.713  1.00  0.00     0.095 A 
ATOM     73  C   UNL A   1      31.671  28.824  25.357  1.00  0.00     0.165 A 
ATOM     74  N   UNL A   1      31.019  29.708  24.589  1.00  0.00    -0.226 NA
BRANCH  72  75
ATOM     75  C   UNL A   1      29.338  30.174  22.947  1.00  0.00     0.089 A 
ATOM     76  C   UNL A   1      28.899  31.366  23.528  1.00  0.00     0.030 A 
ATOM     77  N   UNL A   1      29.032  29.837  21.669  1.00  0.00    -0.255 NA
ATOM     78  C   UNL A   1      28.125  32.243  22.774  1.00  0.00     0.004 A 
ATOM     79  C   UNL A   1      28.292  30.714  20.957  1.00  0.00     0.112 A 
ATOM     80  C   UNL A   1      27.816  31.913  21.460  1.00  0.00     0.020 A 
ENDBRANCH  72  75
BRANCH  73  81
ATOM     81  C   UNL A   1      32.728  29.358  26.211  1.00  0.00     0.055 A 
ATOM     82  C   UNL A   1      33.957  28.688  26.349  1.00  0.00     0.015 A 
ATOM     83  C   UNL A   1      32.584  30.589  26.865  1.00  0.00     0.134 A 
ATOM     84  C   UNL A   1      35.006  29.248  27.089  1.00  0.00     0.001 A 
ATOM     85  C   UNL A   1      33.623  31.149  27.611  1.00  0.00     0.040 A 
ATOM     86  F   UNL A   1      31.422  31.259  26.802  1.00  0.00    -0.206 F 
ATOM     87  C   UNL A   1      34.840  30.482  27.715  1.00  0.00     0.003 A 
ENDBRANCH  73  81
ENDBRANCH  67  69
ENDBRANCH  60  63
ENDBRANCH  58  59
ENDBRANCH  57  58
ENDBRANCH   1  57
TORSDOF 14
ENDMDL
MODEL 3
REMARK VINA RESULT:     -13.0      1.002      5.720
REMARK SMILES O=C(NCCCCNC(=O)[C@H]1CCCN(c2cc(-c3ccccn3)nc(-c3ccccc3F)n2)C1)c1ccc(-c2c3nc(c(-c4ccccc4)c4ccc([nH]4)c(-c4ccccc4)c4nc(c(-c5ccccc5)c5ccc2[nH]5)C=C4)C=C3)cc1
REMARK SMILES IDX 5 1 4 2 3 3 1 4 2 5 36 7 37 8 83 9 38 10 82 11 39 12 40 13
REMARK SMILES IDX 41 14 76 15 42 16 81 17 75 18 77 19 43 20 80 21 74 22 73 23
REMARK SMILES IDX 44 25 66 26 51 27 65 28 52 29 55 30 64 31 78 32 53 33 54 34
REMARK SMILES IDX 63 36 79 37 56 38 45 39 46 40 50 41 47 42 49 43 48 44 67 45
REMARK SMILES IDX 68 46 72 47 69 48 71 49 70 50 57 51 58 52 62 53 59 54 61 55
REMARK SMILES IDX 60 56 6 57 7 58 8 59 9 60 10 62 11 63 12 64 35 65 13 66
REMARK SMILES IDX 15 67 14 68 16 69 17 70 34 71 18 72 26 73 25 74 19 75 20 76
REMARK SMILES IDX 24 77 21 78 23 79 22 80 27 81 28 82 32 83 29 84 31 85 33 86
REMARK SMILES IDX 30 87
REMARK H PARENT 3 6 77 24 55 35 8 61
REMARK Flexibility Score: inf
ROOT
ATOM      1  C   UNL A   1      32.635  28.193  26.324  1.00  0.00     0.023 C 
ENDROOT
BRANCH   1   2
ATOM      2  C   UNL A   1      33.848  28.616  27.133  1.00  0.00     0.116 C 
BRANCH   2   3
ATOM      3  N   UNL A   1      33.756  29.975  27.646  1.00  0.00    -0.352 N 
ATOM      4  O   UNL A   1      34.438  31.815  28.773  1.00  0.00    -0.269 OA
ATOM      5  C   UNL A   1      34.706  30.707  28.320  1.00  0.00     0.251 C 
ATOM      6  H   UNL A   1      32.899  30.433  27.489  1.00  0.00     0.163 HD
BRANCH   5   7
ATOM      7  C   UNL A   1      36.045  30.122  28.535  1.00  0.00     0.039 A 
ATOM      8  C   UNL A   1      36.365  29.523  29.754  1.00  0.00     0.014 A 
ATOM      9  C   UNL A   1      37.005  30.226  27.525  1.00  0.00     0.014 A 
ATOM     10  C   UNL A   1      37.686  29.198  30.029  1.00  0.00     0.010 A 
ATOM     11  C   UNL A   1      38.315  29.808  27.771  1.00  0.00     0.010 A 
ATOM     12  C   UNL A   1      38.676  29.336  29.042  1.00  0.00    -0.014 A 
BRANCH  12  13
ATOM     13  C   UNL A   1      40.072  28.957  29.370  1.00  0.00     0.031 A 
ATOM     14  C   UNL A   1      40.673  27.673  28.864  1.00  0.00     0.074 A 
ATOM     15  C   UNL A   1      40.823  29.818  30.084  1.00  0.00     0.049 A 
ATOM     16  N   UNL A   1      41.898  27.230  29.002  1.00  0.00    -0.248 NA
ATOM     17  C   UNL A   1      39.789  26.766  28.116  1.00  0.00     0.031 C 
ATOM     18  C   UNL A   1      40.352  31.093  30.630  1.00  0.00     0.029 A 
ATOM     19  N   UNL A   1      42.146  29.773  30.436  1.00  0.00    -0.354 N 
ATOM     20  C   UNL A   1      41.924  25.983  28.389  1.00  0.00     0.074 A 
ATOM     21  C   UNL A   1      40.589  25.732  27.889  1.00  0.00     0.031 C 
ATOM     22  C   UNL A   1      41.387  31.741  31.185  1.00  0.00     0.029 A 
ATOM     23  C   UNL A   1      42.576  30.903  31.088  1.00  0.00     0.049 A 
ATOM     24  H   UNL A   1      42.732  29.005  30.242  1.00  0.00     0.167 HD
ATOM     25  C   UNL A   1      42.966  25.128  28.252  1.00  0.00     0.031 A 
ATOM     26  C   UNL A   1      43.792  31.232  31.556  1.00  0.00     0.031 A 
ATOM     27  C   UNL A   1      44.299  25.386  28.730  1.00  0.00     0.049 A 
ATOM     28  C   UNL A   1      44.927  30.269  31.385  1.00  0.00     0.074 A 
ATOM     29  C   UNL A   1      45.428  24.593  28.608  1.00  0.00     0.029 A 
ATOM     30  N   UNL A   1      44.683  26.525  29.418  1.00  0.00    -0.354 N 
ATOM     31  N   UNL A   1      44.937  29.105  30.783  1.00  0.00    -0.248 NA
ATOM     32  C   UNL A   1      46.219  30.667  31.961  1.00  0.00     0.031 C 
ATOM     33  C   UNL A   1      46.488  25.238  29.257  1.00  0.00     0.029 A 
ATOM     34  C   UNL A   1      46.028  26.450  29.743  1.00  0.00     0.049 A 
ATOM     35  H   UNL A   1      44.089  27.278  29.643  1.00  0.00     0.167 HD
ATOM     36  C   UNL A   1      46.238  28.635  30.895  1.00  0.00     0.074 A 
ATOM     37  C   UNL A   1      46.991  29.650  31.603  1.00  0.00     0.031 C 
ATOM     38  C   UNL A   1      46.760  27.467  30.452  1.00  0.00     0.031 A 
BRANCH  25  39
ATOM     39  C   UNL A   1      42.698  23.810  27.582  1.00  0.00    -0.014 A 
ATOM     40  C   UNL A   1      42.874  23.642  26.200  1.00  0.00     0.009 A 
ATOM     41  C   UNL A   1      42.306  22.705  28.356  1.00  0.00     0.009 A 
ATOM     42  C   UNL A   1      42.634  22.402  25.602  1.00  0.00     0.001 A 
ATOM     43  C   UNL A   1      42.088  21.462  27.759  1.00  0.00     0.001 A 
ATOM     44  C   UNL A   1      42.245  21.313  26.382  1.00  0.00     0.000 A 
ENDBRANCH  25  39
BRANCH  26  45
ATOM     45  C   UNL A   1      43.993  32.542  32.224  1.00  0.00    -0.014 A 
ATOM     46  C   UNL A   1      44.357  33.672  31.479  1.00  0.00     0.009 A 
ATOM     47  C   UNL A   1      43.798  32.672  33.609  1.00  0.00     0.009 A 
ATOM     48  C   UNL A   1      44.539  34.904  32.110  1.00  0.00     0.001 A 
ATOM     49  C   UNL A   1      43.954  33.909  34.232  1.00  0.00     0.001 A 
ATOM     50  C   UNL A   1      44.332  35.024  33.484  1.00  0.00     0.000 A 
ENDBRANCH  26  45
BRANCH  38  51
ATOM     51  C   UNL A   1      48.222  27.242  30.703  1.00  0.00    -0.014 A 
ATOM     52  C   UNL A   1      49.191  27.696  29.794  1.00  0.00     0.009 A 
ATOM     53  C   UNL A   1      48.634  26.578  31.867  1.00  0.00     0.009 A 
ATOM     54  C   UNL A   1      50.545  27.456  30.031  1.00  0.00     0.001 A 
ATOM     55  C   UNL A   1      49.991  26.361  32.112  1.00  0.00     0.001 A 
ATOM     56  C   UNL A   1      50.944  26.791  31.190  1.00  0.00     0.000 A 
ENDBRANCH  38  51
ENDBRANCH  12  13
ENDBRANCH   5   7
ENDBRANCH   2   3
ENDBRANCH   1   2
BRANCH   1  57
ATOM     57  C   UNL A   1      32.777  28.365  24.816  1.00  0.00     0.023 C 
BRANCH  57  58
ATOM     58  C   UNL A   1      34.067  27.803  24.214  1.00  0.00     0.116 C 
BRANCH  58  59
ATOM     59  N   UNL A   1      33.943  27.529  22.791  1.00  0.00    -0.356 N 
ATOM     60  C   UNL A   1      33.352  26.471  22.159  1.00  0.00     0.224 C 
ATOM     61  H   UNL A   1      34.342  28.205  22.196  1.00  0.00     0.163 HD
ATOM     62  O   UNL A   1      33.345  26.463  20.927  1.00  0.00    -0.275 OA
BRANCH  60  63
ATOM     63  C   UNL A   1      32.740  25.350  22.986  1.00  0.00     0.098 C 
ATOM     64  C   UNL A   1      31.226  25.531  23.194  1.00  0.00     0.017 C 
ATOM     65  C   UNL A   1      32.962  24.022  22.274  1.00  0.00     0.131 C 
ATOM     66  C   UNL A   1      30.645  24.353  23.989  1.00  0.00     0.022 C 
ATOM     67  N   UNL A   1      32.387  22.924  23.030  1.00  0.00    -0.356 N 
ATOM     68  C   UNL A   1      30.972  22.996  23.353  1.00  0.00     0.118 C 
BRANCH  67  69
ATOM     69  C   UNL A   1      33.245  22.121  23.760  1.00  0.00     0.133 A 
ATOM     70  C   UNL A   1      32.873  20.813  23.994  1.00  0.00     0.077 A 
ATOM     71  N   UNL A   1      34.461  22.579  24.111  1.00  0.00    -0.211 NA
ATOM     72  C   UNL A   1      33.812  19.973  24.554  1.00  0.00     0.095 A 
ATOM     73  C   UNL A   1      35.298  21.703  24.706  1.00  0.00     0.165 A 
ATOM     74  N   UNL A   1      35.032  20.408  24.924  1.00  0.00    -0.226 NA
BRANCH  72  75
ATOM     75  C   UNL A   1      33.555  18.536  24.692  1.00  0.00     0.089 A 
ATOM     76  C   UNL A   1      34.303  17.598  23.977  1.00  0.00     0.030 A 
ATOM     77  N   UNL A   1      32.540  18.175  25.517  1.00  0.00    -0.255 NA
ATOM     78  C   UNL A   1      34.005  16.246  24.116  1.00  0.00     0.004 A 
ATOM     79  C   UNL A   1      32.283  16.856  25.642  1.00  0.00     0.112 A 
ATOM     80  C   UNL A   1      32.975  15.864  24.967  1.00  0.00     0.020 A 
ENDBRANCH  72  75
BRANCH  73  81
ATOM     81  C   UNL A   1      36.568  22.203  25.227  1.00  0.00     0.055 A 
ATOM     82  C   UNL A   1      36.662  23.482  25.804  1.00  0.00     0.015 A 
ATOM     83  C   UNL A   1      37.717  21.402  25.236  1.00  0.00     0.134 A 
ATOM     84  C   UNL A   1      37.854  23.924  26.392  1.00  0.00     0.001 A 
ATOM     85  C   UNL A   1      38.911  21.839  25.813  1.00  0.00     0.040 A 
ATOM     86  F   UNL A   1      37.701  20.186  24.668  1.00  0.00    -0.206 F 
ATOM     87  C   UNL A   1      38.977  23.099  26.401  1.00  0.00     0.003 A 
ENDBRANCH  73  81
ENDBRANCH  67  69
ENDBRANCH  60  63
ENDBRANCH  58  59
ENDBRANCH  57  58
ENDBRANCH   1  57
TORSDOF 14
ENDMDL
