MODEL 1
REMARK VINA RESULT:     -10.6      0.000      0.000
REMARK SMILES N#CCc1nc(-c2ccccc2)c(CC(=O)NCCCCNC(=O)c2ccc(-c3c4nc(c(-c5ccccc5)c5ccc([nH]5)c(-c5ccccc5)c5nc(c(-c6ccccc6)c6ccc3[nH]6)C=C5)C=C4)cc2)s1
REMARK SMILES IDX 19 1 18 2 17 3 15 4 16 5 14 7 13 8 4 9 5 10 73 11 6 12 3 13
REMARK SMILES IDX 2 14 1 15 7 16 8 17 12 18 9 19 11 20 10 21 20 22 21 23 22 24
REMARK SMILES IDX 23 25 24 27 25 28 26 29 72 30 27 31 71 32 28 33 29 34 30 35
REMARK SMILES IDX 65 36 31 37 70 38 64 39 66 40 32 41 69 42 63 43 62 44 33 46
REMARK SMILES IDX 55 47 40 48 54 49 41 50 44 51 53 52 67 53 42 54 43 55 52 57
REMARK SMILES IDX 68 58 45 59 34 60 35 61 39 62 36 63 38 64 37 65 56 66 57 67
REMARK SMILES IDX 61 68 58 69 60 70 59 71 46 72 47 73 51 74 48 75 50 76 49 77
REMARK H PARENT 17 6 22 26 66 45 44 56
REMARK Flexibility Score: inf
ROOT
ATOM      1  C   UNL A   1      32.054  27.403  25.799  1.00  0.00     0.023 C 
ENDROOT
BRANCH   1   2
ATOM      2  C   UNL A   1      30.800  26.529  25.873  1.00  0.00     0.116 C 
BRANCH   2   3
ATOM      3  N   UNL A   1      30.963  25.439  26.815  1.00  0.00    -0.356 N 
ATOM      4  C   UNL A   1      31.365  24.155  26.581  1.00  0.00     0.225 C 
ATOM      5  O   UNL A   1      31.382  23.369  27.532  1.00  0.00    -0.275 OA
ATOM      6  H   UNL A   1      30.755  25.655  27.752  1.00  0.00     0.163 HD
BRANCH   4   7
ATOM      7  C   UNL A   1      31.839  23.729  25.200  1.00  0.00     0.149 C 
BRANCH   7   8
ATOM      8  C   UNL A   1      33.309  23.431  25.165  1.00  0.00     0.042 A 
ATOM      9  C   UNL A   1      35.721  23.521  25.458  1.00  0.00     0.108 A 
ATOM     10  N   UNL A   1      35.356  22.299  25.136  1.00  0.00    -0.240 NA
ATOM     11  S   UNL A   1      34.459  24.685  25.443  1.00  0.00    -0.121 S 
ATOM     12  C   UNL A   1      33.986  22.237  24.951  1.00  0.00     0.085 A 
BRANCH   9  13
ATOM     13  C   UNL A   1      37.112  23.914  25.832  1.00  0.00     0.187 C 
BRANCH  13  14
ATOM     14  C   UNL A   1      37.981  22.667  25.851  1.00  0.00     0.069 C 
ATOM     15  N   UNL A   1      38.702  21.633  25.868  1.00  0.00    -0.198 NA
ENDBRANCH  13  14
ENDBRANCH   9  13
BRANCH  12  16
ATOM     16  C   UNL A   1      33.339  20.952  24.713  1.00  0.00     0.001 A 
ATOM     17  C   UNL A   1      33.293  19.960  25.699  1.00  0.00     0.010 A 
ATOM     18  C   UNL A   1      32.801  20.684  23.447  1.00  0.00     0.010 A 
ATOM     19  C   UNL A   1      32.776  18.696  25.401  1.00  0.00     0.001 A 
ATOM     20  C   UNL A   1      32.293  19.420  23.147  1.00  0.00     0.001 A 
ATOM     21  C   UNL A   1      32.291  18.423  24.122  1.00  0.00     0.000 A 
ENDBRANCH  12  16
ENDBRANCH   7   8
ENDBRANCH   4   7
ENDBRANCH   2   3
ENDBRANCH   1   2
BRANCH   1  22
ATOM     22  C   UNL A   1      32.260  28.318  27.008  1.00  0.00     0.023 C 
BRANCH  22  23
ATOM     23  C   UNL A   1      33.672  28.875  27.161  1.00  0.00     0.116 C 
BRANCH  23  24
ATOM     24  N   UNL A   1      33.707  30.220  27.716  1.00  0.00    -0.352 N 
ATOM     25  C   UNL A   1      34.731  30.842  28.390  1.00  0.00     0.251 C 
ATOM     26  H   UNL A   1      32.889  30.754  27.593  1.00  0.00     0.163 HD
ATOM     27  O   UNL A   1      34.576  31.956  28.877  1.00  0.00    -0.269 OA
BRANCH  25  28
ATOM     28  C   UNL A   1      36.015  30.132  28.558  1.00  0.00     0.039 A 
ATOM     29  C   UNL A   1      36.943  30.161  27.513  1.00  0.00     0.014 A 
ATOM     30  C   UNL A   1      36.322  29.495  29.763  1.00  0.00     0.014 A 
ATOM     31  C   UNL A   1      38.217  29.625  27.710  1.00  0.00     0.010 A 
ATOM     32  C   UNL A   1      37.611  29.014  29.976  1.00  0.00     0.010 A 
ATOM     33  C   UNL A   1      38.576  29.092  28.958  1.00  0.00    -0.014 A 
BRANCH  33  34
ATOM     34  C   UNL A   1      39.966  28.660  29.246  1.00  0.00     0.031 A 
ATOM     35  C   UNL A   1      40.943  29.618  29.866  1.00  0.00     0.074 A 
ATOM     36  C   UNL A   1      40.376  27.439  28.849  1.00  0.00     0.049 A 
ATOM     37  N   UNL A   1      42.226  29.463  30.081  1.00  0.00    -0.248 NA
ATOM     38  C   UNL A   1      40.419  30.931  30.277  1.00  0.00     0.031 C 
ATOM     39  C   UNL A   1      39.537  26.431  28.196  1.00  0.00     0.029 A 
ATOM     40  N   UNL A   1      41.614  26.847  28.916  1.00  0.00    -0.354 N 
ATOM     41  C   UNL A   1      42.664  30.663  30.623  1.00  0.00     0.074 A 
ATOM     42  C   UNL A   1      41.521  31.547  30.682  1.00  0.00     0.031 C 
ATOM     43  C   UNL A   1      40.280  25.345  27.931  1.00  0.00     0.029 A 
ATOM     44  C   UNL A   1      41.654  25.594  28.352  1.00  0.00     0.049 A 
ATOM     45  H   UNL A   1      42.396  27.278  29.329  1.00  0.00     0.167 HD
ATOM     46  C   UNL A   1      43.908  30.994  31.044  1.00  0.00     0.031 A 
ATOM     47  C   UNL A   1      42.687  24.749  28.172  1.00  0.00     0.031 A 
ATOM     48  C   UNL A   1      45.038  30.106  31.014  1.00  0.00     0.049 A 
ATOM     49  C   UNL A   1      44.059  25.151  28.633  1.00  0.00     0.074 A 
ATOM     50  C   UNL A   1      46.312  30.319  31.513  1.00  0.00     0.029 A 
ATOM     51  N   UNL A   1      45.035  28.842  30.447  1.00  0.00    -0.354 N 
ATOM     52  N   UNL A   1      44.437  26.254  29.232  1.00  0.00    -0.248 NA
ATOM     53  C   UNL A   1      45.148  24.193  28.392  1.00  0.00     0.031 C 
ATOM     54  C   UNL A   1      47.096  29.205  31.199  1.00  0.00     0.029 A 
ATOM     55  C   UNL A   1      46.297  28.280  30.546  1.00  0.00     0.049 A 
ATOM     56  H   UNL A   1      44.253  28.408  30.036  1.00  0.00     0.167 HD
ATOM     57  C   UNL A   1      45.800  26.114  29.457  1.00  0.00     0.074 A 
ATOM     58  C   UNL A   1      46.181  24.814  28.947  1.00  0.00     0.031 C 
ATOM     59  C   UNL A   1      46.660  26.987  30.034  1.00  0.00     0.031 A 
BRANCH  46  60
ATOM     60  C   UNL A   1      44.123  32.384  31.569  1.00  0.00    -0.014 A 
ATOM     61  C   UNL A   1      44.474  33.439  30.714  1.00  0.00     0.009 A 
ATOM     62  C   UNL A   1      43.902  32.654  32.928  1.00  0.00     0.009 A 
ATOM     63  C   UNL A   1      44.622  34.734  31.215  1.00  0.00     0.001 A 
ATOM     64  C   UNL A   1      44.026  33.954  33.422  1.00  0.00     0.001 A 
ATOM     65  C   UNL A   1      44.392  34.991  32.566  1.00  0.00     0.000 A 
ENDBRANCH  46  60
BRANCH  47  66
ATOM     66  C   UNL A   1      42.475  23.438  27.503  1.00  0.00    -0.014 A 
ATOM     67  C   UNL A   1      42.127  22.304  28.253  1.00  0.00     0.009 A 
ATOM     68  C   UNL A   1      42.649  23.308  26.116  1.00  0.00     0.009 A 
ATOM     69  C   UNL A   1      41.988  21.061  27.632  1.00  0.00     0.001 A 
ATOM     70  C   UNL A   1      42.481  22.069  25.495  1.00  0.00     0.001 A 
ATOM     71  C   UNL A   1      42.161  20.945  26.254  1.00  0.00     0.000 A 
ENDBRANCH  47  66
BRANCH  59  72
ATOM     72  C   UNL A   1      48.093  26.560  30.161  1.00  0.00    -0.014 A 
ATOM     73  C   UNL A   1      49.039  26.905  29.183  1.00  0.00     0.009 A 
ATOM     74  C   UNL A   1      48.511  25.850  31.296  1.00  0.00     0.009 A 
ATOM     75  C   UNL A   1      50.375  26.528  29.333  1.00  0.00     0.001 A 
ATOM     76  C   UNL A   1      49.852  25.496  31.455  1.00  0.00     0.001 A 
ATOM     77  C   UNL A   1      50.781  25.831  30.470  1.00  0.00     0.000 A 
ENDBRANCH  59  72
ENDBRANCH  33  34
ENDBRANCH  25  28
ENDBRANCH  23  24
ENDBRANCH  22  23
ENDBRANCH   1  22
TORSDOF 15
ENDMDL
MODEL 2
REMARK VINA RESULT:     -10.6      1.517      2.798
REMARK SMILES N#CCc1nc(-c2ccccc2)c(CC(=O)NCCCCNC(=O)c2ccc(-c3c4nc(c(-c5ccccc5)c5ccc([nH]5)c(-c5ccccc5)c5nc(c(-c6ccccc6)c6ccc3[nH]6)C=C5)C=C4)cc2)s1
REMARK SMILES IDX 19 1 18 2 17 3 15 4 16 5 14 7 13 8 4 9 5 10 73 11 6 12 3 13
REMARK SMILES IDX 2 14 1 15 7 16 8 17 12 18 9 19 11 20 10 21 20 22 21 23 22 24
REMARK SMILES IDX 23 25 24 27 25 28 26 29 72 30 27 31 71 32 28 33 29 34 30 35
REMARK SMILES IDX 65 36 31 37 70 38 64 39 66 40 32 41 69 42 63 43 62 44 33 46
REMARK SMILES IDX 55 47 40 48 54 49 41 50 44 51 53 52 67 53 42 54 43 55 52 57
REMARK SMILES IDX 68 58 45 59 34 60 35 61 39 62 36 63 38 64 37 65 56 66 57 67
REMARK SMILES IDX 61 68 58 69 60 70 59 71 46 72 47 73 51 74 48 75 50 76 49 77
REMARK H PARENT 17 6 22 26 66 45 44 56
REMARK Flexibility Score: inf
ROOT
ATOM      1  C   UNL A   1      33.818  27.816  24.889  1.00  0.00     0.023 C 
ENDROOT
BRANCH   1   2
ATOM      2  C   UNL A   1      33.655  26.308  25.091  1.00  0.00     0.116 C 
BRANCH   2   3
ATOM      3  N   UNL A   1      34.147  25.560  23.951  1.00  0.00    -0.356 N 
ATOM      4  C   UNL A   1      34.643  24.288  23.907  1.00  0.00     0.225 C 
ATOM      5  O   UNL A   1      35.060  23.864  22.826  1.00  0.00    -0.275 OA
ATOM      6  H   UNL A   1      34.119  26.035  23.089  1.00  0.00     0.163 HD
BRANCH   4   7
ATOM      7  C   UNL A   1      34.620  23.403  25.144  1.00  0.00     0.149 C 
BRANCH   7   8
ATOM      8  C   UNL A   1      33.718  22.216  24.982  1.00  0.00     0.042 A 
ATOM      9  C   UNL A   1      32.783  19.972  24.984  1.00  0.00     0.108 A 
ATOM     10  N   UNL A   1      31.817  20.857  24.869  1.00  0.00    -0.240 NA
ATOM     11  S   UNL A   1      34.371  20.621  24.959  1.00  0.00    -0.121 S 
ATOM     12  C   UNL A   1      32.337  22.139  24.852  1.00  0.00     0.085 A 
BRANCH   9  13
ATOM     13  C   UNL A   1      32.565  18.503  25.142  1.00  0.00     0.187 C 
BRANCH  13  14
ATOM     14  C   UNL A   1      32.933  17.814  23.838  1.00  0.00     0.069 C 
ATOM     15  N   UNL A   1      33.238  17.242  22.757  1.00  0.00    -0.198 NA
ENDBRANCH  13  14
ENDBRANCH   9  13
BRANCH  12  16
ATOM     16  C   UNL A   1      31.442  23.290  24.860  1.00  0.00     0.001 A 
ATOM     17  C   UNL A   1      31.025  23.904  23.674  1.00  0.00     0.010 A 
ATOM     18  C   UNL A   1      31.035  23.828  26.089  1.00  0.00     0.010 A 
ATOM     19  C   UNL A   1      30.267  25.078  23.718  1.00  0.00     0.001 A 
ATOM     20  C   UNL A   1      30.286  25.005  26.133  1.00  0.00     0.001 A 
ATOM     21  C   UNL A   1      29.912  25.634  24.947  1.00  0.00     0.000 A 
ENDBRANCH  12  16
ENDBRANCH   7   8
ENDBRANCH   4   7
ENDBRANCH   2   3
ENDBRANCH   1   2
BRANCH   1  22
ATOM     22  C   UNL A   1      32.955  28.675  25.814  1.00  0.00     0.023 C 
BRANCH  22  23
ATOM     23  C   UNL A   1      33.480  28.817  27.240  1.00  0.00     0.116 C 
BRANCH  23  24
ATOM     24  N   UNL A   1      33.546  30.197  27.698  1.00  0.00    -0.352 N 
ATOM     25  C   UNL A   1      34.599  30.852  28.292  1.00  0.00     0.251 C 
ATOM     26  H   UNL A   1      32.729  30.731  27.565  1.00  0.00     0.163 HD
ATOM     27  O   UNL A   1      34.470  32.000  28.705  1.00  0.00    -0.269 OA
BRANCH  25  28
ATOM     28  C   UNL A   1      35.881  30.141  28.467  1.00  0.00     0.039 A 
ATOM     29  C   UNL A   1      36.776  30.092  27.395  1.00  0.00     0.014 A 
ATOM     30  C   UNL A   1      36.220  29.580  29.701  1.00  0.00     0.014 A 
ATOM     31  C   UNL A   1      38.051  29.556  27.586  1.00  0.00     0.010 A 
ATOM     32  C   UNL A   1      37.510  29.100  29.905  1.00  0.00     0.010 A 
ATOM     33  C   UNL A   1      38.444  29.102  28.855  1.00  0.00    -0.014 A 
BRANCH  33  34
ATOM     34  C   UNL A   1      39.838  28.675  29.128  1.00  0.00     0.031 A 
ATOM     35  C   UNL A   1      40.833  29.650  29.689  1.00  0.00     0.074 A 
ATOM     36  C   UNL A   1      40.235  27.437  28.769  1.00  0.00     0.049 A 
ATOM     37  N   UNL A   1      42.119  29.497  29.880  1.00  0.00    -0.248 NA
ATOM     38  C   UNL A   1      40.323  30.980  30.061  1.00  0.00     0.031 C 
ATOM     39  C   UNL A   1      39.377  26.409  28.174  1.00  0.00     0.029 A 
ATOM     40  N   UNL A   1      41.471  26.841  28.830  1.00  0.00    -0.354 N 
ATOM     41  C   UNL A   1      42.575  30.715  30.366  1.00  0.00     0.074 A 
ATOM     42  C   UNL A   1      41.437  31.606  30.417  1.00  0.00     0.031 C 
ATOM     43  C   UNL A   1      40.109  25.310  27.934  1.00  0.00     0.029 A 
ATOM     44  C   UNL A   1      41.493  25.568  28.314  1.00  0.00     0.049 A 
ATOM     45  H   UNL A   1      42.264  27.284  29.208  1.00  0.00     0.167 HD
ATOM     46  C   UNL A   1      43.830  31.056  30.746  1.00  0.00     0.031 A 
ATOM     47  C   UNL A   1      42.518  24.711  28.143  1.00  0.00     0.031 A 
ATOM     48  C   UNL A   1      44.955  30.162  30.724  1.00  0.00     0.049 A 
ATOM     49  C   UNL A   1      43.902  25.125  28.558  1.00  0.00     0.074 A 
ATOM     50  C   UNL A   1      46.241  30.388  31.185  1.00  0.00     0.029 A 
ATOM     51  N   UNL A   1      44.934  28.877  30.206  1.00  0.00    -0.354 N 
ATOM     52  N   UNL A   1      44.298  26.248  29.105  1.00  0.00    -0.248 NA
ATOM     53  C   UNL A   1      44.982  24.153  28.329  1.00  0.00     0.031 C 
ATOM     54  C   UNL A   1      47.013  29.258  30.896  1.00  0.00     0.029 A 
ATOM     55  C   UNL A   1      46.196  28.313  30.298  1.00  0.00     0.049 A 
ATOM     56  H   UNL A   1      44.141  28.432  29.830  1.00  0.00     0.167 HD
ATOM     57  C   UNL A   1      45.665  26.110  29.304  1.00  0.00     0.074 A 
ATOM     58  C   UNL A   1      46.029  24.789  28.836  1.00  0.00     0.031 C 
ATOM     59  C   UNL A   1      46.542  27.000  29.828  1.00  0.00     0.031 A 
BRANCH  46  60
ATOM     60  C   UNL A   1      44.062  32.464  31.212  1.00  0.00    -0.014 A 
ATOM     61  C   UNL A   1      43.961  32.808  32.568  1.00  0.00     0.009 A 
ATOM     62  C   UNL A   1      44.458  33.444  30.289  1.00  0.00     0.009 A 
ATOM     63  C   UNL A   1      44.229  34.113  32.986  1.00  0.00     0.001 A 
ATOM     64  C   UNL A   1      44.749  34.741  30.712  1.00  0.00     0.001 A 
ATOM     65  C   UNL A   1      44.629  35.076  32.060  1.00  0.00     0.000 A 
ENDBRANCH  46  60
BRANCH  47  66
ATOM     66  C   UNL A   1      42.286  23.377  27.530  1.00  0.00    -0.014 A 
ATOM     67  C   UNL A   1      41.872  22.293  28.320  1.00  0.00     0.009 A 
ATOM     68  C   UNL A   1      42.506  23.173  26.159  1.00  0.00     0.009 A 
ATOM     69  C   UNL A   1      41.713  21.026  27.754  1.00  0.00     0.001 A 
ATOM     70  C   UNL A   1      42.318  21.912  25.591  1.00  0.00     0.001 A 
ATOM     71  C   UNL A   1      41.933  20.837  26.390  1.00  0.00     0.000 A 
ENDBRANCH  47  66
BRANCH  59  72
ATOM     72  C   UNL A   1      47.976  26.571  29.938  1.00  0.00    -0.014 A 
ATOM     73  C   UNL A   1      48.438  25.880  31.069  1.00  0.00     0.009 A 
ATOM     74  C   UNL A   1      48.860  26.814  28.877  1.00  0.00     0.009 A 
ATOM     75  C   UNL A   1      49.767  25.459  31.142  1.00  0.00     0.001 A 
ATOM     76  C   UNL A   1      50.181  26.369  28.942  1.00  0.00     0.001 A 
ATOM     77  C   UNL A   1      50.635  25.697  30.077  1.00  0.00     0.000 A 
ENDBRANCH  59  72
ENDBRANCH  33  34
ENDBRANCH  25  28
ENDBRANCH  23  24
ENDBRANCH  22  23
ENDBRANCH   1  22
TORSDOF 15
ENDMDL
MODEL 3
REMARK VINA RESULT:     -10.5      2.824      8.559
REMARK SMILES N#CCc1nc(-c2ccccc2)c(CC(=O)NCCCCNC(=O)c2ccc(-c3c4nc(c(-c5ccccc5)c5ccc([nH]5)c(-c5ccccc5)c5nc(c(-c6ccccc6)c6ccc3[nH]6)C=C5)C=C4)cc2)s1
REMARK SMILES IDX 19 1 18 2 17 3 15 4 16 5 14 7 13 8 4 9 5 10 73 11 6 12 3 13
REMARK SMILES IDX 2 14 1 15 7 16 8 17 12 18 9 19 11 20 10 21 20 22 21 23 22 24
REMARK SMILES IDX 23 25 24 27 25 28 26 29 72 30 27 31 71 32 28 33 29 34 30 35
REMARK SMILES IDX 65 36 31 37 70 38 64 39 66 40 32 41 69 42 63 43 62 44 33 46
REMARK SMILES IDX 55 47 40 48 54 49 41 50 44 51 53 52 67 53 42 54 43 55 52 57
REMARK SMILES IDX 68 58 45 59 34 60 35 61 39 62 36 63 38 64 37 65 56 66 57 67
REMARK SMILES IDX 61 68 58 69 60 70 59 71 46 72 47 73 51 74 48 75 50 76 49 77
REMARK H PARENT 17 6 22 26 66 45 44 56
REMARK Flexibility Score: inf
ROOT
ATOM      1  C   UNL A   1      34.832  22.676  25.239  1.00  0.00     0.023 C 
ENDROOT
BRANCH   1   2
ATOM      2  C   UNL A   1      33.614  23.545  24.920  1.00  0.00     0.116 C 
BRANCH   2   3
ATOM      3  N   UNL A   1      33.936  24.589  23.968  1.00  0.00    -0.356 N 
ATOM      4  C   UNL A   1      33.331  25.800  23.783  1.00  0.00     0.225 C 
ATOM      5  O   UNL A   1      33.740  26.519  22.867  1.00  0.00    -0.275 OA
ATOM      6  H   UNL A   1      34.697  24.399  23.372  1.00  0.00     0.163 HD
BRANCH   4   7
ATOM      7  C   UNL A   1      32.230  26.268  24.721  1.00  0.00     0.149 C 
BRANCH   7   8
ATOM      8  C   UNL A   1      31.464  27.434  24.167  1.00  0.00     0.042 A 
ATOM      9  C   UNL A   1      29.815  28.833  23.056  1.00  0.00     0.108 A 
ATOM     10  N   UNL A   1      30.526  29.559  23.892  1.00  0.00    -0.240 NA
ATOM     11  S   UNL A   1      30.327  27.203  22.892  1.00  0.00    -0.121 S 
ATOM     12  C   UNL A   1      31.479  28.777  24.521  1.00  0.00     0.085 A 
BRANCH   9  13
ATOM     13  C   UNL A   1      28.635  29.339  22.295  1.00  0.00     0.187 C 
BRANCH  13  14
ATOM     14  C   UNL A   1      27.904  30.359  23.152  1.00  0.00     0.069 C 
ATOM     15  N   UNL A   1      27.297  31.206  23.863  1.00  0.00    -0.198 NA
ENDBRANCH  13  14
ENDBRANCH   9  13
BRANCH  12  16
ATOM     16  C   UNL A   1      32.299  29.342  25.586  1.00  0.00     0.001 A 
ATOM     17  C   UNL A   1      31.888  30.468  26.310  1.00  0.00     0.010 A 
ATOM     18  C   UNL A   1      33.554  28.778  25.852  1.00  0.00     0.010 A 
ATOM     19  C   UNL A   1      32.749  31.058  27.239  1.00  0.00     0.001 A 
ATOM     20  C   UNL A   1      34.416  29.373  26.774  1.00  0.00     0.001 A 
ATOM     21  C   UNL A   1      34.017  30.519  27.458  1.00  0.00     0.000 A 
ENDBRANCH  12  16
ENDBRANCH   7   8
ENDBRANCH   4   7
ENDBRANCH   2   3
ENDBRANCH   1   2
BRANCH   1  22
ATOM     22  C   UNL A   1      36.014  23.440  25.841  1.00  0.00     0.023 C 
BRANCH  22  23
ATOM     23  C   UNL A   1      37.278  23.449  24.987  1.00  0.00     0.116 C 
BRANCH  23  24
ATOM     24  N   UNL A   1      38.320  22.564  25.486  1.00  0.00    -0.352 N 
ATOM     25  C   UNL A   1      39.375  22.866  26.315  1.00  0.00     0.251 C 
ATOM     26  H   UNL A   1      38.262  21.626  25.191  1.00  0.00     0.163 HD
ATOM     27  O   UNL A   1      40.227  22.023  26.578  1.00  0.00    -0.269 OA
BRANCH  25  28
ATOM     28  C   UNL A   1      39.496  24.235  26.854  1.00  0.00     0.039 A 
ATOM     29  C   UNL A   1      38.984  24.506  28.126  1.00  0.00     0.014 A 
ATOM     30  C   UNL A   1      40.165  25.227  26.132  1.00  0.00     0.014 A 
ATOM     31  C   UNL A   1      39.221  25.751  28.712  1.00  0.00     0.010 A 
ATOM     32  C   UNL A   1      40.450  26.445  26.741  1.00  0.00     0.010 A 
ATOM     33  C   UNL A   1      39.997  26.711  28.044  1.00  0.00    -0.014 A 
BRANCH  33  34
ATOM     34  C   UNL A   1      40.398  27.979  28.702  1.00  0.00     0.031 A 
ATOM     35  C   UNL A   1      41.740  28.095  29.369  1.00  0.00     0.074 A 
ATOM     36  C   UNL A   1      39.509  28.988  28.793  1.00  0.00     0.049 A 
ATOM     37  N   UNL A   1      42.217  29.074  30.095  1.00  0.00    -0.248 NA
ATOM     38  C   UNL A   1      42.656  26.953  29.222  1.00  0.00     0.031 C 
ATOM     39  C   UNL A   1      38.158  28.985  28.227  1.00  0.00     0.029 A 
ATOM     40  N   UNL A   1      39.602  30.208  29.419  1.00  0.00    -0.354 N 
ATOM     41  C   UNL A   1      43.473  28.656  30.513  1.00  0.00     0.074 A 
ATOM     42  C   UNL A   1      43.676  27.325  29.983  1.00  0.00     0.031 C 
ATOM     43  C   UNL A   1      37.553  30.146  28.523  1.00  0.00     0.029 A 
ATOM     44  C   UNL A   1      38.453  30.957  29.336  1.00  0.00     0.049 A 
ATOM     45  H   UNL A   1      40.415  30.515  29.882  1.00  0.00     0.167 HD
ATOM     46  C   UNL A   1      44.379  29.326  31.263  1.00  0.00     0.031 A 
ATOM     47  C   UNL A   1      38.148  32.153  29.873  1.00  0.00     0.031 A 
ATOM     48  C   UNL A   1      44.190  30.660  31.764  1.00  0.00     0.049 A 
ATOM     49  C   UNL A   1      39.169  32.865  30.716  1.00  0.00     0.074 A 
ATOM     50  C   UNL A   1      45.093  31.458  32.446  1.00  0.00     0.029 A 
ATOM     51  N   UNL A   1      43.019  31.390  31.648  1.00  0.00    -0.354 N 
ATOM     52  N   UNL A   1      40.388  32.496  31.021  1.00  0.00    -0.248 NA
ATOM     53  C   UNL A   1      38.770  34.159  31.291  1.00  0.00     0.031 C 
ATOM     54  C   UNL A   1      44.450  32.650  32.791  1.00  0.00     0.029 A 
ATOM     55  C   UNL A   1      43.161  32.612  32.282  1.00  0.00     0.049 A 
ATOM     56  H   UNL A   1      42.206  31.085  31.183  1.00  0.00     0.167 HD
ATOM     57  C   UNL A   1      40.908  33.518  31.805  1.00  0.00     0.074 A 
ATOM     58  C   UNL A   1      39.880  34.531  31.914  1.00  0.00     0.031 C 
ATOM     59  C   UNL A   1      42.130  33.608  32.383  1.00  0.00     0.031 A 
BRANCH  46  60
ATOM     60  C   UNL A   1      45.663  28.626  31.601  1.00  0.00    -0.014 A 
ATOM     61  C   UNL A   1      45.765  27.794  32.726  1.00  0.00     0.009 A 
ATOM     62  C   UNL A   1      46.766  28.746  30.741  1.00  0.00     0.009 A 
ATOM     63  C   UNL A   1      46.955  27.114  32.995  1.00  0.00     0.001 A 
ATOM     64  C   UNL A   1      47.945  28.046  30.999  1.00  0.00     0.001 A 
ATOM     65  C   UNL A   1      48.040  27.236  32.128  1.00  0.00     0.000 A 
ENDBRANCH  46  60
BRANCH  47  66
ATOM     66  C   UNL A   1      36.807  32.754  29.654  1.00  0.00    -0.014 A 
ATOM     67  C   UNL A   1      35.791  32.597  30.609  1.00  0.00     0.009 A 
ATOM     68  C   UNL A   1      36.526  33.464  28.475  1.00  0.00     0.009 A 
ATOM     69  C   UNL A   1      34.513  33.110  30.374  1.00  0.00     0.001 A 
ATOM     70  C   UNL A   1      35.256  34.000  28.257  1.00  0.00     0.001 A 
ATOM     71  C   UNL A   1      34.248  33.814  29.200  1.00  0.00     0.000 A 
ENDBRANCH  47  66
BRANCH  59  72
ATOM     72  C   UNL A   1      42.428  34.850  33.171  1.00  0.00    -0.014 A 
ATOM     73  C   UNL A   1      42.091  34.942  34.530  1.00  0.00     0.009 A 
ATOM     74  C   UNL A   1      43.102  35.918  32.560  1.00  0.00     0.009 A 
ATOM     75  C   UNL A   1      42.406  36.091  35.257  1.00  0.00     0.001 A 
ATOM     76  C   UNL A   1      43.438  37.055  33.296  1.00  0.00     0.001 A 
ATOM     77  C   UNL A   1      43.084  37.143  34.643  1.00  0.00     0.000 A 
ENDBRANCH  59  72
ENDBRANCH  33  34
ENDBRANCH  25  28
ENDBRANCH  23  24
ENDBRANCH  22  23
ENDBRANCH   1  22
TORSDOF 15
ENDMDL
