MODEL 1
REMARK VINA RESULT:     -11.0      0.000      0.000
REMARK SMILES CC(=O)c1nnn(-c2ccc(C(=O)NCCCCNC(=O)c3ccc(-c4c5nc(c(-c6ccccc6)c6ccc([nH]6)c(-c6ccccc6)c6nc(c(-c7ccccc7)c7ccc4[nH]7)C=C6)C=C5)cc3)cc2)c1C
REMARK SMILES IDX 16 1 15 2 14 3 12 4 13 5 11 7 8 8 9 9 71 10 10 11 70 12 7 13
REMARK SMILES IDX 4 14 5 15 72 16 6 17 73 18 2 19 1 20 3 21 17 22 18 23 19 24
REMARK SMILES IDX 20 25 21 27 22 28 23 29 69 30 24 31 68 32 25 33 26 34 27 35
REMARK SMILES IDX 62 36 28 37 67 38 61 39 63 40 29 41 66 42 60 43 59 44 30 46
REMARK SMILES IDX 52 47 37 48 51 49 38 50 41 51 50 52 64 53 39 54 40 55 49 57
REMARK SMILES IDX 65 58 42 59 31 60 32 61 36 62 33 63 35 64 34 65 53 66 54 67
REMARK SMILES IDX 58 68 55 69 57 70 56 71 43 72 44 73 48 74 45 75 47 76 46 77
REMARK H PARENT 14 6 19 26 63 45 41 56
REMARK Flexibility Score: inf
ROOT
ATOM      1  C   UNL A   1      33.381  35.024  29.065  1.00  0.00     0.023 C 
ENDROOT
BRANCH   1   2
ATOM      2  C   UNL A   1      33.539  36.473  29.548  1.00  0.00     0.116 C 
BRANCH   2   3
ATOM      3  N   UNL A   1      32.644  36.778  30.650  1.00  0.00    -0.352 N 
ATOM      4  C   UNL A   1      32.585  36.364  31.960  1.00  0.00     0.251 C 
ATOM      5  O   UNL A   1      31.711  36.866  32.666  1.00  0.00    -0.269 OA
ATOM      6  H   UNL A   1      31.930  37.412  30.410  1.00  0.00     0.163 HD
BRANCH   4   7
ATOM      7  C   UNL A   1      33.553  35.409  32.579  1.00  0.00     0.039 A 
ATOM      8  C   UNL A   1      35.544  33.634  33.431  1.00  0.00     0.067 A 
ATOM      9  C   UNL A   1      35.888  34.958  33.169  1.00  0.00     0.029 A 
ATOM     10  C   UNL A   1      34.210  33.226  33.402  1.00  0.00     0.029 A 
ATOM     11  C   UNL A   1      34.892  35.831  32.713  1.00  0.00     0.016 A 
ATOM     12  C   UNL A   1      33.220  34.128  33.020  1.00  0.00     0.016 A 
BRANCH   8  13
ATOM     13  N   UNL A   1      36.542  32.671  33.649  1.00  0.00    -0.217 N 
ATOM     14  C   UNL A   1      38.234  31.535  34.408  1.00  0.00     0.151 A 
ATOM     15  N   UNL A   1      37.902  31.066  33.163  1.00  0.00    -0.126 NA
ATOM     16  C   UNL A   1      37.349  32.538  34.767  1.00  0.00     0.073 A 
ATOM     17  N   UNL A   1      36.803  31.694  32.761  1.00  0.00    -0.061 NA
ATOM     18  C   UNL A   1      37.140  33.293  36.027  1.00  0.00     0.069 C 
BRANCH  14  19
ATOM     19  C   UNL A   1      39.319  30.962  35.187  1.00  0.00     0.181 C 
ATOM     20  C   UNL A   1      40.666  31.635  35.100  1.00  0.00     0.095 C 
ATOM     21  O   UNL A   1      39.151  29.977  35.905  1.00  0.00    -0.293 OA
ENDBRANCH  14  19
ENDBRANCH   8  13
ENDBRANCH   4   7
ENDBRANCH   2   3
ENDBRANCH   1   2
BRANCH   1  22
ATOM     22  C   UNL A   1      34.670  34.191  29.022  1.00  0.00     0.023 C 
BRANCH  22  23
ATOM     23  C   UNL A   1      34.550  32.782  29.590  1.00  0.00     0.116 C 
BRANCH  23  24
ATOM     24  N   UNL A   1      34.003  31.810  28.636  1.00  0.00    -0.352 N 
ATOM     25  C   UNL A   1      34.679  30.815  27.938  1.00  0.00     0.251 C 
ATOM     26  H   UNL A   1      33.034  31.869  28.468  1.00  0.00     0.163 HD
ATOM     27  O   UNL A   1      34.230  30.326  26.919  1.00  0.00    -0.269 OA
BRANCH  25  28
ATOM     28  C   UNL A   1      35.954  30.341  28.501  1.00  0.00     0.039 A 
ATOM     29  C   UNL A   1      36.053  29.698  29.739  1.00  0.00     0.014 A 
ATOM     30  C   UNL A   1      37.063  30.496  27.683  1.00  0.00     0.014 A 
ATOM     31  C   UNL A   1      37.279  29.134  30.097  1.00  0.00     0.010 A 
ATOM     32  C   UNL A   1      38.173  29.742  27.923  1.00  0.00     0.010 A 
ATOM     33  C   UNL A   1      38.328  29.147  29.166  1.00  0.00    -0.014 A 
BRANCH  33  34
ATOM     34  C   UNL A   1      39.620  28.532  29.424  1.00  0.00     0.031 A 
ATOM     35  C   UNL A   1      39.998  28.362  30.847  1.00  0.00     0.074 A 
ATOM     36  C   UNL A   1      40.335  27.949  28.438  1.00  0.00     0.049 A 
ATOM     37  N   UNL A   1      40.944  28.982  31.464  1.00  0.00    -0.248 NA
ATOM     38  C   UNL A   1      39.199  27.479  31.708  1.00  0.00     0.031 C 
ATOM     39  C   UNL A   1      39.989  27.767  27.020  1.00  0.00     0.029 A 
ATOM     40  N   UNL A   1      41.503  27.268  28.543  1.00  0.00    -0.354 N 
ATOM     41  C   UNL A   1      40.982  28.464  32.753  1.00  0.00     0.074 A 
ATOM     42  C   UNL A   1      39.803  27.643  32.890  1.00  0.00     0.031 C 
ATOM     43  C   UNL A   1      40.787  26.823  26.476  1.00  0.00     0.029 A 
ATOM     44  C   UNL A   1      41.814  26.486  27.441  1.00  0.00     0.049 A 
ATOM     45  H   UNL A   1      42.082  27.324  29.337  1.00  0.00     0.167 HD
ATOM     46  C   UNL A   1      42.087  28.600  33.537  1.00  0.00     0.031 A 
ATOM     47  C   UNL A   1      42.843  25.614  27.341  1.00  0.00     0.031 A 
ATOM     48  C   UNL A   1      43.046  29.503  32.952  1.00  0.00     0.049 A 
ATOM     49  C   UNL A   1      43.859  26.032  28.337  1.00  0.00     0.074 A 
ATOM     50  C   UNL A   1      43.036  30.840  32.610  1.00  0.00     0.029 A 
ATOM     51  N   UNL A   1      44.081  28.938  32.239  1.00  0.00    -0.354 N 
ATOM     52  N   UNL A   1      44.507  27.159  28.248  1.00  0.00    -0.248 NA
ATOM     53  C   UNL A   1      43.804  25.451  29.670  1.00  0.00     0.031 C 
ATOM     54  C   UNL A   1      43.715  30.899  31.356  1.00  0.00     0.029 A 
ATOM     55  C   UNL A   1      44.167  29.613  31.047  1.00  0.00     0.049 A 
ATOM     56  H   UNL A   1      44.651  28.191  32.531  1.00  0.00     0.167 HD
ATOM     57  C   UNL A   1      44.534  27.655  29.545  1.00  0.00     0.074 A 
ATOM     58  C   UNL A   1      44.188  26.512  30.391  1.00  0.00     0.031 C 
ATOM     59  C   UNL A   1      44.543  29.000  29.792  1.00  0.00     0.031 A 
BRANCH  46  60
ATOM     60  C   UNL A   1      42.477  27.665  34.645  1.00  0.00    -0.014 A 
ATOM     61  C   UNL A   1      43.080  26.438  34.313  1.00  0.00     0.009 A 
ATOM     62  C   UNL A   1      42.029  27.821  35.968  1.00  0.00     0.009 A 
ATOM     63  C   UNL A   1      43.169  25.397  35.243  1.00  0.00     0.001 A 
ATOM     64  C   UNL A   1      42.151  26.796  36.910  1.00  0.00     0.001 A 
ATOM     65  C   UNL A   1      42.696  25.574  36.540  1.00  0.00     0.000 A 
ENDBRANCH  46  60
BRANCH  47  66
ATOM     66  C   UNL A   1      42.867  24.315  26.639  1.00  0.00    -0.014 A 
ATOM     67  C   UNL A   1      43.306  24.218  25.311  1.00  0.00     0.009 A 
ATOM     68  C   UNL A   1      42.711  23.119  27.366  1.00  0.00     0.009 A 
ATOM     69  C   UNL A   1      43.618  22.973  24.747  1.00  0.00     0.001 A 
ATOM     70  C   UNL A   1      43.022  21.878  26.804  1.00  0.00     0.001 A 
ATOM     71  C   UNL A   1      43.492  21.806  25.498  1.00  0.00     0.000 A 
ENDBRANCH  47  66
BRANCH  59  72
ATOM     72  C   UNL A   1      44.695  29.931  28.610  1.00  0.00    -0.014 A 
ATOM     73  C   UNL A   1      43.612  30.331  27.806  1.00  0.00     0.009 A 
ATOM     74  C   UNL A   1      45.934  30.551  28.398  1.00  0.00     0.009 A 
ATOM     75  C   UNL A   1      43.770  31.293  26.802  1.00  0.00     0.001 A 
ATOM     76  C   UNL A   1      46.090  31.527  27.409  1.00  0.00     0.001 A 
ATOM     77  C   UNL A   1      45.010  31.893  26.608  1.00  0.00     0.000 A 
ENDBRANCH  59  72
ENDBRANCH  33  34
ENDBRANCH  25  28
ENDBRANCH  23  24
ENDBRANCH  22  23
ENDBRANCH   1  22
TORSDOF 13
ENDMDL
MODEL 2
REMARK VINA RESULT:     -11.0      5.148     10.360
REMARK SMILES CC(=O)c1nnn(-c2ccc(C(=O)NCCCCNC(=O)c3ccc(-c4c5nc(c(-c6ccccc6)c6ccc([nH]6)c(-c6ccccc6)c6nc(c(-c7ccccc7)c7ccc4[nH]7)C=C6)C=C5)cc3)cc2)c1C
REMARK SMILES IDX 16 1 15 2 14 3 12 4 13 5 11 7 8 8 9 9 71 10 10 11 70 12 7 13
REMARK SMILES IDX 4 14 5 15 72 16 6 17 73 18 2 19 1 20 3 21 17 22 18 23 19 24
REMARK SMILES IDX 20 25 21 27 22 28 23 29 69 30 24 31 68 32 25 33 26 34 27 35
REMARK SMILES IDX 62 36 28 37 67 38 61 39 63 40 29 41 66 42 60 43 59 44 30 46
REMARK SMILES IDX 52 47 37 48 51 49 38 50 41 51 50 52 64 53 39 54 40 55 49 57
REMARK SMILES IDX 65 58 42 59 31 60 32 61 36 62 33 63 35 64 34 65 53 66 54 67
REMARK SMILES IDX 58 68 55 69 57 70 56 71 43 72 44 73 48 74 45 75 47 76 46 77
REMARK H PARENT 14 6 19 26 63 45 41 56
REMARK Flexibility Score: inf
ROOT
ATOM      1  C   UNL A   1      36.475  20.924  24.658  1.00  0.00     0.023 C 
ENDROOT
BRANCH   1   2
ATOM      2  C   UNL A   1      35.307  21.095  25.640  1.00  0.00     0.116 C 
BRANCH   2   3
ATOM      3  N   UNL A   1      34.279  20.088  25.441  1.00  0.00    -0.352 N 
ATOM      4  C   UNL A   1      32.942  20.154  25.128  1.00  0.00     0.251 C 
ATOM      5  O   UNL A   1      32.351  19.085  24.974  1.00  0.00    -0.269 OA
ATOM      6  H   UNL A   1      34.608  19.167  25.556  1.00  0.00     0.163 HD
BRANCH   4   7
ATOM      7  C   UNL A   1      32.200  21.430  24.896  1.00  0.00     0.039 A 
ATOM      8  C   UNL A   1      31.119  23.956  24.360  1.00  0.00     0.067 A 
ATOM      9  C   UNL A   1      31.618  23.198  23.303  1.00  0.00     0.029 A 
ATOM     10  C   UNL A   1      31.033  23.418  25.644  1.00  0.00     0.029 A 
ATOM     11  C   UNL A   1      32.185  21.948  23.585  1.00  0.00     0.016 A 
ATOM     12  C   UNL A   1      31.533  22.142  25.893  1.00  0.00     0.016 A 
BRANCH   8  13
ATOM     13  N   UNL A   1      30.771  25.302  24.165  1.00  0.00    -0.217 N 
ATOM     14  C   UNL A   1      30.723  27.476  24.143  1.00  0.00     0.151 A 
ATOM     15  N   UNL A   1      29.476  26.997  23.830  1.00  0.00    -0.126 NA
ATOM     16  C   UNL A   1      31.588  26.410  24.319  1.00  0.00     0.073 A 
ATOM     17  N   UNL A   1      29.549  25.674  23.742  1.00  0.00    -0.061 NA
ATOM     18  C   UNL A   1      33.055  26.328  24.526  1.00  0.00     0.069 C 
BRANCH  14  19
ATOM     19  C   UNL A   1      31.015  28.900  24.189  1.00  0.00     0.181 C 
ATOM     20  C   UNL A   1      30.004  29.835  23.576  1.00  0.00     0.095 C 
ATOM     21  O   UNL A   1      32.036  29.334  24.720  1.00  0.00    -0.293 OA
ENDBRANCH  14  19
ENDBRANCH   8  13
ENDBRANCH   4   7
ENDBRANCH   2   3
ENDBRANCH   1   2
BRANCH   1  22
ATOM     22  C   UNL A   1      37.488  19.826  25.011  1.00  0.00     0.023 C 
BRANCH  22  23
ATOM     23  C   UNL A   1      38.822  20.324  25.554  1.00  0.00     0.116 C 
BRANCH  23  24
ATOM     24  N   UNL A   1      39.812  19.257  25.746  1.00  0.00    -0.352 N 
ATOM     25  C   UNL A   1      41.180  19.382  25.960  1.00  0.00     0.251 C 
ATOM     26  H   UNL A   1      39.464  18.336  25.720  1.00  0.00     0.163 HD
ATOM     27  O   UNL A   1      41.953  18.471  25.732  1.00  0.00    -0.269 OA
BRANCH  25  28
ATOM     28  C   UNL A   1      41.665  20.657  26.514  1.00  0.00     0.039 A 
ATOM     29  C   UNL A   1      42.246  21.660  25.732  1.00  0.00     0.014 A 
ATOM     30  C   UNL A   1      41.434  20.848  27.868  1.00  0.00     0.014 A 
ATOM     31  C   UNL A   1      42.508  22.896  26.326  1.00  0.00     0.010 A 
ATOM     32  C   UNL A   1      41.463  22.113  28.372  1.00  0.00     0.010 A 
ATOM     33  C   UNL A   1      42.092  23.115  27.647  1.00  0.00    -0.014 A 
BRANCH  33  34
ATOM     34  C   UNL A   1      42.266  24.386  28.330  1.00  0.00     0.031 A 
ATOM     35  C   UNL A   1      41.215  25.406  28.105  1.00  0.00     0.074 A 
ATOM     36  C   UNL A   1      43.206  24.553  29.284  1.00  0.00     0.049 A 
ATOM     37  N   UNL A   1      41.355  26.517  27.467  1.00  0.00    -0.248 NA
ATOM     38  C   UNL A   1      39.841  25.143  28.555  1.00  0.00     0.031 C 
ATOM     39  C   UNL A   1      44.148  23.571  29.844  1.00  0.00     0.029 A 
ATOM     40  N   UNL A   1      43.426  25.643  30.060  1.00  0.00    -0.354 N 
ATOM     41  C   UNL A   1      40.138  27.183  27.562  1.00  0.00     0.074 A 
ATOM     42  C   UNL A   1      39.205  26.236  28.122  1.00  0.00     0.031 C 
ATOM     43  C   UNL A   1      44.642  24.032  31.015  1.00  0.00     0.029 A 
ATOM     44  C   UNL A   1      44.208  25.405  31.180  1.00  0.00     0.049 A 
ATOM     45  H   UNL A   1      43.060  26.531  29.845  1.00  0.00     0.167 HD
ATOM     46  C   UNL A   1      40.050  28.525  27.349  1.00  0.00     0.031 A 
ATOM     47  C   UNL A   1      44.468  26.280  32.178  1.00  0.00     0.031 A 
ATOM     48  C   UNL A   1      41.277  29.062  26.818  1.00  0.00     0.049 A 
ATOM     49  C   UNL A   1      44.260  27.639  31.624  1.00  0.00     0.074 A 
ATOM     50  C   UNL A   1      42.007  28.855  25.665  1.00  0.00     0.029 A 
ATOM     51  N   UNL A   1      42.146  29.640  27.717  1.00  0.00    -0.354 N 
ATOM     52  N   UNL A   1      45.013  28.137  30.683  1.00  0.00    -0.248 NA
ATOM     53  C   UNL A   1      42.943  28.247  31.750  1.00  0.00     0.031 C 
ATOM     54  C   UNL A   1      43.368  28.846  26.094  1.00  0.00     0.029 A 
ATOM     55  C   UNL A   1      43.393  29.125  27.463  1.00  0.00     0.049 A 
ATOM     56  H   UNL A   1      41.916  30.298  28.412  1.00  0.00     0.167 HD
ATOM     57  C   UNL A   1      44.130  28.772  29.821  1.00  0.00     0.074 A 
ATOM     58  C   UNL A   1      42.888  28.904  30.585  1.00  0.00     0.031 C 
ATOM     59  C   UNL A   1      44.388  28.866  28.481  1.00  0.00     0.031 A 
BRANCH  46  60
ATOM     60  C   UNL A   1      39.003  29.423  27.942  1.00  0.00    -0.014 A 
ATOM     61  C   UNL A   1      39.198  29.921  29.244  1.00  0.00     0.009 A 
ATOM     62  C   UNL A   1      37.721  29.572  27.385  1.00  0.00     0.009 A 
ATOM     63  C   UNL A   1      38.143  30.480  29.973  1.00  0.00     0.001 A 
ATOM     64  C   UNL A   1      36.675  30.166  28.098  1.00  0.00     0.001 A 
ATOM     65  C   UNL A   1      36.880  30.594  29.402  1.00  0.00     0.000 A 
ENDBRANCH  46  60
BRANCH  47  66
ATOM     66  C   UNL A   1      44.614  25.995  33.620  1.00  0.00    -0.014 A 
ATOM     67  C   UNL A   1      45.567  26.668  34.398  1.00  0.00     0.009 A 
ATOM     68  C   UNL A   1      43.627  25.249  34.294  1.00  0.00     0.009 A 
ATOM     69  C   UNL A   1      45.507  26.631  35.797  1.00  0.00     0.001 A 
ATOM     70  C   UNL A   1      43.567  25.212  35.689  1.00  0.00     0.001 A 
ATOM     71  C   UNL A   1      44.499  25.917  36.442  1.00  0.00     0.000 A 
ENDBRANCH  47  66
BRANCH  59  72
ATOM     72  C   UNL A   1      45.744  28.407  27.992  1.00  0.00    -0.014 A 
ATOM     73  C   UNL A   1      46.841  29.277  27.854  1.00  0.00     0.009 A 
ATOM     74  C   UNL A   1      45.968  27.034  27.822  1.00  0.00     0.009 A 
ATOM     75  C   UNL A   1      48.112  28.793  27.522  1.00  0.00     0.001 A 
ATOM     76  C   UNL A   1      47.241  26.547  27.511  1.00  0.00     0.001 A 
ATOM     77  C   UNL A   1      48.311  27.426  27.355  1.00  0.00     0.000 A 
ENDBRANCH  59  72
ENDBRANCH  33  34
ENDBRANCH  25  28
ENDBRANCH  23  24
ENDBRANCH  22  23
ENDBRANCH   1  22
TORSDOF 13
ENDMDL
MODEL 3
REMARK VINA RESULT:     -10.9      4.490      7.446
REMARK SMILES CC(=O)c1nnn(-c2ccc(C(=O)NCCCCNC(=O)c3ccc(-c4c5nc(c(-c6ccccc6)c6ccc([nH]6)c(-c6ccccc6)c6nc(c(-c7ccccc7)c7ccc4[nH]7)C=C6)C=C5)cc3)cc2)c1C
REMARK SMILES IDX 16 1 15 2 14 3 12 4 13 5 11 7 8 8 9 9 71 10 10 11 70 12 7 13
REMARK SMILES IDX 4 14 5 15 72 16 6 17 73 18 2 19 1 20 3 21 17 22 18 23 19 24
REMARK SMILES IDX 20 25 21 27 22 28 23 29 69 30 24 31 68 32 25 33 26 34 27 35
REMARK SMILES IDX 62 36 28 37 67 38 61 39 63 40 29 41 66 42 60 43 59 44 30 46
REMARK SMILES IDX 52 47 37 48 51 49 38 50 41 51 50 52 64 53 39 54 40 55 49 57
REMARK SMILES IDX 65 58 42 59 31 60 32 61 36 62 33 63 35 64 34 65 53 66 54 67
REMARK SMILES IDX 58 68 55 69 57 70 56 71 43 72 44 73 48 74 45 75 47 76 46 77
REMARK H PARENT 14 6 19 26 63 45 41 56
REMARK Flexibility Score: inf
ROOT
ATOM      1  C   UNL A   1      32.027  29.508  25.913  1.00  0.00     0.023 C 
ENDROOT
BRANCH   1   2
ATOM      2  C   UNL A   1      32.882  29.396  24.643  1.00  0.00     0.116 C 
BRANCH   2   3
ATOM      3  N   UNL A   1      32.108  28.927  23.507  1.00  0.00    -0.352 N 
ATOM      4  C   UNL A   1      31.864  27.680  22.982  1.00  0.00     0.251 C 
ATOM      5  O   UNL A   1      31.099  27.619  22.019  1.00  0.00    -0.269 OA
ATOM      6  H   UNL A   1      31.666  29.652  23.009  1.00  0.00     0.163 HD
BRANCH   4   7
ATOM      7  C   UNL A   1      32.411  26.411  23.552  1.00  0.00     0.039 A 
ATOM      8  C   UNL A   1      33.307  23.876  24.332  1.00  0.00     0.067 A 
ATOM      9  C   UNL A   1      33.861  24.469  23.199  1.00  0.00     0.029 A 
ATOM     10  C   UNL A   1      32.420  24.584  25.143  1.00  0.00     0.029 A 
ATOM     11  C   UNL A   1      33.385  25.724  22.799  1.00  0.00     0.016 A 
ATOM     12  C   UNL A   1      32.013  25.863  24.771  1.00  0.00     0.016 A 
BRANCH   8  13
ATOM     13  N   UNL A   1      33.569  22.529  24.629  1.00  0.00    -0.217 N 
ATOM     14  C   UNL A   1      33.495  20.362  24.791  1.00  0.00     0.151 A 
ATOM     15  N   UNL A   1      34.381  20.851  25.717  1.00  0.00    -0.126 NA
ATOM     16  C   UNL A   1      32.991  21.414  24.045  1.00  0.00     0.073 A 
ATOM     17  N   UNL A   1      34.495  22.160  25.533  1.00  0.00    -0.061 NA
ATOM     18  C   UNL A   1      32.125  21.471  22.841  1.00  0.00     0.069 C 
BRANCH  14  19
ATOM     19  C   UNL A   1      33.241  18.938  24.639  1.00  0.00     0.181 C 
ATOM     20  C   UNL A   1      34.420  18.054  24.321  1.00  0.00     0.095 C 
ATOM     21  O   UNL A   1      32.115  18.464  24.780  1.00  0.00    -0.293 OA
ENDBRANCH  14  19
ENDBRANCH   8  13
ENDBRANCH   4   7
ENDBRANCH   2   3
ENDBRANCH   1   2
BRANCH   1  22
ATOM     22  C   UNL A   1      32.798  29.747  27.218  1.00  0.00     0.023 C 
BRANCH  22  23
ATOM     23  C   UNL A   1      33.952  30.738  27.118  1.00  0.00     0.116 C 
BRANCH  23  24
ATOM     24  N   UNL A   1      33.907  31.797  28.134  1.00  0.00    -0.352 N 
ATOM     25  C   UNL A   1      34.744  31.973  29.229  1.00  0.00     0.251 C 
ATOM     26  H   UNL A   1      33.193  32.467  28.026  1.00  0.00     0.163 HD
ATOM     27  O   UNL A   1      34.408  32.631  30.196  1.00  0.00    -0.269 OA
BRANCH  25  28
ATOM     28  C   UNL A   1      36.081  31.361  29.165  1.00  0.00     0.039 A 
ATOM     29  C   UNL A   1      37.261  32.105  29.070  1.00  0.00     0.014 A 
ATOM     30  C   UNL A   1      36.114  29.980  29.289  1.00  0.00     0.014 A 
ATOM     31  C   UNL A   1      38.479  31.436  29.193  1.00  0.00     0.010 A 
ATOM     32  C   UNL A   1      37.280  29.375  29.651  1.00  0.00     0.010 A 
ATOM     33  C   UNL A   1      38.473  30.068  29.504  1.00  0.00    -0.014 A 
BRANCH  33  34
ATOM     34  C   UNL A   1      39.689  29.299  29.711  1.00  0.00     0.031 A 
ATOM     35  C   UNL A   1      39.996  28.912  31.108  1.00  0.00     0.074 A 
ATOM     36  C   UNL A   1      40.381  28.777  28.676  1.00  0.00     0.049 A 
ATOM     37  N   UNL A   1      40.974  29.351  31.824  1.00  0.00    -0.248 NA
ATOM     38  C   UNL A   1      39.084  28.012  31.828  1.00  0.00     0.031 C 
ATOM     39  C   UNL A   1      40.071  28.813  27.238  1.00  0.00     0.029 A 
ATOM     40  N   UNL A   1      41.472  27.975  28.719  1.00  0.00    -0.354 N 
ATOM     41  C   UNL A   1      40.913  28.672  33.035  1.00  0.00     0.074 A 
ATOM     42  C   UNL A   1      39.656  27.963  33.035  1.00  0.00     0.031 C 
ATOM     43  C   UNL A   1      40.795  27.869  26.595  1.00  0.00     0.029 A 
ATOM     44  C   UNL A   1      41.747  27.311  27.533  1.00  0.00     0.049 A 
ATOM     45  H   UNL A   1      42.024  27.870  29.528  1.00  0.00     0.167 HD
ATOM     46  C   UNL A   1      41.996  28.596  33.857  1.00  0.00     0.031 A 
ATOM     47  C   UNL A   1      42.691  26.360  27.346  1.00  0.00     0.031 A 
ATOM     48  C   UNL A   1      43.059  29.464  33.418  1.00  0.00     0.049 A 
ATOM     49  C   UNL A   1      43.704  26.543  28.412  1.00  0.00     0.074 A 
ATOM     50  C   UNL A   1      43.191  30.828  33.253  1.00  0.00     0.029 A 
ATOM     51  N   UNL A   1      44.060  28.894  32.664  1.00  0.00    -0.354 N 
ATOM     52  N   UNL A   1      44.461  27.602  28.487  1.00  0.00    -0.248 NA
ATOM     53  C   UNL A   1      43.543  25.806  29.657  1.00  0.00     0.031 C 
ATOM     54  C   UNL A   1      43.918  30.977  32.035  1.00  0.00     0.029 A 
ATOM     55  C   UNL A   1      44.255  29.702  31.572  1.00  0.00     0.049 A 
ATOM     56  H   UNL A   1      44.544  28.061  32.870  1.00  0.00     0.167 HD
ATOM     57  C   UNL A   1      44.487  27.923  29.837  1.00  0.00     0.074 A 
ATOM     58  C   UNL A   1      44.001  26.723  30.519  1.00  0.00     0.031 C 
ATOM     59  C   UNL A   1      44.617  29.218  30.257  1.00  0.00     0.031 A 
BRANCH  46  60
ATOM     60  C   UNL A   1      42.252  27.493  34.843  1.00  0.00    -0.014 A 
ATOM     61  C   UNL A   1      42.693  26.246  34.363  1.00  0.00     0.009 A 
ATOM     62  C   UNL A   1      41.818  27.548  36.179  1.00  0.00     0.009 A 
ATOM     63  C   UNL A   1      42.638  25.099  35.163  1.00  0.00     0.001 A 
ATOM     64  C   UNL A   1      41.799  26.411  36.992  1.00  0.00     0.001 A 
ATOM     65  C   UNL A   1      42.182  25.182  36.475  1.00  0.00     0.000 A 
ENDBRANCH  46  60
BRANCH  47  66
ATOM     66  C   UNL A   1      42.615  25.165  26.482  1.00  0.00    -0.014 A 
ATOM     67  C   UNL A   1      43.542  24.958  25.450  1.00  0.00     0.009 A 
ATOM     68  C   UNL A   1      41.787  24.085  26.845  1.00  0.00     0.009 A 
ATOM     69  C   UNL A   1      43.664  23.704  24.835  1.00  0.00     0.001 A 
ATOM     70  C   UNL A   1      41.909  22.834  26.233  1.00  0.00     0.001 A 
ATOM     71  C   UNL A   1      42.860  22.639  25.238  1.00  0.00     0.000 A 
ENDBRANCH  47  66
BRANCH  59  72
ATOM     72  C   UNL A   1      44.902  30.272  29.210  1.00  0.00    -0.014 A 
ATOM     73  C   UNL A   1      46.203  30.705  28.895  1.00  0.00     0.009 A 
ATOM     74  C   UNL A   1      43.847  30.723  28.406  1.00  0.00     0.009 A 
ATOM     75  C   UNL A   1      46.437  31.586  27.833  1.00  0.00     0.001 A 
ATOM     76  C   UNL A   1      44.081  31.588  27.332  1.00  0.00     0.001 A 
ATOM     77  C   UNL A   1      45.373  32.024  27.049  1.00  0.00     0.000 A 
ENDBRANCH  59  72
ENDBRANCH  33  34
ENDBRANCH  25  28
ENDBRANCH  23  24
ENDBRANCH  22  23
ENDBRANCH   1  22
TORSDOF 13
ENDMDL
