MODEL 1
REMARK VINA RESULT:     -11.3      0.000      0.000
REMARK SMILES Cc1onc(-c2cccc(Br)c2)c1C(=O)NCCCCNC(=O)c1ccc(-c2c3nc(c(-c4ccccc4)c4ccc([nH]4)c(-c4ccccc4)c4nc(c(-c5ccccc5)c5ccc2[nH]5)C=C4)C=C3)cc1
REMARK SMILES IDX 19 1 18 2 17 3 16 4 14 5 15 6 13 8 1 9 2 10 3 11 4 12 5 13
REMARK SMILES IDX 6 14 7 15 12 16 8 17 10 18 9 19 11 20 20 21 21 22 22 23
REMARK SMILES IDX 23 25 24 26 25 27 71 28 26 29 70 30 27 31 28 32 29 33 64 34
REMARK SMILES IDX 30 35 69 36 63 37 65 38 31 39 68 40 62 41 61 42 32 44 54 45
REMARK SMILES IDX 39 46 53 47 40 48 43 49 52 50 66 51 41 52 42 53 51 55 67 56
REMARK SMILES IDX 44 57 33 58 34 59 38 60 35 61 37 62 36 63 55 64 56 65 60 66
REMARK SMILES IDX 57 67 59 68 58 69 45 70 46 71 50 72 47 73 49 74 48 75
REMARK H PARENT 16 7 21 24 65 43 43 54
REMARK Flexibility Score: inf
ROOT
ATOM      1  C   UNL A   1      37.657  20.135  24.958  1.00  0.00     0.023 C 
ENDROOT
BRANCH   1   2
ATOM      2  C   UNL A   1      36.493  21.119  25.098  1.00  0.00     0.023 C 
BRANCH   2   3
ATOM      3  C   UNL A   1      36.754  22.510  24.518  1.00  0.00     0.116 C 
BRANCH   3   4
ATOM      4  N   UNL A   1      35.831  22.793  23.449  1.00  0.00    -0.352 N 
ATOM      5  C   UNL A   1      34.474  22.901  23.347  1.00  0.00     0.257 C 
ATOM      6  O   UNL A   1      34.107  23.142  22.194  1.00  0.00    -0.269 OA
ATOM      7  H   UNL A   1      36.287  22.945  22.590  1.00  0.00     0.163 HD
BRANCH   5   8
ATOM      8  C   UNL A   1      33.506  22.790  24.439  1.00  0.00     0.110 A 
ATOM      9  C   UNL A   1      33.327  24.991  25.973  1.00  0.00     0.092 C 
ATOM     10  C   UNL A   1      33.062  23.641  25.443  1.00  0.00     0.147 A 
ATOM     11  O   UNL A   1      32.089  23.023  26.167  1.00  0.00    -0.360 OA
ATOM     12  N   UNL A   1      31.891  21.754  25.718  1.00  0.00    -0.079 NA
ATOM     13  C   UNL A   1      32.752  21.578  24.711  1.00  0.00     0.126 A 
BRANCH  13  14
ATOM     14  C   UNL A   1      32.804  20.270  24.064  1.00  0.00     0.006 A 
ATOM     15  C   UNL A   1      32.185  20.063  22.825  1.00  0.00     0.010 A 
ATOM     16  C   UNL A   1      33.521  19.225  24.661  1.00  0.00     0.026 A 
ATOM     17  C   UNL A   1      32.250  18.815  22.203  1.00  0.00     0.002 A 
ATOM     18  C   UNL A   1      33.585  17.983  24.031  1.00  0.00     0.018 A 
ATOM     19  C   UNL A   1      32.949  17.771  22.808  1.00  0.00     0.016 A 
ATOM     20  Br  UNL A   1      34.548  16.572  24.841  1.00  0.00    -0.051 Br
ENDBRANCH  13  14
ENDBRANCH   5   8
ENDBRANCH   3   4
ENDBRANCH   2   3
ENDBRANCH   1   2
BRANCH   1  21
ATOM     21  C   UNL A   1      38.921  20.512  25.724  1.00  0.00     0.116 C 
BRANCH  21  22
ATOM     22  N   UNL A   1      39.936  19.470  25.723  1.00  0.00    -0.352 N 
ATOM     23  C   UNL A   1      41.254  19.568  26.096  1.00  0.00     0.251 C 
ATOM     24  H   UNL A   1      39.641  18.582  25.416  1.00  0.00     0.163 HD
ATOM     25  O   UNL A   1      42.015  18.614  25.958  1.00  0.00    -0.269 OA
BRANCH  23  26
ATOM     26  C   UNL A   1      41.759  20.854  26.615  1.00  0.00     0.039 A 
ATOM     27  C   UNL A   1      42.262  21.791  25.712  1.00  0.00     0.014 A 
ATOM     28  C   UNL A   1      41.685  21.147  27.979  1.00  0.00     0.014 A 
ATOM     29  C   UNL A   1      42.623  23.059  26.168  1.00  0.00     0.010 A 
ATOM     30  C   UNL A   1      41.983  22.431  28.422  1.00  0.00     0.010 A 
ATOM     31  C   UNL A   1      42.449  23.399  27.520  1.00  0.00    -0.014 A 
BRANCH  31  32
ATOM     32  C   UNL A   1      42.737  24.768  28.011  1.00  0.00     0.031 A 
ATOM     33  C   UNL A   1      44.135  25.147  28.409  1.00  0.00     0.074 A 
ATOM     34  C   UNL A   1      41.726  25.644  28.170  1.00  0.00     0.049 A 
ATOM     35  N   UNL A   1      44.569  26.267  28.928  1.00  0.00    -0.248 NA
ATOM     36  C   UNL A   1      45.176  24.124  28.225  1.00  0.00     0.031 C 
ATOM     37  C   UNL A   1      40.317  25.382  27.865  1.00  0.00     0.029 A 
ATOM     38  N   UNL A   1      41.729  26.933  28.641  1.00  0.00    -0.354 N 
ATOM     39  C   UNL A   1      45.926  26.075  29.153  1.00  0.00     0.074 A 
ATOM     40  C   UNL A   1      46.234  24.719  28.755  1.00  0.00     0.031 C 
ATOM     41  C   UNL A   1      39.597  26.483  28.131  1.00  0.00     0.029 A 
ATOM     42  C   UNL A   1      40.484  27.515  28.660  1.00  0.00     0.049 A 
ATOM     43  H   UNL A   1      42.545  27.397  28.938  1.00  0.00     0.167 HD
ATOM     44  C   UNL A   1      46.838  26.954  29.629  1.00  0.00     0.031 A 
ATOM     45  C   UNL A   1      40.101  28.740  29.061  1.00  0.00     0.031 A 
ATOM     46  C   UNL A   1      46.536  28.310  30.006  1.00  0.00     0.049 A 
ATOM     47  C   UNL A   1      41.134  29.701  29.578  1.00  0.00     0.074 A 
ATOM     48  C   UNL A   1      47.402  29.296  30.443  1.00  0.00     0.029 A 
ATOM     49  N   UNL A   1      45.267  28.867  29.986  1.00  0.00    -0.354 N 
ATOM     50  N   UNL A   1      42.424  29.526  29.723  1.00  0.00    -0.248 NA
ATOM     51  C   UNL A   1      40.657  31.033  29.976  1.00  0.00     0.031 C 
ATOM     52  C   UNL A   1      46.651  30.442  30.725  1.00  0.00     0.029 A 
ATOM     53  C   UNL A   1      45.325  30.181  30.419  1.00  0.00     0.049 A 
ATOM     54  H   UNL A   1      44.447  28.400  29.707  1.00  0.00     0.167 HD
ATOM     55  C   UNL A   1      42.918  30.732  30.201  1.00  0.00     0.074 A 
ATOM     56  C   UNL A   1      41.790  31.634  30.311  1.00  0.00     0.031 C 
ATOM     57  C   UNL A   1      44.193  31.065  30.518  1.00  0.00     0.031 A 
BRANCH  44  58
ATOM     58  C   UNL A   1      48.252  26.470  29.771  1.00  0.00    -0.014 A 
ATOM     59  C   UNL A   1      49.186  26.645  28.738  1.00  0.00     0.009 A 
ATOM     60  C   UNL A   1      48.664  25.855  30.963  1.00  0.00     0.009 A 
ATOM     61  C   UNL A   1      50.494  26.179  28.881  1.00  0.00     0.001 A 
ATOM     62  C   UNL A   1      49.981  25.415  31.114  1.00  0.00     0.001 A 
ATOM     63  C   UNL A   1      50.891  25.568  30.069  1.00  0.00     0.000 A 
ENDBRANCH  44  58
BRANCH  45  64
ATOM     64  C   UNL A   1      38.674  29.142  28.965  1.00  0.00    -0.014 A 
ATOM     65  C   UNL A   1      37.823  29.002  30.072  1.00  0.00     0.009 A 
ATOM     66  C   UNL A   1      38.155  29.661  27.769  1.00  0.00     0.009 A 
ATOM     67  C   UNL A   1      36.475  29.351  29.975  1.00  0.00     0.001 A 
ATOM     68  C   UNL A   1      36.811  30.033  27.684  1.00  0.00     0.001 A 
ATOM     69  C   UNL A   1      35.971  29.870  28.784  1.00  0.00     0.000 A 
ENDBRANCH  45  64
BRANCH  57  70
ATOM     70  C   UNL A   1      44.441  32.472  30.978  1.00  0.00    -0.014 A 
ATOM     71  C   UNL A   1      44.409  32.810  32.338  1.00  0.00     0.009 A 
ATOM     72  C   UNL A   1      44.756  33.462  30.034  1.00  0.00     0.009 A 
ATOM     73  C   UNL A   1      44.661  34.122  32.744  1.00  0.00     0.001 A 
ATOM     74  C   UNL A   1      45.032  34.767  30.444  1.00  0.00     0.001 A 
ATOM     75  C   UNL A   1      44.977  35.097  31.799  1.00  0.00     0.000 A 
ENDBRANCH  57  70
ENDBRANCH  31  32
ENDBRANCH  23  26
ENDBRANCH  21  22
ENDBRANCH   1  21
TORSDOF 12
ENDMDL
MODEL 2
REMARK VINA RESULT:     -11.3      5.132      9.892
REMARK SMILES Cc1onc(-c2cccc(Br)c2)c1C(=O)NCCCCNC(=O)c1ccc(-c2c3nc(c(-c4ccccc4)c4ccc([nH]4)c(-c4ccccc4)c4nc(c(-c5ccccc5)c5ccc2[nH]5)C=C4)C=C3)cc1
REMARK SMILES IDX 19 1 18 2 17 3 16 4 14 5 15 6 13 8 1 9 2 10 3 11 4 12 5 13
REMARK SMILES IDX 6 14 7 15 12 16 8 17 10 18 9 19 11 20 20 21 21 22 22 23
REMARK SMILES IDX 23 25 24 26 25 27 71 28 26 29 70 30 27 31 28 32 29 33 64 34
REMARK SMILES IDX 30 35 69 36 63 37 65 38 31 39 68 40 62 41 61 42 32 44 54 45
REMARK SMILES IDX 39 46 53 47 40 48 43 49 52 50 66 51 41 52 42 53 51 55 67 56
REMARK SMILES IDX 44 57 33 58 34 59 38 60 35 61 37 62 36 63 55 64 56 65 60 66
REMARK SMILES IDX 57 67 59 68 58 69 45 70 46 71 50 72 47 73 49 74 48 75
REMARK H PARENT 16 7 21 24 65 43 43 54
REMARK Flexibility Score: inf
ROOT
ATOM      1  C   UNL A   1      31.470  31.752  26.827  1.00  0.00     0.023 C 
ENDROOT
BRANCH   1   2
ATOM      2  C   UNL A   1      31.768  30.474  26.038  1.00  0.00     0.023 C 
BRANCH   2   3
ATOM      3  C   UNL A   1      32.382  29.340  26.860  1.00  0.00     0.116 C 
BRANCH   3   4
ATOM      4  N   UNL A   1      31.500  28.202  26.888  1.00  0.00    -0.352 N 
ATOM      5  C   UNL A   1      31.147  27.230  25.996  1.00  0.00     0.257 C 
ATOM      6  O   UNL A   1      30.315  26.446  26.459  1.00  0.00    -0.269 OA
ATOM      7  H   UNL A   1      31.045  28.101  27.755  1.00  0.00     0.163 HD
BRANCH   5   8
ATOM      8  C   UNL A   1      31.677  27.054  24.644  1.00  0.00     0.110 A 
ATOM      9  C   UNL A   1      34.075  25.840  24.556  1.00  0.00     0.092 C 
ATOM     10  C   UNL A   1      32.825  26.481  24.109  1.00  0.00     0.147 A 
ATOM     11  O   UNL A   1      32.779  26.552  22.751  1.00  0.00    -0.360 OA
ATOM     12  N   UNL A   1      31.655  27.202  22.343  1.00  0.00    -0.079 NA
ATOM     13  C   UNL A   1      31.000  27.546  23.456  1.00  0.00     0.126 A 
BRANCH  13  14
ATOM     14  C   UNL A   1      29.768  28.316  23.324  1.00  0.00     0.006 A 
ATOM     15  C   UNL A   1      28.520  27.680  23.377  1.00  0.00     0.010 A 
ATOM     16  C   UNL A   1      29.827  29.710  23.195  1.00  0.00     0.026 A 
ATOM     17  C   UNL A   1      27.343  28.423  23.266  1.00  0.00     0.002 A 
ATOM     18  C   UNL A   1      28.647  30.445  23.089  1.00  0.00     0.018 A 
ATOM     19  C   UNL A   1      27.406  29.808  23.119  1.00  0.00     0.016 A 
ATOM     20  Br  UNL A   1      28.729  32.325  22.909  1.00  0.00    -0.051 Br
ENDBRANCH  13  14
ENDBRANCH   5   8
ENDBRANCH   3   4
ENDBRANCH   2   3
ENDBRANCH   1   2
BRANCH   1  21
ATOM     21  C   UNL A   1      32.694  32.574  27.216  1.00  0.00     0.116 C 
BRANCH  21  22
ATOM     22  N   UNL A   1      32.383  33.946  27.584  1.00  0.00    -0.352 N 
ATOM     23  C   UNL A   1      33.044  34.760  28.471  1.00  0.00     0.251 C 
ATOM     24  H   UNL A   1      31.598  34.343  27.139  1.00  0.00     0.163 HD
ATOM     25  O   UNL A   1      32.608  35.875  28.740  1.00  0.00    -0.269 OA
BRANCH  23  26
ATOM     26  C   UNL A   1      34.259  34.254  29.138  1.00  0.00     0.039 A 
ATOM     27  C   UNL A   1      34.124  33.559  30.340  1.00  0.00     0.014 A 
ATOM     28  C   UNL A   1      35.515  34.423  28.550  1.00  0.00     0.014 A 
ATOM     29  C   UNL A   1      35.245  32.963  30.919  1.00  0.00     0.010 A 
ATOM     30  C   UNL A   1      36.619  33.775  29.092  1.00  0.00     0.010 A 
ATOM     31  C   UNL A   1      36.492  33.035  30.277  1.00  0.00    -0.014 A 
BRANCH  31  32
ATOM     32  C   UNL A   1      37.678  32.332  30.823  1.00  0.00     0.031 A 
ATOM     33  C   UNL A   1      38.370  32.861  32.047  1.00  0.00     0.074 A 
ATOM     34  C   UNL A   1      38.176  31.263  30.172  1.00  0.00     0.049 A 
ATOM     35  N   UNL A   1      39.460  32.429  32.629  1.00  0.00    -0.248 NA
ATOM     36  C   UNL A   1      37.775  34.047  32.683  1.00  0.00     0.031 C 
ATOM     37  C   UNL A   1      37.623  30.680  28.947  1.00  0.00     0.029 A 
ATOM     38  N   UNL A   1      39.269  30.481  30.446  1.00  0.00    -0.354 N 
ATOM     39  C   UNL A   1      39.692  33.302  33.684  1.00  0.00     0.074 A 
ATOM     40  C   UNL A   1      38.657  34.311  33.636  1.00  0.00     0.031 C 
ATOM     41  C   UNL A   1      38.365  29.619  28.591  1.00  0.00     0.029 A 
ATOM     42  C   UNL A   1      39.464  29.469  29.539  1.00  0.00     0.049 A 
ATOM     43  H   UNL A   1      39.859  30.632  31.220  1.00  0.00     0.167 HD
ATOM     44  C   UNL A   1      40.668  33.257  34.620  1.00  0.00     0.031 A 
ATOM     45  C   UNL A   1      40.423  28.527  29.476  1.00  0.00     0.031 A 
ATOM     46  C   UNL A   1      41.686  32.242  34.680  1.00  0.00     0.049 A 
ATOM     47  C   UNL A   1      41.490  28.493  30.533  1.00  0.00     0.074 A 
ATOM     48  C   UNL A   1      42.683  32.076  35.626  1.00  0.00     0.029 A 
ATOM     49  N   UNL A   1      41.833  31.220  33.756  1.00  0.00    -0.354 N 
ATOM     50  N   UNL A   1      41.659  29.286  31.562  1.00  0.00    -0.248 NA
ATOM     51  C   UNL A   1      42.494  27.425  30.424  1.00  0.00     0.031 C 
ATOM     52  C   UNL A   1      43.459  30.974  35.252  1.00  0.00     0.029 A 
ATOM     53  C   UNL A   1      42.916  30.427  34.100  1.00  0.00     0.049 A 
ATOM     54  H   UNL A   1      41.256  31.078  32.972  1.00  0.00     0.167 HD
ATOM     55  C   UNL A   1      42.768  28.798  32.239  1.00  0.00     0.074 A 
ATOM     56  C   UNL A   1      43.226  27.633  31.510  1.00  0.00     0.031 C 
ATOM     57  C   UNL A   1      43.354  29.270  33.366  1.00  0.00     0.031 A 
BRANCH  44  58
ATOM     58  C   UNL A   1      40.679  34.344  35.656  1.00  0.00    -0.014 A 
ATOM     59  C   UNL A   1      39.980  34.202  36.865  1.00  0.00     0.009 A 
ATOM     60  C   UNL A   1      41.419  35.516  35.433  1.00  0.00     0.009 A 
ATOM     61  C   UNL A   1      39.991  35.226  37.813  1.00  0.00     0.001 A 
ATOM     62  C   UNL A   1      41.450  36.527  36.395  1.00  0.00     0.001 A 
ATOM     63  C   UNL A   1      40.728  36.385  37.579  1.00  0.00     0.000 A 
ENDBRANCH  44  58
BRANCH  45  64
ATOM     64  C   UNL A   1      40.404  27.518  28.386  1.00  0.00    -0.014 A 
ATOM     65  C   UNL A   1      41.056  27.777  27.170  1.00  0.00     0.009 A 
ATOM     66  C   UNL A   1      39.733  26.296  28.552  1.00  0.00     0.009 A 
ATOM     67  C   UNL A   1      41.014  26.842  26.134  1.00  0.00     0.001 A 
ATOM     68  C   UNL A   1      39.715  25.353  27.522  1.00  0.00     0.001 A 
ATOM     69  C   UNL A   1      40.348  25.631  26.311  1.00  0.00     0.000 A 
ENDBRANCH  45  64
BRANCH  57  70
ATOM     70  C   UNL A   1      44.530  28.506  33.900  1.00  0.00    -0.014 A 
ATOM     71  C   UNL A   1      44.359  27.436  34.790  1.00  0.00     0.009 A 
ATOM     72  C   UNL A   1      45.823  28.836  33.468  1.00  0.00     0.009 A 
ATOM     73  C   UNL A   1      45.467  26.727  35.260  1.00  0.00     0.001 A 
ATOM     74  C   UNL A   1      46.926  28.111  33.919  1.00  0.00     0.001 A 
ATOM     75  C   UNL A   1      46.747  27.061  34.820  1.00  0.00     0.000 A 
ENDBRANCH  57  70
ENDBRANCH  31  32
ENDBRANCH  23  26
ENDBRANCH  21  22
ENDBRANCH   1  21
TORSDOF 12
ENDMDL
MODEL 3
REMARK VINA RESULT:     -11.2      1.518      6.184
REMARK SMILES Cc1onc(-c2cccc(Br)c2)c1C(=O)NCCCCNC(=O)c1ccc(-c2c3nc(c(-c4ccccc4)c4ccc([nH]4)c(-c4ccccc4)c4nc(c(-c5ccccc5)c5ccc2[nH]5)C=C4)C=C3)cc1
REMARK SMILES IDX 19 1 18 2 17 3 16 4 14 5 15 6 13 8 1 9 2 10 3 11 4 12 5 13
REMARK SMILES IDX 6 14 7 15 12 16 8 17 10 18 9 19 11 20 20 21 21 22 22 23
REMARK SMILES IDX 23 25 24 26 25 27 71 28 26 29 70 30 27 31 28 32 29 33 64 34
REMARK SMILES IDX 30 35 69 36 63 37 65 38 31 39 68 40 62 41 61 42 32 44 54 45
REMARK SMILES IDX 39 46 53 47 40 48 43 49 52 50 66 51 41 52 42 53 51 55 67 56
REMARK SMILES IDX 44 57 33 58 34 59 38 60 35 61 37 62 36 63 55 64 56 65 60 66
REMARK SMILES IDX 57 67 59 68 58 69 45 70 46 71 50 72 47 73 49 74 48 75
REMARK H PARENT 16 7 21 24 65 43 43 54
REMARK Flexibility Score: inf
ROOT
ATOM      1  C   UNL A   1      37.793  20.250  24.876  1.00  0.00     0.023 C 
ENDROOT
BRANCH   1   2
ATOM      2  C   UNL A   1      36.502  20.912  25.366  1.00  0.00     0.023 C 
BRANCH   2   3
ATOM      3  C   UNL A   1      36.409  22.415  25.099  1.00  0.00     0.116 C 
BRANCH   3   4
ATOM      4  N   UNL A   1      35.620  22.671  23.922  1.00  0.00    -0.352 N 
ATOM      5  C   UNL A   1      34.284  22.712  23.643  1.00  0.00     0.257 C 
ATOM      6  O   UNL A   1      34.058  22.956  22.455  1.00  0.00    -0.269 OA
ATOM      7  H   UNL A   1      36.175  22.863  23.132  1.00  0.00     0.163 HD
BRANCH   5   8
ATOM      8  C   UNL A   1      33.189  22.531  24.596  1.00  0.00     0.110 A 
ATOM      9  C   UNL A   1      32.676  24.700  26.102  1.00  0.00     0.092 C 
ATOM     10  C   UNL A   1      32.565  23.343  25.536  1.00  0.00     0.147 A 
ATOM     11  O   UNL A   1      31.545  22.660  26.123  1.00  0.00    -0.360 OA
ATOM     12  N   UNL A   1      31.484  21.386  25.647  1.00  0.00    -0.079 NA
ATOM     13  C   UNL A   1      32.480  21.274  24.762  1.00  0.00     0.126 A 
BRANCH  13  14
ATOM     14  C   UNL A   1      32.696  19.979  24.123  1.00  0.00     0.006 A 
ATOM     15  C   UNL A   1      32.158  19.710  22.858  1.00  0.00     0.010 A 
ATOM     16  C   UNL A   1      33.490  19.013  24.755  1.00  0.00     0.026 A 
ATOM     17  C   UNL A   1      32.378  18.476  22.244  1.00  0.00     0.002 A 
ATOM     18  C   UNL A   1      33.710  17.785  24.133  1.00  0.00     0.018 A 
ATOM     19  C   UNL A   1      33.154  17.510  22.884  1.00  0.00     0.016 A 
ATOM     20  Br  UNL A   1      34.777  16.481  24.990  1.00  0.00    -0.051 Br
ENDBRANCH  13  14
ENDBRANCH   5   8
ENDBRANCH   3   4
ENDBRANCH   2   3
ENDBRANCH   1   2
BRANCH   1  21
ATOM     21  C   UNL A   1      39.007  20.455  25.775  1.00  0.00     0.116 C 
BRANCH  21  22
ATOM     22  N   UNL A   1      39.890  19.300  25.834  1.00  0.00    -0.352 N 
ATOM     23  C   UNL A   1      41.236  19.272  26.102  1.00  0.00     0.251 C 
ATOM     24  H   UNL A   1      39.467  18.427  25.661  1.00  0.00     0.163 HD
ATOM     25  O   UNL A   1      41.865  18.220  26.034  1.00  0.00    -0.269 OA
BRANCH  23  26
ATOM     26  C   UNL A   1      41.930  20.534  26.422  1.00  0.00     0.039 A 
ATOM     27  C   UNL A   1      42.341  21.358  25.373  1.00  0.00     0.014 A 
ATOM     28  C   UNL A   1      42.123  20.922  27.750  1.00  0.00     0.014 A 
ATOM     29  C   UNL A   1      42.881  22.613  25.657  1.00  0.00     0.010 A 
ATOM     30  C   UNL A   1      42.600  22.197  28.030  1.00  0.00     0.010 A 
ATOM     31  C   UNL A   1      42.978  23.055  26.987  1.00  0.00    -0.014 A 
BRANCH  31  32
ATOM     32  C   UNL A   1      43.461  24.420  27.308  1.00  0.00     0.031 A 
ATOM     33  C   UNL A   1      42.490  25.477  27.751  1.00  0.00     0.074 A 
ATOM     34  C   UNL A   1      44.760  24.726  27.127  1.00  0.00     0.049 A 
ATOM     35  N   UNL A   1      42.708  26.742  28.005  1.00  0.00    -0.248 NA
ATOM     36  C   UNL A   1      41.085  25.066  27.900  1.00  0.00     0.031 C 
ATOM     37  C   UNL A   1      45.794  23.801  26.657  1.00  0.00     0.029 A 
ATOM     38  N   UNL A   1      45.431  25.909  27.308  1.00  0.00    -0.354 N 
ATOM     39  C   UNL A   1      41.468  27.281  28.321  1.00  0.00     0.074 A 
ATOM     40  C   UNL A   1      40.496  26.217  28.186  1.00  0.00     0.031 C 
ATOM     41  C   UNL A   1      46.972  24.444  26.612  1.00  0.00     0.029 A 
ATOM     42  C   UNL A   1      46.771  25.833  27.013  1.00  0.00     0.049 A 
ATOM     43  H   UNL A   1      44.994  26.734  27.620  1.00  0.00     0.167 HD
ATOM     44  C   UNL A   1      41.167  28.542  28.709  1.00  0.00     0.031 A 
ATOM     45  C   UNL A   1      47.728  26.776  27.058  1.00  0.00     0.031 A 
ATOM     46  C   UNL A   1      42.135  29.595  28.864  1.00  0.00     0.049 A 
ATOM     47  C   UNL A   1      47.370  28.167  27.500  1.00  0.00     0.074 A 
ATOM     48  C   UNL A   1      41.936  30.889  29.310  1.00  0.00     0.029 A 
ATOM     49  N   UNL A   1      43.485  29.469  28.578  1.00  0.00    -0.354 N 
ATOM     50  N   UNL A   1      46.204  28.644  27.860  1.00  0.00    -0.248 NA
ATOM     51  C   UNL A   1      48.464  29.147  27.553  1.00  0.00     0.031 C 
ATOM     52  C   UNL A   1      43.163  31.561  29.258  1.00  0.00     0.029 A 
ATOM     53  C   UNL A   1      44.131  30.669  28.824  1.00  0.00     0.049 A 
ATOM     54  H   UNL A   1      43.921  28.650  28.250  1.00  0.00     0.167 HD
ATOM     55  C   UNL A   1      46.427  29.969  28.208  1.00  0.00     0.074 A 
ATOM     56  C   UNL A   1      47.843  30.217  28.028  1.00  0.00     0.031 C 
ATOM     57  C   UNL A   1      45.540  30.897  28.643  1.00  0.00     0.031 A 
BRANCH  44  58
ATOM     58  C   UNL A   1      39.724  28.850  28.990  1.00  0.00    -0.014 A 
ATOM     59  C   UNL A   1      38.873  29.325  27.980  1.00  0.00     0.009 A 
ATOM     60  C   UNL A   1      39.201  28.638  30.275  1.00  0.00     0.009 A 
ATOM     61  C   UNL A   1      37.537  29.618  28.260  1.00  0.00     0.001 A 
ATOM     62  C   UNL A   1      37.858  28.905  30.546  1.00  0.00     0.001 A 
ATOM     63  C   UNL A   1      37.030  29.404  29.541  1.00  0.00     0.000 A 
ENDBRANCH  44  58
BRANCH  45  64
ATOM     64  C   UNL A   1      49.128  26.433  26.699  1.00  0.00    -0.014 A 
ATOM     65  C   UNL A   1      49.993  25.889  27.662  1.00  0.00     0.009 A 
ATOM     66  C   UNL A   1      49.608  26.651  25.399  1.00  0.00     0.009 A 
ATOM     67  C   UNL A   1      51.317  25.593  27.334  1.00  0.00     0.001 A 
ATOM     68  C   UNL A   1      50.926  26.329  25.069  1.00  0.00     0.001 A 
ATOM     69  C   UNL A   1      51.782  25.809  26.039  1.00  0.00     0.000 A 
ENDBRANCH  45  64
BRANCH  57  70
ATOM     70  C   UNL A   1      46.081  32.254  28.988  1.00  0.00    -0.014 A 
ATOM     71  C   UNL A   1      46.120  33.285  28.039  1.00  0.00     0.009 A 
ATOM     72  C   UNL A   1      46.514  32.512  30.298  1.00  0.00     0.009 A 
ATOM     73  C   UNL A   1      46.610  34.545  28.388  1.00  0.00     0.001 A 
ATOM     74  C   UNL A   1      46.981  33.779  30.651  1.00  0.00     0.001 A 
ATOM     75  C   UNL A   1      47.035  34.792  29.693  1.00  0.00     0.000 A 
ENDBRANCH  57  70
ENDBRANCH  31  32
ENDBRANCH  23  26
ENDBRANCH  21  22
ENDBRANCH   1  21
TORSDOF 12
ENDMDL
