MODEL 1
REMARK VINA RESULT:     -10.9      0.000      0.000
REMARK SMILES C[C@@H](O)[C@@H](NC(=O)c1csc(-c2ccsc2)n1)C(=O)NCCCCNC(=O)c1ccc(-c2c3nc(c(-c4ccccc4)c4ccc([nH]4)c(-c4ccccc4)c4nc(c(-c5ccccc5)c5ccc2[nH]5)C=C4)C=C3)cc1
REMARK SMILES IDX 22 1 21 2 20 3 18 4 19 5 4 7 2 8 1 9 3 10 5 12 6 13 7 15
REMARK SMILES IDX 8 16 9 17 17 18 10 19 11 20 12 21 13 22 16 23 14 24 15 25
REMARK SMILES IDX 23 26 24 27 25 28 26 29 27 31 28 32 29 33 75 34 30 35 74 36
REMARK SMILES IDX 31 37 32 38 33 39 68 40 34 41 73 42 67 43 69 44 35 45 72 46
REMARK SMILES IDX 66 47 65 48 36 50 58 51 43 52 57 53 44 54 47 55 56 56 70 57
REMARK SMILES IDX 45 58 46 59 55 61 71 62 48 63 37 64 38 65 42 66 39 67 41 68
REMARK SMILES IDX 40 69 59 70 60 71 64 72 61 73 63 74 62 75 49 76 50 77 54 78
REMARK SMILES IDX 51 79 53 80 52 81
REMARK H PARENT 20 6 3 11 5 14 25 30 69 49 47 60
REMARK Flexibility Score: inf
ROOT
ATOM      1  C   UNL A   1      36.863  21.984  24.044  1.00  0.00     0.023 C 
ENDROOT
BRANCH   1   2
ATOM      2  C   UNL A   1      35.447  22.308  24.506  1.00  0.00     0.116 C 
BRANCH   2   3
ATOM      3  N   UNL A   1      35.259  21.884  25.878  1.00  0.00    -0.354 N 
ATOM      4  C   UNL A   1      34.116  21.651  26.584  1.00  0.00     0.245 C 
ATOM      5  O   UNL A   1      34.249  21.503  27.803  1.00  0.00    -0.273 OA
ATOM      6  H   UNL A   1      36.091  21.743  26.383  1.00  0.00     0.163 HD
BRANCH   4   7
ATOM      7  C   UNL A   1      32.725  21.736  25.919  1.00  0.00     0.200 C 
BRANCH   7   8
ATOM      8  C   UNL A   1      32.518  20.332  25.251  1.00  0.00     0.143 C 
ATOM      9  C   UNL A   1      32.461  20.331  23.729  1.00  0.00     0.041 C 
BRANCH   8  10
ATOM     10  O   UNL A   1      33.588  19.451  25.604  1.00  0.00    -0.391 OA
ATOM     11  H   UNL A   1      34.211  19.385  24.864  1.00  0.00     0.211 HD
ENDBRANCH   8  10
ENDBRANCH   7   8
BRANCH   7  12
ATOM     12  N   UNL A   1      31.609  22.099  26.823  1.00  0.00    -0.337 N 
ATOM     13  C   UNL A   1      30.683  23.119  26.757  1.00  0.00     0.271 C 
ATOM     14  H   UNL A   1      31.510  21.510  27.605  1.00  0.00     0.164 HD
ATOM     15  O   UNL A   1      29.717  23.065  27.518  1.00  0.00    -0.267 OA
BRANCH  13  16
ATOM     16  C   UNL A   1      30.974  24.314  25.970  1.00  0.00     0.139 A 
ATOM     17  C   UNL A   1      30.707  24.374  24.612  1.00  0.00     0.101 A 
ATOM     18  N   UNL A   1      31.475  25.494  26.507  1.00  0.00    -0.231 NA
ATOM     19  S   UNL A   1      30.758  26.000  24.082  1.00  0.00    -0.122 S 
ATOM     20  C   UNL A   1      31.329  26.472  25.635  1.00  0.00     0.125 A 
BRANCH  20  21
ATOM     21  C   UNL A   1      31.603  27.900  25.994  1.00  0.00     0.021 A 
ATOM     22  C   UNL A   1      32.024  28.345  27.280  1.00  0.00     0.023 A 
ATOM     23  C   UNL A   1      31.437  28.947  25.112  1.00  0.00     0.076 A 
ATOM     24  C   UNL A   1      32.208  29.710  27.317  1.00  0.00     0.065 A 
ATOM     25  S   UNL A   1      31.797  30.458  25.833  1.00  0.00    -0.152 S 
ENDBRANCH  20  21
ENDBRANCH  13  16
ENDBRANCH   7  12
ENDBRANCH   4   7
ENDBRANCH   2   3
ENDBRANCH   1   2
BRANCH   1  26
ATOM     26  C   UNL A   1      37.425  20.683  24.625  1.00  0.00     0.023 C 
BRANCH  26  27
ATOM     27  C   UNL A   1      38.478  20.873  25.710  1.00  0.00     0.116 C 
BRANCH  27  28
ATOM     28  N   UNL A   1      39.489  19.828  25.688  1.00  0.00    -0.352 N 
ATOM     29  C   UNL A   1      40.823  19.919  25.996  1.00  0.00     0.251 C 
ATOM     30  H   UNL A   1      39.175  18.936  25.415  1.00  0.00     0.163 HD
ATOM     31  O   UNL A   1      41.581  18.985  25.753  1.00  0.00    -0.269 OA
BRANCH  29  32
ATOM     32  C   UNL A   1      41.343  21.161  26.598  1.00  0.00     0.039 A 
ATOM     33  C   UNL A   1      41.864  22.149  25.760  1.00  0.00     0.014 A 
ATOM     34  C   UNL A   1      41.299  21.354  27.982  1.00  0.00     0.014 A 
ATOM     35  C   UNL A   1      42.295  23.357  26.309  1.00  0.00     0.010 A 
ATOM     36  C   UNL A   1      41.660  22.586  28.518  1.00  0.00     0.010 A 
ATOM     37  C   UNL A   1      42.171  23.596  27.687  1.00  0.00    -0.014 A 
BRANCH  37  38
ATOM     38  C   UNL A   1      42.583  24.896  28.273  1.00  0.00     0.031 A 
ATOM     39  C   UNL A   1      41.563  25.974  28.513  1.00  0.00     0.074 A 
ATOM     40  C   UNL A   1      43.882  25.120  28.548  1.00  0.00     0.049 A 
ATOM     41  N   UNL A   1      41.734  27.174  29.008  1.00  0.00    -0.248 NA
ATOM     42  C   UNL A   1      40.175  25.677  28.126  1.00  0.00     0.031 C 
ATOM     43  C   UNL A   1      44.977  24.174  28.312  1.00  0.00     0.029 A 
ATOM     44  N   UNL A   1      44.504  26.219  29.085  1.00  0.00    -0.354 N 
ATOM     45  C   UNL A   1      40.484  27.777  28.975  1.00  0.00     0.074 A 
ATOM     46  C   UNL A   1      39.573  26.832  28.367  1.00  0.00     0.031 C 
ATOM     47  C   UNL A   1      46.129  24.723  28.731  1.00  0.00     0.029 A 
ATOM     48  C   UNL A   1      45.861  26.067  29.232  1.00  0.00     0.049 A 
ATOM     49  H   UNL A   1      44.023  27.039  29.341  1.00  0.00     0.167 HD
ATOM     50  C   UNL A   1      40.119  29.000  29.428  1.00  0.00     0.031 A 
ATOM     51  C   UNL A   1      46.787  26.916  29.717  1.00  0.00     0.031 A 
ATOM     52  C   UNL A   1      41.021  29.935  30.048  1.00  0.00     0.049 A 
ATOM     53  C   UNL A   1      46.354  28.263  30.224  1.00  0.00     0.074 A 
ATOM     54  C   UNL A   1      40.735  31.172  30.597  1.00  0.00     0.029 A 
ATOM     55  N   UNL A   1      42.384  29.735  30.196  1.00  0.00    -0.354 N 
ATOM     56  N   UNL A   1      45.153  28.785  30.263  1.00  0.00    -0.248 NA
ATOM     57  C   UNL A   1      47.405  29.130  30.775  1.00  0.00     0.031 C 
ATOM     58  C   UNL A   1      41.935  31.744  31.033  1.00  0.00     0.029 A 
ATOM     59  C   UNL A   1      42.957  30.836  30.808  1.00  0.00     0.049 A 
ATOM     60  H   UNL A   1      42.873  28.931  29.907  1.00  0.00     0.167 HD
ATOM     61  C   UNL A   1      45.298  30.026  30.868  1.00  0.00     0.074 A 
ATOM     62  C   UNL A   1      46.701  30.170  31.198  1.00  0.00     0.031 C 
ATOM     63  C   UNL A   1      44.355  30.964  31.130  1.00  0.00     0.031 A 
BRANCH  50  64
ATOM     64  C   UNL A   1      38.679  29.400  29.265  1.00  0.00    -0.014 A 
ATOM     65  C   UNL A   1      37.755  29.239  30.311  1.00  0.00     0.009 A 
ATOM     66  C   UNL A   1      38.250  29.985  28.064  1.00  0.00     0.009 A 
ATOM     67  C   UNL A   1      36.423  29.624  30.143  1.00  0.00     0.001 A 
ATOM     68  C   UNL A   1      36.925  30.397  27.910  1.00  0.00     0.001 A 
ATOM     69  C   UNL A   1      36.011  30.208  28.945  1.00  0.00     0.000 A 
ENDBRANCH  50  64
BRANCH  51  70
ATOM     70  C   UNL A   1      48.218  26.513  29.764  1.00  0.00    -0.014 A 
ATOM     71  C   UNL A   1      49.079  26.807  28.696  1.00  0.00     0.009 A 
ATOM     72  C   UNL A   1      48.724  25.814  30.872  1.00  0.00     0.009 A 
ATOM     73  C   UNL A   1      50.409  26.380  28.721  1.00  0.00     0.001 A 
ATOM     74  C   UNL A   1      50.062  25.415  30.906  1.00  0.00     0.001 A 
ATOM     75  C   UNL A   1      50.900  25.688  29.827  1.00  0.00     0.000 A 
ENDBRANCH  51  70
BRANCH  63  76
ATOM     76  C   UNL A   1      44.805  32.208  31.843  1.00  0.00    -0.014 A 
ATOM     77  C   UNL A   1      45.224  33.347  31.137  1.00  0.00     0.009 A 
ATOM     78  C   UNL A   1      44.782  32.248  33.246  1.00  0.00     0.009 A 
ATOM     79  C   UNL A   1      45.654  34.484  31.823  1.00  0.00     0.001 A 
ATOM     80  C   UNL A   1      45.181  33.397  33.929  1.00  0.00     0.001 A 
ATOM     81  C   UNL A   1      45.627  34.510  33.218  1.00  0.00     0.000 A 
ENDBRANCH  63  76
ENDBRANCH  37  38
ENDBRANCH  29  32
ENDBRANCH  27  28
ENDBRANCH  26  27
ENDBRANCH   1  26
TORSDOF 16
ENDMDL
MODEL 2
REMARK VINA RESULT:     -10.8      2.469      6.985
REMARK SMILES C[C@@H](O)[C@@H](NC(=O)c1csc(-c2ccsc2)n1)C(=O)NCCCCNC(=O)c1ccc(-c2c3nc(c(-c4ccccc4)c4ccc([nH]4)c(-c4ccccc4)c4nc(c(-c5ccccc5)c5ccc2[nH]5)C=C4)C=C3)cc1
REMARK SMILES IDX 22 1 21 2 20 3 18 4 19 5 4 7 2 8 1 9 3 10 5 12 6 13 7 15
REMARK SMILES IDX 8 16 9 17 17 18 10 19 11 20 12 21 13 22 16 23 14 24 15 25
REMARK SMILES IDX 23 26 24 27 25 28 26 29 27 31 28 32 29 33 75 34 30 35 74 36
REMARK SMILES IDX 31 37 32 38 33 39 68 40 34 41 73 42 67 43 69 44 35 45 72 46
REMARK SMILES IDX 66 47 65 48 36 50 58 51 43 52 57 53 44 54 47 55 56 56 70 57
REMARK SMILES IDX 45 58 46 59 55 61 71 62 48 63 37 64 38 65 42 66 39 67 41 68
REMARK SMILES IDX 40 69 59 70 60 71 64 72 61 73 63 74 62 75 49 76 50 77 54 78
REMARK SMILES IDX 51 79 53 80 52 81
REMARK H PARENT 20 6 3 11 5 14 25 30 69 49 47 60
REMARK Flexibility Score: inf
ROOT
ATOM      1  C   UNL A   1      31.581  26.903  26.296  1.00  0.00     0.023 C 
ENDROOT
BRANCH   1   2
ATOM      2  C   UNL A   1      32.574  25.762  26.103  1.00  0.00     0.116 C 
BRANCH   2   3
ATOM      3  N   UNL A   1      31.898  24.593  25.580  1.00  0.00    -0.354 N 
ATOM      4  C   UNL A   1      32.188  23.810  24.502  1.00  0.00     0.245 C 
ATOM      5  O   UNL A   1      31.318  23.002  24.165  1.00  0.00    -0.273 OA
ATOM      6  H   UNL A   1      31.099  24.319  26.084  1.00  0.00     0.163 HD
BRANCH   4   7
ATOM      7  C   UNL A   1      33.458  24.042  23.655  1.00  0.00     0.200 C 
BRANCH   7   8
ATOM      8  C   UNL A   1      34.318  22.747  23.864  1.00  0.00     0.143 C 
ATOM      9  C   UNL A   1      35.807  22.894  23.577  1.00  0.00     0.041 C 
BRANCH   8  10
ATOM     10  O   UNL A   1      34.222  22.301  25.220  1.00  0.00    -0.391 OA
ATOM     11  H   UNL A   1      33.671  21.505  25.261  1.00  0.00     0.211 HD
ENDBRANCH   8  10
ENDBRANCH   7   8
BRANCH   7  12
ATOM     12  N   UNL A   1      33.223  24.334  22.221  1.00  0.00    -0.337 N 
ATOM     13  C   UNL A   1      32.995  25.525  21.563  1.00  0.00     0.271 C 
ATOM     14  H   UNL A   1      33.232  23.542  21.637  1.00  0.00     0.164 HD
ATOM     15  O   UNL A   1      33.055  25.520  20.334  1.00  0.00    -0.267 OA
BRANCH  13  16
ATOM     16  C   UNL A   1      32.486  26.677  22.302  1.00  0.00     0.139 A 
ATOM     17  C   UNL A   1      33.336  27.620  22.857  1.00  0.00     0.101 A 
ATOM     18  N   UNL A   1      31.135  26.961  22.461  1.00  0.00    -0.231 NA
ATOM     19  S   UNL A   1      32.452  29.025  23.271  1.00  0.00    -0.122 S 
ATOM     20  C   UNL A   1      30.992  28.204  22.879  1.00  0.00     0.125 A 
BRANCH  20  21
ATOM     21  C   UNL A   1      29.649  28.860  22.965  1.00  0.00     0.021 A 
ATOM     22  C   UNL A   1      28.409  28.162  23.026  1.00  0.00     0.023 A 
ATOM     23  C   UNL A   1      29.474  30.228  22.953  1.00  0.00     0.076 A 
ATOM     24  C   UNL A   1      27.336  29.025  23.108  1.00  0.00     0.065 A 
ATOM     25  S   UNL A   1      27.819  30.665  23.026  1.00  0.00    -0.152 S 
ENDBRANCH  20  21
ENDBRANCH  13  16
ENDBRANCH   7  12
ENDBRANCH   4   7
ENDBRANCH   2   3
ENDBRANCH   1   2
BRANCH   1  26
ATOM     26  C   UNL A   1      31.964  27.877  27.414  1.00  0.00     0.023 C 
BRANCH  26  27
ATOM     27  C   UNL A   1      33.350  28.495  27.273  1.00  0.00     0.116 C 
BRANCH  27  28
ATOM     28  N   UNL A   1      33.334  29.938  27.450  1.00  0.00    -0.352 N 
ATOM     29  C   UNL A   1      34.305  30.748  27.982  1.00  0.00     0.251 C 
ATOM     30  H   UNL A   1      32.515  30.395  27.149  1.00  0.00     0.163 HD
ATOM     31  O   UNL A   1      34.065  31.926  28.228  1.00  0.00    -0.269 OA
BRANCH  29  32
ATOM     32  C   UNL A   1      35.635  30.182  28.280  1.00  0.00     0.039 A 
ATOM     33  C   UNL A   1      36.608  30.188  27.279  1.00  0.00     0.014 A 
ATOM     34  C   UNL A   1      35.921  29.665  29.547  1.00  0.00     0.014 A 
ATOM     35  C   UNL A   1      37.890  29.719  27.566  1.00  0.00     0.010 A 
ATOM     36  C   UNL A   1      37.219  29.268  29.852  1.00  0.00     0.010 A 
ATOM     37  C   UNL A   1      38.214  29.282  28.862  1.00  0.00    -0.014 A 
BRANCH  37  38
ATOM     38  C   UNL A   1      39.588  28.827  29.189  1.00  0.00     0.031 A 
ATOM     39  C   UNL A   1      40.524  29.730  29.942  1.00  0.00     0.074 A 
ATOM     40  C   UNL A   1      40.006  27.617  28.770  1.00  0.00     0.049 A 
ATOM     41  N   UNL A   1      41.761  29.511  30.311  1.00  0.00    -0.248 NA
ATOM     42  C   UNL A   1      40.016  31.062  30.308  1.00  0.00     0.031 C 
ATOM     43  C   UNL A   1      39.211  26.667  27.986  1.00  0.00     0.029 A 
ATOM     44  N   UNL A   1      41.208  26.979  28.943  1.00  0.00    -0.354 N 
ATOM     45  C   UNL A   1      42.180  30.679  30.934  1.00  0.00     0.074 A 
ATOM     46  C   UNL A   1      41.087  31.621  30.851  1.00  0.00     0.031 C 
ATOM     47  C   UNL A   1      39.937  25.557  27.774  1.00  0.00     0.029 A 
ATOM     48  C   UNL A   1      41.255  25.729  28.376  1.00  0.00     0.049 A 
ATOM     49  H   UNL A   1      41.965  27.379  29.430  1.00  0.00     0.167 HD
ATOM     50  C   UNL A   1      43.364  30.939  31.541  1.00  0.00     0.031 A 
ATOM     51  C   UNL A   1      42.250  24.822  28.342  1.00  0.00     0.031 A 
ATOM     52  C   UNL A   1      44.447  29.997  31.639  1.00  0.00     0.049 A 
ATOM     53  C   UNL A   1      43.548  25.131  29.034  1.00  0.00     0.074 A 
ATOM     54  C   UNL A   1      45.660  30.144  32.289  1.00  0.00     0.029 A 
ATOM     55  N   UNL A   1      44.448  28.734  31.067  1.00  0.00    -0.354 N 
ATOM     56  N   UNL A   1      43.898  26.209  29.692  1.00  0.00    -0.248 NA
ATOM     57  C   UNL A   1      44.582  24.087  28.995  1.00  0.00     0.031 C 
ATOM     58  C   UNL A   1      46.416  28.989  32.067  1.00  0.00     0.029 A 
ATOM     59  C   UNL A   1      45.649  28.100  31.330  1.00  0.00     0.049 A 
ATOM     60  H   UNL A   1      43.705  28.347  30.550  1.00  0.00     0.167 HD
ATOM     61  C   UNL A   1      45.179  25.962  30.170  1.00  0.00     0.074 A 
ATOM     62  C   UNL A   1      45.534  24.625  29.743  1.00  0.00     0.031 C 
ATOM     63  C   UNL A   1      45.988  26.769  30.899  1.00  0.00     0.031 A 
BRANCH  50  64
ATOM     64  C   UNL A   1      43.549  32.304  32.144  1.00  0.00    -0.014 A 
ATOM     65  C   UNL A   1      44.073  33.368  31.392  1.00  0.00     0.009 A 
ATOM     66  C   UNL A   1      43.156  32.539  33.471  1.00  0.00     0.009 A 
ATOM     67  C   UNL A   1      44.231  34.630  31.967  1.00  0.00     0.001 A 
ATOM     68  C   UNL A   1      43.287  33.810  34.034  1.00  0.00     0.001 A 
ATOM     69  C   UNL A   1      43.833  34.852  33.286  1.00  0.00     0.000 A 
ENDBRANCH  50  64
BRANCH  51  70
ATOM     70  C   UNL A   1      42.054  23.523  27.645  1.00  0.00    -0.014 A 
ATOM     71  C   UNL A   1      41.490  22.428  28.319  1.00  0.00     0.009 A 
ATOM     72  C   UNL A   1      42.449  23.367  26.307  1.00  0.00     0.009 A 
ATOM     73  C   UNL A   1      41.357  21.195  27.677  1.00  0.00     0.001 A 
ATOM     74  C   UNL A   1      42.286  22.141  25.660  1.00  0.00     0.001 A 
ATOM     75  C   UNL A   1      41.752  21.053  26.348  1.00  0.00     0.000 A 
ENDBRANCH  51  70
BRANCH  63  76
ATOM     76  C   UNL A   1      47.320  26.209  31.315  1.00  0.00    -0.014 A 
ATOM     77  C   UNL A   1      48.437  26.269  30.468  1.00  0.00     0.009 A 
ATOM     78  C   UNL A   1      47.461  25.635  32.589  1.00  0.00     0.009 A 
ATOM     79  C   UNL A   1      49.659  25.726  30.872  1.00  0.00     0.001 A 
ATOM     80  C   UNL A   1      48.691  25.122  33.002  1.00  0.00     0.001 A 
ATOM     81  C   UNL A   1      49.785  25.158  32.139  1.00  0.00     0.000 A 
ENDBRANCH  63  76
ENDBRANCH  37  38
ENDBRANCH  29  32
ENDBRANCH  27  28
ENDBRANCH  26  27
ENDBRANCH   1  26
TORSDOF 16
ENDMDL
MODEL 3
REMARK VINA RESULT:     -10.7      3.788      8.941
REMARK SMILES C[C@@H](O)[C@@H](NC(=O)c1csc(-c2ccsc2)n1)C(=O)NCCCCNC(=O)c1ccc(-c2c3nc(c(-c4ccccc4)c4ccc([nH]4)c(-c4ccccc4)c4nc(c(-c5ccccc5)c5ccc2[nH]5)C=C4)C=C3)cc1
REMARK SMILES IDX 22 1 21 2 20 3 18 4 19 5 4 7 2 8 1 9 3 10 5 12 6 13 7 15
REMARK SMILES IDX 8 16 9 17 17 18 10 19 11 20 12 21 13 22 16 23 14 24 15 25
REMARK SMILES IDX 23 26 24 27 25 28 26 29 27 31 28 32 29 33 75 34 30 35 74 36
REMARK SMILES IDX 31 37 32 38 33 39 68 40 34 41 73 42 67 43 69 44 35 45 72 46
REMARK SMILES IDX 66 47 65 48 36 50 58 51 43 52 57 53 44 54 47 55 56 56 70 57
REMARK SMILES IDX 45 58 46 59 55 61 71 62 48 63 37 64 38 65 42 66 39 67 41 68
REMARK SMILES IDX 40 69 59 70 60 71 64 72 61 73 63 74 62 75 49 76 50 77 54 78
REMARK SMILES IDX 51 79 53 80 52 81
REMARK H PARENT 20 6 3 11 5 14 25 30 69 49 47 60
REMARK Flexibility Score: inf
ROOT
ATOM      1  C   UNL A   1      31.784  29.711  26.880  1.00  0.00     0.023 C 
ENDROOT
BRANCH   1   2
ATOM      2  C   UNL A   1      31.756  28.812  25.650  1.00  0.00     0.116 C 
BRANCH   2   3
ATOM      3  N   UNL A   1      32.671  29.309  24.644  1.00  0.00    -0.354 N 
ATOM      4  C   UNL A   1      32.849  28.934  23.346  1.00  0.00     0.245 C 
ATOM      5  O   UNL A   1      33.848  29.387  22.780  1.00  0.00    -0.273 OA
ATOM      6  H   UNL A   1      33.261  30.036  24.948  1.00  0.00     0.163 HD
BRANCH   4   7
ATOM      7  C   UNL A   1      31.945  27.873  22.681  1.00  0.00     0.200 C 
BRANCH   7   8
ATOM      8  C   UNL A   1      30.701  28.678  22.166  1.00  0.00     0.143 C 
ATOM      9  C   UNL A   1      29.469  28.626  23.061  1.00  0.00     0.041 C 
BRANCH   8  10
ATOM     10  O   UNL A   1      31.028  30.064  22.029  1.00  0.00    -0.391 OA
ATOM     11  H   UNL A   1      31.900  30.231  22.417  1.00  0.00     0.211 HD
ENDBRANCH   8  10
ENDBRANCH   7   8
BRANCH   7  12
ATOM     12  N   UNL A   1      32.583  27.077  21.607  1.00  0.00    -0.337 N 
ATOM     13  C   UNL A   1      32.614  25.716  21.383  1.00  0.00     0.271 C 
ATOM     14  H   UNL A   1      33.067  27.611  20.936  1.00  0.00     0.164 HD
ATOM     15  O   UNL A   1      33.024  25.325  20.290  1.00  0.00    -0.267 OA
BRANCH  13  16
ATOM     16  C   UNL A   1      32.379  24.793  22.489  1.00  0.00     0.139 A 
ATOM     17  C   UNL A   1      31.172  24.764  23.169  1.00  0.00     0.101 A 
ATOM     18  N   UNL A   1      33.296  23.839  22.912  1.00  0.00    -0.231 NA
ATOM     19  S   UNL A   1      31.063  23.328  24.095  1.00  0.00    -0.122 S 
ATOM     20  C   UNL A   1      32.694  22.961  23.690  1.00  0.00     0.125 A 
BRANCH  20  21
ATOM     21  C   UNL A   1      33.377  21.711  24.151  1.00  0.00     0.021 A 
ATOM     22  C   UNL A   1      34.739  21.638  24.563  1.00  0.00     0.023 A 
ATOM     23  C   UNL A   1      32.758  20.479  24.185  1.00  0.00     0.076 A 
ATOM     24  C   UNL A   1      35.094  20.361  24.943  1.00  0.00     0.065 A 
ATOM     25  S   UNL A   1      33.815  19.244  24.723  1.00  0.00    -0.152 S 
ENDBRANCH  20  21
ENDBRANCH  13  16
ENDBRANCH   7  12
ENDBRANCH   4   7
ENDBRANCH   2   3
ENDBRANCH   1   2
BRANCH   1  26
ATOM     26  C   UNL A   1      31.635  31.202  26.564  1.00  0.00     0.023 C 
BRANCH  26  27
ATOM     27  C   UNL A   1      32.864  32.046  26.880  1.00  0.00     0.116 C 
BRANCH  27  28
ATOM     28  N   UNL A   1      32.515  33.375  27.356  1.00  0.00    -0.352 N 
ATOM     29  C   UNL A   1      33.126  34.127  28.328  1.00  0.00     0.251 C 
ATOM     30  H   UNL A   1      31.735  33.792  26.923  1.00  0.00     0.163 HD
ATOM     31  O   UNL A   1      32.600  35.156  28.739  1.00  0.00    -0.269 OA
BRANCH  29  32
ATOM     32  C   UNL A   1      34.410  33.670  28.893  1.00  0.00     0.039 A 
ATOM     33  C   UNL A   1      34.395  32.833  30.010  1.00  0.00     0.014 A 
ATOM     34  C   UNL A   1      35.621  34.055  28.310  1.00  0.00     0.014 A 
ATOM     35  C   UNL A   1      35.598  32.338  30.514  1.00  0.00     0.010 A 
ATOM     36  C   UNL A   1      36.813  33.502  28.768  1.00  0.00     0.010 A 
ATOM     37  C   UNL A   1      36.813  32.646  29.881  1.00  0.00    -0.014 A 
BRANCH  37  38
ATOM     38  C   UNL A   1      38.093  32.085  30.380  1.00  0.00     0.031 A 
ATOM     39  C   UNL A   1      38.626  30.797  29.817  1.00  0.00     0.074 A 
ATOM     40  C   UNL A   1      38.753  32.714  31.372  1.00  0.00     0.049 A 
ATOM     41  N   UNL A   1      39.720  30.150  30.131  1.00  0.00    -0.248 NA
ATOM     42  C   UNL A   1      37.815  30.136  28.782  1.00  0.00     0.031 C 
ATOM     43  C   UNL A   1      38.315  33.943  32.039  1.00  0.00     0.029 A 
ATOM     44  N   UNL A   1      39.936  32.403  31.994  1.00  0.00    -0.354 N 
ATOM     45  C   UNL A   1      39.717  29.003  29.349  1.00  0.00     0.074 A 
ATOM     46  C   UNL A   1      38.492  29.015  28.582  1.00  0.00     0.031 C 
ATOM     47  C   UNL A   1      39.232  34.296  32.955  1.00  0.00     0.029 A 
ATOM     48  C   UNL A   1      40.302  33.304  32.963  1.00  0.00     0.049 A 
ATOM     49  H   UNL A   1      40.472  31.608  31.767  1.00  0.00     0.167 HD
ATOM     50  C   UNL A   1      40.660  28.034  29.261  1.00  0.00     0.031 A 
ATOM     51  C   UNL A   1      41.380  33.330  33.770  1.00  0.00     0.031 A 
ATOM     52  C   UNL A   1      41.887  28.029  30.012  1.00  0.00     0.049 A 
ATOM     53  C   UNL A   1      42.417  32.249  33.643  1.00  0.00     0.074 A 
ATOM     54  C   UNL A   1      42.934  27.126  29.946  1.00  0.00     0.029 A 
ATOM     55  N   UNL A   1      42.230  28.971  30.970  1.00  0.00    -0.354 N 
ATOM     56  N   UNL A   1      42.440  31.215  32.837  1.00  0.00    -0.248 NA
ATOM     57  C   UNL A   1      43.589  32.352  34.524  1.00  0.00     0.031 C 
ATOM     58  C   UNL A   1      43.888  27.493  30.900  1.00  0.00     0.029 A 
ATOM     59  C   UNL A   1      43.462  28.658  31.518  1.00  0.00     0.049 A 
ATOM     60  H   UNL A   1      41.678  29.746  31.223  1.00  0.00     0.167 HD
ATOM     61  C   UNL A   1      43.638  30.562  33.093  1.00  0.00     0.074 A 
ATOM     62  C   UNL A   1      44.323  31.328  34.114  1.00  0.00     0.031 C 
ATOM     63  C   UNL A   1      44.131  29.430  32.532  1.00  0.00     0.031 A 
BRANCH  50  64
ATOM     64  C   UNL A   1      40.397  26.893  28.319  1.00  0.00    -0.014 A 
ATOM     65  C   UNL A   1      39.645  25.776  28.718  1.00  0.00     0.009 A 
ATOM     66  C   UNL A   1      40.873  26.954  27.000  1.00  0.00     0.009 A 
ATOM     67  C   UNL A   1      39.404  24.729  27.826  1.00  0.00     0.001 A 
ATOM     68  C   UNL A   1      40.605  25.920  26.101  1.00  0.00     0.001 A 
ATOM     69  C   UNL A   1      39.880  24.805  26.516  1.00  0.00     0.000 A 
ENDBRANCH  50  64
BRANCH  51  70
ATOM     70  C   UNL A   1      41.547  34.427  34.759  1.00  0.00    -0.014 A 
ATOM     71  C   UNL A   1      41.011  34.312  36.052  1.00  0.00     0.009 A 
ATOM     72  C   UNL A   1      42.228  35.604  34.409  1.00  0.00     0.009 A 
ATOM     73  C   UNL A   1      41.124  35.367  36.961  1.00  0.00     0.001 A 
ATOM     74  C   UNL A   1      42.364  36.644  35.331  1.00  0.00     0.001 A 
ATOM     75  C   UNL A   1      41.803  36.530  36.601  1.00  0.00     0.000 A 
ENDBRANCH  51  70
BRANCH  63  76
ATOM     76  C   UNL A   1      45.492  28.978  32.982  1.00  0.00    -0.014 A 
ATOM     77  C   UNL A   1      45.650  28.077  34.047  1.00  0.00     0.009 A 
ATOM     78  C   UNL A   1      46.632  29.443  32.309  1.00  0.00     0.009 A 
ATOM     79  C   UNL A   1      46.926  27.686  34.456  1.00  0.00     0.001 A 
ATOM     80  C   UNL A   1      47.905  29.025  32.699  1.00  0.00     0.001 A 
ATOM     81  C   UNL A   1      48.051  28.156  33.780  1.00  0.00     0.000 A 
ENDBRANCH  63  76
ENDBRANCH  37  38
ENDBRANCH  29  32
ENDBRANCH  27  28
ENDBRANCH  26  27
ENDBRANCH   1  26
TORSDOF 16
ENDMDL
