MODEL 1
REMARK VINA RESULT:     -10.8      0.000      0.000
REMARK SMILES CC[C@](C)(NC(=O)CNC(=O)c1cccc(Cl)c1)C(=O)NCCCCNC(=O)c1ccc(-c2c3nc(c(-c4ccccc4)c4ccc([nH]4)c(-c4ccccc4)c4nc(c(-c5ccccc5)c5ccc2[nH]5)C=C4)C=C3)cc1
REMARK SMILES IDX 22 1 21 2 19 3 20 4 3 6 4 7 2 8 1 9 5 10 6 11 7 13 8 14 9 15
REMARK SMILES IDX 10 16 11 18 12 19 13 20 18 21 14 22 16 23 15 24 17 25 23 26
REMARK SMILES IDX 24 27 25 28 26 29 27 30 28 32 29 33 30 34 76 35 31 36 75 37
REMARK SMILES IDX 32 38 33 39 34 40 69 41 35 42 74 43 68 44 70 45 36 46 73 47
REMARK SMILES IDX 67 48 66 49 37 51 59 52 44 53 58 54 45 55 48 56 57 57 71 58
REMARK SMILES IDX 46 59 47 60 56 62 72 63 49 64 38 65 39 66 43 67 40 68 42 69
REMARK SMILES IDX 41 70 60 71 61 72 65 73 62 74 64 75 63 76 50 77 51 78 55 79
REMARK SMILES IDX 52 80 54 81 53 82
REMARK H PARENT 21 5 5 12 9 17 26 31 70 50 48 61
REMARK Flexibility Score: inf
ROOT
ATOM      1  C   UNL A   1      32.598  29.547  25.845  1.00  0.00     0.116 C 
ENDROOT
BRANCH   1   2
ATOM      2  N   UNL A   1      33.611  29.415  24.804  1.00  0.00    -0.354 N 
ATOM      3  C   UNL A   1      33.686  28.564  23.725  1.00  0.00     0.245 C 
ATOM      4  O   UNL A   1      34.290  28.963  22.729  1.00  0.00    -0.272 OA
ATOM      5  H   UNL A   1      34.367  30.041  24.887  1.00  0.00     0.163 HD
BRANCH   3   6
ATOM      6  C   UNL A   1      32.898  27.245  23.660  1.00  0.00     0.116 C 
ATOM      7  C   UNL A   1      31.435  27.362  24.137  1.00  0.00     0.045 C 
BRANCH   6   8
ATOM      8  C   UNL A   1      33.672  26.292  24.633  1.00  0.00     0.035 C 
ATOM      9  C   UNL A   1      32.898  25.902  25.899  1.00  0.00     0.007 C 
ENDBRANCH   6   8
BRANCH   6  10
ATOM     10  N   UNL A   1      32.864  26.734  22.279  1.00  0.00    -0.340 N 
ATOM     11  C   UNL A   1      32.764  25.430  21.857  1.00  0.00     0.240 C 
ATOM     12  H   UNL A   1      32.918  27.412  21.568  1.00  0.00     0.164 HD
ATOM     13  O   UNL A   1      33.212  25.179  20.733  1.00  0.00    -0.273 OA
BRANCH  11  14
ATOM     14  C   UNL A   1      31.977  24.339  22.643  1.00  0.00     0.216 C 
BRANCH  14  15
ATOM     15  N   UNL A   1      32.187  22.920  22.417  1.00  0.00    -0.343 N 
ATOM     16  C   UNL A   1      32.525  21.906  23.291  1.00  0.00     0.251 C 
ATOM     17  H   UNL A   1      32.068  22.632  21.483  1.00  0.00     0.164 HD
ATOM     18  O   UNL A   1      32.317  20.740  22.956  1.00  0.00    -0.269 OA
BRANCH  16  19
ATOM     19  C   UNL A   1      33.238  22.139  24.572  1.00  0.00     0.041 A 
ATOM     20  C   UNL A   1      32.693  21.906  25.836  1.00  0.00     0.014 A 
ATOM     21  C   UNL A   1      34.556  22.609  24.468  1.00  0.00     0.034 A 
ATOM     22  C   UNL A   1      33.423  22.253  26.985  1.00  0.00     0.002 A 
ATOM     23  C   UNL A   1      35.254  23.002  25.609  1.00  0.00     0.041 A 
ATOM     24  C   UNL A   1      34.685  22.842  26.870  1.00  0.00     0.020 A 
ATOM     25  Cl  UNL A   1      36.794  23.757  25.459  1.00  0.00    -0.084 Cl
ENDBRANCH  16  19
ENDBRANCH  14  15
ENDBRANCH  11  14
ENDBRANCH   6  10
ENDBRANCH   3   6
ENDBRANCH   1   2
BRANCH   1  26
ATOM     26  C   UNL A   1      31.471  30.564  25.631  1.00  0.00     0.023 C 
BRANCH  26  27
ATOM     27  C   UNL A   1      31.329  31.711  26.627  1.00  0.00     0.023 C 
BRANCH  27  28
ATOM     28  C   UNL A   1      32.614  32.420  27.012  1.00  0.00     0.116 C 
BRANCH  28  29
ATOM     29  N   UNL A   1      32.387  33.766  27.500  1.00  0.00    -0.352 N 
ATOM     30  C   UNL A   1      33.087  34.488  28.432  1.00  0.00     0.251 C 
ATOM     31  H   UNL A   1      31.615  34.230  27.102  1.00  0.00     0.163 HD
ATOM     32  O   UNL A   1      32.639  35.569  28.818  1.00  0.00    -0.269 OA
BRANCH  30  33
ATOM     33  C   UNL A   1      34.353  33.975  29.002  1.00  0.00     0.039 A 
ATOM     34  C   UNL A   1      34.286  33.101  30.091  1.00  0.00     0.014 A 
ATOM     35  C   UNL A   1      35.599  34.362  28.499  1.00  0.00     0.014 A 
ATOM     36  C   UNL A   1      35.458  32.577  30.639  1.00  0.00     0.010 A 
ATOM     37  C   UNL A   1      36.764  33.775  28.993  1.00  0.00     0.010 A 
ATOM     38  C   UNL A   1      36.707  32.884  30.075  1.00  0.00    -0.014 A 
BRANCH  38  39
ATOM     39  C   UNL A   1      37.957  32.285  30.614  1.00  0.00     0.031 A 
ATOM     40  C   UNL A   1      38.506  31.011  30.028  1.00  0.00     0.074 A 
ATOM     41  C   UNL A   1      38.581  32.868  31.656  1.00  0.00     0.049 A 
ATOM     42  N   UNL A   1      39.567  30.332  30.382  1.00  0.00    -0.248 NA
ATOM     43  C   UNL A   1      37.754  30.411  28.915  1.00  0.00     0.031 C 
ATOM     44  C   UNL A   1      38.142  34.089  32.334  1.00  0.00     0.029 A 
ATOM     45  N   UNL A   1      39.724  32.511  32.329  1.00  0.00    -0.354 N 
ATOM     46  C   UNL A   1      39.600  29.220  29.548  1.00  0.00     0.074 A 
ATOM     47  C   UNL A   1      38.427  29.290  28.706  1.00  0.00     0.031 C 
ATOM     48  C   UNL A   1      39.021  34.398  33.299  1.00  0.00     0.029 A 
ATOM     49  C   UNL A   1      40.061  33.374  33.343  1.00  0.00     0.049 A 
ATOM     50  H   UNL A   1      40.252  31.709  32.105  1.00  0.00     0.167 HD
ATOM     51  C   UNL A   1      40.532  28.239  29.475  1.00  0.00     0.031 A 
ATOM     52  C   UNL A   1      41.087  33.345  34.214  1.00  0.00     0.031 A 
ATOM     53  C   UNL A   1      41.704  28.171  30.309  1.00  0.00     0.049 A 
ATOM     54  C   UNL A   1      42.088  32.226  34.134  1.00  0.00     0.074 A 
ATOM     55  C   UNL A   1      42.733  27.246  30.272  1.00  0.00     0.029 A 
ATOM     56  N   UNL A   1      41.997  29.058  31.333  1.00  0.00    -0.354 N 
ATOM     57  N   UNL A   1      42.142  31.223  33.292  1.00  0.00    -0.248 NA
ATOM     58  C   UNL A   1      43.176  32.242  35.123  1.00  0.00     0.031 C 
ATOM     59  C   UNL A   1      43.617  27.535  31.317  1.00  0.00     0.029 A 
ATOM     60  C   UNL A   1      43.175  28.681  31.958  1.00  0.00     0.049 A 
ATOM     61  H   UNL A   1      41.451  29.838  31.579  1.00  0.00     0.167 HD
ATOM     62  C   UNL A   1      43.285  30.508  33.626  1.00  0.00     0.074 A 
ATOM     63  C   UNL A   1      43.904  31.203  34.737  1.00  0.00     0.031 C 
ATOM     64  C   UNL A   1      43.781  29.380  33.062  1.00  0.00     0.031 A 
BRANCH  51  65
ATOM     65  C   UNL A   1      40.313  27.144  28.466  1.00  0.00    -0.014 A 
ATOM     66  C   UNL A   1      39.543  26.011  28.771  1.00  0.00     0.009 A 
ATOM     67  C   UNL A   1      40.850  27.269  27.175  1.00  0.00     0.009 A 
ATOM     68  C   UNL A   1      39.347  25.009  27.818  1.00  0.00     0.001 A 
ATOM     69  C   UNL A   1      40.626  26.281  26.213  1.00  0.00     0.001 A 
ATOM     70  C   UNL A   1      39.884  25.148  26.539  1.00  0.00     0.000 A 
ENDBRANCH  51  65
BRANCH  52  71
ATOM     71  C   UNL A   1      41.230  34.415  35.238  1.00  0.00    -0.014 A 
ATOM     72  C   UNL A   1      41.998  35.560  34.971  1.00  0.00     0.009 A 
ATOM     73  C   UNL A   1      40.617  34.291  36.494  1.00  0.00     0.009 A 
ATOM     74  C   UNL A   1      42.174  36.540  35.950  1.00  0.00     0.001 A 
ATOM     75  C   UNL A   1      40.766  35.288  37.460  1.00  0.00     0.001 A 
ATOM     76  C   UNL A   1      41.555  36.406  37.191  1.00  0.00     0.000 A 
ENDBRANCH  52  71
BRANCH  64  77
ATOM     77  C   UNL A   1      45.076  28.846  33.609  1.00  0.00    -0.014 A 
ATOM     78  C   UNL A   1      45.101  27.907  34.652  1.00  0.00     0.009 A 
ATOM     79  C   UNL A   1      46.291  29.263  33.042  1.00  0.00     0.009 A 
ATOM     80  C   UNL A   1      46.318  27.425  35.140  1.00  0.00     0.001 A 
ATOM     81  C   UNL A   1      47.504  28.754  33.507  1.00  0.00     0.001 A 
ATOM     82  C   UNL A   1      47.517  27.845  34.563  1.00  0.00     0.000 A 
ENDBRANCH  64  77
ENDBRANCH  38  39
ENDBRANCH  30  33
ENDBRANCH  28  29
ENDBRANCH  27  28
ENDBRANCH  26  27
ENDBRANCH   1  26
TORSDOF 16
ENDMDL
MODEL 2
REMARK VINA RESULT:     -10.6      0.768      5.958
REMARK SMILES CC[C@](C)(NC(=O)CNC(=O)c1cccc(Cl)c1)C(=O)NCCCCNC(=O)c1ccc(-c2c3nc(c(-c4ccccc4)c4ccc([nH]4)c(-c4ccccc4)c4nc(c(-c5ccccc5)c5ccc2[nH]5)C=C4)C=C3)cc1
REMARK SMILES IDX 22 1 21 2 19 3 20 4 3 6 4 7 2 8 1 9 5 10 6 11 7 13 8 14 9 15
REMARK SMILES IDX 10 16 11 18 12 19 13 20 18 21 14 22 16 23 15 24 17 25 23 26
REMARK SMILES IDX 24 27 25 28 26 29 27 30 28 32 29 33 30 34 76 35 31 36 75 37
REMARK SMILES IDX 32 38 33 39 34 40 69 41 35 42 74 43 68 44 70 45 36 46 73 47
REMARK SMILES IDX 67 48 66 49 37 51 59 52 44 53 58 54 45 55 48 56 57 57 71 58
REMARK SMILES IDX 46 59 47 60 56 62 72 63 49 64 38 65 39 66 43 67 40 68 42 69
REMARK SMILES IDX 41 70 60 71 61 72 65 73 62 74 64 75 63 76 50 77 51 78 55 79
REMARK SMILES IDX 52 80 54 81 53 82
REMARK H PARENT 21 5 5 12 9 17 26 31 70 50 48 61
REMARK Flexibility Score: inf
ROOT
ATOM      1  C   UNL A   1      32.589  29.804  25.912  1.00  0.00     0.116 C 
ENDROOT
BRANCH   1   2
ATOM      2  N   UNL A   1      33.504  29.648  24.787  1.00  0.00    -0.354 N 
ATOM      3  C   UNL A   1      33.479  28.777  23.723  1.00  0.00     0.245 C 
ATOM      4  O   UNL A   1      33.993  29.155  22.669  1.00  0.00    -0.272 OA
ATOM      5  H   UNL A   1      34.267  30.271  24.790  1.00  0.00     0.163 HD
BRANCH   3   6
ATOM      6  C   UNL A   1      32.683  27.461  23.753  1.00  0.00     0.116 C 
ATOM      7  C   UNL A   1      31.414  27.514  24.628  1.00  0.00     0.045 C 
BRANCH   6   8
ATOM      8  C   UNL A   1      33.683  26.428  24.375  1.00  0.00     0.035 C 
ATOM      9  C   UNL A   1      33.534  26.223  25.888  1.00  0.00     0.007 C 
ENDBRANCH   6   8
BRANCH   6  10
ATOM     10  N   UNL A   1      32.257  27.086  22.394  1.00  0.00    -0.340 N 
ATOM     11  C   UNL A   1      32.051  25.827  21.884  1.00  0.00     0.240 C 
ATOM     12  H   UNL A   1      32.099  27.832  21.772  1.00  0.00     0.164 HD
ATOM     13  O   UNL A   1      32.158  25.703  20.659  1.00  0.00    -0.273 OA
BRANCH  11  14
ATOM     14  C   UNL A   1      31.532  24.636  22.744  1.00  0.00     0.216 C 
BRANCH  14  15
ATOM     15  N   UNL A   1      31.804  23.252  22.395  1.00  0.00    -0.343 N 
ATOM     16  C   UNL A   1      32.603  22.306  23.004  1.00  0.00     0.251 C 
ATOM     17  H   UNL A   1      31.340  22.936  21.586  1.00  0.00     0.164 HD
ATOM     18  O   UNL A   1      32.421  21.118  22.740  1.00  0.00    -0.269 OA
BRANCH  16  19
ATOM     19  C   UNL A   1      33.754  22.652  23.875  1.00  0.00     0.041 A 
ATOM     20  C   UNL A   1      35.013  23.036  23.409  1.00  0.00     0.014 A 
ATOM     21  C   UNL A   1      33.521  22.599  25.258  1.00  0.00     0.034 A 
ATOM     22  C   UNL A   1      36.060  23.248  24.321  1.00  0.00     0.002 A 
ATOM     23  C   UNL A   1      34.575  22.757  26.156  1.00  0.00     0.041 A 
ATOM     24  C   UNL A   1      35.852  23.065  25.691  1.00  0.00     0.020 A 
ATOM     25  Cl  UNL A   1      34.320  22.499  27.838  1.00  0.00    -0.084 Cl
ENDBRANCH  16  19
ENDBRANCH  14  15
ENDBRANCH  11  14
ENDBRANCH   6  10
ENDBRANCH   3   6
ENDBRANCH   1   2
BRANCH   1  26
ATOM     26  C   UNL A   1      31.348  30.682  25.717  1.00  0.00     0.023 C 
BRANCH  26  27
ATOM     27  C   UNL A   1      31.233  31.969  26.529  1.00  0.00     0.023 C 
BRANCH  27  28
ATOM     28  C   UNL A   1      32.529  32.509  27.106  1.00  0.00     0.116 C 
BRANCH  28  29
ATOM     29  N   UNL A   1      32.390  33.852  27.633  1.00  0.00    -0.352 N 
ATOM     30  C   UNL A   1      33.185  34.528  28.523  1.00  0.00     0.251 C 
ATOM     31  H   UNL A   1      31.611  34.353  27.301  1.00  0.00     0.163 HD
ATOM     32  O   UNL A   1      32.809  35.617  28.960  1.00  0.00    -0.269 OA
BRANCH  30  33
ATOM     33  C   UNL A   1      34.468  33.956  28.989  1.00  0.00     0.039 A 
ATOM     34  C   UNL A   1      34.468  33.184  30.155  1.00  0.00     0.014 A 
ATOM     35  C   UNL A   1      35.669  34.190  28.313  1.00  0.00     0.014 A 
ATOM     36  C   UNL A   1      35.655  32.608  30.611  1.00  0.00     0.010 A 
ATOM     37  C   UNL A   1      36.837  33.548  28.722  1.00  0.00     0.010 A 
ATOM     38  C   UNL A   1      36.845  32.757  29.881  1.00  0.00    -0.014 A 
BRANCH  38  39
ATOM     39  C   UNL A   1      38.102  32.099  30.326  1.00  0.00     0.031 A 
ATOM     40  C   UNL A   1      38.975  32.746  31.368  1.00  0.00     0.074 A 
ATOM     41  C   UNL A   1      38.478  30.932  29.767  1.00  0.00     0.049 A 
ATOM     42  N   UNL A   1      40.114  32.332  31.862  1.00  0.00    -0.248 NA
ATOM     43  C   UNL A   1      38.520  34.036  31.910  1.00  0.00     0.031 C 
ATOM     44  C   UNL A   1      37.738  30.210  28.730  1.00  0.00     0.029 A 
ATOM     45  N   UNL A   1      39.579  30.143  29.995  1.00  0.00    -0.354 N 
ATOM     46  C   UNL A   1      40.518  33.316  32.758  1.00  0.00     0.074 A 
ATOM     47  C   UNL A   1      39.529  34.369  32.702  1.00  0.00     0.031 C 
ATOM     48  C   UNL A   1      38.385  29.072  28.438  1.00  0.00     0.029 A 
ATOM     49  C   UNL A   1      39.610  29.003  29.230  1.00  0.00     0.049 A 
ATOM     50  H   UNL A   1      40.282  30.375  30.647  1.00  0.00     0.167 HD
ATOM     51  C   UNL A   1      41.604  33.334  33.568  1.00  0.00     0.031 A 
ATOM     52  C   UNL A   1      40.522  28.014  29.168  1.00  0.00     0.031 A 
ATOM     53  C   UNL A   1      42.587  32.284  33.629  1.00  0.00     0.049 A 
ATOM     54  C   UNL A   1      41.735  28.075  30.053  1.00  0.00     0.074 A 
ATOM     55  C   UNL A   1      43.691  32.187  34.458  1.00  0.00     0.029 A 
ATOM     56  N   UNL A   1      42.587  31.155  32.826  1.00  0.00    -0.354 N 
ATOM     57  N   UNL A   1      42.064  28.978  30.945  1.00  0.00    -0.248 NA
ATOM     58  C   UNL A   1      42.701  26.974  29.926  1.00  0.00     0.031 C 
ATOM     59  C   UNL A   1      44.396  31.030  34.110  1.00  0.00     0.029 A 
ATOM     60  C   UNL A   1      43.693  30.372  33.115  1.00  0.00     0.049 A 
ATOM     61  H   UNL A   1      41.904  30.941  32.150  1.00  0.00     0.167 HD
ATOM     62  C   UNL A   1      43.254  28.538  31.510  1.00  0.00     0.074 A 
ATOM     63  C   UNL A   1      43.580  27.279  30.871  1.00  0.00     0.031 C 
ATOM     64  C   UNL A   1      44.007  29.121  32.473  1.00  0.00     0.031 A 
BRANCH  51  65
ATOM     65  C   UNL A   1      41.797  34.541  34.446  1.00  0.00    -0.014 A 
ATOM     66  C   UNL A   1      42.491  35.673  33.992  1.00  0.00     0.009 A 
ATOM     67  C   UNL A   1      41.239  34.561  35.734  1.00  0.00     0.009 A 
ATOM     68  C   UNL A   1      42.654  36.786  34.821  1.00  0.00     0.001 A 
ATOM     69  C   UNL A   1      41.375  35.686  36.550  1.00  0.00     0.001 A 
ATOM     70  C   UNL A   1      42.091  36.793  36.098  1.00  0.00     0.000 A 
ENDBRANCH  51  65
BRANCH  52  71
ATOM     71  C   UNL A   1      40.322  26.870  28.238  1.00  0.00    -0.014 A 
ATOM     72  C   UNL A   1      40.865  26.899  26.943  1.00  0.00     0.009 A 
ATOM     73  C   UNL A   1      39.571  25.751  28.631  1.00  0.00     0.009 A 
ATOM     74  C   UNL A   1      40.634  25.847  26.054  1.00  0.00     0.001 A 
ATOM     75  C   UNL A   1      39.369  24.685  27.751  1.00  0.00     0.001 A 
ATOM     76  C   UNL A   1      39.891  24.740  26.459  1.00  0.00     0.000 A 
ENDBRANCH  52  71
BRANCH  64  77
ATOM     77  C   UNL A   1      45.239  28.387  32.926  1.00  0.00    -0.014 A 
ATOM     78  C   UNL A   1      46.488  28.606  32.324  1.00  0.00     0.009 A 
ATOM     79  C   UNL A   1      45.152  27.487  34.001  1.00  0.00     0.009 A 
ATOM     80  C   UNL A   1      47.617  27.912  32.765  1.00  0.00     0.001 A 
ATOM     81  C   UNL A   1      46.288  26.820  34.463  1.00  0.00     0.001 A 
ATOM     82  C   UNL A   1      47.516  27.025  33.838  1.00  0.00     0.000 A 
ENDBRANCH  64  77
ENDBRANCH  38  39
ENDBRANCH  30  33
ENDBRANCH  28  29
ENDBRANCH  27  28
ENDBRANCH  26  27
ENDBRANCH   1  26
TORSDOF 16
ENDMDL
MODEL 3
REMARK VINA RESULT:     -10.5      3.825      8.906
REMARK SMILES CC[C@](C)(NC(=O)CNC(=O)c1cccc(Cl)c1)C(=O)NCCCCNC(=O)c1ccc(-c2c3nc(c(-c4ccccc4)c4ccc([nH]4)c(-c4ccccc4)c4nc(c(-c5ccccc5)c5ccc2[nH]5)C=C4)C=C3)cc1
REMARK SMILES IDX 22 1 21 2 19 3 20 4 3 6 4 7 2 8 1 9 5 10 6 11 7 13 8 14 9 15
REMARK SMILES IDX 10 16 11 18 12 19 13 20 18 21 14 22 16 23 15 24 17 25 23 26
REMARK SMILES IDX 24 27 25 28 26 29 27 30 28 32 29 33 30 34 76 35 31 36 75 37
REMARK SMILES IDX 32 38 33 39 34 40 69 41 35 42 74 43 68 44 70 45 36 46 73 47
REMARK SMILES IDX 67 48 66 49 37 51 59 52 44 53 58 54 45 55 48 56 57 57 71 58
REMARK SMILES IDX 46 59 47 60 56 62 72 63 49 64 38 65 39 66 43 67 40 68 42 69
REMARK SMILES IDX 41 70 60 71 61 72 65 73 62 74 64 75 63 76 50 77 51 78 55 79
REMARK SMILES IDX 52 80 54 81 53 82
REMARK H PARENT 21 5 5 12 9 17 26 31 70 50 48 61
REMARK Flexibility Score: inf
ROOT
ATOM      1  C   UNL A   1      35.857  20.700  25.264  1.00  0.00     0.116 C 
ENDROOT
BRANCH   1   2
ATOM      2  N   UNL A   1      35.516  21.418  26.487  1.00  0.00    -0.354 N 
ATOM      3  C   UNL A   1      34.388  22.129  26.825  1.00  0.00     0.245 C 
ATOM      4  O   UNL A   1      34.085  22.178  28.019  1.00  0.00    -0.272 OA
ATOM      5  H   UNL A   1      36.208  21.388  27.186  1.00  0.00     0.163 HD
BRANCH   3   6
ATOM      6  C   UNL A   1      33.418  22.687  25.770  1.00  0.00     0.116 C 
ATOM      7  C   UNL A   1      33.751  22.267  24.324  1.00  0.00     0.045 C 
BRANCH   6   8
ATOM      8  C   UNL A   1      33.576  24.241  25.894  1.00  0.00     0.035 C 
ATOM      9  C   UNL A   1      34.817  24.816  25.199  1.00  0.00     0.007 C 
ENDBRANCH   6   8
BRANCH   6  10
ATOM     10  N   UNL A   1      32.043  22.238  26.047  1.00  0.00    -0.340 N 
ATOM     11  C   UNL A   1      30.864  22.887  25.771  1.00  0.00     0.240 C 
ATOM     12  H   UNL A   1      31.957  21.360  26.483  1.00  0.00     0.164 HD
ATOM     13  O   UNL A   1      29.891  22.586  26.472  1.00  0.00    -0.273 OA
BRANCH  11  14
ATOM     14  C   UNL A   1      30.675  23.819  24.537  1.00  0.00     0.216 C 
BRANCH  14  15
ATOM     15  N   UNL A   1      29.784  24.967  24.563  1.00  0.00    -0.343 N 
ATOM     16  C   UNL A   1      29.942  26.245  24.065  1.00  0.00     0.251 C 
ATOM     17  H   UNL A   1      28.923  24.806  25.012  1.00  0.00     0.164 HD
ATOM     18  O   UNL A   1      28.942  26.943  23.898  1.00  0.00    -0.269 OA
BRANCH  16  19
ATOM     19  C   UNL A   1      31.267  26.869  23.831  1.00  0.00     0.041 A 
ATOM     20  C   UNL A   1      31.972  26.805  22.626  1.00  0.00     0.014 A 
ATOM     21  C   UNL A   1      31.815  27.582  24.909  1.00  0.00     0.034 A 
ATOM     22  C   UNL A   1      33.264  27.351  22.544  1.00  0.00     0.002 A 
ATOM     23  C   UNL A   1      33.117  28.073  24.839  1.00  0.00     0.041 A 
ATOM     24  C   UNL A   1      33.853  27.945  23.664  1.00  0.00     0.020 A 
ATOM     25  Cl  UNL A   1      33.849  28.773  26.230  1.00  0.00    -0.084 Cl
ENDBRANCH  16  19
ENDBRANCH  14  15
ENDBRANCH  11  14
ENDBRANCH   6  10
ENDBRANCH   3   6
ENDBRANCH   1   2
BRANCH   1  26
ATOM     26  C   UNL A   1      37.262  20.894  24.682  1.00  0.00     0.023 C 
BRANCH  26  27
ATOM     27  C   UNL A   1      38.286  19.776  24.865  1.00  0.00     0.023 C 
BRANCH  27  28
ATOM     28  C   UNL A   1      39.264  19.953  26.013  1.00  0.00     0.116 C 
BRANCH  28  29
ATOM     29  N   UNL A   1      40.484  19.193  25.830  1.00  0.00    -0.352 N 
ATOM     30  C   UNL A   1      41.789  19.584  25.988  1.00  0.00     0.251 C 
ATOM     31  H   UNL A   1      40.357  18.258  25.552  1.00  0.00     0.163 HD
ATOM     32  O   UNL A   1      42.693  18.824  25.636  1.00  0.00    -0.269 OA
BRANCH  30  33
ATOM     33  C   UNL A   1      42.126  20.914  26.544  1.00  0.00     0.039 A 
ATOM     34  C   UNL A   1      42.404  21.956  25.655  1.00  0.00     0.014 A 
ATOM     35  C   UNL A   1      42.197  21.140  27.922  1.00  0.00     0.014 A 
ATOM     36  C   UNL A   1      42.702  23.230  26.143  1.00  0.00     0.010 A 
ATOM     37  C   UNL A   1      42.414  22.430  28.407  1.00  0.00     0.010 A 
ATOM     38  C   UNL A   1      42.678  23.487  27.524  1.00  0.00    -0.014 A 
BRANCH  38  39
ATOM     39  C   UNL A   1      42.934  24.853  28.050  1.00  0.00     0.031 A 
ATOM     40  C   UNL A   1      44.329  25.273  28.434  1.00  0.00     0.074 A 
ATOM     41  C   UNL A   1      41.907  25.708  28.218  1.00  0.00     0.049 A 
ATOM     42  N   UNL A   1      44.739  26.413  28.931  1.00  0.00    -0.248 NA
ATOM     43  C   UNL A   1      45.397  24.278  28.257  1.00  0.00     0.031 C 
ATOM     44  C   UNL A   1      40.504  25.420  27.911  1.00  0.00     0.029 A 
ATOM     45  N   UNL A   1      41.882  26.998  28.688  1.00  0.00    -0.354 N 
ATOM     46  C   UNL A   1      46.105  26.265  29.139  1.00  0.00     0.074 A 
ATOM     47  C   UNL A   1      46.445  24.911  28.763  1.00  0.00     0.031 C 
ATOM     48  C   UNL A   1      39.764  26.510  28.166  1.00  0.00     0.029 A 
ATOM     49  C   UNL A   1      40.628  27.559  28.699  1.00  0.00     0.049 A 
ATOM     50  H   UNL A   1      42.689  27.477  28.990  1.00  0.00     0.167 HD
ATOM     51  C   UNL A   1      47.002  27.178  29.585  1.00  0.00     0.031 A 
ATOM     52  C   UNL A   1      40.216  28.777  29.097  1.00  0.00     0.031 A 
ATOM     53  C   UNL A   1      46.667  28.528  29.955  1.00  0.00     0.049 A 
ATOM     54  C   UNL A   1      41.226  29.760  29.621  1.00  0.00     0.074 A 
ATOM     55  C   UNL A   1      47.513  29.543  30.365  1.00  0.00     0.029 A 
ATOM     56  N   UNL A   1      45.382  29.049  29.965  1.00  0.00    -0.354 N 
ATOM     57  N   UNL A   1      42.524  29.627  29.743  1.00  0.00    -0.248 NA
ATOM     58  C   UNL A   1      40.712  31.067  30.054  1.00  0.00     0.031 C 
ATOM     59  C   UNL A   1      46.734  30.658  30.687  1.00  0.00     0.029 A 
ATOM     60  C   UNL A   1      45.410  30.361  30.409  1.00  0.00     0.049 A 
ATOM     61  H   UNL A   1      44.571  28.559  29.698  1.00  0.00     0.167 HD
ATOM     62  C   UNL A   1      42.986  30.841  30.234  1.00  0.00     0.074 A 
ATOM     63  C   UNL A   1      41.831  31.704  30.371  1.00  0.00     0.031 C 
ATOM     64  C   UNL A   1      44.253  31.210  30.541  1.00  0.00     0.031 A 
BRANCH  51  65
ATOM     65  C   UNL A   1      48.436  26.740  29.716  1.00  0.00    -0.014 A 
ATOM     66  C   UNL A   1      48.910  26.128  30.886  1.00  0.00     0.009 A 
ATOM     67  C   UNL A   1      49.315  26.905  28.634  1.00  0.00     0.009 A 
ATOM     68  C   UNL A   1      50.244  25.723  30.984  1.00  0.00     0.001 A 
ATOM     69  C   UNL A   1      50.639  26.471  28.722  1.00  0.00     0.001 A 
ATOM     70  C   UNL A   1      51.105  25.890  29.900  1.00  0.00     0.000 A 
ENDBRANCH  51  65
BRANCH  52  71
ATOM     71  C   UNL A   1      38.777  29.146  29.010  1.00  0.00    -0.014 A 
ATOM     72  C   UNL A   1      38.254  29.704  27.832  1.00  0.00     0.009 A 
ATOM     73  C   UNL A   1      37.923  28.962  30.108  1.00  0.00     0.009 A 
ATOM     74  C   UNL A   1      36.915  30.097  27.768  1.00  0.00     0.001 A 
ATOM     75  C   UNL A   1      36.577  29.325  30.031  1.00  0.00     0.001 A 
ATOM     76  C   UNL A   1      36.077  29.903  28.865  1.00  0.00     0.000 A 
ENDBRANCH  52  71
BRANCH  64  77
ATOM     77  C   UNL A   1      44.466  32.620  31.018  1.00  0.00    -0.014 A 
ATOM     78  C   UNL A   1      44.440  32.946  32.383  1.00  0.00     0.009 A 
ATOM     79  C   UNL A   1      44.734  33.634  30.083  1.00  0.00     0.009 A 
ATOM     80  C   UNL A   1      44.643  34.264  32.799  1.00  0.00     0.001 A 
ATOM     81  C   UNL A   1      44.971  34.943  30.504  1.00  0.00     0.001 A 
ATOM     82  C   UNL A   1      44.914  35.259  31.860  1.00  0.00     0.000 A 
ENDBRANCH  64  77
ENDBRANCH  38  39
ENDBRANCH  30  33
ENDBRANCH  28  29
ENDBRANCH  27  28
ENDBRANCH  26  27
ENDBRANCH   1  26
TORSDOF 16
ENDMDL
