MODEL 1
REMARK VINA RESULT:     -11.9      0.000      0.000
REMARK SMILES Cc1ccc(NC(=O)C[C@H]2SC[C@H](C(=O)NCCCCNC(=O)c3ccc(-c4c5nc(c(-c6ccccc6)c6ccc([nH]6)c(-c6ccccc6)c6nc(c(-c7ccccc7)c7ccc4[nH]7)C=C6)C=C5)cc3)NC2=O)cc1
REMARK SMILES IDX 18 1 17 2 16 3 14 4 15 5 13 7 10 8 11 9 73 10 12 11 72 12
REMARK SMILES IDX 74 13 9 15 7 16 6 17 8 19 5 20 1 21 2 22 3 23 76 24 4 25
REMARK SMILES IDX 75 26 19 27 20 28 21 29 22 30 23 32 24 33 25 34 71 35 26 36
REMARK SMILES IDX 70 37 27 38 28 39 29 40 64 41 30 42 69 43 63 44 65 45 31 46
REMARK SMILES IDX 68 47 62 48 61 49 32 51 54 52 39 53 53 54 40 55 43 56 52 57
REMARK SMILES IDX 66 58 41 59 42 60 51 62 67 63 44 64 33 65 34 66 38 67 35 68
REMARK SMILES IDX 37 69 36 70 55 71 56 72 60 73 57 74 59 75 58 76 45 77 46 78
REMARK SMILES IDX 50 79 47 80 49 81 48 82
REMARK H PARENT 16 6 72 14 6 18 21 31 65 50 43 61
REMARK Flexibility Score: inf
ROOT
ATOM      1  C   UNL A   1      34.054  29.876  26.833  1.00  0.00     0.023 C 
ENDROOT
BRANCH   1   2
ATOM      2  C   UNL A   1      33.335  28.991  25.801  1.00  0.00     0.116 C 
BRANCH   2   3
ATOM      3  N   UNL A   1      32.284  29.685  25.079  1.00  0.00    -0.354 N 
ATOM      4  C   UNL A   1      31.161  29.240  24.453  1.00  0.00     0.243 C 
ATOM      5  O   UNL A   1      30.399  30.107  24.011  1.00  0.00    -0.273 OA
ATOM      6  H   UNL A   1      32.408  30.660  25.033  1.00  0.00     0.163 HD
BRANCH   4   7
ATOM      7  C   UNL A   1      30.783  27.750  24.341  1.00  0.00     0.181 C 
ATOM      8  C   UNL A   1      31.185  24.822  25.021  1.00  0.00     0.145 C 
ATOM      9  S   UNL A   1      31.141  25.244  23.222  1.00  0.00    -0.145 SA
ATOM     10  C   UNL A   1      30.288  25.795  25.800  1.00  0.00     0.234 C 
ATOM     11  C   UNL A   1      31.678  26.977  23.381  1.00  0.00     0.105 C 
ATOM     12  N   UNL A   1      30.571  27.140  25.654  1.00  0.00    -0.343 N 
ATOM     13  O   UNL A   1      29.414  25.465  26.594  1.00  0.00    -0.274 OA
ATOM     14  H   UNL A   1      30.634  27.705  26.458  1.00  0.00     0.164 HD
BRANCH   8  15
ATOM     15  C   UNL A   1      31.012  23.305  25.204  1.00  0.00     0.124 C 
BRANCH  15  16
ATOM     16  C   UNL A   1      31.314  22.629  26.534  1.00  0.00     0.226 C 
ATOM     17  N   UNL A   1      32.524  22.076  26.843  1.00  0.00    -0.326 N 
ATOM     18  H   UNL A   1      32.558  21.560  27.680  1.00  0.00     0.169 HD
ATOM     19  O   UNL A   1      30.417  22.532  27.380  1.00  0.00    -0.275 OA
BRANCH  17  20
ATOM     20  C   UNL A   1      33.719  22.150  26.125  1.00  0.00     0.041 A 
ATOM     21  C   UNL A   1      37.790  21.553  25.116  1.00  0.00     0.044 C 
ATOM     22  C   UNL A   1      36.341  21.825  25.325  1.00  0.00    -0.051 A 
ATOM     23  C   UNL A   1      35.924  23.053  25.845  1.00  0.00     0.005 A 
ATOM     24  C   UNL A   1      35.396  20.847  25.004  1.00  0.00     0.005 A 
ATOM     25  C   UNL A   1      34.604  23.216  26.245  1.00  0.00     0.026 A 
ATOM     26  C   UNL A   1      34.073  21.020  25.387  1.00  0.00     0.026 A 
ENDBRANCH  17  20
ENDBRANCH  15  16
ENDBRANCH   8  15
ENDBRANCH   4   7
ENDBRANCH   2   3
ENDBRANCH   1   2
BRANCH   1  27
ATOM     27  C   UNL A   1      33.317  31.152  27.252  1.00  0.00     0.023 C 
BRANCH  27  28
ATOM     28  C   UNL A   1      34.207  32.240  27.836  1.00  0.00     0.116 C 
BRANCH  28  29
ATOM     29  N   UNL A   1      33.498  33.307  28.533  1.00  0.00    -0.352 N 
ATOM     30  C   UNL A   1      33.915  34.088  29.606  1.00  0.00     0.251 C 
ATOM     31  H   UNL A   1      32.594  33.501  28.196  1.00  0.00     0.163 HD
ATOM     32  O   UNL A   1      33.175  34.923  30.083  1.00  0.00    -0.269 OA
BRANCH  30  33
ATOM     33  C   UNL A   1      35.326  33.991  30.065  1.00  0.00     0.039 A 
ATOM     34  C   UNL A   1      36.324  34.444  29.194  1.00  0.00     0.014 A 
ATOM     35  C   UNL A   1      35.667  33.261  31.198  1.00  0.00     0.014 A 
ATOM     36  C   UNL A   1      37.608  33.922  29.302  1.00  0.00     0.010 A 
ATOM     37  C   UNL A   1      36.902  32.651  31.244  1.00  0.00     0.010 A 
ATOM     38  C   UNL A   1      37.842  32.927  30.249  1.00  0.00    -0.014 A 
BRANCH  38  39
ATOM     39  C   UNL A   1      38.991  32.038  30.197  1.00  0.00     0.031 A 
ATOM     40  C   UNL A   1      38.834  30.660  29.707  1.00  0.00     0.074 A 
ATOM     41  C   UNL A   1      40.204  32.487  30.586  1.00  0.00     0.049 A 
ATOM     42  N   UNL A   1      39.539  29.663  30.125  1.00  0.00    -0.248 NA
ATOM     43  C   UNL A   1      37.815  30.291  28.734  1.00  0.00     0.031 C 
ATOM     44  C   UNL A   1      41.487  31.811  30.417  1.00  0.00     0.029 A 
ATOM     45  N   UNL A   1      40.491  33.555  31.438  1.00  0.00    -0.354 N 
ATOM     46  C   UNL A   1      39.282  28.610  29.280  1.00  0.00     0.074 A 
ATOM     47  C   UNL A   1      38.137  29.016  28.497  1.00  0.00     0.031 C 
ATOM     48  C   UNL A   1      42.324  32.254  31.367  1.00  0.00     0.029 A 
ATOM     49  C   UNL A   1      41.562  33.141  32.236  1.00  0.00     0.049 A 
ATOM     50  H   UNL A   1      40.030  34.425  31.470  1.00  0.00     0.167 HD
ATOM     51  C   UNL A   1      40.158  27.570  29.204  1.00  0.00     0.031 A 
ATOM     52  C   UNL A   1      41.568  33.128  33.598  1.00  0.00     0.031 A 
ATOM     53  C   UNL A   1      41.298  27.752  30.099  1.00  0.00     0.049 A 
ATOM     54  C   UNL A   1      41.920  31.761  34.115  1.00  0.00     0.074 A 
ATOM     55  C   UNL A   1      42.586  28.212  29.877  1.00  0.00     0.029 A 
ATOM     56  N   UNL A   1      41.106  27.761  31.478  1.00  0.00    -0.354 N 
ATOM     57  N   UNL A   1      41.756  30.675  33.409  1.00  0.00    -0.248 NA
ATOM     58  C   UNL A   1      42.481  31.497  35.435  1.00  0.00     0.031 C 
ATOM     59  C   UNL A   1      43.148  28.561  31.130  1.00  0.00     0.029 A 
ATOM     60  C   UNL A   1      42.218  28.281  32.115  1.00  0.00     0.049 A 
ATOM     61  H   UNL A   1      40.294  27.444  31.935  1.00  0.00     0.167 HD
ATOM     62  C   UNL A   1      42.240  29.606  34.108  1.00  0.00     0.074 A 
ATOM     63  C   UNL A   1      42.652  30.163  35.385  1.00  0.00     0.031 C 
ATOM     64  C   UNL A   1      42.289  28.355  33.569  1.00  0.00     0.031 A 
BRANCH  51  65
ATOM     65  C   UNL A   1      40.129  26.585  28.062  1.00  0.00    -0.014 A 
ATOM     66  C   UNL A   1      39.442  25.367  28.203  1.00  0.00     0.009 A 
ATOM     67  C   UNL A   1      40.808  26.776  26.845  1.00  0.00     0.009 A 
ATOM     68  C   UNL A   1      39.522  24.353  27.238  1.00  0.00     0.001 A 
ATOM     69  C   UNL A   1      40.930  25.751  25.896  1.00  0.00     0.001 A 
ATOM     70  C   UNL A   1      40.297  24.533  26.099  1.00  0.00     0.000 A 
ENDBRANCH  51  65
BRANCH  52  71
ATOM     71  C   UNL A   1      40.667  34.112  34.256  1.00  0.00    -0.014 A 
ATOM     72  C   UNL A   1      39.561  33.621  34.976  1.00  0.00     0.009 A 
ATOM     73  C   UNL A   1      41.116  35.408  34.537  1.00  0.00     0.009 A 
ATOM     74  C   UNL A   1      39.045  34.322  36.070  1.00  0.00     0.001 A 
ATOM     75  C   UNL A   1      40.580  36.121  35.619  1.00  0.00     0.001 A 
ATOM     76  C   UNL A   1      39.585  35.556  36.416  1.00  0.00     0.000 A 
ENDBRANCH  52  71
BRANCH  64  77
ATOM     77  C   UNL A   1      42.526  27.083  34.336  1.00  0.00    -0.014 A 
ATOM     78  C   UNL A   1      41.644  26.578  35.300  1.00  0.00     0.009 A 
ATOM     79  C   UNL A   1      43.607  26.252  33.964  1.00  0.00     0.009 A 
ATOM     80  C   UNL A   1      41.853  25.326  35.891  1.00  0.00     0.001 A 
ATOM     81  C   UNL A   1      43.793  24.985  34.516  1.00  0.00     0.001 A 
ATOM     82  C   UNL A   1      42.919  24.525  35.489  1.00  0.00     0.000 A 
ENDBRANCH  64  77
ENDBRANCH  38  39
ENDBRANCH  30  33
ENDBRANCH  28  29
ENDBRANCH  27  28
ENDBRANCH   1  27
TORSDOF 14
ENDMDL
MODEL 2
REMARK VINA RESULT:     -11.9      4.793      9.840
REMARK SMILES Cc1ccc(NC(=O)C[C@H]2SC[C@H](C(=O)NCCCCNC(=O)c3ccc(-c4c5nc(c(-c6ccccc6)c6ccc([nH]6)c(-c6ccccc6)c6nc(c(-c7ccccc7)c7ccc4[nH]7)C=C6)C=C5)cc3)NC2=O)cc1
REMARK SMILES IDX 18 1 17 2 16 3 14 4 15 5 13 7 10 8 11 9 73 10 12 11 72 12
REMARK SMILES IDX 74 13 9 15 7 16 6 17 8 19 5 20 1 21 2 22 3 23 76 24 4 25
REMARK SMILES IDX 75 26 19 27 20 28 21 29 22 30 23 32 24 33 25 34 71 35 26 36
REMARK SMILES IDX 70 37 27 38 28 39 29 40 64 41 30 42 69 43 63 44 65 45 31 46
REMARK SMILES IDX 68 47 62 48 61 49 32 51 54 52 39 53 53 54 40 55 43 56 52 57
REMARK SMILES IDX 66 58 41 59 42 60 51 62 67 63 44 64 33 65 34 66 38 67 35 68
REMARK SMILES IDX 37 69 36 70 55 71 56 72 60 73 57 74 59 75 58 76 45 77 46 78
REMARK SMILES IDX 50 79 47 80 49 81 48 82
REMARK H PARENT 16 6 72 14 6 18 21 31 65 50 43 61
REMARK Flexibility Score: inf
ROOT
ATOM      1  C   UNL A   1      39.643  21.793  26.792  1.00  0.00     0.023 C 
ENDROOT
BRANCH   1   2
ATOM      2  C   UNL A   1      38.502  22.703  26.308  1.00  0.00     0.116 C 
BRANCH   2   3
ATOM      3  N   UNL A   1      38.185  22.535  24.902  1.00  0.00    -0.354 N 
ATOM      4  C   UNL A   1      37.005  22.536  24.225  1.00  0.00     0.243 C 
ATOM      5  O   UNL A   1      37.078  22.469  22.994  1.00  0.00    -0.273 OA
ATOM      6  H   UNL A   1      38.973  22.391  24.329  1.00  0.00     0.163 HD
BRANCH   4   7
ATOM      7  C   UNL A   1      35.633  22.685  24.911  1.00  0.00     0.181 C 
ATOM      8  C   UNL A   1      32.631  23.112  24.843  1.00  0.00     0.145 C 
ATOM      9  S   UNL A   1      33.595  24.262  25.924  1.00  0.00    -0.145 SA
ATOM     10  C   UNL A   1      33.330  21.746  24.792  1.00  0.00     0.234 C 
ATOM     11  C   UNL A   1      35.180  24.134  25.035  1.00  0.00     0.105 C 
ATOM     12  N   UNL A   1      34.647  21.748  24.372  1.00  0.00    -0.343 N 
ATOM     13  O   UNL A   1      32.787  20.669  25.007  1.00  0.00    -0.274 OA
ATOM     14  H   UNL A   1      34.931  21.099  23.687  1.00  0.00     0.164 HD
BRANCH   8  15
ATOM     15  C   UNL A   1      31.137  23.196  25.197  1.00  0.00     0.124 C 
BRANCH  15  16
ATOM     16  C   UNL A   1      30.650  24.010  26.388  1.00  0.00     0.226 C 
ATOM     17  N   UNL A   1      30.362  25.344  26.324  1.00  0.00    -0.326 N 
ATOM     18  H   UNL A   1      30.177  25.783  27.185  1.00  0.00     0.169 HD
ATOM     19  O   UNL A   1      30.538  23.460  27.490  1.00  0.00    -0.275 OA
BRANCH  17  20
ATOM     20  C   UNL A   1      30.294  26.163  25.197  1.00  0.00     0.041 A 
ATOM     21  C   UNL A   1      29.620  29.607  22.823  1.00  0.00     0.044 C 
ATOM     22  C   UNL A   1      29.924  28.332  23.529  1.00  0.00    -0.051 A 
ATOM     23  C   UNL A   1      29.001  27.283  23.514  1.00  0.00     0.005 A 
ATOM     24  C   UNL A   1      31.135  28.184  24.210  1.00  0.00     0.005 A 
ATOM     25  C   UNL A   1      29.189  26.191  24.352  1.00  0.00     0.026 A 
ATOM     26  C   UNL A   1      31.330  27.083  25.032  1.00  0.00     0.026 A 
ENDBRANCH  17  20
ENDBRANCH  15  16
ENDBRANCH   8  15
ENDBRANCH   4   7
ENDBRANCH   2   3
ENDBRANCH   1   2
BRANCH   1  27
ATOM     27  C   UNL A   1      40.964  21.909  26.025  1.00  0.00     0.023 C 
BRANCH  27  28
ATOM     28  C   UNL A   1      42.068  20.981  26.513  1.00  0.00     0.116 C 
BRANCH  28  29
ATOM     29  N   UNL A   1      42.866  20.367  25.457  1.00  0.00    -0.352 N 
ATOM     30  C   UNL A   1      43.965  20.876  24.774  1.00  0.00     0.251 C 
ATOM     31  H   UNL A   1      42.585  19.462  25.189  1.00  0.00     0.163 HD
ATOM     32  O   UNL A   1      44.498  20.230  23.896  1.00  0.00    -0.269 OA
BRANCH  30  33
ATOM     33  C   UNL A   1      44.570  22.156  25.230  1.00  0.00     0.039 A 
ATOM     34  C   UNL A   1      45.229  22.157  26.466  1.00  0.00     0.014 A 
ATOM     35  C   UNL A   1      44.290  23.356  24.588  1.00  0.00     0.014 A 
ATOM     36  C   UNL A   1      45.337  23.347  27.177  1.00  0.00     0.010 A 
ATOM     37  C   UNL A   1      44.287  24.518  25.330  1.00  0.00     0.010 A 
ATOM     38  C   UNL A   1      44.740  24.491  26.650  1.00  0.00    -0.014 A 
BRANCH  38  39
ATOM     39  C   UNL A   1      44.435  25.666  27.450  1.00  0.00     0.031 A 
ATOM     40  C   UNL A   1      43.074  26.223  27.451  1.00  0.00     0.074 A 
ATOM     41  C   UNL A   1      45.403  26.234  28.203  1.00  0.00     0.049 A 
ATOM     42  N   UNL A   1      42.809  27.476  27.602  1.00  0.00    -0.248 NA
ATOM     43  C   UNL A   1      41.895  25.397  27.224  1.00  0.00     0.031 C 
ATOM     44  C   UNL A   1      45.234  27.280  29.206  1.00  0.00     0.029 A 
ATOM     45  N   UNL A   1      46.785  26.142  28.034  1.00  0.00    -0.354 N 
ATOM     46  C   UNL A   1      41.452  27.579  27.791  1.00  0.00     0.074 A 
ATOM     47  C   UNL A   1      40.917  26.280  27.450  1.00  0.00     0.031 C 
ATOM     48  C   UNL A   1      46.394  27.946  29.318  1.00  0.00     0.029 A 
ATOM     49  C   UNL A   1      47.298  27.414  28.307  1.00  0.00     0.049 A 
ATOM     50  H   UNL A   1      47.297  25.341  27.774  1.00  0.00     0.167 HD
ATOM     51  C   UNL A   1      40.929  28.692  28.375  1.00  0.00     0.031 A 
ATOM     52  C   UNL A   1      48.074  28.146  27.461  1.00  0.00     0.031 A 
ATOM     53  C   UNL A   1      41.964  29.663  28.720  1.00  0.00     0.049 A 
ATOM     54  C   UNL A   1      47.472  29.505  27.229  1.00  0.00     0.074 A 
ATOM     55  C   UNL A   1      42.613  29.941  29.912  1.00  0.00     0.029 A 
ATOM     56  N   UNL A   1      42.700  30.283  27.714  1.00  0.00    -0.354 N 
ATOM     57  N   UNL A   1      46.201  29.752  27.398  1.00  0.00    -0.248 NA
ATOM     58  C   UNL A   1      48.224  30.680  26.803  1.00  0.00     0.031 C 
ATOM     59  C   UNL A   1      43.784  30.680  29.611  1.00  0.00     0.029 A 
ATOM     60  C   UNL A   1      43.828  30.882  28.242  1.00  0.00     0.049 A 
ATOM     61  H   UNL A   1      42.452  30.294  26.762  1.00  0.00     0.167 HD
ATOM     62  C   UNL A   1      45.970  31.083  27.193  1.00  0.00     0.074 A 
ATOM     63  C   UNL A   1      47.259  31.618  26.789  1.00  0.00     0.031 C 
ATOM     64  C   UNL A   1      44.744  31.642  27.401  1.00  0.00     0.031 A 
BRANCH  51  65
ATOM     65  C   UNL A   1      39.527  28.716  28.935  1.00  0.00    -0.014 A 
ATOM     66  C   UNL A   1      38.469  29.210  28.153  1.00  0.00     0.009 A 
ATOM     67  C   UNL A   1      39.199  28.318  30.243  1.00  0.00     0.009 A 
ATOM     68  C   UNL A   1      37.185  29.406  28.681  1.00  0.00     0.001 A 
ATOM     69  C   UNL A   1      37.931  28.552  30.792  1.00  0.00     0.001 A 
ATOM     70  C   UNL A   1      36.925  29.109  30.013  1.00  0.00     0.000 A 
ENDBRANCH  51  65
BRANCH  52  71
ATOM     71  C   UNL A   1      48.881  27.365  26.487  1.00  0.00    -0.014 A 
ATOM     72  C   UNL A   1      48.464  27.344  25.142  1.00  0.00     0.009 A 
ATOM     73  C   UNL A   1      50.214  27.039  26.770  1.00  0.00     0.009 A 
ATOM     74  C   UNL A   1      49.387  27.196  24.103  1.00  0.00     0.001 A 
ATOM     75  C   UNL A   1      51.133  26.865  25.726  1.00  0.00     0.001 A 
ATOM     76  C   UNL A   1      50.731  26.996  24.397  1.00  0.00     0.000 A 
ENDBRANCH  52  71
BRANCH  64  77
ATOM     77  C   UNL A   1      44.318  33.007  26.937  1.00  0.00    -0.014 A 
ATOM     78  C   UNL A   1      43.997  33.315  25.609  1.00  0.00     0.009 A 
ATOM     79  C   UNL A   1      44.062  34.008  27.902  1.00  0.00     0.009 A 
ATOM     80  C   UNL A   1      43.485  34.569  25.256  1.00  0.00     0.001 A 
ATOM     81  C   UNL A   1      43.509  35.243  27.561  1.00  0.00     0.001 A 
ATOM     82  C   UNL A   1      43.229  35.527  26.234  1.00  0.00     0.000 A 
ENDBRANCH  64  77
ENDBRANCH  38  39
ENDBRANCH  30  33
ENDBRANCH  28  29
ENDBRANCH  27  28
ENDBRANCH   1  27
TORSDOF 14
ENDMDL
MODEL 3
REMARK VINA RESULT:     -11.9      3.286      8.573
REMARK SMILES Cc1ccc(NC(=O)C[C@H]2SC[C@H](C(=O)NCCCCNC(=O)c3ccc(-c4c5nc(c(-c6ccccc6)c6ccc([nH]6)c(-c6ccccc6)c6nc(c(-c7ccccc7)c7ccc4[nH]7)C=C6)C=C5)cc3)NC2=O)cc1
REMARK SMILES IDX 18 1 17 2 16 3 14 4 15 5 13 7 10 8 11 9 73 10 12 11 72 12
REMARK SMILES IDX 74 13 9 15 7 16 6 17 8 19 5 20 1 21 2 22 3 23 76 24 4 25
REMARK SMILES IDX 75 26 19 27 20 28 21 29 22 30 23 32 24 33 25 34 71 35 26 36
REMARK SMILES IDX 70 37 27 38 28 39 29 40 64 41 30 42 69 43 63 44 65 45 31 46
REMARK SMILES IDX 68 47 62 48 61 49 32 51 54 52 39 53 53 54 40 55 43 56 52 57
REMARK SMILES IDX 66 58 41 59 42 60 51 62 67 63 44 64 33 65 34 66 38 67 35 68
REMARK SMILES IDX 37 69 36 70 55 71 56 72 60 73 57 74 59 75 58 76 45 77 46 78
REMARK SMILES IDX 50 79 47 80 49 81 48 82
REMARK H PARENT 16 6 72 14 6 18 21 31 65 50 43 61
REMARK Flexibility Score: inf
ROOT
ATOM      1  C   UNL A   1      37.019  20.344  24.975  1.00  0.00     0.023 C 
ENDROOT
BRANCH   1   2
ATOM      2  C   UNL A   1      35.482  20.308  24.964  1.00  0.00     0.116 C 
BRANCH   2   3
ATOM      3  N   UNL A   1      34.884  20.800  26.192  1.00  0.00    -0.354 N 
ATOM      4  C   UNL A   1      33.820  21.616  26.426  1.00  0.00     0.243 C 
ATOM      5  O   UNL A   1      33.493  21.765  27.608  1.00  0.00    -0.273 OA
ATOM      6  H   UNL A   1      35.333  20.484  27.009  1.00  0.00     0.163 HD
BRANCH   4   7
ATOM      7  C   UNL A   1      32.996  22.280  25.306  1.00  0.00     0.181 C 
ATOM      8  C   UNL A   1      32.376  24.586  23.437  1.00  0.00     0.145 C 
ATOM      9  S   UNL A   1      30.974  23.978  24.477  1.00  0.00    -0.145 SA
ATOM     10  C   UNL A   1      33.323  23.420  23.118  1.00  0.00     0.234 C 
ATOM     11  C   UNL A   1      31.977  23.284  25.829  1.00  0.00     0.105 C 
ATOM     12  N   UNL A   1      33.841  22.737  24.203  1.00  0.00    -0.343 N 
ATOM     13  O   UNL A   1      33.714  23.117  21.996  1.00  0.00    -0.274 OA
ATOM     14  H   UNL A   1      34.808  22.553  24.235  1.00  0.00     0.164 HD
BRANCH   8  15
ATOM     15  C   UNL A   1      31.837  25.469  22.300  1.00  0.00     0.124 C 
BRANCH  15  16
ATOM     16  C   UNL A   1      32.755  26.390  21.509  1.00  0.00     0.226 C 
ATOM     17  N   UNL A   1      33.112  27.640  21.926  1.00  0.00    -0.326 N 
ATOM     18  H   UNL A   1      33.607  28.184  21.272  1.00  0.00     0.169 HD
ATOM     19  O   UNL A   1      33.181  26.018  20.409  1.00  0.00    -0.275 OA
BRANCH  17  20
ATOM     20  C   UNL A   1      32.869  28.245  23.160  1.00  0.00     0.041 A 
ATOM     21  C   UNL A   1      31.811  28.660  27.241  1.00  0.00     0.044 C 
ATOM     22  C   UNL A   1      32.231  28.666  25.813  1.00  0.00    -0.051 A 
ATOM     23  C   UNL A   1      31.327  29.044  24.816  1.00  0.00     0.005 A 
ATOM     24  C   UNL A   1      33.531  28.289  25.467  1.00  0.00     0.005 A 
ATOM     25  C   UNL A   1      31.650  28.834  23.481  1.00  0.00     0.026 A 
ATOM     26  C   UNL A   1      33.858  28.099  24.132  1.00  0.00     0.026 A 
ENDBRANCH  17  20
ENDBRANCH  15  16
ENDBRANCH   8  15
ENDBRANCH   4   7
ENDBRANCH   2   3
ENDBRANCH   1   2
BRANCH   1  27
ATOM     27  C   UNL A   1      37.660  21.700  24.661  1.00  0.00     0.023 C 
BRANCH  27  28
ATOM     28  C   UNL A   1      38.123  22.485  25.880  1.00  0.00     0.116 C 
BRANCH  28  29
ATOM     29  N   UNL A   1      39.548  22.380  26.174  1.00  0.00    -0.352 N 
ATOM     30  C   UNL A   1      40.432  23.360  26.612  1.00  0.00     0.251 C 
ATOM     31  H   UNL A   1      39.940  21.487  26.043  1.00  0.00     0.163 HD
ATOM     32  O   UNL A   1      41.604  23.099  26.783  1.00  0.00    -0.269 OA
BRANCH  30  33
ATOM     33  C   UNL A   1      39.898  24.690  27.008  1.00  0.00     0.039 A 
ATOM     34  C   UNL A   1      40.393  25.814  26.336  1.00  0.00     0.014 A 
ATOM     35  C   UNL A   1      39.128  24.846  28.155  1.00  0.00     0.014 A 
ATOM     36  C   UNL A   1      40.365  27.052  26.970  1.00  0.00     0.010 A 
ATOM     37  C   UNL A   1      39.197  26.040  28.840  1.00  0.00     0.010 A 
ATOM     38  C   UNL A   1      39.883  27.117  28.276  1.00  0.00    -0.014 A 
BRANCH  38  39
ATOM     39  C   UNL A   1      40.164  28.229  29.169  1.00  0.00     0.031 A 
ATOM     40  C   UNL A   1      39.144  29.264  29.399  1.00  0.00     0.074 A 
ATOM     41  C   UNL A   1      41.358  28.300  29.797  1.00  0.00     0.049 A 
ATOM     42  N   UNL A   1      39.416  30.500  29.648  1.00  0.00    -0.248 NA
ATOM     43  C   UNL A   1      37.717  28.984  29.309  1.00  0.00     0.031 C 
ATOM     44  C   UNL A   1      41.736  29.221  30.864  1.00  0.00     0.029 A 
ATOM     45  N   UNL A   1      42.562  27.702  29.421  1.00  0.00    -0.354 N 
ATOM     46  C   UNL A   1      38.242  31.097  30.041  1.00  0.00     0.074 A 
ATOM     47  C   UNL A   1      37.202  30.146  29.720  1.00  0.00     0.031 C 
ATOM     48  C   UNL A   1      43.069  29.375  30.836  1.00  0.00     0.029 A 
ATOM     49  C   UNL A   1      43.563  28.643  29.678  1.00  0.00     0.049 A 
ATOM     50  H   UNL A   1      42.681  26.796  29.050  1.00  0.00     0.167 HD
ATOM     51  C   UNL A   1      38.274  32.259  30.749  1.00  0.00     0.031 A 
ATOM     52  C   UNL A   1      44.461  29.103  28.763  1.00  0.00     0.031 A 
ATOM     53  C   UNL A   1      39.642  32.716  30.984  1.00  0.00     0.049 A 
ATOM     54  C   UNL A   1      44.422  30.604  28.688  1.00  0.00     0.074 A 
ATOM     55  C   UNL A   1      40.483  32.599  32.079  1.00  0.00     0.029 A 
ATOM     56  N   UNL A   1      40.440  33.105  29.912  1.00  0.00    -0.354 N 
ATOM     57  N   UNL A   1      43.382  31.302  29.056  1.00  0.00    -0.248 NA
ATOM     58  C   UNL A   1      45.522  31.436  28.214  1.00  0.00     0.031 C 
ATOM     59  C   UNL A   1      41.807  32.857  31.645  1.00  0.00     0.029 A 
ATOM     60  C   UNL A   1      41.767  33.166  30.296  1.00  0.00     0.049 A 
ATOM     61  H   UNL A   1      40.107  33.308  29.008  1.00  0.00     0.167 HD
ATOM     62  C   UNL A   1      43.674  32.633  28.952  1.00  0.00     0.074 A 
ATOM     63  C   UNL A   1      45.013  32.669  28.388  1.00  0.00     0.031 C 
ATOM     64  C   UNL A   1      42.803  33.596  29.366  1.00  0.00     0.031 A 
BRANCH  51  65
ATOM     65  C   UNL A   1      37.072  32.763  31.511  1.00  0.00    -0.014 A 
ATOM     66  C   UNL A   1      36.910  32.428  32.866  1.00  0.00     0.009 A 
ATOM     67  C   UNL A   1      36.040  33.522  30.932  1.00  0.00     0.009 A 
ATOM     68  C   UNL A   1      35.736  32.731  33.570  1.00  0.00     0.001 A 
ATOM     69  C   UNL A   1      34.846  33.790  31.615  1.00  0.00     0.001 A 
ATOM     70  C   UNL A   1      34.689  33.382  32.932  1.00  0.00     0.000 A 
ENDBRANCH  51  65
BRANCH  52  71
ATOM     71  C   UNL A   1      44.774  28.176  27.643  1.00  0.00    -0.014 A 
ATOM     72  C   UNL A   1      45.437  26.970  27.944  1.00  0.00     0.009 A 
ATOM     73  C   UNL A   1      44.071  28.259  26.434  1.00  0.00     0.009 A 
ATOM     74  C   UNL A   1      45.243  25.827  27.162  1.00  0.00     0.001 A 
ATOM     75  C   UNL A   1      43.899  27.118  25.638  1.00  0.00     0.001 A 
ATOM     76  C   UNL A   1      44.438  25.893  26.030  1.00  0.00     0.000 A 
ENDBRANCH  52  71
BRANCH  64  77
ATOM     77  C   UNL A   1      42.900  35.061  29.037  1.00  0.00    -0.014 A 
ATOM     78  C   UNL A   1      42.133  35.691  28.049  1.00  0.00     0.009 A 
ATOM     79  C   UNL A   1      43.681  35.897  29.867  1.00  0.00     0.009 A 
ATOM     80  C   UNL A   1      42.174  37.079  27.872  1.00  0.00     0.001 A 
ATOM     81  C   UNL A   1      43.689  37.285  29.725  1.00  0.00     0.001 A 
ATOM     82  C   UNL A   1      42.941  37.876  28.718  1.00  0.00     0.000 A 
ENDBRANCH  64  77
ENDBRANCH  38  39
ENDBRANCH  30  33
ENDBRANCH  28  29
ENDBRANCH  27  28
ENDBRANCH   1  27
TORSDOF 14
ENDMDL
