MODEL 1
REMARK VINA RESULT:     -10.9      0.000      0.000
REMARK SMILES Cc1ccc(C(N)=O)c(NCc2ccc(C(=O)NCCCCNC(=O)c3ccc(-c4c5nc(c(-c6ccccc6)c6ccc([nH]6)c(-c6ccccc6)c6nc(c(-c7ccccc7)c7ccc4[nH]7)C=C6)C=C5)cc3)o2)n1
REMARK SMILES IDX 19 1 18 2 16 3 17 4 15 6 12 7 13 8 74 9 14 10 11 11 10 12
REMARK SMILES IDX 9 14 1 15 2 16 3 17 75 18 4 19 5 20 6 21 7 22 8 23 20 26
REMARK SMILES IDX 21 27 22 28 23 29 24 30 25 32 26 33 27 34 73 35 28 36 72 37
REMARK SMILES IDX 29 38 30 39 31 40 66 41 32 42 71 43 65 44 67 45 33 46 70 47
REMARK SMILES IDX 64 48 63 49 34 51 56 52 41 53 55 54 42 55 45 56 54 57 68 58
REMARK SMILES IDX 43 59 44 60 53 62 69 63 46 64 35 65 36 66 40 67 37 68 39 69
REMARK SMILES IDX 38 70 57 71 58 72 62 73 59 74 61 75 60 76 47 77 48 78 52 79
REMARK SMILES IDX 49 80 51 81 50 82
REMARK H PARENT 18 5 10 13 7 24 7 25 23 31 67 50 45 61
REMARK Flexibility Score: inf
ROOT
ATOM      1  C   UNL A   1      35.219  32.906  27.973  1.00  0.00     0.116 C 
ENDROOT
BRANCH   1   2
ATOM      2  N   UNL A   1      35.585  31.550  28.321  1.00  0.00    -0.349 N 
ATOM      3  C   UNL A   1      35.051  30.344  27.925  1.00  0.00     0.286 C 
ATOM      4  O   UNL A   1      35.642  29.342  28.333  1.00  0.00    -0.266 OA
ATOM      5  H   UNL A   1      36.344  31.477  28.944  1.00  0.00     0.163 HD
BRANCH   3   6
ATOM      6  C   UNL A   1      33.878  30.276  27.070  1.00  0.00     0.191 A 
ATOM      7  C   UNL A   1      32.855  29.709  25.185  1.00  0.00     0.124 A 
ATOM      8  C   UNL A   1      31.911  30.342  25.962  1.00  0.00     0.048 A 
ATOM      9  O   UNL A   1      34.044  29.670  25.846  1.00  0.00    -0.454 OA
ATOM     10  C   UNL A   1      32.552  30.661  27.182  1.00  0.00     0.056 A 
BRANCH   7  11
ATOM     11  C   UNL A   1      32.811  29.066  23.839  1.00  0.00     0.190 C 
BRANCH  11  12
ATOM     12  N   UNL A   1      31.534  29.243  23.163  1.00  0.00    -0.362 N 
ATOM     13  H   UNL A   1      31.405  30.010  22.560  1.00  0.00     0.162 HD
BRANCH  12  14
ATOM     14  C   UNL A   1      30.499  28.341  23.359  1.00  0.00     0.139 A 
ATOM     15  C   UNL A   1      30.278  24.900  24.664  1.00  0.00     0.067 C 
ATOM     16  C   UNL A   1      29.843  26.221  24.106  1.00  0.00     0.040 A 
ATOM     17  C   UNL A   1      28.503  26.495  23.879  1.00  0.00     0.024 A 
ATOM     18  N   UNL A   1      30.824  27.117  23.836  1.00  0.00    -0.236 NA
ATOM     19  C   UNL A   1      28.165  27.737  23.356  1.00  0.00     0.019 A 
ATOM     20  C   UNL A   1      29.167  28.677  23.079  1.00  0.00     0.081 A 
BRANCH  20  21
ATOM     21  C   UNL A   1      28.734  29.958  22.460  1.00  0.00     0.252 C 
ATOM     22  N   UNL A   1      28.504  31.023  23.284  1.00  0.00    -0.365 N 
ATOM     23  O   UNL A   1      28.624  30.078  21.245  1.00  0.00    -0.269 OA
ATOM     24  H   UNL A   1      28.593  30.919  24.259  1.00  0.00     0.159 HD
ATOM     25  H   UNL A   1      28.251  31.894  22.903  1.00  0.00     0.159 HD
ENDBRANCH  20  21
ENDBRANCH  12  14
ENDBRANCH  11  12
ENDBRANCH   7  11
ENDBRANCH   3   6
ENDBRANCH   1   2
BRANCH   1  26
ATOM     26  C   UNL A   1      34.936  33.741  29.222  1.00  0.00     0.023 C 
BRANCH  26  27
ATOM     27  C   UNL A   1      33.539  34.370  29.250  1.00  0.00     0.023 C 
BRANCH  27  28
ATOM     28  C   UNL A   1      33.506  35.859  29.582  1.00  0.00     0.116 C 
BRANCH  28  29
ATOM     29  N   UNL A   1      32.528  36.205  30.603  1.00  0.00    -0.352 N 
ATOM     30  C   UNL A   1      32.539  35.879  31.939  1.00  0.00     0.251 C 
ATOM     31  H   UNL A   1      31.760  36.741  30.296  1.00  0.00     0.163 HD
ATOM     32  O   UNL A   1      31.593  36.162  32.660  1.00  0.00    -0.269 OA
BRANCH  30  33
ATOM     33  C   UNL A   1      33.697  35.142  32.483  1.00  0.00     0.039 A 
ATOM     34  C   UNL A   1      33.510  33.835  32.939  1.00  0.00     0.014 A 
ATOM     35  C   UNL A   1      34.966  35.724  32.499  1.00  0.00     0.014 A 
ATOM     36  C   UNL A   1      34.614  33.081  33.344  1.00  0.00     0.010 A 
ATOM     37  C   UNL A   1      36.071  34.954  32.843  1.00  0.00     0.010 A 
ATOM     38  C   UNL A   1      35.906  33.624  33.262  1.00  0.00    -0.014 A 
BRANCH  38  39
ATOM     39  C   UNL A   1      37.108  32.826  33.604  1.00  0.00     0.031 A 
ATOM     40  C   UNL A   1      37.849  33.099  34.882  1.00  0.00     0.074 A 
ATOM     41  C   UNL A   1      37.584  31.922  32.727  1.00  0.00     0.049 A 
ATOM     42  N   UNL A   1      38.985  32.605  35.300  1.00  0.00    -0.248 NA
ATOM     43  C   UNL A   1      37.244  34.082  35.798  1.00  0.00     0.031 C 
ATOM     44  C   UNL A   1      36.975  31.584  31.438  1.00  0.00     0.029 A 
ATOM     45  N   UNL A   1      38.706  31.133  32.780  1.00  0.00    -0.354 N 
ATOM     46  C   UNL A   1      39.245  33.234  36.511  1.00  0.00     0.074 A 
ATOM     47  C   UNL A   1      38.169  34.173  36.742  1.00  0.00     0.031 C 
ATOM     48  C   UNL A   1      37.721  30.645  30.832  1.00  0.00     0.029 A 
ATOM     49  C   UNL A   1      38.881  30.348  31.666  1.00  0.00     0.049 A 
ATOM     50  H   UNL A   1      39.326  31.129  33.545  1.00  0.00     0.167 HD
ATOM     51  C   UNL A   1      40.279  33.037  37.364  1.00  0.00     0.031 A 
ATOM     52  C   UNL A   1      39.872  29.495  31.347  1.00  0.00     0.031 A 
ATOM     53  C   UNL A   1      41.338  32.090  37.144  1.00  0.00     0.049 A 
ATOM     54  C   UNL A   1      41.013  29.299  32.306  1.00  0.00     0.074 A 
ATOM     55  C   UNL A   1      42.403  31.782  37.972  1.00  0.00     0.029 A 
ATOM     56  N   UNL A   1      41.465  31.298  36.014  1.00  0.00    -0.354 N 
ATOM     57  N   UNL A   1      41.219  29.865  33.470  1.00  0.00    -0.248 NA
ATOM     58  C   UNL A   1      42.054  28.340  31.909  1.00  0.00     0.031 C 
ATOM     59  C   UNL A   1      43.198  30.829  37.325  1.00  0.00     0.029 A 
ATOM     60  C   UNL A   1      42.598  30.510  36.117  1.00  0.00     0.049 A 
ATOM     61  H   UNL A   1      40.841  31.295  35.252  1.00  0.00     0.167 HD
ATOM     62  C   UNL A   1      42.391  29.305  33.960  1.00  0.00     0.074 A 
ATOM     63  C   UNL A   1      42.848  28.351  32.970  1.00  0.00     0.031 C 
ATOM     64  C   UNL A   1      43.030  29.557  35.128  1.00  0.00     0.031 A 
BRANCH  51  65
ATOM     65  C   UNL A   1      40.311  33.871  38.613  1.00  0.00    -0.014 A 
ATOM     66  C   UNL A   1      40.961  35.116  38.639  1.00  0.00     0.009 A 
ATOM     67  C   UNL A   1      39.659  33.420  39.771  1.00  0.00     0.009 A 
ATOM     68  C   UNL A   1      40.988  35.875  39.811  1.00  0.00     0.001 A 
ATOM     69  C   UNL A   1      39.665  34.194  40.933  1.00  0.00     0.001 A 
ATOM     70  C   UNL A   1      40.336  35.415  40.954  1.00  0.00     0.000 A 
ENDBRANCH  51  65
BRANCH  52  71
ATOM     71  C   UNL A   1      39.825  28.746  30.064  1.00  0.00    -0.014 A 
ATOM     72  C   UNL A   1      39.270  27.458  30.015  1.00  0.00     0.009 A 
ATOM     73  C   UNL A   1      40.342  29.308  28.886  1.00  0.00     0.009 A 
ATOM     74  C   UNL A   1      39.257  26.737  28.819  1.00  0.00     0.001 A 
ATOM     75  C   UNL A   1      40.302  28.596  27.685  1.00  0.00     0.001 A 
ATOM     76  C   UNL A   1      39.769  27.308  27.654  1.00  0.00     0.000 A 
ENDBRANCH  52  71
BRANCH  64  77
ATOM     77  C   UNL A   1      44.262  28.751  35.428  1.00  0.00    -0.014 A 
ATOM     78  C   UNL A   1      45.538  29.209  35.071  1.00  0.00     0.009 A 
ATOM     79  C   UNL A   1      44.140  27.541  36.129  1.00  0.00     0.009 A 
ATOM     80  C   UNL A   1      46.670  28.455  35.388  1.00  0.00     0.001 A 
ATOM     81  C   UNL A   1      45.276  26.803  36.468  1.00  0.00     0.001 A 
ATOM     82  C   UNL A   1      46.538  27.257  36.090  1.00  0.00     0.000 A 
ENDBRANCH  64  77
ENDBRANCH  38  39
ENDBRANCH  30  33
ENDBRANCH  28  29
ENDBRANCH  27  28
ENDBRANCH  26  27
ENDBRANCH   1  26
TORSDOF 15
ENDMDL
MODEL 2
REMARK VINA RESULT:     -10.8      6.200     11.337
REMARK SMILES Cc1ccc(C(N)=O)c(NCc2ccc(C(=O)NCCCCNC(=O)c3ccc(-c4c5nc(c(-c6ccccc6)c6ccc([nH]6)c(-c6ccccc6)c6nc(c(-c7ccccc7)c7ccc4[nH]7)C=C6)C=C5)cc3)o2)n1
REMARK SMILES IDX 19 1 18 2 16 3 17 4 15 6 12 7 13 8 74 9 14 10 11 11 10 12
REMARK SMILES IDX 9 14 1 15 2 16 3 17 75 18 4 19 5 20 6 21 7 22 8 23 20 26
REMARK SMILES IDX 21 27 22 28 23 29 24 30 25 32 26 33 27 34 73 35 28 36 72 37
REMARK SMILES IDX 29 38 30 39 31 40 66 41 32 42 71 43 65 44 67 45 33 46 70 47
REMARK SMILES IDX 64 48 63 49 34 51 56 52 41 53 55 54 42 55 45 56 54 57 68 58
REMARK SMILES IDX 43 59 44 60 53 62 69 63 46 64 35 65 36 66 40 67 37 68 39 69
REMARK SMILES IDX 38 70 57 71 58 72 62 73 59 74 61 75 60 76 47 77 48 78 52 79
REMARK SMILES IDX 49 80 51 81 50 82
REMARK H PARENT 18 5 10 13 7 24 7 25 23 31 67 50 45 61
REMARK Flexibility Score: inf
ROOT
ATOM      1  C   UNL A   1      35.653  20.429  24.999  1.00  0.00     0.116 C 
ENDROOT
BRANCH   1   2
ATOM      2  N   UNL A   1      34.355  19.812  25.175  1.00  0.00    -0.349 N 
ATOM      3  C   UNL A   1      33.105  20.214  24.764  1.00  0.00     0.286 C 
ATOM      4  O   UNL A   1      32.189  19.421  24.996  1.00  0.00    -0.266 OA
ATOM      5  H   UNL A   1      34.370  18.962  25.672  1.00  0.00     0.163 HD
BRANCH   3   6
ATOM      6  C   UNL A   1      32.898  21.483  24.087  1.00  0.00     0.191 A 
ATOM      7  C   UNL A   1      33.253  23.660  23.850  1.00  0.00     0.124 A 
ATOM      8  C   UNL A   1      32.365  23.302  22.860  1.00  0.00     0.048 A 
ATOM      9  O   UNL A   1      33.575  22.568  24.595  1.00  0.00    -0.454 OA
ATOM     10  C   UNL A   1      32.176  21.906  22.983  1.00  0.00     0.056 A 
BRANCH   7  11
ATOM     11  C   UNL A   1      33.916  24.946  24.217  1.00  0.00     0.190 C 
BRANCH  11  12
ATOM     12  N   UNL A   1      33.872  25.223  25.646  1.00  0.00    -0.362 N 
ATOM     13  H   UNL A   1      34.363  24.640  26.269  1.00  0.00     0.162 HD
BRANCH  12  14
ATOM     14  C   UNL A   1      33.149  26.299  26.136  1.00  0.00     0.139 A 
ATOM     15  C   UNL A   1      33.897  29.857  26.746  1.00  0.00     0.067 C 
ATOM     16  C   UNL A   1      33.119  28.579  26.670  1.00  0.00     0.040 A 
ATOM     17  C   UNL A   1      31.777  28.537  27.013  1.00  0.00     0.024 A 
ATOM     18  N   UNL A   1      33.798  27.480  26.257  1.00  0.00    -0.236 NA
ATOM     19  C   UNL A   1      31.113  27.320  26.925  1.00  0.00     0.019 A 
ATOM     20  C   UNL A   1      31.799  26.177  26.493  1.00  0.00     0.081 A 
BRANCH  20  21
ATOM     21  C   UNL A   1      31.038  24.899  26.488  1.00  0.00     0.252 C 
ATOM     22  N   UNL A   1      30.028  24.758  25.580  1.00  0.00    -0.365 N 
ATOM     23  O   UNL A   1      31.329  23.977  27.241  1.00  0.00    -0.269 OA
ATOM     24  H   UNL A   1      29.799  25.503  24.978  1.00  0.00     0.159 HD
ATOM     25  H   UNL A   1      29.528  23.911  25.527  1.00  0.00     0.159 HD
ENDBRANCH  20  21
ENDBRANCH  12  14
ENDBRANCH  11  12
ENDBRANCH   7  11
ENDBRANCH   3   6
ENDBRANCH   1   2
BRANCH   1  26
ATOM     26  C   UNL A   1      36.768  19.384  24.996  1.00  0.00     0.023 C 
BRANCH  26  27
ATOM     27  C   UNL A   1      38.147  19.943  24.629  1.00  0.00     0.023 C 
BRANCH  27  28
ATOM     28  C   UNL A   1      39.106  20.120  25.802  1.00  0.00     0.116 C 
BRANCH  28  29
ATOM     29  N   UNL A   1      40.109  19.069  25.897  1.00  0.00    -0.352 N 
ATOM     30  C   UNL A   1      41.457  19.198  26.138  1.00  0.00     0.251 C 
ATOM     31  H   UNL A   1      39.780  18.150  25.772  1.00  0.00     0.163 HD
ATOM     32  O   UNL A   1      42.197  18.225  26.094  1.00  0.00    -0.269 OA
BRANCH  30  33
ATOM     33  C   UNL A   1      42.008  20.541  26.409  1.00  0.00     0.039 A 
ATOM     34  C   UNL A   1      42.274  21.391  25.332  1.00  0.00     0.014 A 
ATOM     35  C   UNL A   1      42.216  20.972  27.721  1.00  0.00     0.014 A 
ATOM     36  C   UNL A   1      42.679  22.705  25.575  1.00  0.00     0.010 A 
ATOM     37  C   UNL A   1      42.559  22.297  27.962  1.00  0.00     0.010 A 
ATOM     38  C   UNL A   1      42.787  23.177  26.892  1.00  0.00    -0.014 A 
BRANCH  38  39
ATOM     39  C   UNL A   1      43.135  24.589  27.186  1.00  0.00     0.031 A 
ATOM     40  C   UNL A   1      44.570  25.030  27.146  1.00  0.00     0.074 A 
ATOM     41  C   UNL A   1      42.174  25.448  27.577  1.00  0.00     0.049 A 
ATOM     42  N   UNL A   1      45.092  26.178  27.494  1.00  0.00    -0.248 NA
ATOM     43  C   UNL A   1      45.553  24.036  26.680  1.00  0.00     0.031 C 
ATOM     44  C   UNL A   1      40.747  25.136  27.686  1.00  0.00     0.029 A 
ATOM     45  N   UNL A   1      42.259  26.759  27.974  1.00  0.00    -0.354 N 
ATOM     46  C   UNL A   1      46.462  26.037  27.314  1.00  0.00     0.074 A 
ATOM     47  C   UNL A   1      46.695  24.682  26.866  1.00  0.00     0.031 C 
ATOM     48  C   UNL A   1      40.089  26.231  28.105  1.00  0.00     0.029 A 
ATOM     49  C   UNL A   1      41.050  27.304  28.336  1.00  0.00     0.049 A 
ATOM     50  H   UNL A   1      43.105  27.261  27.998  1.00  0.00     0.167 HD
ATOM     51  C   UNL A   1      47.439  26.958  27.492  1.00  0.00     0.031 A 
ATOM     52  C   UNL A   1      40.752  28.527  28.812  1.00  0.00     0.031 A 
ATOM     53  C   UNL A   1      47.206  28.311  27.921  1.00  0.00     0.049 A 
ATOM     54  C   UNL A   1      41.855  29.530  29.010  1.00  0.00     0.074 A 
ATOM     55  C   UNL A   1      48.124  29.333  28.083  1.00  0.00     0.029 A 
ATOM     56  N   UNL A   1      45.964  28.829  28.253  1.00  0.00    -0.354 N 
ATOM     57  N   UNL A   1      43.140  29.397  28.788  1.00  0.00    -0.248 NA
ATOM     58  C   UNL A   1      41.463  30.853  29.513  1.00  0.00     0.031 C 
ATOM     59  C   UNL A   1      47.443  30.461  28.552  1.00  0.00     0.029 A 
ATOM     60  C   UNL A   1      46.094  30.154  28.632  1.00  0.00     0.049 A 
ATOM     61  H   UNL A   1      45.116  28.330  28.222  1.00  0.00     0.167 HD
ATOM     62  C   UNL A   1      43.705  30.628  29.092  1.00  0.00     0.074 A 
ATOM     63  C   UNL A   1      42.622  31.497  29.507  1.00  0.00     0.031 C 
ATOM     64  C   UNL A   1      45.005  31.007  29.029  1.00  0.00     0.031 A 
BRANCH  51  65
ATOM     65  C   UNL A   1      48.852  26.524  27.228  1.00  0.00    -0.014 A 
ATOM     66  C   UNL A   1      49.450  26.718  25.972  1.00  0.00     0.009 A 
ATOM     67  C   UNL A   1      49.608  25.941  28.258  1.00  0.00     0.009 A 
ATOM     68  C   UNL A   1      50.762  26.301  25.742  1.00  0.00     0.001 A 
ATOM     69  C   UNL A   1      50.929  25.551  28.032  1.00  0.00     0.001 A 
ATOM     70  C   UNL A   1      51.502  25.723  26.773  1.00  0.00     0.000 A 
ENDBRANCH  51  65
BRANCH  52  71
ATOM     71  C   UNL A   1      39.343  28.882  29.124  1.00  0.00    -0.014 A 
ATOM     72  C   UNL A   1      38.826  28.665  30.411  1.00  0.00     0.009 A 
ATOM     73  C   UNL A   1      38.507  29.430  28.140  1.00  0.00     0.009 A 
ATOM     74  C   UNL A   1      37.493  28.965  30.698  1.00  0.00     0.001 A 
ATOM     75  C   UNL A   1      37.181  29.755  28.437  1.00  0.00     0.001 A 
ATOM     76  C   UNL A   1      36.672  29.513  29.712  1.00  0.00     0.000 A 
ENDBRANCH  52  71
BRANCH  64  77
ATOM     77  C   UNL A   1      45.323  32.435  29.364  1.00  0.00    -0.014 A 
ATOM     78  C   UNL A   1      45.292  33.439  28.384  1.00  0.00     0.009 A 
ATOM     79  C   UNL A   1      45.605  32.786  30.693  1.00  0.00     0.009 A 
ATOM     80  C   UNL A   1      45.562  34.765  28.727  1.00  0.00     0.001 A 
ATOM     81  C   UNL A   1      45.849  34.117  31.037  1.00  0.00     0.001 A 
ATOM     82  C   UNL A   1      45.835  35.104  30.053  1.00  0.00     0.000 A 
ENDBRANCH  64  77
ENDBRANCH  38  39
ENDBRANCH  30  33
ENDBRANCH  28  29
ENDBRANCH  27  28
ENDBRANCH  26  27
ENDBRANCH   1  26
TORSDOF 15
ENDMDL
MODEL 3
REMARK VINA RESULT:     -10.7      5.565     10.306
REMARK SMILES Cc1ccc(C(N)=O)c(NCc2ccc(C(=O)NCCCCNC(=O)c3ccc(-c4c5nc(c(-c6ccccc6)c6ccc([nH]6)c(-c6ccccc6)c6nc(c(-c7ccccc7)c7ccc4[nH]7)C=C6)C=C5)cc3)o2)n1
REMARK SMILES IDX 19 1 18 2 16 3 17 4 15 6 12 7 13 8 74 9 14 10 11 11 10 12
REMARK SMILES IDX 9 14 1 15 2 16 3 17 75 18 4 19 5 20 6 21 7 22 8 23 20 26
REMARK SMILES IDX 21 27 22 28 23 29 24 30 25 32 26 33 27 34 73 35 28 36 72 37
REMARK SMILES IDX 29 38 30 39 31 40 66 41 32 42 71 43 65 44 67 45 33 46 70 47
REMARK SMILES IDX 64 48 63 49 34 51 56 52 41 53 55 54 42 55 45 56 54 57 68 58
REMARK SMILES IDX 43 59 44 60 53 62 69 63 46 64 35 65 36 66 40 67 37 68 39 69
REMARK SMILES IDX 38 70 57 71 58 72 62 73 59 74 61 75 60 76 47 77 48 78 52 79
REMARK SMILES IDX 49 80 51 81 50 82
REMARK H PARENT 18 5 10 13 7 24 7 25 23 31 67 50 45 61
REMARK Flexibility Score: inf
ROOT
ATOM      1  C   UNL A   1      35.519  21.751  26.029  1.00  0.00     0.116 C 
ENDROOT
BRANCH   1   2
ATOM      2  N   UNL A   1      34.094  21.598  26.230  1.00  0.00    -0.349 N 
ATOM      3  C   UNL A   1      33.026  22.074  25.504  1.00  0.00     0.286 C 
ATOM      4  O   UNL A   1      31.915  21.699  25.885  1.00  0.00    -0.266 OA
ATOM      5  H   UNL A   1      33.847  21.062  27.019  1.00  0.00     0.163 HD
BRANCH   3   6
ATOM      6  C   UNL A   1      33.215  22.946  24.357  1.00  0.00     0.191 A 
ATOM      7  C   UNL A   1      33.481  24.948  23.438  1.00  0.00     0.124 A 
ATOM      8  C   UNL A   1      33.472  24.043  22.400  1.00  0.00     0.048 A 
ATOM      9  O   UNL A   1      33.323  24.293  24.620  1.00  0.00    -0.454 OA
ATOM     10  C   UNL A   1      33.350  22.764  22.991  1.00  0.00     0.056 A 
BRANCH   7  11
ATOM     11  C   UNL A   1      33.654  26.429  23.506  1.00  0.00     0.190 C 
BRANCH  11  12
ATOM     12  N   UNL A   1      32.423  27.133  23.832  1.00  0.00    -0.362 N 
ATOM     13  H   UNL A   1      31.727  27.240  23.144  1.00  0.00     0.162 HD
BRANCH  12  14
ATOM     14  C   UNL A   1      32.220  27.654  25.101  1.00  0.00     0.139 A 
ATOM     15  C   UNL A   1      33.387  30.667  26.877  1.00  0.00     0.067 C 
ATOM     16  C   UNL A   1      32.657  29.384  26.618  1.00  0.00     0.040 A 
ATOM     17  C   UNL A   1      31.815  28.835  27.571  1.00  0.00     0.024 A 
ATOM     18  N   UNL A   1      32.872  28.799  25.413  1.00  0.00    -0.236 NA
ATOM     19  C   UNL A   1      31.170  27.642  27.271  1.00  0.00     0.019 A 
ATOM     20  C   UNL A   1      31.375  27.028  26.027  1.00  0.00     0.081 A 
BRANCH  20  21
ATOM     21  C   UNL A   1      30.703  25.720  25.804  1.00  0.00     0.252 C 
ATOM     22  N   UNL A   1      30.964  24.707  26.683  1.00  0.00    -0.365 N 
ATOM     23  O   UNL A   1      29.903  25.558  24.890  1.00  0.00    -0.269 OA
ATOM     24  H   UNL A   1      31.608  24.844  27.415  1.00  0.00     0.159 HD
ATOM     25  H   UNL A   1      30.509  23.840  26.584  1.00  0.00     0.159 HD
ENDBRANCH  20  21
ENDBRANCH  12  14
ENDBRANCH  11  12
ENDBRANCH   7  11
ENDBRANCH   3   6
ENDBRANCH   1   2
BRANCH   1  26
ATOM     26  C   UNL A   1      36.060  20.691  25.070  1.00  0.00     0.023 C 
BRANCH  26  27
ATOM     27  C   UNL A   1      37.507  20.930  24.626  1.00  0.00     0.023 C 
BRANCH  27  28
ATOM     28  C   UNL A   1      38.538  20.923  25.751  1.00  0.00     0.116 C 
BRANCH  28  29
ATOM     29  N   UNL A   1      39.460  19.799  25.688  1.00  0.00    -0.352 N 
ATOM     30  C   UNL A   1      40.800  19.776  26.000  1.00  0.00     0.251 C 
ATOM     31  H   UNL A   1      39.075  18.945  25.382  1.00  0.00     0.163 HD
ATOM     32  O   UNL A   1      41.472  18.774  25.805  1.00  0.00    -0.269 OA
BRANCH  30  33
ATOM     33  C   UNL A   1      41.427  21.001  26.536  1.00  0.00     0.039 A 
ATOM     34  C   UNL A   1      41.948  21.939  25.641  1.00  0.00     0.014 A 
ATOM     35  C   UNL A   1      41.457  21.240  27.911  1.00  0.00     0.014 A 
ATOM     36  C   UNL A   1      42.435  23.156  26.123  1.00  0.00     0.010 A 
ATOM     37  C   UNL A   1      41.884  22.476  28.385  1.00  0.00     0.010 A 
ATOM     38  C   UNL A   1      42.370  23.447  27.495  1.00  0.00    -0.014 A 
BRANCH  38  39
ATOM     39  C   UNL A   1      42.801  24.761  28.032  1.00  0.00     0.031 A 
ATOM     40  C   UNL A   1      41.777  25.818  28.333  1.00  0.00     0.074 A 
ATOM     41  C   UNL A   1      44.113  25.034  28.163  1.00  0.00     0.049 A 
ATOM     42  N   UNL A   1      41.956  27.065  28.683  1.00  0.00    -0.248 NA
ATOM     43  C   UNL A   1      40.363  25.427  28.191  1.00  0.00     0.031 C 
ATOM     44  C   UNL A   1      45.208  24.103  27.876  1.00  0.00     0.029 A 
ATOM     45  N   UNL A   1      44.749  26.185  28.554  1.00  0.00    -0.354 N 
ATOM     46  C   UNL A   1      40.683  27.614  28.779  1.00  0.00     0.074 A 
ATOM     47  C   UNL A   1      39.744  26.577  28.411  1.00  0.00     0.031 C 
ATOM     48  C   UNL A   1      46.379  24.717  28.117  1.00  0.00     0.029 A 
ATOM     49  C   UNL A   1      46.120  26.092  28.531  1.00  0.00     0.049 A 
ATOM     50  H   UNL A   1      44.269  27.000  28.825  1.00  0.00     0.167 HD
ATOM     51  C   UNL A   1      40.327  28.866  29.154  1.00  0.00     0.031 A 
ATOM     52  C   UNL A   1      47.062  27.014  28.802  1.00  0.00     0.031 A 
ATOM     53  C   UNL A   1      41.259  29.892  29.537  1.00  0.00     0.049 A 
ATOM     54  C   UNL A   1      46.641  28.399  29.208  1.00  0.00     0.074 A 
ATOM     55  C   UNL A   1      40.994  31.175  29.979  1.00  0.00     0.029 A 
ATOM     56  N   UNL A   1      42.638  29.748  29.523  1.00  0.00    -0.354 N 
ATOM     57  N   UNL A   1      45.433  28.889  29.341  1.00  0.00    -0.248 NA
ATOM     58  C   UNL A   1      47.716  29.355  29.509  1.00  0.00     0.031 C 
ATOM     59  C   UNL A   1      42.214  31.823  30.197  1.00  0.00     0.029 A 
ATOM     60  C   UNL A   1      43.237  30.924  29.938  1.00  0.00     0.049 A 
ATOM     61  H   UNL A   1      43.118  28.930  29.260  1.00  0.00     0.167 HD
ATOM     62  C   UNL A   1      45.601  30.197  29.775  1.00  0.00     0.074 A 
ATOM     63  C   UNL A   1      47.027  30.423  29.888  1.00  0.00     0.031 C 
ATOM     64  C   UNL A   1      44.657  31.127  30.057  1.00  0.00     0.031 A 
BRANCH  51  65
ATOM     65  C   UNL A   1      38.861  29.193  29.159  1.00  0.00    -0.014 A 
ATOM     66  C   UNL A   1      38.083  29.028  30.317  1.00  0.00     0.009 A 
ATOM     67  C   UNL A   1      38.254  29.701  28.000  1.00  0.00     0.009 A 
ATOM     68  C   UNL A   1      36.720  29.329  30.302  1.00  0.00     0.001 A 
ATOM     69  C   UNL A   1      36.897  30.028  27.997  1.00  0.00     0.001 A 
ATOM     70  C   UNL A   1      36.130  29.833  29.144  1.00  0.00     0.000 A 
ENDBRANCH  51  65
BRANCH  52  71
ATOM     71  C   UNL A   1      48.502  26.657  28.713  1.00  0.00    -0.014 A 
ATOM     72  C   UNL A   1      49.217  26.888  27.528  1.00  0.00     0.009 A 
ATOM     73  C   UNL A   1      49.166  26.077  29.805  1.00  0.00     0.009 A 
ATOM     74  C   UNL A   1      50.561  26.522  27.430  1.00  0.00     0.001 A 
ATOM     75  C   UNL A   1      50.517  25.737  29.713  1.00  0.00     0.001 A 
ATOM     76  C   UNL A   1      51.211  25.950  28.523  1.00  0.00     0.000 A 
ENDBRANCH  52  71
BRANCH  64  77
ATOM     77  C   UNL A   1      45.131  32.457  30.570  1.00  0.00    -0.014 A 
ATOM     78  C   UNL A   1      45.258  32.706  31.944  1.00  0.00     0.009 A 
ATOM     79  C   UNL A   1      45.508  33.453  29.657  1.00  0.00     0.009 A 
ATOM     80  C   UNL A   1      45.731  33.941  32.394  1.00  0.00     0.001 A 
ATOM     81  C   UNL A   1      46.005  34.677  30.109  1.00  0.00     0.001 A 
ATOM     82  C   UNL A   1      46.108  34.922  31.478  1.00  0.00     0.000 A 
ENDBRANCH  64  77
ENDBRANCH  38  39
ENDBRANCH  30  33
ENDBRANCH  28  29
ENDBRANCH  27  28
ENDBRANCH  26  27
ENDBRANCH   1  26
TORSDOF 15
ENDMDL
