MODEL 1
REMARK VINA RESULT:     -11.7      0.000      0.000
REMARK SMILES Cc1cc2c(c(C)c1Br)C=C(C(=O)NCCCCNC(=O)c1ccc(-c3c4nc(c(-c5ccccc5)c5ccc([nH]5)c(-c5ccccc5)c5nc(c(-c6ccccc6)c6ccc3[nH]6)C=C5)C=C4)cc1)[C@@H](C(F)(F)F)O2
REMARK SMILES IDX 17 1 16 2 15 3 14 4 12 5 13 6 11 8 1 9 2 10 3 11 8 12 4 13
REMARK SMILES IDX 6 14 9 15 5 16 75 17 7 18 10 19 70 20 71 21 72 22 73 23
REMARK SMILES IDX 74 24 18 25 19 26 20 27 21 29 22 30 23 31 69 32 24 33 68 34
REMARK SMILES IDX 25 35 26 36 27 37 62 38 28 39 67 40 61 41 63 42 29 43 66 44
REMARK SMILES IDX 60 45 59 46 30 48 52 49 37 50 51 51 38 52 41 53 50 54 64 55
REMARK SMILES IDX 39 56 40 57 49 59 65 60 42 61 31 62 32 63 36 64 33 65 35 66
REMARK SMILES IDX 34 67 53 68 54 69 58 70 55 71 57 72 56 73 43 74 44 75 48 76
REMARK SMILES IDX 45 77 47 78 46 79
REMARK H PARENT 14 7 19 28 63 47 41 58
REMARK Flexibility Score: inf
ROOT
ATOM      1  C   UNL A   1      37.531  20.824  24.727  1.00  0.00     0.023 C 
ENDROOT
BRANCH   1   2
ATOM      2  C   UNL A   1      36.956  22.155  24.234  1.00  0.00     0.023 C 
BRANCH   2   3
ATOM      3  C   UNL A   1      36.867  23.233  25.310  1.00  0.00     0.116 C 
BRANCH   3   4
ATOM      4  N   UNL A   1      35.956  22.857  26.376  1.00  0.00    -0.352 N 
ATOM      5  C   UNL A   1      34.661  23.086  26.698  1.00  0.00     0.251 C 
ATOM      6  O   UNL A   1      34.284  22.555  27.748  1.00  0.00    -0.270 OA
ATOM      7  H   UNL A   1      36.397  22.282  27.042  1.00  0.00     0.163 HD
BRANCH   5   8
ATOM      8  C   UNL A   1      33.700  23.902  25.898  1.00  0.00     0.067 C 
ATOM      9  C   UNL A   1      30.044  28.475  23.043  1.00  0.00     0.046 C 
ATOM     10  C   UNL A   1      31.015  27.696  23.890  1.00  0.00    -0.033 A 
ATOM     11  C   UNL A   1      31.203  26.343  23.596  1.00  0.00     0.051 A 
ATOM     12  C   UNL A   1      31.737  28.266  24.961  1.00  0.00     0.024 A 
ATOM     13  C   UNL A   1      32.077  25.568  24.351  1.00  0.00     0.128 A 
ATOM     14  C   UNL A   1      32.641  27.490  25.732  1.00  0.00    -0.026 A 
ATOM     15  Br  UNL A   1      31.469  30.125  25.341  1.00  0.00    -0.050 Br
ATOM     16  C   UNL A   1      32.806  26.119  25.408  1.00  0.00     0.021 A 
ATOM     17  O   UNL A   1      32.195  24.267  23.953  1.00  0.00    -0.475 OA
ATOM     18  C   UNL A   1      33.435  28.071  26.879  1.00  0.00     0.046 C 
ATOM     19  C   UNL A   1      33.742  25.232  26.110  1.00  0.00     0.026 C 
ATOM     20  C   UNL A   1      32.700  23.332  24.939  1.00  0.00     0.314 C 
BRANCH  20  21
ATOM     21  C   UNL A   1      31.517  22.645  25.645  1.00  0.00     0.429 C 
ATOM     22  F   UNL A   1      31.699  21.301  25.673  1.00  0.00    -0.167 F 
ATOM     23  F   UNL A   1      31.385  23.037  26.935  1.00  0.00    -0.167 F 
ATOM     24  F   UNL A   1      30.334  22.882  25.037  1.00  0.00    -0.167 F 
ENDBRANCH  20  21
ENDBRANCH   5   8
ENDBRANCH   3   4
ENDBRANCH   2   3
ENDBRANCH   1   2
BRANCH   1  25
ATOM     25  C   UNL A   1      38.688  20.937  25.719  1.00  0.00     0.116 C 
BRANCH  25  26
ATOM     26  N   UNL A   1      39.634  19.832  25.645  1.00  0.00    -0.352 N 
ATOM     27  C   UNL A   1      40.962  19.829  25.995  1.00  0.00     0.251 C 
ATOM     28  H   UNL A   1      39.277  18.982  25.301  1.00  0.00     0.163 HD
ATOM     29  O   UNL A   1      41.661  18.841  25.800  1.00  0.00    -0.269 OA
BRANCH  27  30
ATOM     30  C   UNL A   1      41.549  21.054  26.571  1.00  0.00     0.039 A 
ATOM     31  C   UNL A   1      42.091  22.009  25.710  1.00  0.00     0.014 A 
ATOM     32  C   UNL A   1      41.509  21.272  27.950  1.00  0.00     0.014 A 
ATOM     33  C   UNL A   1      42.531  23.227  26.228  1.00  0.00     0.010 A 
ATOM     34  C   UNL A   1      41.897  22.507  28.458  1.00  0.00     0.010 A 
ATOM     35  C   UNL A   1      42.404  23.496  27.599  1.00  0.00    -0.014 A 
BRANCH  35  36
ATOM     36  C   UNL A   1      42.794  24.806  28.169  1.00  0.00     0.031 A 
ATOM     37  C   UNL A   1      41.752  25.861  28.394  1.00  0.00     0.074 A 
ATOM     38  C   UNL A   1      44.092  25.070  28.409  1.00  0.00     0.049 A 
ATOM     39  N   UNL A   1      41.904  27.103  28.772  1.00  0.00    -0.248 NA
ATOM     40  C   UNL A   1      40.355  25.474  28.137  1.00  0.00     0.031 C 
ATOM     41  C   UNL A   1      45.201  24.133  28.213  1.00  0.00     0.029 A 
ATOM     42  N   UNL A   1      44.699  26.213  28.864  1.00  0.00    -0.354 N 
ATOM     43  C   UNL A   1      40.629  27.652  28.781  1.00  0.00     0.074 A 
ATOM     44  C   UNL A   1      39.720  26.619  28.332  1.00  0.00     0.031 C 
ATOM     45  C   UNL A   1      46.349  24.733  28.566  1.00  0.00     0.029 A 
ATOM     46  C   UNL A   1      46.064  26.105  28.972  1.00  0.00     0.049 A 
ATOM     47  H   UNL A   1      44.203  27.033  29.090  1.00  0.00     0.167 HD
ATOM     48  C   UNL A   1      40.247  28.897  29.144  1.00  0.00     0.031 A 
ATOM     49  C   UNL A   1      46.983  27.013  29.349  1.00  0.00     0.031 A 
ATOM     50  C   UNL A   1      41.150  29.920  29.597  1.00  0.00     0.049 A 
ATOM     51  C   UNL A   1      46.537  28.396  29.730  1.00  0.00     0.074 A 
ATOM     52  C   UNL A   1      40.855  31.205  30.019  1.00  0.00     0.029 A 
ATOM     53  N   UNL A   1      42.525  29.770  29.694  1.00  0.00    -0.354 N 
ATOM     54  N   UNL A   1      45.324  28.894  29.754  1.00  0.00    -0.248 NA
ATOM     55  C   UNL A   1      47.585  29.340  30.140  1.00  0.00     0.031 C 
ATOM     56  C   UNL A   1      42.058  31.846  30.335  1.00  0.00     0.029 A 
ATOM     57  C   UNL A   1      43.095  30.944  30.156  1.00  0.00     0.049 A 
ATOM     58  H   UNL A   1      43.021  28.951  29.467  1.00  0.00     0.167 HD
ATOM     59  C   UNL A   1      45.460  30.201  30.199  1.00  0.00     0.074 A 
ATOM     60  C   UNL A   1      46.872  30.415  30.447  1.00  0.00     0.031 C 
ATOM     61  C   UNL A   1      44.502  31.140  30.388  1.00  0.00     0.031 A 
BRANCH  48  62
ATOM     62  C   UNL A   1      38.783  29.221  29.057  1.00  0.00    -0.014 A 
ATOM     63  C   UNL A   1      37.940  29.067  30.170  1.00  0.00     0.009 A 
ATOM     64  C   UNL A   1      38.243  29.708  27.857  1.00  0.00     0.009 A 
ATOM     65  C   UNL A   1      36.581  29.364  30.073  1.00  0.00     0.001 A 
ATOM     66  C   UNL A   1      36.887  30.030  27.771  1.00  0.00     0.001 A 
ATOM     67  C   UNL A   1      36.057  29.850  28.876  1.00  0.00     0.000 A 
ENDBRANCH  48  62
BRANCH  49  68
ATOM     68  C   UNL A   1      48.416  26.632  29.406  1.00  0.00    -0.014 A 
ATOM     69  C   UNL A   1      49.241  26.816  28.288  1.00  0.00     0.009 A 
ATOM     70  C   UNL A   1      48.971  26.105  30.583  1.00  0.00     0.009 A 
ATOM     71  C   UNL A   1      50.593  26.469  28.340  1.00  0.00     0.001 A 
ATOM     72  C   UNL A   1      50.328  25.779  30.640  1.00  0.00     0.001 A 
ATOM     73  C   UNL A   1      51.137  25.957  29.517  1.00  0.00     0.000 A 
ENDBRANCH  49  68
BRANCH  61  74
ATOM     74  C   UNL A   1      44.943  32.478  30.910  1.00  0.00    -0.014 A 
ATOM     75  C   UNL A   1      45.039  32.722  32.288  1.00  0.00     0.009 A 
ATOM     76  C   UNL A   1      45.321  33.485  30.009  1.00  0.00     0.009 A 
ATOM     77  C   UNL A   1      45.481  33.962  32.752  1.00  0.00     0.001 A 
ATOM     78  C   UNL A   1      45.785  34.714  30.477  1.00  0.00     0.001 A 
ATOM     79  C   UNL A   1      45.859  34.954  31.847  1.00  0.00     0.000 A 
ENDBRANCH  61  74
ENDBRANCH  35  36
ENDBRANCH  27  30
ENDBRANCH  25  26
ENDBRANCH   1  25
TORSDOF 12
ENDMDL
MODEL 2
REMARK VINA RESULT:     -11.6      3.736      8.497
REMARK SMILES Cc1cc2c(c(C)c1Br)C=C(C(=O)NCCCCNC(=O)c1ccc(-c3c4nc(c(-c5ccccc5)c5ccc([nH]5)c(-c5ccccc5)c5nc(c(-c6ccccc6)c6ccc3[nH]6)C=C5)C=C4)cc1)[C@@H](C(F)(F)F)O2
REMARK SMILES IDX 17 1 16 2 15 3 14 4 12 5 13 6 11 8 1 9 2 10 3 11 8 12 4 13
REMARK SMILES IDX 6 14 9 15 5 16 75 17 7 18 10 19 70 20 71 21 72 22 73 23
REMARK SMILES IDX 74 24 18 25 19 26 20 27 21 29 22 30 23 31 69 32 24 33 68 34
REMARK SMILES IDX 25 35 26 36 27 37 62 38 28 39 67 40 61 41 63 42 29 43 66 44
REMARK SMILES IDX 60 45 59 46 30 48 52 49 37 50 51 51 38 52 41 53 50 54 64 55
REMARK SMILES IDX 39 56 40 57 49 59 65 60 42 61 31 62 32 63 36 64 33 65 35 66
REMARK SMILES IDX 34 67 53 68 54 69 58 70 55 71 57 72 56 73 43 74 44 75 48 76
REMARK SMILES IDX 45 77 47 78 46 79
REMARK H PARENT 14 7 19 28 63 47 41 58
REMARK Flexibility Score: inf
ROOT
ATOM      1  C   UNL A   1      31.781  30.691  26.852  1.00  0.00     0.023 C 
ENDROOT
BRANCH   1   2
ATOM      2  C   UNL A   1      32.138  29.210  26.995  1.00  0.00     0.023 C 
BRANCH   2   3
ATOM      3  C   UNL A   1      33.606  28.893  26.722  1.00  0.00     0.116 C 
BRANCH   3   4
ATOM      4  N   UNL A   1      33.921  28.973  25.307  1.00  0.00    -0.352 N 
ATOM      5  C   UNL A   1      33.886  28.144  24.237  1.00  0.00     0.251 C 
ATOM      6  O   UNL A   1      34.271  28.648  23.176  1.00  0.00    -0.270 OA
ATOM      7  H   UNL A   1      34.246  29.868  25.060  1.00  0.00     0.163 HD
BRANCH   5   8
ATOM      8  C   UNL A   1      33.429  26.723  24.256  1.00  0.00     0.067 C 
ATOM      9  C   UNL A   1      32.662  20.272  24.728  1.00  0.00     0.046 C 
ATOM     10  C   UNL A   1      33.178  21.686  24.703  1.00  0.00    -0.033 A 
ATOM     11  C   UNL A   1      32.252  22.720  24.541  1.00  0.00     0.051 A 
ATOM     12  C   UNL A   1      34.546  22.012  24.833  1.00  0.00     0.024 A 
ATOM     13  C   UNL A   1      32.670  24.045  24.497  1.00  0.00     0.128 A 
ATOM     14  C   UNL A   1      34.984  23.361  24.802  1.00  0.00    -0.026 A 
ATOM     15  Br  UNL A   1      35.796  20.578  25.061  1.00  0.00    -0.050 Br
ATOM     16  C   UNL A   1      34.018  24.386  24.634  1.00  0.00     0.021 A 
ATOM     17  O   UNL A   1      31.672  24.967  24.361  1.00  0.00    -0.475 OA
ATOM     18  C   UNL A   1      36.439  23.744  24.945  1.00  0.00     0.046 C 
ATOM     19  C   UNL A   1      34.353  25.815  24.627  1.00  0.00     0.026 C 
ATOM     20  C   UNL A   1      32.058  26.270  23.855  1.00  0.00     0.314 C 
BRANCH  20  21
ATOM     21  C   UNL A   1      31.834  26.314  22.332  1.00  0.00     0.429 C 
ATOM     22  F   UNL A   1      31.054  25.276  21.939  1.00  0.00    -0.167 F 
ATOM     23  F   UNL A   1      31.196  27.440  21.935  1.00  0.00    -0.167 F 
ATOM     24  F   UNL A   1      32.986  26.244  21.631  1.00  0.00    -0.167 F 
ENDBRANCH  20  21
ENDBRANCH   5   8
ENDBRANCH   3   4
ENDBRANCH   2   3
ENDBRANCH   1   2
BRANCH   1  25
ATOM     25  C   UNL A   1      32.923  31.670  27.120  1.00  0.00     0.116 C 
BRANCH  25  26
ATOM     26  N   UNL A   1      32.478  33.000  27.511  1.00  0.00    -0.352 N 
ATOM     27  C   UNL A   1      33.118  33.903  28.326  1.00  0.00     0.251 C 
ATOM     28  H   UNL A   1      31.610  33.288  27.148  1.00  0.00     0.163 HD
ATOM     29  O   UNL A   1      32.581  34.960  28.636  1.00  0.00    -0.269 OA
BRANCH  27  30
ATOM     30  C   UNL A   1      34.449  33.560  28.859  1.00  0.00     0.039 A 
ATOM     31  C   UNL A   1      34.531  32.826  30.043  1.00  0.00     0.014 A 
ATOM     32  C   UNL A   1      35.603  33.918  28.157  1.00  0.00     0.014 A 
ATOM     33  C   UNL A   1      35.776  32.384  30.491  1.00  0.00     0.010 A 
ATOM     34  C   UNL A   1      36.836  33.430  28.574  1.00  0.00     0.010 A 
ATOM     35  C   UNL A   1      36.931  32.654  29.740  1.00  0.00    -0.014 A 
BRANCH  35  36
ATOM     36  C   UNL A   1      38.256  32.136  30.150  1.00  0.00     0.031 A 
ATOM     37  C   UNL A   1      38.740  30.820  29.616  1.00  0.00     0.074 A 
ATOM     38  C   UNL A   1      38.985  32.811  31.058  1.00  0.00     0.049 A 
ATOM     39  N   UNL A   1      39.811  30.143  29.938  1.00  0.00    -0.248 NA
ATOM     40  C   UNL A   1      37.894  30.169  28.602  1.00  0.00     0.031 C 
ATOM     41  C   UNL A   1      38.614  34.091  31.665  1.00  0.00     0.029 A 
ATOM     42  N   UNL A   1      40.192  32.506  31.636  1.00  0.00    -0.354 N 
ATOM     43  C   UNL A   1      39.760  28.979  29.183  1.00  0.00     0.074 A 
ATOM     44  C   UNL A   1      38.533  29.024  28.416  1.00  0.00     0.031 C 
ATOM     45  C   UNL A   1      39.582  34.472  32.513  1.00  0.00     0.029 A 
ATOM     46  C   UNL A   1      40.620  33.446  32.541  1.00  0.00     0.049 A 
ATOM     47  H   UNL A   1      40.700  31.691  31.422  1.00  0.00     0.167 HD
ATOM     48  C   UNL A   1      40.661  27.973  29.121  1.00  0.00     0.031 A 
ATOM     49  C   UNL A   1      41.722  33.473  33.314  1.00  0.00     0.031 A 
ATOM     50  C   UNL A   1      41.884  27.933  29.877  1.00  0.00     0.049 A 
ATOM     51  C   UNL A   1      42.698  32.334  33.241  1.00  0.00     0.074 A 
ATOM     52  C   UNL A   1      42.877  26.970  29.859  1.00  0.00     0.029 A 
ATOM     53  N   UNL A   1      42.282  28.905  30.781  1.00  0.00    -0.354 N 
ATOM     54  N   UNL A   1      42.647  31.249  32.506  1.00  0.00    -0.248 NA
ATOM     55  C   UNL A   1      43.885  32.425  34.102  1.00  0.00     0.031 C 
ATOM     56  C   UNL A   1      43.860  27.341  30.783  1.00  0.00     0.029 A 
ATOM     57  C   UNL A   1      43.500  28.558  31.339  1.00  0.00     0.049 A 
ATOM     58  H   UNL A   1      41.772  29.720  30.996  1.00  0.00     0.167 HD
ATOM     59  C   UNL A   1      43.803  30.539  32.800  1.00  0.00     0.074 A 
ATOM     60  C   UNL A   1      44.542  31.322  33.770  1.00  0.00     0.031 C 
ATOM     61  C   UNL A   1      44.216  29.345  32.308  1.00  0.00     0.031 A 
BRANCH  48  62
ATOM     62  C   UNL A   1      40.347  26.825  28.205  1.00  0.00    -0.014 A 
ATOM     63  C   UNL A   1      40.864  26.777  26.900  1.00  0.00     0.009 A 
ATOM     64  C   UNL A   1      39.545  25.765  28.657  1.00  0.00     0.009 A 
ATOM     65  C   UNL A   1      40.559  25.708  26.057  1.00  0.00     0.001 A 
ATOM     66  C   UNL A   1      39.263  24.684  27.820  1.00  0.00     0.001 A 
ATOM     67  C   UNL A   1      39.763  24.661  26.519  1.00  0.00     0.000 A 
ENDBRANCH  48  62
BRANCH  49  68
ATOM     68  C   UNL A   1      41.970  34.634  34.204  1.00  0.00    -0.014 A 
ATOM     69  C   UNL A   1      41.537  34.606  35.538  1.00  0.00     0.009 A 
ATOM     70  C   UNL A   1      42.658  35.764  33.735  1.00  0.00     0.009 A 
ATOM     71  C   UNL A   1      41.778  35.692  36.383  1.00  0.00     0.001 A 
ATOM     72  C   UNL A   1      42.917  36.839  34.589  1.00  0.00     0.001 A 
ATOM     73  C   UNL A   1      42.472  36.804  35.910  1.00  0.00     0.000 A 
ENDBRANCH  49  68
BRANCH  61  74
ATOM     74  C   UNL A   1      45.538  28.823  32.793  1.00  0.00    -0.014 A 
ATOM     75  C   UNL A   1      45.617  27.974  33.907  1.00  0.00     0.009 A 
ATOM     76  C   UNL A   1      46.711  29.142  32.092  1.00  0.00     0.009 A 
ATOM     77  C   UNL A   1      46.852  27.474  34.324  1.00  0.00     0.001 A 
ATOM     78  C   UNL A   1      47.939  28.621  32.497  1.00  0.00     0.001 A 
ATOM     79  C   UNL A   1      48.010  27.793  33.616  1.00  0.00     0.000 A 
ENDBRANCH  61  74
ENDBRANCH  35  36
ENDBRANCH  27  30
ENDBRANCH  25  26
ENDBRANCH   1  25
TORSDOF 12
ENDMDL
MODEL 3
REMARK VINA RESULT:     -11.6      0.520      5.961
REMARK SMILES Cc1cc2c(c(C)c1Br)C=C(C(=O)NCCCCNC(=O)c1ccc(-c3c4nc(c(-c5ccccc5)c5ccc([nH]5)c(-c5ccccc5)c5nc(c(-c6ccccc6)c6ccc3[nH]6)C=C5)C=C4)cc1)[C@@H](C(F)(F)F)O2
REMARK SMILES IDX 17 1 16 2 15 3 14 4 12 5 13 6 11 8 1 9 2 10 3 11 8 12 4 13
REMARK SMILES IDX 6 14 9 15 5 16 75 17 7 18 10 19 70 20 71 21 72 22 73 23
REMARK SMILES IDX 74 24 18 25 19 26 20 27 21 29 22 30 23 31 69 32 24 33 68 34
REMARK SMILES IDX 25 35 26 36 27 37 62 38 28 39 67 40 61 41 63 42 29 43 66 44
REMARK SMILES IDX 60 45 59 46 30 48 52 49 37 50 51 51 38 52 41 53 50 54 64 55
REMARK SMILES IDX 39 56 40 57 49 59 65 60 42 61 31 62 32 63 36 64 33 65 35 66
REMARK SMILES IDX 34 67 53 68 54 69 58 70 55 71 57 72 56 73 43 74 44 75 48 76
REMARK SMILES IDX 45 77 47 78 46 79
REMARK H PARENT 14 7 19 28 63 47 41 58
REMARK Flexibility Score: inf
ROOT
ATOM      1  C   UNL A   1      37.667  20.119  24.976  1.00  0.00     0.023 C 
ENDROOT
BRANCH   1   2
ATOM      2  C   UNL A   1      36.802  21.288  24.498  1.00  0.00     0.023 C 
BRANCH   2   3
ATOM      3  C   UNL A   1      36.860  22.518  25.400  1.00  0.00     0.116 C 
BRANCH   3   4
ATOM      4  N   UNL A   1      35.922  22.422  26.504  1.00  0.00    -0.352 N 
ATOM      5  C   UNL A   1      34.668  22.853  26.777  1.00  0.00     0.251 C 
ATOM      6  O   UNL A   1      34.240  22.538  27.892  1.00  0.00    -0.270 OA
ATOM      7  H   UNL A   1      36.297  21.906  27.253  1.00  0.00     0.163 HD
BRANCH   5   8
ATOM      8  C   UNL A   1      33.804  23.648  25.853  1.00  0.00     0.067 C 
ATOM      9  C   UNL A   1      30.461  28.141  22.527  1.00  0.00     0.046 C 
ATOM     10  C   UNL A   1      31.327  27.383  23.498  1.00  0.00    -0.033 A 
ATOM     11  C   UNL A   1      31.584  26.035  23.234  1.00  0.00     0.051 A 
ATOM     12  C   UNL A   1      31.886  27.968  24.655  1.00  0.00     0.024 A 
ATOM     13  C   UNL A   1      32.365  25.279  24.100  1.00  0.00     0.128 A 
ATOM     14  C   UNL A   1      32.695  27.211  25.541  1.00  0.00    -0.026 A 
ATOM     15  Br  UNL A   1      31.527  29.819  24.992  1.00  0.00    -0.050 Br
ATOM     16  C   UNL A   1      32.934  25.845  25.244  1.00  0.00     0.021 A 
ATOM     17  O   UNL A   1      32.566  23.982  23.723  1.00  0.00    -0.475 OA
ATOM     18  C   UNL A   1      33.315  27.808  26.784  1.00  0.00     0.046 C 
ATOM     19  C   UNL A   1      33.787  24.978  26.067  1.00  0.00     0.026 C 
ATOM     20  C   UNL A   1      32.955  23.057  24.769  1.00  0.00     0.314 C 
BRANCH  20  21
ATOM     21  C   UNL A   1      31.704  22.342  25.312  1.00  0.00     0.429 C 
ATOM     22  F   UNL A   1      30.617  22.661  24.566  1.00  0.00    -0.167 F 
ATOM     23  F   UNL A   1      31.816  20.993  25.263  1.00  0.00    -0.167 F 
ATOM     24  F   UNL A   1      31.427  22.669  26.593  1.00  0.00    -0.167 F 
ENDBRANCH  20  21
ENDBRANCH   5   8
ENDBRANCH   3   4
ENDBRANCH   2   3
ENDBRANCH   1   2
BRANCH   1  25
ATOM     25  C   UNL A   1      38.933  20.509  25.739  1.00  0.00     0.116 C 
BRANCH  25  26
ATOM     26  N   UNL A   1      39.963  19.481  25.730  1.00  0.00    -0.352 N 
ATOM     27  C   UNL A   1      41.284  19.601  26.090  1.00  0.00     0.251 C 
ATOM     28  H   UNL A   1      39.678  18.588  25.429  1.00  0.00     0.163 HD
ATOM     29  O   UNL A   1      42.061  18.663  25.952  1.00  0.00    -0.269 OA
BRANCH  27  30
ATOM     30  C   UNL A   1      41.765  20.896  26.605  1.00  0.00     0.039 A 
ATOM     31  C   UNL A   1      42.266  21.835  25.703  1.00  0.00     0.014 A 
ATOM     32  C   UNL A   1      41.667  21.193  27.968  1.00  0.00     0.014 A 
ATOM     33  C   UNL A   1      42.604  23.110  26.157  1.00  0.00     0.010 A 
ATOM     34  C   UNL A   1      41.951  22.480  28.409  1.00  0.00     0.010 A 
ATOM     35  C   UNL A   1      42.416  23.450  27.506  1.00  0.00    -0.014 A 
BRANCH  35  36
ATOM     36  C   UNL A   1      42.695  24.816  28.004  1.00  0.00     0.031 A 
ATOM     37  C   UNL A   1      44.087  25.186  28.423  1.00  0.00     0.074 A 
ATOM     38  C   UNL A   1      41.684  25.692  28.152  1.00  0.00     0.049 A 
ATOM     39  N   UNL A   1      44.513  26.285  28.990  1.00  0.00    -0.248 NA
ATOM     40  C   UNL A   1      45.135  24.178  28.194  1.00  0.00     0.031 C 
ATOM     41  C   UNL A   1      40.285  25.444  27.799  1.00  0.00     0.029 A 
ATOM     42  N   UNL A   1      41.680  26.971  28.649  1.00  0.00    -0.354 N 
ATOM     43  C   UNL A   1      45.872  26.095  29.203  1.00  0.00     0.074 A 
ATOM     44  C   UNL A   1      46.191  24.761  28.741  1.00  0.00     0.031 C 
ATOM     45  C   UNL A   1      39.562  26.542  28.071  1.00  0.00     0.029 A 
ATOM     46  C   UNL A   1      40.437  27.555  28.653  1.00  0.00     0.049 A 
ATOM     47  H   UNL A   1      42.491  27.426  28.972  1.00  0.00     0.167 HD
ATOM     48  C   UNL A   1      46.774  26.957  29.722  1.00  0.00     0.031 A 
ATOM     49  C   UNL A   1      40.045  28.767  29.087  1.00  0.00     0.031 A 
ATOM     50  C   UNL A   1      46.457  28.285  30.173  1.00  0.00     0.049 A 
ATOM     51  C   UNL A   1      41.062  29.701  29.676  1.00  0.00     0.074 A 
ATOM     52  C   UNL A   1      47.310  29.248  30.686  1.00  0.00     0.029 A 
ATOM     53  N   UNL A   1      45.187  28.839  30.160  1.00  0.00    -0.354 N 
ATOM     54  N   UNL A   1      42.349  29.515  29.852  1.00  0.00    -0.248 NA
ATOM     55  C   UNL A   1      40.575  31.013  30.124  1.00  0.00     0.031 C 
ATOM     56  C   UNL A   1      46.547  30.373  31.018  1.00  0.00     0.029 A 
ATOM     57  C   UNL A   1      45.229  30.126  30.667  1.00  0.00     0.049 A 
ATOM     58  H   UNL A   1      44.375  28.384  29.837  1.00  0.00     0.167 HD
ATOM     59  C   UNL A   1      42.828  30.692  30.411  1.00  0.00     0.074 A 
ATOM     60  C   UNL A   1      41.697  31.591  30.533  1.00  0.00     0.031 C 
ATOM     61  C   UNL A   1      44.093  31.001  30.788  1.00  0.00     0.031 A 
BRANCH  48  62
ATOM     62  C   UNL A   1      48.194  26.482  29.834  1.00  0.00    -0.014 A 
ATOM     63  C   UNL A   1      49.126  26.739  28.815  1.00  0.00     0.009 A 
ATOM     64  C   UNL A   1      48.614  25.791  30.981  1.00  0.00     0.009 A 
ATOM     65  C   UNL A   1      50.441  26.285  28.929  1.00  0.00     0.001 A 
ATOM     66  C   UNL A   1      49.936  25.362  31.104  1.00  0.00     0.001 A 
ATOM     67  C   UNL A   1      50.846  25.602  30.075  1.00  0.00     0.000 A 
ENDBRANCH  48  62
BRANCH  49  68
ATOM     68  C   UNL A   1      38.624  29.174  28.954  1.00  0.00    -0.014 A 
ATOM     69  C   UNL A   1      38.144  29.676  27.736  1.00  0.00     0.009 A 
ATOM     70  C   UNL A   1      37.736  29.040  30.033  1.00  0.00     0.009 A 
ATOM     71  C   UNL A   1      36.805  30.049  27.603  1.00  0.00     0.001 A 
ATOM     72  C   UNL A   1      36.392  29.393  29.890  1.00  0.00     0.001 A 
ATOM     73  C   UNL A   1      35.928  29.902  28.677  1.00  0.00     0.000 A 
ENDBRANCH  49  68
BRANCH  61  74
ATOM     74  C   UNL A   1      44.326  32.376  31.346  1.00  0.00    -0.014 A 
ATOM     75  C   UNL A   1      44.644  33.454  30.507  1.00  0.00     0.009 A 
ATOM     76  C   UNL A   1      44.170  32.603  32.722  1.00  0.00     0.009 A 
ATOM     77  C   UNL A   1      44.827  34.731  31.042  1.00  0.00     0.001 A 
ATOM     78  C   UNL A   1      44.330  33.884  33.249  1.00  0.00     0.001 A 
ATOM     79  C   UNL A   1      44.665  34.946  32.410  1.00  0.00     0.000 A 
ENDBRANCH  61  74
ENDBRANCH  35  36
ENDBRANCH  27  30
ENDBRANCH  25  26
ENDBRANCH   1  25
TORSDOF 12
ENDMDL
