MODEL 1
REMARK VINA RESULT:     -11.1      0.000      0.000
REMARK SMILES Cc1cc(C(=O)NCCCCNC(=O)c2ccc(-c3c4nc(c(-c5ccccc5)c5ccc([nH]5)c(-c5ccccc5)c5nc(c(-c6ccccc6)c6ccc3[nH]6)C=C5)C=C4)cc2)c([N+](=O)[O-])cc1[N+](=O)[O-]
REMARK SMILES IDX 10 1 9 2 8 3 7 4 5 5 6 6 4 8 1 9 2 10 3 11 68 12 67 13 63 14
REMARK SMILES IDX 69 15 70 16 71 17 64 18 65 19 66 20 11 21 12 22 13 23 14 25
REMARK SMILES IDX 15 26 16 27 62 28 17 29 61 30 18 31 19 32 20 33 55 34 21 35
REMARK SMILES IDX 60 36 54 37 56 38 22 39 59 40 53 41 52 42 23 44 45 45 30 46
REMARK SMILES IDX 44 47 31 48 34 49 43 50 57 51 32 52 33 53 42 55 58 56 35 57
REMARK SMILES IDX 24 58 25 59 29 60 26 61 28 62 27 63 46 64 47 65 51 66 48 67
REMARK SMILES IDX 50 68 49 69 36 70 37 71 41 72 38 73 40 74 39 75
REMARK H PARENT 7 7 12 24 56 43 34 54
REMARK Flexibility Score: inf
ROOT
ATOM      1  C   UNL A   1      38.380  22.149  25.937  1.00  0.00     0.023 C 
ENDROOT
BRANCH   1   2
ATOM      2  C   UNL A   1      37.837  23.571  25.789  1.00  0.00     0.023 C 
BRANCH   2   3
ATOM      3  C   UNL A   1      36.399  23.776  26.290  1.00  0.00     0.116 C 
BRANCH   3   4
ATOM      4  N   UNL A   1      35.455  23.146  25.387  1.00  0.00    -0.352 N 
ATOM      5  C   UNL A   1      34.213  23.412  24.891  1.00  0.00     0.258 C 
ATOM      6  O   UNL A   1      33.748  22.508  24.188  1.00  0.00    -0.269 OA
ATOM      7  H   UNL A   1      35.805  22.295  25.037  1.00  0.00     0.163 HD
BRANCH   5   8
ATOM      8  C   UNL A   1      33.392  24.660  25.026  1.00  0.00     0.118 A 
ATOM      9  C   UNL A   1      33.833  27.969  23.142  1.00  0.00     0.052 C 
ATOM     10  C   UNL A   1      33.243  26.999  24.130  1.00  0.00     0.028 A 
ATOM     11  C   UNL A   1      33.896  25.749  24.264  1.00  0.00     0.031 A 
ATOM     12  C   UNL A   1      32.090  27.217  24.893  1.00  0.00     0.279 A 
ATOM     13  C   UNL A   1      31.565  26.180  25.669  1.00  0.00     0.172 A 
ATOM     14  C   UNL A   1      32.192  24.915  25.685  1.00  0.00     0.289 A 
BRANCH  12  15
ATOM     15  N   UNL A   1      31.348  28.484  24.881  1.00  0.00     0.063 N 
ATOM     16  O   UNL A   1      30.373  28.557  24.119  1.00  0.00    -0.258 OA
ATOM     17  O   UNL A   1      31.709  29.379  25.654  1.00  0.00    -0.258 OA
ENDBRANCH  12  15
BRANCH  14  18
ATOM     18  N   UNL A   1      31.347  23.887  26.219  1.00  0.00     0.063 N 
ATOM     19  O   UNL A   1      31.476  23.645  27.424  1.00  0.00    -0.258 OA
ATOM     20  O   UNL A   1      30.676  23.233  25.411  1.00  0.00    -0.258 OA
ENDBRANCH  14  18
ENDBRANCH   5   8
ENDBRANCH   3   4
ENDBRANCH   2   3
ENDBRANCH   1   2
BRANCH   1  21
ATOM     21  C   UNL A   1      39.815  22.112  26.429  1.00  0.00     0.116 C 
BRANCH  21  22
ATOM     22  N   UNL A   1      40.593  20.967  25.972  1.00  0.00    -0.352 N 
ATOM     23  C   UNL A   1      41.965  20.748  26.032  1.00  0.00     0.251 C 
ATOM     24  H   UNL A   1      40.070  20.243  25.558  1.00  0.00     0.163 HD
ATOM     25  O   UNL A   1      42.453  19.752  25.541  1.00  0.00    -0.269 OA
BRANCH  23  26
ATOM     26  C   UNL A   1      42.809  21.665  26.850  1.00  0.00     0.039 A 
ATOM     27  C   UNL A   1      42.620  21.640  28.236  1.00  0.00     0.014 A 
ATOM     28  C   UNL A   1      43.513  22.707  26.263  1.00  0.00     0.014 A 
ATOM     29  C   UNL A   1      42.848  22.798  28.971  1.00  0.00     0.010 A 
ATOM     30  C   UNL A   1      43.601  23.899  26.952  1.00  0.00     0.010 A 
ATOM     31  C   UNL A   1      43.183  23.962  28.284  1.00  0.00    -0.014 A 
BRANCH  31  32
ATOM     32  C   UNL A   1      42.954  25.298  28.826  1.00  0.00     0.031 A 
ATOM     33  C   UNL A   1      41.791  26.094  28.385  1.00  0.00     0.074 A 
ATOM     34  C   UNL A   1      43.762  25.766  29.808  1.00  0.00     0.049 A 
ATOM     35  N   UNL A   1      41.723  27.382  28.446  1.00  0.00    -0.248 NA
ATOM     36  C   UNL A   1      40.617  25.487  27.770  1.00  0.00     0.031 C 
ATOM     37  C   UNL A   1      43.538  26.940  30.649  1.00  0.00     0.029 A 
ATOM     38  N   UNL A   1      45.077  25.394  30.106  1.00  0.00    -0.354 N 
ATOM     39  C   UNL A   1      40.412  27.731  28.212  1.00  0.00     0.074 A 
ATOM     40  C   UNL A   1      39.799  26.538  27.678  1.00  0.00     0.031 C 
ATOM     41  C   UNL A   1      44.726  27.375  31.103  1.00  0.00     0.029 A 
ATOM     42  C   UNL A   1      45.749  26.579  30.445  1.00  0.00     0.049 A 
ATOM     43  H   UNL A   1      45.455  24.485  30.081  1.00  0.00     0.167 HD
ATOM     44  C   UNL A   1      39.949  28.935  28.656  1.00  0.00     0.031 A 
ATOM     45  C   UNL A   1      46.798  27.082  29.732  1.00  0.00     0.031 A 
ATOM     46  C   UNL A   1      41.031  29.770  29.179  1.00  0.00     0.049 A 
ATOM     47  C   UNL A   1      46.544  28.484  29.211  1.00  0.00     0.074 A 
ATOM     48  C   UNL A   1      41.436  30.100  30.462  1.00  0.00     0.029 A 
ATOM     49  N   UNL A   1      42.060  30.163  28.330  1.00  0.00    -0.354 N 
ATOM     50  N   UNL A   1      45.363  29.034  29.157  1.00  0.00    -0.248 NA
ATOM     51  C   UNL A   1      47.582  29.348  28.649  1.00  0.00     0.031 C 
ATOM     52  C   UNL A   1      42.757  30.614  30.386  1.00  0.00     0.029 A 
ATOM     53  C   UNL A   1      43.138  30.627  29.057  1.00  0.00     0.049 A 
ATOM     54  H   UNL A   1      42.024  30.118  27.347  1.00  0.00     0.167 HD
ATOM     55  C   UNL A   1      45.454  30.271  28.577  1.00  0.00     0.074 A 
ATOM     56  C   UNL A   1      46.866  30.427  28.282  1.00  0.00     0.031 C 
ATOM     57  C   UNL A   1      44.353  31.053  28.375  1.00  0.00     0.031 A 
BRANCH  44  58
ATOM     58  C   UNL A   1      38.481  29.228  28.902  1.00  0.00    -0.014 A 
ATOM     59  C   UNL A   1      37.690  29.729  27.850  1.00  0.00     0.009 A 
ATOM     60  C   UNL A   1      37.834  29.122  30.145  1.00  0.00     0.009 A 
ATOM     61  C   UNL A   1      36.379  30.188  28.052  1.00  0.00     0.001 A 
ATOM     62  C   UNL A   1      36.533  29.602  30.362  1.00  0.00     0.001 A 
ATOM     63  C   UNL A   1      35.810  30.151  29.316  1.00  0.00     0.000 A 
ENDBRANCH  44  58
BRANCH  45  64
ATOM     64  C   UNL A   1      47.612  26.063  29.016  1.00  0.00    -0.014 A 
ATOM     65  C   UNL A   1      47.294  25.774  27.675  1.00  0.00     0.009 A 
ATOM     66  C   UNL A   1      48.863  25.665  29.509  1.00  0.00     0.009 A 
ATOM     67  C   UNL A   1      48.241  25.201  26.821  1.00  0.00     0.001 A 
ATOM     68  C   UNL A   1      49.806  25.083  28.651  1.00  0.00     0.001 A 
ATOM     69  C   UNL A   1      49.508  24.884  27.303  1.00  0.00     0.000 A 
ENDBRANCH  45  64
BRANCH  57  70
ATOM     70  C   UNL A   1      44.306  32.324  27.566  1.00  0.00    -0.014 A 
ATOM     71  C   UNL A   1      44.373  32.371  26.168  1.00  0.00     0.009 A 
ATOM     72  C   UNL A   1      44.033  33.541  28.231  1.00  0.00     0.009 A 
ATOM     73  C   UNL A   1      44.215  33.579  25.473  1.00  0.00     0.001 A 
ATOM     74  C   UNL A   1      43.830  34.738  27.541  1.00  0.00     0.001 A 
ATOM     75  C   UNL A   1      43.933  34.758  26.157  1.00  0.00     0.000 A 
ENDBRANCH  57  70
ENDBRANCH  31  32
ENDBRANCH  23  26
ENDBRANCH  21  22
ENDBRANCH   1  21
TORSDOF 13
ENDMDL
MODEL 2
REMARK VINA RESULT:     -11.0      2.528      4.167
REMARK SMILES Cc1cc(C(=O)NCCCCNC(=O)c2ccc(-c3c4nc(c(-c5ccccc5)c5ccc([nH]5)c(-c5ccccc5)c5nc(c(-c6ccccc6)c6ccc3[nH]6)C=C5)C=C4)cc2)c([N+](=O)[O-])cc1[N+](=O)[O-]
REMARK SMILES IDX 10 1 9 2 8 3 7 4 5 5 6 6 4 8 1 9 2 10 3 11 68 12 67 13 63 14
REMARK SMILES IDX 69 15 70 16 71 17 64 18 65 19 66 20 11 21 12 22 13 23 14 25
REMARK SMILES IDX 15 26 16 27 62 28 17 29 61 30 18 31 19 32 20 33 55 34 21 35
REMARK SMILES IDX 60 36 54 37 56 38 22 39 59 40 53 41 52 42 23 44 45 45 30 46
REMARK SMILES IDX 44 47 31 48 34 49 43 50 57 51 32 52 33 53 42 55 58 56 35 57
REMARK SMILES IDX 24 58 25 59 29 60 26 61 28 62 27 63 46 64 47 65 51 66 48 67
REMARK SMILES IDX 50 68 49 69 36 70 37 71 41 72 38 73 40 74 39 75
REMARK H PARENT 7 7 12 24 56 43 34 54
REMARK Flexibility Score: inf
ROOT
ATOM      1  C   UNL A   1      38.419  21.115  25.406  1.00  0.00     0.023 C 
ENDROOT
BRANCH   1   2
ATOM      2  C   UNL A   1      37.085  21.100  24.659  1.00  0.00     0.023 C 
BRANCH   2   3
ATOM      3  C   UNL A   1      35.836  21.190  25.551  1.00  0.00     0.116 C 
BRANCH   3   4
ATOM      4  N   UNL A   1      34.701  20.574  24.891  1.00  0.00    -0.352 N 
ATOM      5  C   UNL A   1      33.406  20.901  24.613  1.00  0.00     0.258 C 
ATOM      6  O   UNL A   1      32.760  19.990  24.083  1.00  0.00    -0.269 OA
ATOM      7  H   UNL A   1      34.924  19.677  24.552  1.00  0.00     0.163 HD
BRANCH   5   8
ATOM      8  C   UNL A   1      32.705  22.214  24.795  1.00  0.00     0.118 A 
ATOM      9  C   UNL A   1      29.694  22.971  27.043  1.00  0.00     0.052 C 
ATOM     10  C   UNL A   1      30.777  23.237  26.033  1.00  0.00     0.028 A 
ATOM     11  C   UNL A   1      31.548  22.124  25.616  1.00  0.00     0.031 A 
ATOM     12  C   UNL A   1      31.105  24.492  25.505  1.00  0.00     0.279 A 
ATOM     13  C   UNL A   1      32.226  24.626  24.681  1.00  0.00     0.172 A 
ATOM     14  C   UNL A   1      33.028  23.503  24.381  1.00  0.00     0.289 A 
BRANCH  12  15
ATOM     15  N   UNL A   1      30.355  25.714  25.820  1.00  0.00     0.063 N 
ATOM     16  O   UNL A   1      29.427  26.017  25.055  1.00  0.00    -0.258 OA
ATOM     17  O   UNL A   1      30.661  26.339  26.842  1.00  0.00    -0.258 OA
ENDBRANCH  12  15
BRANCH  14  18
ATOM     18  N   UNL A   1      34.307  23.867  23.846  1.00  0.00     0.063 N 
ATOM     19  O   UNL A   1      34.891  24.799  24.410  1.00  0.00    -0.258 OA
ATOM     20  O   UNL A   1      34.649  23.327  22.787  1.00  0.00    -0.258 OA
ENDBRANCH  14  18
ENDBRANCH   5   8
ENDBRANCH   3   4
ENDBRANCH   2   3
ENDBRANCH   1   2
BRANCH   1  21
ATOM     21  C   UNL A   1      38.858  22.511  25.806  1.00  0.00     0.116 C 
BRANCH  21  22
ATOM     22  N   UNL A   1      40.199  22.595  26.374  1.00  0.00    -0.352 N 
ATOM     23  C   UNL A   1      40.869  23.694  26.901  1.00  0.00     0.251 C 
ATOM     24  H   UNL A   1      40.703  21.750  26.385  1.00  0.00     0.163 HD
ATOM     25  O   UNL A   1      42.018  23.593  27.277  1.00  0.00    -0.269 OA
BRANCH  23  26
ATOM     26  C   UNL A   1      40.112  24.953  27.150  1.00  0.00     0.039 A 
ATOM     27  C   UNL A   1      40.472  26.074  26.394  1.00  0.00     0.014 A 
ATOM     28  C   UNL A   1      39.315  25.100  28.277  1.00  0.00     0.014 A 
ATOM     29  C   UNL A   1      40.308  27.341  26.945  1.00  0.00     0.010 A 
ATOM     30  C   UNL A   1      39.285  26.334  28.892  1.00  0.00     0.010 A 
ATOM     31  C   UNL A   1      39.863  27.439  28.260  1.00  0.00    -0.014 A 
BRANCH  31  32
ATOM     32  C   UNL A   1      40.125  28.601  29.103  1.00  0.00     0.031 A 
ATOM     33  C   UNL A   1      39.101  29.654  29.263  1.00  0.00     0.074 A 
ATOM     34  C   UNL A   1      41.278  28.664  29.812  1.00  0.00     0.049 A 
ATOM     35  N   UNL A   1      39.355  30.875  29.599  1.00  0.00    -0.248 NA
ATOM     36  C   UNL A   1      37.689  29.417  28.990  1.00  0.00     0.031 C 
ATOM     37  C   UNL A   1      41.597  29.594  30.893  1.00  0.00     0.029 A 
ATOM     38  N   UNL A   1      42.497  28.032  29.551  1.00  0.00    -0.354 N 
ATOM     39  C   UNL A   1      38.153  31.468  29.912  1.00  0.00     0.074 A 
ATOM     40  C   UNL A   1      37.149  30.567  29.401  1.00  0.00     0.031 C 
ATOM     41  C   UNL A   1      42.934  29.707  30.981  1.00  0.00     0.029 A 
ATOM     42  C   UNL A   1      43.496  28.968  29.862  1.00  0.00     0.049 A 
ATOM     43  H   UNL A   1      42.629  27.115  29.215  1.00  0.00     0.167 HD
ATOM     44  C   UNL A   1      38.138  32.567  30.720  1.00  0.00     0.031 A 
ATOM     45  C   UNL A   1      44.367  29.477  28.942  1.00  0.00     0.031 A 
ATOM     46  C   UNL A   1      39.491  33.059  30.987  1.00  0.00     0.049 A 
ATOM     47  C   UNL A   1      44.299  30.988  28.833  1.00  0.00     0.074 A 
ATOM     48  C   UNL A   1      40.330  32.971  32.086  1.00  0.00     0.029 A 
ATOM     49  N   UNL A   1      40.276  33.502  29.928  1.00  0.00    -0.354 N 
ATOM     50  N   UNL A   1      43.318  31.706  29.306  1.00  0.00    -0.248 NA
ATOM     51  C   UNL A   1      45.288  31.802  28.128  1.00  0.00     0.031 C 
ATOM     52  C   UNL A   1      41.647  33.281  31.656  1.00  0.00     0.029 A 
ATOM     53  C   UNL A   1      41.600  33.587  30.309  1.00  0.00     0.049 A 
ATOM     54  H   UNL A   1      39.934  33.725  29.032  1.00  0.00     0.167 HD
ATOM     55  C   UNL A   1      43.514  33.024  28.989  1.00  0.00     0.074 A 
ATOM     56  C   UNL A   1      44.766  33.035  28.257  1.00  0.00     0.031 C 
ATOM     57  C   UNL A   1      42.616  33.989  29.344  1.00  0.00     0.031 A 
BRANCH  44  58
ATOM     58  C   UNL A   1      36.924  33.004  31.518  1.00  0.00    -0.014 A 
ATOM     59  C   UNL A   1      36.807  32.619  32.867  1.00  0.00     0.009 A 
ATOM     60  C   UNL A   1      35.827  33.711  30.997  1.00  0.00     0.009 A 
ATOM     61  C   UNL A   1      35.636  32.834  33.610  1.00  0.00     0.001 A 
ATOM     62  C   UNL A   1      34.642  33.908  31.722  1.00  0.00     0.001 A 
ATOM     63  C   UNL A   1      34.541  33.454  33.026  1.00  0.00     0.000 A 
ENDBRANCH  44  58
BRANCH  45  64
ATOM     64  C   UNL A   1      44.666  28.572  27.800  1.00  0.00    -0.014 A 
ATOM     65  C   UNL A   1      45.467  27.437  28.037  1.00  0.00     0.009 A 
ATOM     66  C   UNL A   1      43.903  28.619  26.625  1.00  0.00     0.009 A 
ATOM     67  C   UNL A   1      45.422  26.336  27.176  1.00  0.00     0.001 A 
ATOM     68  C   UNL A   1      43.868  27.516  25.761  1.00  0.00     0.001 A 
ATOM     69  C   UNL A   1      44.598  26.365  26.054  1.00  0.00     0.000 A 
ENDBRANCH  45  64
BRANCH  57  70
ATOM     70  C   UNL A   1      42.622  35.420  28.873  1.00  0.00    -0.014 A 
ATOM     71  C   UNL A   1      43.257  36.469  29.549  1.00  0.00     0.009 A 
ATOM     72  C   UNL A   1      42.083  35.717  27.600  1.00  0.00     0.009 A 
ATOM     73  C   UNL A   1      43.315  37.758  28.998  1.00  0.00     0.001 A 
ATOM     74  C   UNL A   1      42.178  36.988  27.029  1.00  0.00     0.001 A 
ATOM     75  C   UNL A   1      42.787  38.014  27.737  1.00  0.00     0.000 A 
ENDBRANCH  57  70
ENDBRANCH  31  32
ENDBRANCH  23  26
ENDBRANCH  21  22
ENDBRANCH   1  21
TORSDOF 13
ENDMDL
MODEL 3
REMARK VINA RESULT:     -10.9      3.450      8.915
REMARK SMILES Cc1cc(C(=O)NCCCCNC(=O)c2ccc(-c3c4nc(c(-c5ccccc5)c5ccc([nH]5)c(-c5ccccc5)c5nc(c(-c6ccccc6)c6ccc3[nH]6)C=C5)C=C4)cc2)c([N+](=O)[O-])cc1[N+](=O)[O-]
REMARK SMILES IDX 10 1 9 2 8 3 7 4 5 5 6 6 4 8 1 9 2 10 3 11 68 12 67 13 63 14
REMARK SMILES IDX 69 15 70 16 71 17 64 18 65 19 66 20 11 21 12 22 13 23 14 25
REMARK SMILES IDX 15 26 16 27 62 28 17 29 61 30 18 31 19 32 20 33 55 34 21 35
REMARK SMILES IDX 60 36 54 37 56 38 22 39 59 40 53 41 52 42 23 44 45 45 30 46
REMARK SMILES IDX 44 47 31 48 34 49 43 50 57 51 32 52 33 53 42 55 58 56 35 57
REMARK SMILES IDX 24 58 25 59 29 60 26 61 28 62 27 63 46 64 47 65 51 66 48 67
REMARK SMILES IDX 50 68 49 69 36 70 37 71 41 72 38 73 40 74 39 75
REMARK H PARENT 7 7 12 24 56 43 34 54
REMARK Flexibility Score: inf
ROOT
ATOM      1  C   UNL A   1      34.595  28.976  26.722  1.00  0.00     0.023 C 
ENDROOT
BRANCH   1   2
ATOM      2  C   UNL A   1      33.455  29.313  25.761  1.00  0.00     0.023 C 
BRANCH   2   3
ATOM      3  C   UNL A   1      33.324  28.378  24.549  1.00  0.00     0.116 C 
BRANCH   3   4
ATOM      4  N   UNL A   1      32.244  27.431  24.756  1.00  0.00    -0.352 N 
ATOM      5  C   UNL A   1      32.094  26.077  24.801  1.00  0.00     0.258 C 
ATOM      6  O   UNL A   1      30.922  25.704  24.926  1.00  0.00    -0.269 OA
ATOM      7  H   UNL A   1      31.385  27.891  24.904  1.00  0.00     0.163 HD
BRANCH   5   8
ATOM      8  C   UNL A   1      33.149  25.011  24.794  1.00  0.00     0.118 A 
ATOM      9  C   UNL A   1      34.047  22.585  27.622  1.00  0.00     0.052 C 
ATOM     10  C   UNL A   1      34.148  23.250  26.276  1.00  0.00     0.028 A 
ATOM     11  C   UNL A   1      33.301  24.364  26.050  1.00  0.00     0.031 A 
ATOM     12  C   UNL A   1      34.977  22.837  25.226  1.00  0.00     0.279 A 
ATOM     13  C   UNL A   1      34.872  23.454  23.976  1.00  0.00     0.172 A 
ATOM     14  C   UNL A   1      33.934  24.490  23.770  1.00  0.00     0.289 A 
BRANCH  12  15
ATOM     15  N   UNL A   1      35.931  21.729  25.347  1.00  0.00     0.063 N 
ATOM     16  O   UNL A   1      35.537  20.607  24.996  1.00  0.00    -0.258 OA
ATOM     17  O   UNL A   1      37.073  21.983  25.746  1.00  0.00    -0.258 OA
ENDBRANCH  12  15
BRANCH  14  18
ATOM     18  N   UNL A   1      33.702  24.753  22.380  1.00  0.00     0.063 N 
ATOM     19  O   UNL A   1      33.428  23.775  21.676  1.00  0.00    -0.258 OA
ATOM     20  O   UNL A   1      33.939  25.899  21.976  1.00  0.00    -0.258 OA
ENDBRANCH  14  18
ENDBRANCH   5   8
ENDBRANCH   3   4
ENDBRANCH   2   3
ENDBRANCH   1   2
BRANCH   1  21
ATOM     21  C   UNL A   1      34.830  30.054  27.763  1.00  0.00     0.116 C 
BRANCH  21  22
ATOM     22  N   UNL A   1      34.016  31.253  27.602  1.00  0.00    -0.352 N 
ATOM     23  C   UNL A   1      34.111  32.481  28.247  1.00  0.00     0.251 C 
ATOM     24  H   UNL A   1      33.291  31.181  26.939  1.00  0.00     0.163 HD
ATOM     25  O   UNL A   1      33.300  33.357  28.030  1.00  0.00    -0.269 OA
BRANCH  23  26
ATOM     26  C   UNL A   1      35.312  32.769  29.081  1.00  0.00     0.039 A 
ATOM     27  C   UNL A   1      36.363  33.462  28.469  1.00  0.00     0.014 A 
ATOM     28  C   UNL A   1      35.518  32.120  30.291  1.00  0.00     0.014 A 
ATOM     29  C   UNL A   1      37.665  33.231  28.898  1.00  0.00     0.010 A 
ATOM     30  C   UNL A   1      36.809  31.770  30.627  1.00  0.00     0.010 A 
ATOM     31  C   UNL A   1      37.879  32.258  29.871  1.00  0.00    -0.014 A 
BRANCH  31  32
ATOM     32  C   UNL A   1      39.156  31.570  30.039  1.00  0.00     0.031 A 
ATOM     33  C   UNL A   1      39.386  30.257  29.405  1.00  0.00     0.074 A 
ATOM     34  C   UNL A   1      40.162  32.188  30.703  1.00  0.00     0.049 A 
ATOM     35  N   UNL A   1      40.250  29.389  29.813  1.00  0.00    -0.248 NA
ATOM     36  C   UNL A   1      38.596  29.788  28.272  1.00  0.00     0.031 C 
ATOM     37  C   UNL A   1      41.567  31.786  30.743  1.00  0.00     0.029 A 
ATOM     38  N   UNL A   1      40.081  33.195  31.669  1.00  0.00    -0.354 N 
ATOM     39  C   UNL A   1      40.367  28.436  28.827  1.00  0.00     0.074 A 
ATOM     40  C   UNL A   1      39.237  28.659  27.958  1.00  0.00     0.031 C 
ATOM     41  C   UNL A   1      42.124  32.284  31.861  1.00  0.00     0.029 A 
ATOM     42  C   UNL A   1      41.052  32.889  32.635  1.00  0.00     0.049 A 
ATOM     43  H   UNL A   1      39.465  33.965  31.671  1.00  0.00     0.167 HD
ATOM     44  C   UNL A   1      41.498  27.676  28.760  1.00  0.00     0.031 A 
ATOM     45  C   UNL A   1      40.757  32.593  33.934  1.00  0.00     0.031 A 
ATOM     46  C   UNL A   1      42.366  27.896  29.918  1.00  0.00     0.049 A 
ATOM     47  C   UNL A   1      41.254  31.225  34.360  1.00  0.00     0.074 A 
ATOM     48  C   UNL A   1      43.543  28.606  30.097  1.00  0.00     0.029 A 
ATOM     49  N   UNL A   1      41.898  27.586  31.190  1.00  0.00    -0.354 N 
ATOM     50  N   UNL A   1      41.629  30.298  33.522  1.00  0.00    -0.248 NA
ATOM     51  C   UNL A   1      41.305  30.768  35.748  1.00  0.00     0.031 C 
ATOM     52  C   UNL A   1      43.731  28.796  31.491  1.00  0.00     0.029 A 
ATOM     53  C   UNL A   1      42.689  28.176  32.155  1.00  0.00     0.049 A 
ATOM     54  H   UNL A   1      41.112  27.023  31.376  1.00  0.00     0.167 HD
ATOM     55  C   UNL A   1      41.957  29.159  34.209  1.00  0.00     0.074 A 
ATOM     56  C   UNL A   1      41.745  29.505  35.602  1.00  0.00     0.031 C 
ATOM     57  C   UNL A   1      42.359  28.024  33.566  1.00  0.00     0.031 A 
BRANCH  44  58
ATOM     58  C   UNL A   1      41.960  26.972  27.498  1.00  0.00    -0.014 A 
ATOM     59  C   UNL A   1      41.951  25.565  27.447  1.00  0.00     0.009 A 
ATOM     60  C   UNL A   1      42.492  27.612  26.366  1.00  0.00     0.009 A 
ATOM     61  C   UNL A   1      42.528  24.849  26.387  1.00  0.00     0.001 A 
ATOM     62  C   UNL A   1      43.095  26.906  25.313  1.00  0.00     0.001 A 
ATOM     63  C   UNL A   1      43.126  25.522  25.332  1.00  0.00     0.000 A 
ENDBRANCH  44  58
BRANCH  45  64
ATOM     64  C   UNL A   1      39.512  33.224  34.450  1.00  0.00    -0.014 A 
ATOM     65  C   UNL A   1      38.277  32.624  34.133  1.00  0.00     0.009 A 
ATOM     66  C   UNL A   1      39.556  34.151  35.501  1.00  0.00     0.009 A 
ATOM     67  C   UNL A   1      37.143  32.863  34.915  1.00  0.00     0.001 A 
ATOM     68  C   UNL A   1      38.414  34.393  36.277  1.00  0.00     0.001 A 
ATOM     69  C   UNL A   1      37.220  33.725  36.006  1.00  0.00     0.000 A 
ENDBRANCH  45  64
BRANCH  57  70
ATOM     70  C   UNL A   1      42.539  26.666  34.197  1.00  0.00    -0.014 A 
ATOM     71  C   UNL A   1      41.608  26.064  35.051  1.00  0.00     0.009 A 
ATOM     72  C   UNL A   1      43.642  25.876  33.800  1.00  0.00     0.009 A 
ATOM     73  C   UNL A   1      41.789  24.753  35.516  1.00  0.00     0.001 A 
ATOM     74  C   UNL A   1      43.804  24.556  34.225  1.00  0.00     0.001 A 
ATOM     75  C   UNL A   1      42.879  23.997  35.095  1.00  0.00     0.000 A 
ENDBRANCH  57  70
ENDBRANCH  31  32
ENDBRANCH  23  26
ENDBRANCH  21  22
ENDBRANCH   1  21
TORSDOF 13
ENDMDL
