MODEL 1
REMARK VINA RESULT:     -11.4      0.000      0.000
REMARK SMILES O=C(NCCCCNC(=O)c1cccc(OS(=O)(=O)c2cccc([N+](=O)[O-])c2)c1)c1ccc(-c2c3nc(c(-c4ccccc4)c4ccc([nH]4)c(-c4ccccc4)c4nc(c(-c5ccccc5)c5ccc2[nH]5)C=C4)C=C3)cc1
REMARK SMILES IDX 6 1 5 2 4 3 3 4 1 5 2 6 30 8 31 9 77 10 32 11 76 12 33 13
REMARK SMILES IDX 34 14 35 15 70 16 36 17 75 18 69 19 71 20 37 21 74 22 68 23
REMARK SMILES IDX 67 24 38 26 60 27 45 28 59 29 46 30 49 31 58 32 72 33 47 34
REMARK SMILES IDX 48 35 57 37 73 38 50 39 39 40 40 41 44 42 41 43 43 44 42 45
REMARK SMILES IDX 61 46 62 47 66 48 63 49 65 50 64 51 51 52 52 53 56 54 53 55
REMARK SMILES IDX 55 56 54 57 7 58 8 59 9 60 10 62 11 63 12 64 29 65 13 66
REMARK SMILES IDX 15 67 14 68 16 69 17 70 18 71 19 72 20 73 21 74 28 75 22 76
REMARK SMILES IDX 24 77 23 78 25 79 26 80 27 81
REMARK H PARENT 3 7 71 25 49 36 8 61
REMARK Flexibility Score: inf
ROOT
ATOM      1  C   UNL A   1      36.402  20.090  25.001  1.00  0.00     0.023 C 
ENDROOT
BRANCH   1   2
ATOM      2  C   UNL A   1      37.811  19.557  24.756  1.00  0.00     0.023 C 
BRANCH   2   3
ATOM      3  C   UNL A   1      38.862  20.054  25.739  1.00  0.00     0.116 C 
BRANCH   3   4
ATOM      4  N   UNL A   1      40.018  19.173  25.815  1.00  0.00    -0.352 N 
ATOM      5  O   UNL A   1      42.208  18.644  25.966  1.00  0.00    -0.269 OA
ATOM      6  C   UNL A   1      41.323  19.481  26.113  1.00  0.00     0.251 C 
ATOM      7  H   UNL A   1      39.839  18.222  25.626  1.00  0.00     0.163 HD
BRANCH   6   8
ATOM      8  C   UNL A   1      41.661  20.835  26.597  1.00  0.00     0.039 A 
ATOM      9  C   UNL A   1      41.606  21.135  27.961  1.00  0.00     0.014 A 
ATOM     10  C   UNL A   1      42.055  21.811  25.678  1.00  0.00     0.014 A 
ATOM     11  C   UNL A   1      41.822  22.439  28.392  1.00  0.00     0.010 A 
ATOM     12  C   UNL A   1      42.355  23.101  26.123  1.00  0.00     0.010 A 
ATOM     13  C   UNL A   1      42.227  23.428  27.483  1.00  0.00    -0.014 A 
BRANCH  13  14
ATOM     14  C   UNL A   1      42.622  24.764  27.988  1.00  0.00     0.031 A 
ATOM     15  C   UNL A   1      41.604  25.832  28.266  1.00  0.00     0.074 A 
ATOM     16  C   UNL A   1      43.934  25.007  28.182  1.00  0.00     0.049 A 
ATOM     17  N   UNL A   1      41.797  27.060  28.679  1.00  0.00    -0.248 NA
ATOM     18  C   UNL A   1      40.191  25.487  28.047  1.00  0.00     0.031 C 
ATOM     19  C   UNL A   1      45.015  24.047  27.936  1.00  0.00     0.029 A 
ATOM     20  N   UNL A   1      44.584  26.129  28.629  1.00  0.00    -0.354 N 
ATOM     21  C   UNL A   1      40.537  27.642  28.748  1.00  0.00     0.074 A 
ATOM     22  C   UNL A   1      39.586  26.637  28.323  1.00  0.00     0.031 C 
ATOM     23  C   UNL A   1      46.187  24.611  28.259  1.00  0.00     0.029 A 
ATOM     24  C   UNL A   1      45.950  25.989  28.666  1.00  0.00     0.049 A 
ATOM     25  H   UNL A   1      44.117  26.952  28.898  1.00  0.00     0.167 HD
ATOM     26  C   UNL A   1      40.211  28.900  29.128  1.00  0.00     0.031 A 
ATOM     27  C   UNL A   1      46.914  26.881  28.958  1.00  0.00     0.031 A 
ATOM     28  C   UNL A   1      41.165  29.890  29.558  1.00  0.00     0.049 A 
ATOM     29  C   UNL A   1      46.520  28.279  29.330  1.00  0.00     0.074 A 
ATOM     30  C   UNL A   1      40.923  31.169  30.030  1.00  0.00     0.029 A 
ATOM     31  N   UNL A   1      42.540  29.719  29.552  1.00  0.00    -0.354 N 
ATOM     32  N   UNL A   1      45.319  28.791  29.458  1.00  0.00    -0.248 NA
ATOM     33  C   UNL A   1      47.612  29.226  29.590  1.00  0.00     0.031 C 
ATOM     34  C   UNL A   1      42.154  31.795  30.245  1.00  0.00     0.029 A 
ATOM     35  C   UNL A   1      43.162  30.886  29.964  1.00  0.00     0.049 A 
ATOM     36  H   UNL A   1      43.007  28.891  29.294  1.00  0.00     0.167 HD
ATOM     37  C   UNL A   1      45.512  30.115  29.824  1.00  0.00     0.074 A 
ATOM     38  C   UNL A   1      46.942  30.320  29.924  1.00  0.00     0.031 C 
ATOM     39  C   UNL A   1      44.586  31.076  30.050  1.00  0.00     0.031 A 
BRANCH  26  40
ATOM     40  C   UNL A   1      38.764  29.305  29.072  1.00  0.00    -0.014 A 
ATOM     41  C   UNL A   1      38.187  29.801  27.894  1.00  0.00     0.009 A 
ATOM     42  C   UNL A   1      37.946  29.099  30.195  1.00  0.00     0.009 A 
ATOM     43  C   UNL A   1      36.823  30.102  27.849  1.00  0.00     0.001 A 
ATOM     44  C   UNL A   1      36.580  29.377  30.139  1.00  0.00     0.001 A 
ATOM     45  C   UNL A   1      36.019  29.883  28.968  1.00  0.00     0.000 A 
ENDBRANCH  26  40
BRANCH  27  46
ATOM     46  C   UNL A   1      48.342  26.489  28.855  1.00  0.00    -0.014 A 
ATOM     47  C   UNL A   1      49.020  26.552  27.629  1.00  0.00     0.009 A 
ATOM     48  C   UNL A   1      49.037  26.045  29.992  1.00  0.00     0.009 A 
ATOM     49  C   UNL A   1      50.356  26.152  27.539  1.00  0.00     0.001 A 
ATOM     50  C   UNL A   1      50.381  25.679  29.907  1.00  0.00     0.001 A 
ATOM     51  C   UNL A   1      51.035  25.722  28.678  1.00  0.00     0.000 A 
ENDBRANCH  27  46
BRANCH  39  52
ATOM     52  C   UNL A   1      45.093  32.435  30.438  1.00  0.00    -0.014 A 
ATOM     53  C   UNL A   1      45.342  32.758  31.781  1.00  0.00     0.009 A 
ATOM     54  C   UNL A   1      45.365  33.388  29.444  1.00  0.00     0.009 A 
ATOM     55  C   UNL A   1      45.829  34.020  32.124  1.00  0.00     0.001 A 
ATOM     56  C   UNL A   1      45.878  34.638  29.787  1.00  0.00     0.001 A 
ATOM     57  C   UNL A   1      46.103  34.956  31.127  1.00  0.00     0.000 A 
ENDBRANCH  39  52
ENDBRANCH  13  14
ENDBRANCH   6   8
ENDBRANCH   3   4
ENDBRANCH   2   3
ENDBRANCH   1   2
BRANCH   1  58
ATOM     58  C   UNL A   1      36.337  21.445  25.698  1.00  0.00     0.116 C 
BRANCH  58  59
ATOM     59  N   UNL A   1      35.149  21.587  26.533  1.00  0.00    -0.352 N 
ATOM     60  C   UNL A   1      33.917  22.098  26.199  1.00  0.00     0.251 C 
ATOM     61  H   UNL A   1      35.242  21.274  27.461  1.00  0.00     0.163 HD
ATOM     62  O   UNL A   1      33.068  22.300  27.059  1.00  0.00    -0.269 OA
BRANCH  60  63
ATOM     63  C   UNL A   1      33.626  22.405  24.784  1.00  0.00     0.043 A 
ATOM     64  C   UNL A   1      32.851  21.531  24.024  1.00  0.00     0.014 A 
ATOM     65  C   UNL A   1      34.124  23.583  24.222  1.00  0.00     0.062 A 
ATOM     66  C   UNL A   1      32.518  21.880  22.715  1.00  0.00     0.005 A 
ATOM     67  C   UNL A   1      33.749  23.963  22.936  1.00  0.00     0.143 A 
ATOM     68  C   UNL A   1      32.952  23.100  22.178  1.00  0.00     0.048 A 
BRANCH  67  69
ATOM     69  O   UNL A   1      34.118  25.153  22.352  1.00  0.00    -0.379 OA
BRANCH  69  70
ATOM     70  S   UNL A   1      33.018  26.346  22.131  1.00  0.00     0.339 S 
ATOM     71  O   UNL A   1      33.702  27.622  22.079  1.00  0.00    -0.181 OA
ATOM     72  O   UNL A   1      32.112  25.945  21.068  1.00  0.00    -0.181 OA
BRANCH  70  73
ATOM     73  C   UNL A   1      32.052  26.357  23.623  1.00  0.00     0.112 A 
ATOM     74  C   UNL A   1      30.829  25.682  23.663  1.00  0.00     0.024 A 
ATOM     75  C   UNL A   1      32.545  27.030  24.747  1.00  0.00     0.109 A 
ATOM     76  C   UNL A   1      30.086  25.683  24.846  1.00  0.00     0.009 A 
ATOM     77  C   UNL A   1      31.791  27.025  25.923  1.00  0.00     0.270 A 
ATOM     78  C   UNL A   1      30.561  26.354  25.978  1.00  0.00     0.086 A 
BRANCH  77  79
ATOM     79  N   UNL A   1      32.297  27.727  27.111  1.00  0.00     0.062 N 
ATOM     80  O   UNL A   1      33.463  28.142  27.081  1.00  0.00    -0.258 OA
ATOM     81  O   UNL A   1      31.525  27.860  28.071  1.00  0.00    -0.258 OA
ENDBRANCH  77  79
ENDBRANCH  70  73
ENDBRANCH  69  70
ENDBRANCH  67  69
ENDBRANCH  60  63
ENDBRANCH  58  59
ENDBRANCH   1  58
TORSDOF 15
ENDMDL
MODEL 2
REMARK VINA RESULT:     -11.4      4.219      9.442
REMARK SMILES O=C(NCCCCNC(=O)c1cccc(OS(=O)(=O)c2cccc([N+](=O)[O-])c2)c1)c1ccc(-c2c3nc(c(-c4ccccc4)c4ccc([nH]4)c(-c4ccccc4)c4nc(c(-c5ccccc5)c5ccc2[nH]5)C=C4)C=C3)cc1
REMARK SMILES IDX 6 1 5 2 4 3 3 4 1 5 2 6 30 8 31 9 77 10 32 11 76 12 33 13
REMARK SMILES IDX 34 14 35 15 70 16 36 17 75 18 69 19 71 20 37 21 74 22 68 23
REMARK SMILES IDX 67 24 38 26 60 27 45 28 59 29 46 30 49 31 58 32 72 33 47 34
REMARK SMILES IDX 48 35 57 37 73 38 50 39 39 40 40 41 44 42 41 43 43 44 42 45
REMARK SMILES IDX 61 46 62 47 66 48 63 49 65 50 64 51 51 52 52 53 56 54 53 55
REMARK SMILES IDX 55 56 54 57 7 58 8 59 9 60 10 62 11 63 12 64 29 65 13 66
REMARK SMILES IDX 15 67 14 68 16 69 17 70 18 71 19 72 20 73 21 74 28 75 22 76
REMARK SMILES IDX 24 77 23 78 25 79 26 80 27 81
REMARK H PARENT 3 7 71 25 49 36 8 61
REMARK Flexibility Score: inf
ROOT
ATOM      1  C   UNL A   1      31.253  30.898  25.974  1.00  0.00     0.023 C 
ENDROOT
BRANCH   1   2
ATOM      2  C   UNL A   1      31.164  32.329  26.495  1.00  0.00     0.023 C 
BRANCH   2   3
ATOM      3  C   UNL A   1      32.451  32.869  27.104  1.00  0.00     0.116 C 
BRANCH   3   4
ATOM      4  N   UNL A   1      32.299  34.219  27.628  1.00  0.00    -0.352 N 
ATOM      5  O   UNL A   1      32.634  35.929  29.064  1.00  0.00    -0.269 OA
ATOM      6  C   UNL A   1      33.004  34.844  28.627  1.00  0.00     0.251 C 
ATOM      7  H   UNL A   1      31.591  34.759  27.206  1.00  0.00     0.163 HD
BRANCH   6   8
ATOM      8  C   UNL A   1      34.205  34.194  29.190  1.00  0.00     0.039 A 
ATOM      9  C   UNL A   1      35.478  34.517  28.711  1.00  0.00     0.014 A 
ATOM     10  C   UNL A   1      34.059  33.262  30.221  1.00  0.00     0.014 A 
ATOM     11  C   UNL A   1      36.589  33.822  29.172  1.00  0.00     0.010 A 
ATOM     12  C   UNL A   1      35.187  32.625  30.744  1.00  0.00     0.010 A 
ATOM     13  C   UNL A   1      36.459  32.890  30.213  1.00  0.00    -0.014 A 
BRANCH  13  14
ATOM     14  C   UNL A   1      37.677  32.291  30.811  1.00  0.00     0.031 A 
ATOM     15  C   UNL A   1      38.351  31.100  30.192  1.00  0.00     0.074 A 
ATOM     16  C   UNL A   1      38.163  32.836  31.944  1.00  0.00     0.049 A 
ATOM     17  N   UNL A   1      39.403  30.445  30.614  1.00  0.00    -0.248 NA
ATOM     18  C   UNL A   1      37.772  30.571  28.947  1.00  0.00     0.031 C 
ATOM     19  C   UNL A   1      37.584  33.989  32.641  1.00  0.00     0.029 A 
ATOM     20  N   UNL A   1      39.249  32.500  32.708  1.00  0.00    -0.354 N 
ATOM     21  C   UNL A   1      39.600  29.413  29.704  1.00  0.00     0.074 A 
ATOM     22  C   UNL A   1      38.551  29.522  28.712  1.00  0.00     0.031 C 
ATOM     23  C   UNL A   1      38.334  34.279  33.712  1.00  0.00     0.029 A 
ATOM     24  C   UNL A   1      39.402  33.295  33.819  1.00  0.00     0.049 A 
ATOM     25  H   UNL A   1      39.861  31.762  32.483  1.00  0.00     0.167 HD
ATOM     26  C   UNL A   1      40.566  28.464  29.704  1.00  0.00     0.031 A 
ATOM     27  C   UNL A   1      40.280  33.219  34.836  1.00  0.00     0.031 A 
ATOM     28  C   UNL A   1      41.609  28.369  30.692  1.00  0.00     0.049 A 
ATOM     29  C   UNL A   1      41.307  32.127  34.828  1.00  0.00     0.074 A 
ATOM     30  C   UNL A   1      42.674  27.485  30.736  1.00  0.00     0.029 A 
ATOM     31  N   UNL A   1      41.711  29.174  31.816  1.00  0.00    -0.354 N 
ATOM     32  N   UNL A   1      41.522  31.204  33.922  1.00  0.00    -0.248 NA
ATOM     33  C   UNL A   1      42.209  32.061  35.985  1.00  0.00     0.031 C 
ATOM     34  C   UNL A   1      43.380  27.710  31.921  1.00  0.00     0.029 A 
ATOM     35  C   UNL A   1      42.790  28.773  32.586  1.00  0.00     0.049 A 
ATOM     36  H   UNL A   1      41.106  29.919  32.035  1.00  0.00     0.167 HD
ATOM     37  C   UNL A   1      42.589  30.454  34.394  1.00  0.00     0.074 A 
ATOM     38  C   UNL A   1      42.995  31.046  35.653  1.00  0.00     0.031 C 
ATOM     39  C   UNL A   1      43.175  29.368  33.838  1.00  0.00     0.031 A 
BRANCH  26  40
ATOM     40  C   UNL A   1      40.534  27.420  28.622  1.00  0.00    -0.014 A 
ATOM     41  C   UNL A   1      39.770  26.251  28.752  1.00  0.00     0.009 A 
ATOM     42  C   UNL A   1      41.210  27.659  27.414  1.00  0.00     0.009 A 
ATOM     43  C   UNL A   1      39.701  25.332  27.701  1.00  0.00     0.001 A 
ATOM     44  C   UNL A   1      41.120  26.751  26.358  1.00  0.00     0.001 A 
ATOM     45  C   UNL A   1      40.370  25.586  26.503  1.00  0.00     0.000 A 
ENDBRANCH  26  40
BRANCH  27  46
ATOM     46  C   UNL A   1      40.186  34.175  35.968  1.00  0.00    -0.014 A 
ATOM     47  C   UNL A   1      39.389  33.892  37.086  1.00  0.00     0.009 A 
ATOM     48  C   UNL A   1      40.899  35.385  35.932  1.00  0.00     0.009 A 
ATOM     49  C   UNL A   1      39.285  34.813  38.131  1.00  0.00     0.001 A 
ATOM     50  C   UNL A   1      40.821  36.288  36.993  1.00  0.00     0.001 A 
ATOM     51  C   UNL A   1      40.005  36.006  38.086  1.00  0.00     0.000 A 
ENDBRANCH  27  46
BRANCH  39  52
ATOM     52  C   UNL A   1      44.326  28.757  34.585  1.00  0.00    -0.014 A 
ATOM     53  C   UNL A   1      45.638  29.213  34.390  1.00  0.00     0.009 A 
ATOM     54  C   UNL A   1      44.087  27.740  35.523  1.00  0.00     0.009 A 
ATOM     55  C   UNL A   1      46.695  28.645  35.103  1.00  0.00     0.001 A 
ATOM     56  C   UNL A   1      45.142  27.194  36.255  1.00  0.00     0.001 A 
ATOM     57  C   UNL A   1      46.445  27.641  36.039  1.00  0.00     0.000 A 
ENDBRANCH  39  52
ENDBRANCH  13  14
ENDBRANCH   6   8
ENDBRANCH   3   4
ENDBRANCH   2   3
ENDBRANCH   1   2
BRANCH   1  58
ATOM     58  C   UNL A   1      32.482  30.119  26.433  1.00  0.00     0.116 C 
BRANCH  58  59
ATOM     59  N   UNL A   1      33.283  29.631  25.317  1.00  0.00    -0.352 N 
ATOM     60  C   UNL A   1      33.178  28.440  24.636  1.00  0.00     0.251 C 
ATOM     61  H   UNL A   1      33.995  30.236  25.007  1.00  0.00     0.163 HD
ATOM     62  O   UNL A   1      34.033  28.105  23.824  1.00  0.00    -0.269 OA
BRANCH  60  63
ATOM     63  C   UNL A   1      32.020  27.562  24.898  1.00  0.00     0.043 A 
ATOM     64  C   UNL A   1      30.896  27.626  24.079  1.00  0.00     0.014 A 
ATOM     65  C   UNL A   1      32.069  26.663  25.966  1.00  0.00     0.062 A 
ATOM     66  C   UNL A   1      29.847  26.730  24.291  1.00  0.00     0.005 A 
ATOM     67  C   UNL A   1      31.052  25.730  26.148  1.00  0.00     0.143 A 
ATOM     68  C   UNL A   1      29.932  25.775  25.314  1.00  0.00     0.048 A 
BRANCH  67  69
ATOM     69  O   UNL A   1      31.077  24.751  27.114  1.00  0.00    -0.379 OA
BRANCH  69  70
ATOM     70  S   UNL A   1      31.670  23.263  26.774  1.00  0.00     0.339 S 
ATOM     71  O   UNL A   1      32.245  22.692  27.975  1.00  0.00    -0.181 OA
ATOM     72  O   UNL A   1      30.672  22.534  26.009  1.00  0.00    -0.181 OA
BRANCH  70  73
ATOM     73  C   UNL A   1      33.024  23.557  25.662  1.00  0.00     0.112 A 
ATOM     74  C   UNL A   1      34.337  23.521  26.140  1.00  0.00     0.024 A 
ATOM     75  C   UNL A   1      32.752  23.803  24.311  1.00  0.00     0.109 A 
ATOM     76  C   UNL A   1      35.394  23.738  25.253  1.00  0.00     0.009 A 
ATOM     77  C   UNL A   1      33.819  24.020  23.434  1.00  0.00     0.270 A 
ATOM     78  C   UNL A   1      35.141  23.989  23.901  1.00  0.00     0.086 A 
BRANCH  77  79
ATOM     79  N   UNL A   1      33.548  24.279  22.014  1.00  0.00     0.062 N 
ATOM     80  O   UNL A   1      33.230  25.430  21.690  1.00  0.00    -0.258 OA
ATOM     81  O   UNL A   1      33.654  23.328  21.226  1.00  0.00    -0.258 OA
ENDBRANCH  77  79
ENDBRANCH  70  73
ENDBRANCH  69  70
ENDBRANCH  67  69
ENDBRANCH  60  63
ENDBRANCH  58  59
ENDBRANCH   1  58
TORSDOF 15
ENDMDL
MODEL 3
REMARK VINA RESULT:     -11.3      3.556      8.846
REMARK SMILES O=C(NCCCCNC(=O)c1cccc(OS(=O)(=O)c2cccc([N+](=O)[O-])c2)c1)c1ccc(-c2c3nc(c(-c4ccccc4)c4ccc([nH]4)c(-c4ccccc4)c4nc(c(-c5ccccc5)c5ccc2[nH]5)C=C4)C=C3)cc1
REMARK SMILES IDX 6 1 5 2 4 3 3 4 1 5 2 6 30 8 31 9 77 10 32 11 76 12 33 13
REMARK SMILES IDX 34 14 35 15 70 16 36 17 75 18 69 19 71 20 37 21 74 22 68 23
REMARK SMILES IDX 67 24 38 26 60 27 45 28 59 29 46 30 49 31 58 32 72 33 47 34
REMARK SMILES IDX 48 35 57 37 73 38 50 39 39 40 40 41 44 42 41 43 43 44 42 45
REMARK SMILES IDX 61 46 62 47 66 48 63 49 65 50 64 51 51 52 52 53 56 54 53 55
REMARK SMILES IDX 55 56 54 57 7 58 8 59 9 60 10 62 11 63 12 64 29 65 13 66
REMARK SMILES IDX 15 67 14 68 16 69 17 70 18 71 19 72 20 73 21 74 28 75 22 76
REMARK SMILES IDX 24 77 23 78 25 79 26 80 27 81
REMARK H PARENT 3 7 71 25 49 36 8 61
REMARK Flexibility Score: inf
ROOT
ATOM      1  C   UNL A   1      31.482  30.559  26.149  1.00  0.00     0.023 C 
ENDROOT
BRANCH   1   2
ATOM      2  C   UNL A   1      31.428  32.039  26.515  1.00  0.00     0.023 C 
BRANCH   2   3
ATOM      3  C   UNL A   1      32.684  32.577  27.187  1.00  0.00     0.116 C 
BRANCH   3   4
ATOM      4  N   UNL A   1      32.497  33.912  27.736  1.00  0.00    -0.352 N 
ATOM      5  O   UNL A   1      32.831  35.622  29.172  1.00  0.00    -0.269 OA
ATOM      6  C   UNL A   1      33.228  34.561  28.701  1.00  0.00     0.251 C 
ATOM      7  H   UNL A   1      31.741  34.421  27.362  1.00  0.00     0.163 HD
BRANCH   6   8
ATOM      8  C   UNL A   1      34.490  33.966  29.185  1.00  0.00     0.039 A 
ATOM      9  C   UNL A   1      34.496  33.124  30.301  1.00  0.00     0.014 A 
ATOM     10  C   UNL A   1      35.680  34.239  28.505  1.00  0.00     0.014 A 
ATOM     11  C   UNL A   1      35.702  32.658  30.811  1.00  0.00     0.010 A 
ATOM     12  C   UNL A   1      36.883  33.700  28.969  1.00  0.00     0.010 A 
ATOM     13  C   UNL A   1      36.904  32.917  30.134  1.00  0.00    -0.014 A 
BRANCH  13  14
ATOM     14  C   UNL A   1      38.153  32.265  30.595  1.00  0.00     0.031 A 
ATOM     15  C   UNL A   1      39.045  32.908  31.617  1.00  0.00     0.074 A 
ATOM     16  C   UNL A   1      38.483  31.074  30.057  1.00  0.00     0.049 A 
ATOM     17  N   UNL A   1      40.185  32.478  32.096  1.00  0.00    -0.248 NA
ATOM     18  C   UNL A   1      38.610  34.200  32.171  1.00  0.00     0.031 C 
ATOM     19  C   UNL A   1      37.698  30.358  29.047  1.00  0.00     0.029 A 
ATOM     20  N   UNL A   1      39.558  30.253  30.282  1.00  0.00    -0.354 N 
ATOM     21  C   UNL A   1      40.617  33.453  32.987  1.00  0.00     0.074 A 
ATOM     22  C   UNL A   1      39.622  34.504  32.975  1.00  0.00     0.031 C 
ATOM     23  C   UNL A   1      38.303  29.197  28.759  1.00  0.00     0.029 A 
ATOM     24  C   UNL A   1      39.549  29.118  29.508  1.00  0.00     0.049 A 
ATOM     25  H   UNL A   1      40.267  30.458  30.934  1.00  0.00     0.167 HD
ATOM     26  C   UNL A   1      41.742  33.466  33.740  1.00  0.00     0.031 A 
ATOM     27  C   UNL A   1      40.461  28.137  29.382  1.00  0.00     0.031 A 
ATOM     28  C   UNL A   1      42.723  32.411  33.751  1.00  0.00     0.049 A 
ATOM     29  C   UNL A   1      41.718  28.206  30.196  1.00  0.00     0.074 A 
ATOM     30  C   UNL A   1      43.860  32.301  34.533  1.00  0.00     0.029 A 
ATOM     31  N   UNL A   1      42.692  31.293  32.931  1.00  0.00    -0.354 N 
ATOM     32  N   UNL A   1      42.076  29.100  31.086  1.00  0.00    -0.248 NA
ATOM     33  C   UNL A   1      42.702  27.136  29.984  1.00  0.00     0.031 C 
ATOM     34  C   UNL A   1      44.552  31.152  34.139  1.00  0.00     0.029 A 
ATOM     35  C   UNL A   1      43.816  30.515  33.153  1.00  0.00     0.049 A 
ATOM     36  H   UNL A   1      41.978  31.083  32.287  1.00  0.00     0.167 HD
ATOM     37  C   UNL A   1      43.320  28.695  31.547  1.00  0.00     0.074 A 
ATOM     38  C   UNL A   1      43.642  27.461  30.860  1.00  0.00     0.031 C 
ATOM     39  C   UNL A   1      44.126  29.295  32.455  1.00  0.00     0.031 A 
BRANCH  26  40
ATOM     40  C   UNL A   1      42.006  34.671  34.600  1.00  0.00    -0.014 A 
ATOM     41  C   UNL A   1      41.598  34.720  35.941  1.00  0.00     0.009 A 
ATOM     42  C   UNL A   1      42.758  35.738  34.079  1.00  0.00     0.009 A 
ATOM     43  C   UNL A   1      41.920  35.823  36.737  1.00  0.00     0.001 A 
ATOM     44  C   UNL A   1      43.098  36.826  34.883  1.00  0.00     0.001 A 
ATOM     45  C   UNL A   1      42.676  36.871  36.210  1.00  0.00     0.000 A 
ENDBRANCH  26  40
BRANCH  27  46
ATOM     46  C   UNL A   1      40.238  27.038  28.409  1.00  0.00    -0.014 A 
ATOM     47  C   UNL A   1      39.513  25.893  28.768  1.00  0.00     0.009 A 
ATOM     48  C   UNL A   1      40.755  27.133  27.106  1.00  0.00     0.009 A 
ATOM     49  C   UNL A   1      39.335  24.854  27.851  1.00  0.00     0.001 A 
ATOM     50  C   UNL A   1      40.546  26.108  26.181  1.00  0.00     0.001 A 
ATOM     51  C   UNL A   1      39.847  24.965  26.559  1.00  0.00     0.000 A 
ENDBRANCH  27  46
BRANCH  39  52
ATOM     52  C   UNL A   1      45.430  28.619  32.763  1.00  0.00    -0.014 A 
ATOM     53  C   UNL A   1      45.517  27.636  33.760  1.00  0.00     0.009 A 
ATOM     54  C   UNL A   1      46.575  28.940  32.018  1.00  0.00     0.009 A 
ATOM     55  C   UNL A   1      46.734  27.004  34.024  1.00  0.00     0.001 A 
ATOM     56  C   UNL A   1      47.783  28.287  32.264  1.00  0.00     0.001 A 
ATOM     57  C   UNL A   1      47.863  27.326  33.271  1.00  0.00     0.000 A 
ENDBRANCH  39  52
ENDBRANCH  13  14
ENDBRANCH   6   8
ENDBRANCH   3   4
ENDBRANCH   2   3
ENDBRANCH   1   2
BRANCH   1  58
ATOM     58  C   UNL A   1      32.847  29.900  26.320  1.00  0.00     0.116 C 
BRANCH  58  59
ATOM     59  N   UNL A   1      33.412  29.448  25.054  1.00  0.00    -0.352 N 
ATOM     60  C   UNL A   1      33.148  28.293  24.355  1.00  0.00     0.251 C 
ATOM     61  H   UNL A   1      34.072  30.052  24.643  1.00  0.00     0.163 HD
ATOM     62  O   UNL A   1      33.827  27.979  23.383  1.00  0.00    -0.269 OA
BRANCH  60  63
ATOM     63  C   UNL A   1      32.033  27.429  24.791  1.00  0.00     0.043 A 
ATOM     64  C   UNL A   1      30.830  27.433  24.089  1.00  0.00     0.014 A 
ATOM     65  C   UNL A   1      32.203  26.601  25.904  1.00  0.00     0.062 A 
ATOM     66  C   UNL A   1      29.819  26.547  24.467  1.00  0.00     0.005 A 
ATOM     67  C   UNL A   1      31.221  25.677  26.250  1.00  0.00     0.143 A 
ATOM     68  C   UNL A   1      30.021  25.661  25.534  1.00  0.00     0.048 A 
BRANCH  67  69
ATOM     69  O   UNL A   1      31.356  24.763  27.269  1.00  0.00    -0.379 OA
BRANCH  69  70
ATOM     70  S   UNL A   1      31.773  23.213  26.945  1.00  0.00     0.339 S 
ATOM     71  O   UNL A   1      32.464  22.655  28.089  1.00  0.00    -0.181 OA
ATOM     72  O   UNL A   1      30.620  22.537  26.373  1.00  0.00    -0.181 OA
BRANCH  70  73
ATOM     73  C   UNL A   1      32.974  23.327  25.641  1.00  0.00     0.112 A 
ATOM     74  C   UNL A   1      34.295  23.669  25.941  1.00  0.00     0.024 A 
ATOM     75  C   UNL A   1      32.577  23.053  24.326  1.00  0.00     0.109 A 
ATOM     76  C   UNL A   1      35.234  23.741  24.909  1.00  0.00     0.009 A 
ATOM     77  C   UNL A   1      33.526  23.130  23.303  1.00  0.00     0.270 A 
ATOM     78  C   UNL A   1      34.855  23.474  23.589  1.00  0.00     0.086 A 
BRANCH  77  79
ATOM     79  N   UNL A   1      33.124  22.844  21.919  1.00  0.00     0.062 N 
ATOM     80  O   UNL A   1      32.405  21.856  21.721  1.00  0.00    -0.258 OA
ATOM     81  O   UNL A   1      33.531  23.609  21.034  1.00  0.00    -0.258 OA
ENDBRANCH  77  79
ENDBRANCH  70  73
ENDBRANCH  69  70
ENDBRANCH  67  69
ENDBRANCH  60  63
ENDBRANCH  58  59
ENDBRANCH   1  58
TORSDOF 15
ENDMDL
