MODEL 1
REMARK VINA RESULT:     -10.1      0.000      0.000
REMARK SMILES C[C@]([NH2+]C[C@H](O)C(F)(F)F)(C(=O)NCCCCNC(=O)c1ccc(-c2c3nc(c(-c4ccccc4)c4ccc([nH]4)c(-c4ccccc4)c4nc(c(-c5ccccc5)c5ccc2[nH]5)C=C4)C=C3)cc1)C(F)(F)F
REMARK SMILES IDX 14 1 13 2 11 3 12 4 2 6 1 7 69 8 70 9 71 10 72 11 3 12 4 15
REMARK SMILES IDX 5 16 7 17 8 18 9 19 10 20 6 21 15 23 16 24 17 25 18 26 19 27
REMARK SMILES IDX 20 29 21 30 22 31 68 32 23 33 67 34 24 35 25 36 26 37 61 38
REMARK SMILES IDX 27 39 66 40 60 41 62 42 28 43 65 44 59 45 58 46 29 48 51 49
REMARK SMILES IDX 36 50 50 51 37 52 40 53 49 54 63 55 38 56 39 57 48 59 64 60
REMARK SMILES IDX 41 61 30 62 31 63 35 64 32 65 34 66 33 67 52 68 53 69 57 70
REMARK SMILES IDX 54 71 56 72 55 73 42 74 43 75 47 76 44 77 46 78 45 79
REMARK H PARENT 13 5 3 13 3 14 6 22 18 28 62 47 40 58
REMARK Flexibility Score: inf
ROOT
ATOM      1  C   UNL A   1      35.578  22.624  23.606  1.00  0.00     0.116 C 
ENDROOT
BRANCH   1   2
ATOM      2  N   UNL A   1      34.958  23.262  24.753  1.00  0.00    -0.350 N 
ATOM      3  C   UNL A   1      33.682  23.218  25.253  1.00  0.00     0.290 C 
ATOM      4  O   UNL A   1      33.484  23.907  26.255  1.00  0.00    -0.267 OA
ATOM      5  H   UNL A   1      35.570  23.834  25.271  1.00  0.00     0.163 HD
BRANCH   3   6
ATOM      6  C   UNL A   1      32.593  22.324  24.607  1.00  0.00     0.268 C 
ATOM      7  C   UNL A   1      31.383  22.282  25.567  1.00  0.00     0.101 C 
BRANCH   6   8
ATOM      8  C   UNL A   1      32.122  23.069  23.320  1.00  0.00     0.453 C 
ATOM      9  F   UNL A   1      30.785  23.011  23.135  1.00  0.00    -0.164 F 
ATOM     10  F   UNL A   1      32.442  24.391  23.410  1.00  0.00    -0.164 F 
ATOM     11  F   UNL A   1      32.729  22.616  22.199  1.00  0.00    -0.164 F 
ENDBRANCH   6   8
BRANCH   6  12
ATOM     12  N   UNL A   1      33.205  20.985  24.266  1.00  0.00    -0.324 N 
ATOM     13  H   UNL A   1      34.109  21.161  23.830  1.00  0.00     0.347 HD
ATOM     14  H   UNL A   1      32.522  20.523  23.663  1.00  0.00     0.347 HD
BRANCH  12  15
ATOM     15  C   UNL A   1      33.420  20.061  25.375  1.00  0.00     0.303 C 
BRANCH  15  16
ATOM     16  C   UNL A   1      32.835  18.646  25.172  1.00  0.00     0.275 C 
BRANCH  16  17
ATOM     17  C   UNL A   1      33.765  17.752  24.349  1.00  0.00     0.419 C 
ATOM     18  F   UNL A   1      33.830  16.500  24.849  1.00  0.00    -0.168 F 
ATOM     19  F   UNL A   1      33.371  17.657  23.061  1.00  0.00    -0.168 F 
ATOM     20  F   UNL A   1      35.025  18.253  24.351  1.00  0.00    -0.168 F 
ENDBRANCH  16  17
BRANCH  16  21
ATOM     21  O   UNL A   1      32.570  18.091  26.482  1.00  0.00    -0.379 OA
ATOM     22  H   UNL A   1      31.977  17.328  26.395  1.00  0.00     0.211 HD
ENDBRANCH  16  21
ENDBRANCH  15  16
ENDBRANCH  12  15
ENDBRANCH   6  12
ENDBRANCH   3   6
ENDBRANCH   1   2
BRANCH   1  23
ATOM     23  C   UNL A   1      37.037  22.273  23.886  1.00  0.00     0.023 C 
BRANCH  23  24
ATOM     24  C   UNL A   1      37.254  20.953  24.622  1.00  0.00     0.023 C 
BRANCH  24  25
ATOM     25  C   UNL A   1      38.325  20.981  25.704  1.00  0.00     0.116 C 
BRANCH  25  26
ATOM     26  N   UNL A   1      39.256  19.866  25.627  1.00  0.00    -0.352 N 
ATOM     27  C   UNL A   1      40.586  19.837  25.976  1.00  0.00     0.251 C 
ATOM     28  H   UNL A   1      38.886  19.023  25.281  1.00  0.00     0.163 HD
ATOM     29  O   UNL A   1      41.264  18.836  25.763  1.00  0.00    -0.269 OA
BRANCH  27  30
ATOM     30  C   UNL A   1      41.202  21.039  26.573  1.00  0.00     0.039 A 
ATOM     31  C   UNL A   1      41.814  21.969  25.731  1.00  0.00     0.014 A 
ATOM     32  C   UNL A   1      41.128  21.267  27.949  1.00  0.00     0.014 A 
ATOM     33  C   UNL A   1      42.286  23.170  26.262  1.00  0.00     0.010 A 
ATOM     34  C   UNL A   1      41.533  22.493  28.464  1.00  0.00     0.010 A 
ATOM     35  C   UNL A   1      42.113  23.457  27.625  1.00  0.00    -0.014 A 
BRANCH  35  36
ATOM     36  C   UNL A   1      42.524  24.763  28.195  1.00  0.00     0.031 A 
ATOM     37  C   UNL A   1      41.508  25.852  28.397  1.00  0.00     0.074 A 
ATOM     38  C   UNL A   1      43.824  24.996  28.460  1.00  0.00     0.049 A 
ATOM     39  N   UNL A   1      41.686  27.080  28.810  1.00  0.00    -0.248 NA
ATOM     40  C   UNL A   1      40.112  25.524  28.063  1.00  0.00     0.031 C 
ATOM     41  C   UNL A   1      44.916  24.038  28.265  1.00  0.00     0.029 A 
ATOM     42  N   UNL A   1      44.449  26.117  28.944  1.00  0.00    -0.354 N 
ATOM     43  C   UNL A   1      40.432  27.676  28.770  1.00  0.00     0.074 A 
ATOM     44  C   UNL A   1      39.511  26.690  28.246  1.00  0.00     0.031 C 
ATOM     45  C   UNL A   1      46.072  24.606  28.647  1.00  0.00     0.029 A 
ATOM     46  C   UNL A   1      45.809  25.976  29.079  1.00  0.00     0.049 A 
ATOM     47  H   UNL A   1      43.969  26.945  29.174  1.00  0.00     0.167 HD
ATOM     48  C   UNL A   1      40.073  28.923  29.154  1.00  0.00     0.031 A 
ATOM     49  C   UNL A   1      46.742  26.852  29.497  1.00  0.00     0.031 A 
ATOM     50  C   UNL A   1      40.984  29.899  29.689  1.00  0.00     0.049 A 
ATOM     51  C   UNL A   1      46.317  28.231  29.920  1.00  0.00     0.074 A 
ATOM     52  C   UNL A   1      40.707  31.172  30.156  1.00  0.00     0.029 A 
ATOM     53  N   UNL A   1      42.349  29.709  29.829  1.00  0.00    -0.354 N 
ATOM     54  N   UNL A   1      45.117  28.757  29.934  1.00  0.00    -0.248 NA
ATOM     55  C   UNL A   1      47.378  29.132  30.394  1.00  0.00     0.031 C 
ATOM     56  C   UNL A   1      41.912  31.768  30.542  1.00  0.00     0.029 A 
ATOM     57  C   UNL A   1      42.932  30.847  30.359  1.00  0.00     0.049 A 
ATOM     58  H   UNL A   1      42.833  28.886  29.586  1.00  0.00     0.167 HD
ATOM     59  C   UNL A   1      45.273  30.040  30.443  1.00  0.00     0.074 A 
ATOM     60  C   UNL A   1      46.682  30.206  30.736  1.00  0.00     0.031 C 
ATOM     61  C   UNL A   1      44.334  30.995  30.646  1.00  0.00     0.031 A 
BRANCH  48  62
ATOM     62  C   UNL A   1      38.626  29.299  29.005  1.00  0.00    -0.014 A 
ATOM     63  C   UNL A   1      38.111  29.721  27.768  1.00  0.00     0.009 A 
ATOM     64  C   UNL A   1      37.760  29.206  30.105  1.00  0.00     0.009 A 
ATOM     65  C   UNL A   1      36.767  30.080  27.647  1.00  0.00     0.001 A 
ATOM     66  C   UNL A   1      36.411  29.539  29.974  1.00  0.00     0.001 A 
ATOM     67  C   UNL A   1      35.918  29.984  28.749  1.00  0.00     0.000 A 
ENDBRANCH  48  62
BRANCH  49  68
ATOM     68  C   UNL A   1      48.169  26.446  29.557  1.00  0.00    -0.014 A 
ATOM     69  C   UNL A   1      49.020  26.679  28.467  1.00  0.00     0.009 A 
ATOM     70  C   UNL A   1      48.687  25.820  30.702  1.00  0.00     0.009 A 
ATOM     71  C   UNL A   1      50.355  26.270  28.511  1.00  0.00     0.001 A 
ATOM     72  C   UNL A   1      50.027  25.436  30.753  1.00  0.00     0.001 A 
ATOM     73  C   UNL A   1      50.858  25.652  29.655  1.00  0.00     0.000 A 
ENDBRANCH  49  68
BRANCH  61  74
ATOM     74  C   UNL A   1      44.795  32.292  31.245  1.00  0.00    -0.014 A 
ATOM     75  C   UNL A   1      45.190  33.368  30.435  1.00  0.00     0.009 A 
ATOM     76  C   UNL A   1      44.793  32.452  32.640  1.00  0.00     0.009 A 
ATOM     77  C   UNL A   1      45.605  34.569  31.013  1.00  0.00     0.001 A 
ATOM     78  C   UNL A   1      45.183  33.663  33.213  1.00  0.00     0.001 A 
ATOM     79  C   UNL A   1      45.596  34.717  32.401  1.00  0.00     0.000 A 
ENDBRANCH  61  74
ENDBRANCH  35  36
ENDBRANCH  27  30
ENDBRANCH  25  26
ENDBRANCH  24  25
ENDBRANCH  23  24
ENDBRANCH   1  23
TORSDOF 17
ENDMDL
MODEL 2
REMARK VINA RESULT:     -10.0      5.573     10.339
REMARK SMILES C[C@]([NH2+]C[C@H](O)C(F)(F)F)(C(=O)NCCCCNC(=O)c1ccc(-c2c3nc(c(-c4ccccc4)c4ccc([nH]4)c(-c4ccccc4)c4nc(c(-c5ccccc5)c5ccc2[nH]5)C=C4)C=C3)cc1)C(F)(F)F
REMARK SMILES IDX 14 1 13 2 11 3 12 4 2 6 1 7 69 8 70 9 71 10 72 11 3 12 4 15
REMARK SMILES IDX 5 16 7 17 8 18 9 19 10 20 6 21 15 23 16 24 17 25 18 26 19 27
REMARK SMILES IDX 20 29 21 30 22 31 68 32 23 33 67 34 24 35 25 36 26 37 61 38
REMARK SMILES IDX 27 39 66 40 60 41 62 42 28 43 65 44 59 45 58 46 29 48 51 49
REMARK SMILES IDX 36 50 50 51 37 52 40 53 49 54 63 55 38 56 39 57 48 59 64 60
REMARK SMILES IDX 41 61 30 62 31 63 35 64 32 65 34 66 33 67 52 68 53 69 57 70
REMARK SMILES IDX 54 71 56 72 55 73 42 74 43 75 47 76 44 77 46 78 45 79
REMARK H PARENT 13 5 3 13 3 14 6 22 18 28 62 47 40 58
REMARK Flexibility Score: inf
ROOT
ATOM      1  C   UNL A   1      31.418  29.732  25.684  1.00  0.00     0.116 C 
ENDROOT
BRANCH   1   2
ATOM      2  N   UNL A   1      32.326  29.572  24.562  1.00  0.00    -0.350 N 
ATOM      3  C   UNL A   1      32.339  28.698  23.506  1.00  0.00     0.290 C 
ATOM      4  O   UNL A   1      33.283  28.829  22.725  1.00  0.00    -0.267 OA
ATOM      5  H   UNL A   1      33.073  30.213  24.560  1.00  0.00     0.163 HD
BRANCH   3   6
ATOM      6  C   UNL A   1      31.211  27.654  23.307  1.00  0.00     0.268 C 
ATOM      7  C   UNL A   1      31.481  26.910  21.981  1.00  0.00     0.101 C 
BRANCH   6   8
ATOM      8  C   UNL A   1      31.376  26.610  24.454  1.00  0.00     0.453 C 
ATOM      9  F   UNL A   1      31.210  25.335  24.035  1.00  0.00    -0.164 F 
ATOM     10  F   UNL A   1      32.635  26.686  24.969  1.00  0.00    -0.164 F 
ATOM     11  F   UNL A   1      30.536  26.831  25.491  1.00  0.00    -0.164 F 
ENDBRANCH   6   8
BRANCH   6  12
ATOM     12  N   UNL A   1      29.877  28.359  23.402  1.00  0.00    -0.324 N 
ATOM     13  H   UNL A   1      29.829  28.808  24.317  1.00  0.00     0.347 HD
ATOM     14  H   UNL A   1      29.177  27.632  23.247  1.00  0.00     0.347 HD
BRANCH  12  15
ATOM     15  C   UNL A   1      29.600  29.378  22.395  1.00  0.00     0.303 C 
BRANCH  15  16
ATOM     16  C   UNL A   1      28.161  29.939  22.409  1.00  0.00     0.275 C 
BRANCH  16  17
ATOM     17  C   UNL A   1      28.070  31.269  23.162  1.00  0.00     0.419 C 
ATOM     18  F   UNL A   1      27.970  32.317  22.317  1.00  0.00    -0.168 F 
ATOM     19  F   UNL A   1      27.007  31.311  23.992  1.00  0.00    -0.168 F 
ATOM     20  F   UNL A   1      29.181  31.463  23.915  1.00  0.00    -0.168 F 
ENDBRANCH  16  17
BRANCH  16  21
ATOM     21  O   UNL A   1      27.728  30.065  21.034  1.00  0.00    -0.379 OA
ATOM     22  H   UNL A   1      27.764  29.196  20.603  1.00  0.00     0.211 HD
ENDBRANCH  16  21
ENDBRANCH  15  16
ENDBRANCH  12  15
ENDBRANCH   6  12
ENDBRANCH   3   6
ENDBRANCH   1   2
BRANCH   1  23
ATOM     23  C   UNL A   1      32.086  30.475  26.838  1.00  0.00     0.023 C 
BRANCH  23  24
ATOM     24  C   UNL A   1      31.729  31.955  26.945  1.00  0.00     0.023 C 
BRANCH  24  25
ATOM     25  C   UNL A   1      32.890  32.879  27.286  1.00  0.00     0.116 C 
BRANCH  25  26
ATOM     26  N   UNL A   1      32.472  34.223  27.659  1.00  0.00    -0.352 N 
ATOM     27  C   UNL A   1      33.007  35.050  28.618  1.00  0.00     0.251 C 
ATOM     28  H   UNL A   1      31.707  34.586  27.159  1.00  0.00     0.163 HD
ATOM     29  O   UNL A   1      32.478  36.126  28.878  1.00  0.00    -0.269 OA
BRANCH  27  30
ATOM     30  C   UNL A   1      34.203  34.610  29.364  1.00  0.00     0.039 A 
ATOM     31  C   UNL A   1      34.051  34.170  30.681  1.00  0.00     0.014 A 
ATOM     32  C   UNL A   1      35.457  34.585  28.748  1.00  0.00     0.014 A 
ATOM     33  C   UNL A   1      35.146  33.630  31.356  1.00  0.00     0.010 A 
ATOM     34  C   UNL A   1      36.528  33.983  29.396  1.00  0.00     0.010 A 
ATOM     35  C   UNL A   1      36.383  33.496  30.704  1.00  0.00    -0.014 A 
BRANCH  35  36
ATOM     36  C   UNL A   1      37.537  32.844  31.370  1.00  0.00     0.031 A 
ATOM     37  C   UNL A   1      38.195  31.650  30.738  1.00  0.00     0.074 A 
ATOM     38  C   UNL A   1      37.943  33.278  32.578  1.00  0.00     0.049 A 
ATOM     39  N   UNL A   1      39.164  30.901  31.199  1.00  0.00    -0.248 NA
ATOM     40  C   UNL A   1      37.678  31.225  29.427  1.00  0.00     0.031 C 
ATOM     41  C   UNL A   1      37.358  34.398  33.320  1.00  0.00     0.029 A 
ATOM     42  N   UNL A   1      38.942  32.823  33.400  1.00  0.00    -0.354 N 
ATOM     43  C   UNL A   1      39.359  29.910  30.247  1.00  0.00     0.074 A 
ATOM     44  C   UNL A   1      38.378  30.122  29.206  1.00  0.00     0.031 C 
ATOM     45  C   UNL A   1      38.023  34.555  34.476  1.00  0.00     0.029 A 
ATOM     46  C   UNL A   1      39.056  33.527  34.573  1.00  0.00     0.049 A 
ATOM     47  H   UNL A   1      39.524  32.062  33.171  1.00  0.00     0.167 HD
ATOM     48  C   UNL A   1      40.287  28.924  30.229  1.00  0.00     0.031 A 
ATOM     49  C   UNL A   1      39.893  33.363  35.615  1.00  0.00     0.031 A 
ATOM     50  C   UNL A   1      41.272  28.720  31.255  1.00  0.00     0.049 A 
ATOM     51  C   UNL A   1      40.914  32.260  35.570  1.00  0.00     0.074 A 
ATOM     52  C   UNL A   1      42.288  27.780  31.301  1.00  0.00     0.029 A 
ATOM     53  N   UNL A   1      41.367  29.469  32.417  1.00  0.00    -0.354 N 
ATOM     54  N   UNL A   1      41.126  31.370  34.632  1.00  0.00    -0.248 NA
ATOM     55  C   UNL A   1      41.817  32.150  36.724  1.00  0.00     0.031 C 
ATOM     56  C   UNL A   1      42.973  27.936  32.511  1.00  0.00     0.029 A 
ATOM     57  C   UNL A   1      42.413  29.003  33.195  1.00  0.00     0.049 A 
ATOM     58  H   UNL A   1      40.776  30.221  32.653  1.00  0.00     0.167 HD
ATOM     59  C   UNL A   1      42.203  30.610  35.069  1.00  0.00     0.074 A 
ATOM     60  C   UNL A   1      42.607  31.154  36.349  1.00  0.00     0.031 C 
ATOM     61  C   UNL A   1      42.802  29.555  34.465  1.00  0.00     0.031 A 
BRANCH  48  62
ATOM     62  C   UNL A   1      40.271  27.988  29.053  1.00  0.00    -0.014 A 
ATOM     63  C   UNL A   1      40.972  28.292  27.876  1.00  0.00     0.009 A 
ATOM     64  C   UNL A   1      39.568  26.775  29.132  1.00  0.00     0.009 A 
ATOM     65  C   UNL A   1      40.938  27.419  26.786  1.00  0.00     0.001 A 
ATOM     66  C   UNL A   1      39.559  25.892  28.051  1.00  0.00     0.001 A 
ATOM     67  C   UNL A   1      40.235  26.218  26.877  1.00  0.00     0.000 A 
ENDBRANCH  48  62
BRANCH  49  68
ATOM     68  C   UNL A   1      39.815  34.276  36.783  1.00  0.00    -0.014 A 
ATOM     69  C   UNL A   1      39.040  33.935  37.902  1.00  0.00     0.009 A 
ATOM     70  C   UNL A   1      40.510  35.496  36.784  1.00  0.00     0.009 A 
ATOM     71  C   UNL A   1      38.942  34.808  38.988  1.00  0.00     0.001 A 
ATOM     72  C   UNL A   1      40.430  36.355  37.882  1.00  0.00     0.001 A 
ATOM     73  C   UNL A   1      39.640  36.015  38.978  1.00  0.00     0.000 A 
ENDBRANCH  49  68
BRANCH  61  74
ATOM     74  C   UNL A   1      43.979  28.943  35.166  1.00  0.00    -0.014 A 
ATOM     75  C   UNL A   1      45.287  29.390  34.920  1.00  0.00     0.009 A 
ATOM     76  C   UNL A   1      43.772  27.931  36.117  1.00  0.00     0.009 A 
ATOM     77  C   UNL A   1      46.366  28.814  35.591  1.00  0.00     0.001 A 
ATOM     78  C   UNL A   1      44.851  27.376  36.806  1.00  0.00     0.001 A 
ATOM     79  C   UNL A   1      46.147  27.811  36.536  1.00  0.00     0.000 A 
ENDBRANCH  61  74
ENDBRANCH  35  36
ENDBRANCH  27  30
ENDBRANCH  25  26
ENDBRANCH  24  25
ENDBRANCH  23  24
ENDBRANCH   1  23
TORSDOF 17
ENDMDL
MODEL 3
REMARK VINA RESULT:     -10.0      5.335      9.868
REMARK SMILES C[C@]([NH2+]C[C@H](O)C(F)(F)F)(C(=O)NCCCCNC(=O)c1ccc(-c2c3nc(c(-c4ccccc4)c4ccc([nH]4)c(-c4ccccc4)c4nc(c(-c5ccccc5)c5ccc2[nH]5)C=C4)C=C3)cc1)C(F)(F)F
REMARK SMILES IDX 14 1 13 2 11 3 12 4 2 6 1 7 69 8 70 9 71 10 72 11 3 12 4 15
REMARK SMILES IDX 5 16 7 17 8 18 9 19 10 20 6 21 15 23 16 24 17 25 18 26 19 27
REMARK SMILES IDX 20 29 21 30 22 31 68 32 23 33 67 34 24 35 25 36 26 37 61 38
REMARK SMILES IDX 27 39 66 40 60 41 62 42 28 43 65 44 59 45 58 46 29 48 51 49
REMARK SMILES IDX 36 50 50 51 37 52 40 53 49 54 63 55 38 56 39 57 48 59 64 60
REMARK SMILES IDX 41 61 30 62 31 63 35 64 32 65 34 66 33 67 52 68 53 69 57 70
REMARK SMILES IDX 54 71 56 72 55 73 42 74 43 75 47 76 44 77 46 78 45 79
REMARK H PARENT 13 5 3 13 3 14 6 22 18 28 62 47 40 58
REMARK Flexibility Score: inf
ROOT
ATOM      1  C   UNL A   1      31.370  29.719  25.662  1.00  0.00     0.116 C 
ENDROOT
BRANCH   1   2
ATOM      2  N   UNL A   1      32.283  29.537  24.548  1.00  0.00    -0.350 N 
ATOM      3  C   UNL A   1      32.288  28.656  23.497  1.00  0.00     0.290 C 
ATOM      4  O   UNL A   1      33.240  28.766  22.722  1.00  0.00    -0.267 OA
ATOM      5  H   UNL A   1      33.041  30.164  24.548  1.00  0.00     0.163 HD
BRANCH   3   6
ATOM      6  C   UNL A   1      31.143  27.632  23.296  1.00  0.00     0.268 C 
ATOM      7  C   UNL A   1      31.400  26.887  21.967  1.00  0.00     0.101 C 
BRANCH   6   8
ATOM      8  C   UNL A   1      31.292  26.580  24.438  1.00  0.00     0.453 C 
ATOM      9  F   UNL A   1      31.077  25.313  24.021  1.00  0.00    -0.164 F 
ATOM     10  F   UNL A   1      32.562  26.614  24.933  1.00  0.00    -0.164 F 
ATOM     11  F   UNL A   1      30.477  26.828  25.490  1.00  0.00    -0.164 F 
ENDBRANCH   6   8
BRANCH   6  12
ATOM     12  N   UNL A   1      29.821  28.358  23.395  1.00  0.00    -0.324 N 
ATOM     13  H   UNL A   1      29.775  28.792  24.316  1.00  0.00     0.347 HD
ATOM     14  H   UNL A   1      29.110  27.645  23.223  1.00  0.00     0.347 HD
BRANCH  12  15
ATOM     15  C   UNL A   1      29.567  29.397  22.402  1.00  0.00     0.303 C 
BRANCH  15  16
ATOM     16  C   UNL A   1      28.151  30.011  22.444  1.00  0.00     0.275 C 
BRANCH  16  17
ATOM     17  C   UNL A   1      28.136  31.377  23.132  1.00  0.00     0.419 C 
ATOM     18  F   UNL A   1      26.992  31.580  23.821  1.00  0.00    -0.168 F 
ATOM     19  F   UNL A   1      29.163  31.524  23.995  1.00  0.00    -0.168 F 
ATOM     20  F   UNL A   1      28.234  32.370  22.213  1.00  0.00    -0.168 F 
ENDBRANCH  16  17
BRANCH  16  21
ATOM     21  O   UNL A   1      27.668  30.086  21.081  1.00  0.00    -0.379 OA
ATOM     22  H   UNL A   1      27.108  29.315  20.894  1.00  0.00     0.211 HD
ENDBRANCH  16  21
ENDBRANCH  15  16
ENDBRANCH  12  15
ENDBRANCH   6  12
ENDBRANCH   3   6
ENDBRANCH   1   2
BRANCH   1  23
ATOM     23  C   UNL A   1      32.034  30.478  26.807  1.00  0.00     0.023 C 
BRANCH  23  24
ATOM     24  C   UNL A   1      31.696  31.965  26.879  1.00  0.00     0.023 C 
BRANCH  24  25
ATOM     25  C   UNL A   1      32.877  32.887  27.148  1.00  0.00     0.116 C 
BRANCH  25  26
ATOM     26  N   UNL A   1      32.487  34.203  27.630  1.00  0.00    -0.352 N 
ATOM     27  C   UNL A   1      33.036  34.937  28.655  1.00  0.00     0.251 C 
ATOM     28  H   UNL A   1      31.731  34.623  27.161  1.00  0.00     0.163 HD
ATOM     29  O   UNL A   1      32.529  35.998  29.003  1.00  0.00    -0.269 OA
BRANCH  27  30
ATOM     30  C   UNL A   1      34.220  34.410  29.364  1.00  0.00     0.039 A 
ATOM     31  C   UNL A   1      34.033  33.703  30.553  1.00  0.00     0.014 A 
ATOM     32  C   UNL A   1      35.500  34.573  28.828  1.00  0.00     0.014 A 
ATOM     33  C   UNL A   1      35.126  33.089  31.167  1.00  0.00     0.010 A 
ATOM     34  C   UNL A   1      36.574  33.903  29.401  1.00  0.00     0.010 A 
ATOM     35  C   UNL A   1      36.397  33.151  30.573  1.00  0.00    -0.014 A 
BRANCH  35  36
ATOM     36  C   UNL A   1      37.555  32.432  31.158  1.00  0.00     0.031 A 
ATOM     37  C   UNL A   1      38.185  32.927  32.428  1.00  0.00     0.074 A 
ATOM     38  C   UNL A   1      38.087  31.381  30.505  1.00  0.00     0.049 A 
ATOM     39  N   UNL A   1      39.246  32.481  33.052  1.00  0.00    -0.248 NA
ATOM     40  C   UNL A   1      37.557  34.094  33.069  1.00  0.00     0.031 C 
ATOM     41  C   UNL A   1      37.597  30.830  29.238  1.00  0.00     0.029 A 
ATOM     42  N   UNL A   1      39.165  30.591  30.815  1.00  0.00    -0.354 N 
ATOM     43  C   UNL A   1      39.421  33.321  34.144  1.00  0.00     0.074 A 
ATOM     44  C   UNL A   1      38.389  34.332  34.072  1.00  0.00     0.031 C 
ATOM     45  C   UNL A   1      38.359  29.779  28.892  1.00  0.00     0.029 A 
ATOM     46  C   UNL A   1      39.409  29.604  29.891  1.00  0.00     0.049 A 
ATOM     47  H   UNL A   1      39.712  30.718  31.624  1.00  0.00     0.167 HD
ATOM     48  C   UNL A   1      40.345  33.246  35.131  1.00  0.00     0.031 A 
ATOM     49  C   UNL A   1      40.375  28.667  29.848  1.00  0.00     0.031 A 
ATOM     50  C   UNL A   1      41.363  32.233  35.212  1.00  0.00     0.049 A 
ATOM     51  C   UNL A   1      41.388  28.604  30.957  1.00  0.00     0.074 A 
ATOM     52  C   UNL A   1      42.312  32.042  36.202  1.00  0.00     0.029 A 
ATOM     53  N   UNL A   1      41.563  31.239  34.268  1.00  0.00    -0.354 N 
ATOM     54  N   UNL A   1      41.501  29.368  32.015  1.00  0.00    -0.248 NA
ATOM     55  C   UNL A   1      42.399  27.541  30.867  1.00  0.00     0.031 C 
ATOM     56  C   UNL A   1      43.112  30.955  35.835  1.00  0.00     0.029 A 
ATOM     57  C   UNL A   1      42.630  30.442  34.641  1.00  0.00     0.049 A 
ATOM     58  H   UNL A   1      41.025  31.120  33.451  1.00  0.00     0.167 HD
ATOM     59  C   UNL A   1      42.579  28.863  32.732  1.00  0.00     0.074 A 
ATOM     60  C   UNL A   1      43.074  27.720  31.994  1.00  0.00     0.031 C 
ATOM     61  C   UNL A   1      43.110  29.308  33.896  1.00  0.00     0.031 A 
BRANCH  48  62
ATOM     62  C   UNL A   1      40.292  34.297  36.203  1.00  0.00    -0.014 A 
ATOM     63  C   UNL A   1      39.503  34.121  37.351  1.00  0.00     0.009 A 
ATOM     64  C   UNL A   1      41.058  35.466  36.077  1.00  0.00     0.009 A 
ATOM     65  C   UNL A   1      39.454  35.113  38.334  1.00  0.00     0.001 A 
ATOM     66  C   UNL A   1      41.028  36.443  37.074  1.00  0.00     0.001 A 
ATOM     67  C   UNL A   1      40.219  36.270  38.195  1.00  0.00     0.000 A 
ENDBRANCH  48  62
BRANCH  49  68
ATOM     68  C   UNL A   1      40.419  27.696  28.725  1.00  0.00    -0.014 A 
ATOM     69  C   UNL A   1      41.157  27.984  27.567  1.00  0.00     0.009 A 
ATOM     70  C   UNL A   1      39.721  26.481  28.801  1.00  0.00     0.009 A 
ATOM     71  C   UNL A   1      41.174  27.085  26.498  1.00  0.00     0.001 A 
ATOM     72  C   UNL A   1      39.760  25.574  27.742  1.00  0.00     0.001 A 
ATOM     73  C   UNL A   1      40.479  25.880  26.588  1.00  0.00     0.000 A 
ENDBRANCH  49  68
BRANCH  61  74
ATOM     74  C   UNL A   1      44.267  28.536  34.460  1.00  0.00    -0.014 A 
ATOM     75  C   UNL A   1      45.592  28.871  34.140  1.00  0.00     0.009 A 
ATOM     76  C   UNL A   1      44.027  27.483  35.358  1.00  0.00     0.009 A 
ATOM     77  C   UNL A   1      46.653  28.146  34.685  1.00  0.00     0.001 A 
ATOM     78  C   UNL A   1      45.092  26.778  35.921  1.00  0.00     0.001 A 
ATOM     79  C   UNL A   1      46.402  27.104  35.578  1.00  0.00     0.000 A 
ENDBRANCH  61  74
ENDBRANCH  35  36
ENDBRANCH  27  30
ENDBRANCH  25  26
ENDBRANCH  24  25
ENDBRANCH  23  24
ENDBRANCH   1  23
TORSDOF 17
ENDMDL
