MODEL 1
REMARK VINA RESULT:      -8.5      0.000      0.000
REMARK SMILES [NH3+]C[C@@H]([NH3+])c1ccccc1OCC(=O)NCCCCNC(=O)c1ccc(-c2c3nc(c(-c4ccccc4)c4ccc([nH]4)c(-c4ccccc4)c4nc(c(-c5ccccc5)c5ccc2[nH]5)C=C4)C=C3)cc1
REMARK SMILES IDX 16 1 15 2 13 3 14 4 12 6 11 7 10 8 5 9 6 10 7 11 9 12 8 13
REMARK SMILES IDX 3 14 2 15 1 16 4 20 17 24 18 25 19 26 20 27 21 28 22 30
REMARK SMILES IDX 23 31 24 32 70 33 25 34 69 35 26 36 27 37 28 38 63 39 29 40
REMARK SMILES IDX 68 41 62 42 64 43 30 44 67 45 61 46 60 47 31 49 53 50 38 51
REMARK SMILES IDX 52 52 39 53 42 54 51 55 65 56 40 57 41 58 50 60 66 61 43 62
REMARK SMILES IDX 32 63 33 64 37 65 34 66 36 67 35 68 54 69 55 70 59 71 56 72
REMARK SMILES IDX 58 73 57 74 44 75 45 76 49 77 46 78 48 79 47 80
REMARK H PARENT 15 5 1 17 1 18 1 19 4 21 4 22 4 23 20 29 64 48 42 59
REMARK Flexibility Score: inf
ROOT
ATOM      1  C   UNL A   1      45.859  21.237  25.269  1.00  0.00     0.116 C 
ENDROOT
BRANCH   1   2
ATOM      2  N   UNL A   1      46.339  22.165  24.277  1.00  0.00    -0.353 N 
ATOM      3  C   UNL A   1      46.347  23.517  24.357  1.00  0.00     0.257 C 
ATOM      4  O   UNL A   1      47.205  24.107  23.694  1.00  0.00    -0.271 OA
ATOM      5  H   UNL A   1      46.701  21.772  23.449  1.00  0.00     0.163 HD
BRANCH   3   6
ATOM      6  C   UNL A   1      45.390  24.273  25.310  1.00  0.00     0.329 C 
BRANCH   6   7
ATOM      7  O   UNL A   1      45.402  25.610  25.766  1.00  0.00    -0.483 OA
BRANCH   7   8
ATOM      8  C   UNL A   1      44.387  26.494  25.533  1.00  0.00     0.129 A 
ATOM      9  C   UNL A   1      44.346  27.808  26.052  1.00  0.00     0.057 A 
ATOM     10  C   UNL A   1      43.082  28.460  26.046  1.00  0.00     0.014 A 
ATOM     11  C   UNL A   1      41.909  27.841  25.618  1.00  0.00     0.001 A 
ATOM     12  C   UNL A   1      43.192  25.882  25.092  1.00  0.00     0.047 A 
ATOM     13  C   UNL A   1      41.961  26.545  25.140  1.00  0.00     0.004 A 
BRANCH   9  14
ATOM     14  C   UNL A   1      45.495  28.503  26.792  1.00  0.00     0.271 C 
BRANCH  14  15
ATOM     15  C   UNL A   1      46.737  28.877  25.947  1.00  0.00     0.329 C 
BRANCH  15  16
ATOM     16  N   UNL A   1      47.515  27.711  25.460  1.00  0.00    -0.352 N 
ATOM     17  H   UNL A   1      47.815  27.880  24.499  1.00  0.00     0.344 HD
ATOM     18  H   UNL A   1      46.931  26.876  25.492  1.00  0.00     0.344 HD
ATOM     19  H   UNL A   1      48.334  27.577  26.053  1.00  0.00     0.344 HD
ENDBRANCH  15  16
ENDBRANCH  14  15
BRANCH  14  20
ATOM     20  N   UNL A   1      45.077  29.759  27.467  1.00  0.00    -0.347 N 
ATOM     21  H   UNL A   1      44.408  30.255  26.878  1.00  0.00     0.345 HD
ATOM     22  H   UNL A   1      45.895  30.349  27.623  1.00  0.00     0.345 HD
ATOM     23  H   UNL A   1      44.642  29.536  28.362  1.00  0.00     0.345 HD
ENDBRANCH  14  20
ENDBRANCH   9  14
ENDBRANCH   7   8
ENDBRANCH   6   7
ENDBRANCH   3   6
ENDBRANCH   1   2
BRANCH   1  24
ATOM     24  C   UNL A   1      44.515  20.622  24.911  1.00  0.00     0.023 C 
BRANCH  24  25
ATOM     25  C   UNL A   1      44.349  19.132  25.211  1.00  0.00     0.023 C 
BRANCH  25  26
ATOM     26  C   UNL A   1      43.410  18.764  26.353  1.00  0.00     0.116 C 
BRANCH  26  27
ATOM     27  N   UNL A   1      42.025  18.613  25.944  1.00  0.00    -0.352 N 
ATOM     28  C   UNL A   1      40.970  19.492  26.055  1.00  0.00     0.251 C 
ATOM     29  H   UNL A   1      41.806  17.751  25.522  1.00  0.00     0.163 HD
ATOM     30  O   UNL A   1      39.852  19.149  25.720  1.00  0.00    -0.269 OA
BRANCH  28  31
ATOM     31  C   UNL A   1      41.196  20.839  26.625  1.00  0.00     0.039 A 
ATOM     32  C   UNL A   1      41.135  20.988  28.012  1.00  0.00     0.014 A 
ATOM     33  C   UNL A   1      41.479  21.938  25.811  1.00  0.00     0.014 A 
ATOM     34  C   UNL A   1      41.432  22.223  28.590  1.00  0.00     0.010 A 
ATOM     35  C   UNL A   1      41.849  23.149  26.391  1.00  0.00     0.010 A 
ATOM     36  C   UNL A   1      41.833  23.302  27.785  1.00  0.00    -0.014 A 
BRANCH  36  37
ATOM     37  C   UNL A   1      42.251  24.592  28.390  1.00  0.00     0.031 A 
ATOM     38  C   UNL A   1      41.263  25.715  28.543  1.00  0.00     0.074 A 
ATOM     39  C   UNL A   1      43.538  24.773  28.750  1.00  0.00     0.049 A 
ATOM     40  N   UNL A   1      41.454  26.925  29.005  1.00  0.00    -0.248 NA
ATOM     41  C   UNL A   1      39.885  25.452  28.100  1.00  0.00     0.031 C 
ATOM     42  C   UNL A   1      44.604  23.777  28.615  1.00  0.00     0.029 A 
ATOM     43  N   UNL A   1      44.168  25.862  29.296  1.00  0.00    -0.354 N 
ATOM     44  C   UNL A   1      40.229  27.569  28.894  1.00  0.00     0.074 A 
ATOM     45  C   UNL A   1      39.315  26.635  28.273  1.00  0.00     0.031 C 
ATOM     46  C   UNL A   1      45.748  24.292  29.093  1.00  0.00     0.029 A 
ATOM     47  C   UNL A   1      45.509  25.665  29.525  1.00  0.00     0.049 A 
ATOM     48  H   UNL A   1      43.705  26.705  29.504  1.00  0.00     0.167 HD
ATOM     49  C   UNL A   1      39.889  28.819  29.288  1.00  0.00     0.031 A 
ATOM     50  C   UNL A   1      46.444  26.497  30.021  1.00  0.00     0.031 A 
ATOM     51  C   UNL A   1      40.796  29.748  29.907  1.00  0.00     0.049 A 
ATOM     52  C   UNL A   1      46.045  27.887  30.432  1.00  0.00     0.074 A 
ATOM     53  C   UNL A   1      40.533  31.018  30.390  1.00  0.00     0.029 A 
ATOM     54  N   UNL A   1      42.144  29.508  30.124  1.00  0.00    -0.354 N 
ATOM     55  N   UNL A   1      44.865  28.456  30.385  1.00  0.00    -0.248 NA
ATOM     56  C   UNL A   1      47.108  28.746  30.975  1.00  0.00     0.031 C 
ATOM     57  C   UNL A   1      41.734  31.568  30.850  1.00  0.00     0.029 A 
ATOM     58  C   UNL A   1      42.732  30.617  30.709  1.00  0.00     0.049 A 
ATOM     59  H   UNL A   1      42.614  28.673  29.896  1.00  0.00     0.167 HD
ATOM     60  C   UNL A   1      45.035  29.727  30.918  1.00  0.00     0.074 A 
ATOM     61  C   UNL A   1      46.429  29.839  31.297  1.00  0.00     0.031 C 
ATOM     62  C   UNL A   1      44.120  30.714  31.079  1.00  0.00     0.031 A 
BRANCH  49  63
ATOM     63  C   UNL A   1      38.468  29.257  29.052  1.00  0.00    -0.014 A 
ATOM     64  C   UNL A   1      37.501  29.170  30.066  1.00  0.00     0.009 A 
ATOM     65  C   UNL A   1      38.100  29.794  27.810  1.00  0.00     0.009 A 
ATOM     66  C   UNL A   1      36.186  29.575  29.829  1.00  0.00     0.001 A 
ATOM     67  C   UNL A   1      36.792  30.228  27.584  1.00  0.00     0.001 A 
ATOM     68  C   UNL A   1      35.834  30.108  28.590  1.00  0.00     0.000 A 
ENDBRANCH  49  63
BRANCH  50  69
ATOM     69  C   UNL A   1      47.850  26.038  30.167  1.00  0.00    -0.014 A 
ATOM     70  C   UNL A   1      48.696  25.960  29.049  1.00  0.00     0.009 A 
ATOM     71  C   UNL A   1      48.352  25.663  31.423  1.00  0.00     0.009 A 
ATOM     72  C   UNL A   1      50.004  25.491  29.183  1.00  0.00     0.001 A 
ATOM     73  C   UNL A   1      49.671  25.223  31.558  1.00  0.00     0.001 A 
ATOM     74  C   UNL A   1      50.492  25.127  30.436  1.00  0.00     0.000 A 
ENDBRANCH  50  69
BRANCH  62  75
ATOM     75  C   UNL A   1      44.589  31.987  31.726  1.00  0.00    -0.014 A 
ATOM     76  C   UNL A   1      44.575  32.147  33.120  1.00  0.00     0.009 A 
ATOM     77  C   UNL A   1      45.090  33.027  30.927  1.00  0.00     0.009 A 
ATOM     78  C   UNL A   1      45.022  33.338  33.698  1.00  0.00     0.001 A 
ATOM     79  C   UNL A   1      45.565  34.203  31.509  1.00  0.00     0.001 A 
ATOM     80  C   UNL A   1      45.521  34.362  32.892  1.00  0.00     0.000 A 
ENDBRANCH  62  75
ENDBRANCH  36  37
ENDBRANCH  28  31
ENDBRANCH  26  27
ENDBRANCH  25  26
ENDBRANCH  24  25
ENDBRANCH   1  24
TORSDOF 17
ENDMDL
MODEL 2
REMARK VINA RESULT:      -8.5      4.771     10.823
REMARK SMILES [NH3+]C[C@@H]([NH3+])c1ccccc1OCC(=O)NCCCCNC(=O)c1ccc(-c2c3nc(c(-c4ccccc4)c4ccc([nH]4)c(-c4ccccc4)c4nc(c(-c5ccccc5)c5ccc2[nH]5)C=C4)C=C3)cc1
REMARK SMILES IDX 16 1 15 2 13 3 14 4 12 6 11 7 10 8 5 9 6 10 7 11 9 12 8 13
REMARK SMILES IDX 3 14 2 15 1 16 4 20 17 24 18 25 19 26 20 27 21 28 22 30
REMARK SMILES IDX 23 31 24 32 70 33 25 34 69 35 26 36 27 37 28 38 63 39 29 40
REMARK SMILES IDX 68 41 62 42 64 43 30 44 67 45 61 46 60 47 31 49 53 50 38 51
REMARK SMILES IDX 52 52 39 53 42 54 51 55 65 56 40 57 41 58 50 60 66 61 43 62
REMARK SMILES IDX 32 63 33 64 37 65 34 66 36 67 35 68 54 69 55 70 59 71 56 72
REMARK SMILES IDX 58 73 57 74 44 75 45 76 49 77 46 78 48 79 47 80
REMARK H PARENT 15 5 1 17 1 18 1 19 4 21 4 22 4 23 20 29 64 48 42 59
REMARK Flexibility Score: inf
ROOT
ATOM      1  C   UNL A   1      34.480  33.824  33.807  1.00  0.00     0.116 C 
ENDROOT
BRANCH   1   2
ATOM      2  N   UNL A   1      35.480  33.928  34.838  1.00  0.00    -0.353 N 
ATOM      3  C   UNL A   1      36.719  33.379  34.836  1.00  0.00     0.257 C 
ATOM      4  O   UNL A   1      37.580  33.952  35.510  1.00  0.00    -0.271 OA
ATOM      5  H   UNL A   1      35.236  34.456  35.633  1.00  0.00     0.163 HD
BRANCH   3   6
ATOM      6  C   UNL A   1      37.057  32.156  33.950  1.00  0.00     0.329 C 
BRANCH   6   7
ATOM      7  O   UNL A   1      38.290  31.530  33.666  1.00  0.00    -0.483 OA
BRANCH   7   8
ATOM      8  C   UNL A   1      38.411  30.200  33.376  1.00  0.00     0.129 A 
ATOM      9  C   UNL A   1      39.611  29.466  33.509  1.00  0.00     0.057 A 
ATOM     10  C   UNL A   1      39.681  28.223  32.823  1.00  0.00     0.014 A 
ATOM     11  C   UNL A   1      38.662  27.751  31.997  1.00  0.00     0.001 A 
ATOM     12  C   UNL A   1      37.381  29.706  32.544  1.00  0.00     0.047 A 
ATOM     13  C   UNL A   1      37.506  28.496  31.853  1.00  0.00     0.004 A 
BRANCH   9  14
ATOM     14  C   UNL A   1      40.898  29.985  34.162  1.00  0.00     0.271 C 
BRANCH  14  15
ATOM     15  C   UNL A   1      40.823  30.318  35.672  1.00  0.00     0.329 C 
BRANCH  15  16
ATOM     16  N   UNL A   1      39.499  30.056  36.288  1.00  0.00    -0.352 N 
ATOM     17  H   UNL A   1      39.462  29.090  36.616  1.00  0.00     0.344 HD
ATOM     18  H   UNL A   1      38.766  30.209  35.597  1.00  0.00     0.344 HD
ATOM     19  H   UNL A   1      39.360  30.688  37.077  1.00  0.00     0.344 HD
ENDBRANCH  15  16
ENDBRANCH  14  15
BRANCH  14  20
ATOM     20  N   UNL A   1      42.043  29.050  34.014  1.00  0.00    -0.347 N 
ATOM     21  H   UNL A   1      41.890  28.450  33.204  1.00  0.00     0.345 HD
ATOM     22  H   UNL A   1      42.123  28.476  34.853  1.00  0.00     0.345 HD
ATOM     23  H   UNL A   1      42.902  29.584  33.883  1.00  0.00     0.345 HD
ENDBRANCH  14  20
ENDBRANCH   9  14
ENDBRANCH   7   8
ENDBRANCH   6   7
ENDBRANCH   3   6
ENDBRANCH   1   2
BRANCH   1  24
ATOM     24  C   UNL A   1      34.659  34.848  32.696  1.00  0.00     0.023 C 
BRANCH  24  25
ATOM     25  C   UNL A   1      33.379  35.461  32.126  1.00  0.00     0.023 C 
BRANCH  25  26
ATOM     26  C   UNL A   1      33.497  36.168  30.782  1.00  0.00     0.116 C 
BRANCH  26  27
ATOM     27  N   UNL A   1      32.772  35.508  29.711  1.00  0.00    -0.352 N 
ATOM     28  C   UNL A   1      33.148  34.454  28.907  1.00  0.00     0.251 C 
ATOM     29  H   UNL A   1      31.873  35.869  29.531  1.00  0.00     0.163 HD
ATOM     30  O   UNL A   1      32.423  34.089  28.000  1.00  0.00    -0.269 OA
BRANCH  28  31
ATOM     31  C   UNL A   1      34.457  33.799  29.123  1.00  0.00     0.039 A 
ATOM     32  C   UNL A   1      35.569  34.305  28.445  1.00  0.00     0.014 A 
ATOM     33  C   UNL A   1      34.595  32.713  29.989  1.00  0.00     0.014 A 
ATOM     34  C   UNL A   1      36.833  33.770  28.694  1.00  0.00     0.010 A 
ATOM     35  C   UNL A   1      35.866  32.231  30.295  1.00  0.00     0.010 A 
ATOM     36  C   UNL A   1      36.997  32.757  29.653  1.00  0.00    -0.014 A 
BRANCH  36  37
ATOM     37  C   UNL A   1      38.347  32.248  30.004  1.00  0.00     0.031 A 
ATOM     38  C   UNL A   1      38.821  30.923  29.475  1.00  0.00     0.074 A 
ATOM     39  C   UNL A   1      39.125  32.954  30.848  1.00  0.00     0.049 A 
ATOM     40  N   UNL A   1      39.946  30.296  29.709  1.00  0.00    -0.248 NA
ATOM     41  C   UNL A   1      37.902  30.197  28.584  1.00  0.00     0.031 C 
ATOM     42  C   UNL A   1      38.766  34.234  31.464  1.00  0.00     0.029 A 
ATOM     43  N   UNL A   1      40.379  32.690  31.340  1.00  0.00    -0.354 N 
ATOM     44  C   UNL A   1      39.864  29.100  29.008  1.00  0.00     0.074 A 
ATOM     45  C   UNL A   1      38.559  29.065  28.383  1.00  0.00     0.031 C 
ATOM     46  C   UNL A   1      39.787  34.656  32.227  1.00  0.00     0.029 A 
ATOM     47  C   UNL A   1      40.852  33.660  32.191  1.00  0.00     0.049 A 
ATOM     48  H   UNL A   1      40.891  31.883  31.105  1.00  0.00     0.167 HD
ATOM     49  C   UNL A   1      40.796  28.126  28.879  1.00  0.00     0.031 A 
ATOM     50  C   UNL A   1      42.011  33.736  32.873  1.00  0.00     0.031 A 
ATOM     51  C   UNL A   1      42.094  28.161  29.498  1.00  0.00     0.049 A 
ATOM     52  C   UNL A   1      43.021  32.631  32.730  1.00  0.00     0.074 A 
ATOM     53  C   UNL A   1      43.128  27.248  29.385  1.00  0.00     0.029 A 
ATOM     54  N   UNL A   1      42.535  29.162  30.349  1.00  0.00    -0.354 N 
ATOM     55  N   UNL A   1      42.955  31.541  32.006  1.00  0.00    -0.248 NA
ATOM     56  C   UNL A   1      44.270  32.776  33.492  1.00  0.00     0.031 C 
ATOM     57  C   UNL A   1      44.174  27.668  30.212  1.00  0.00     0.029 A 
ATOM     58  C   UNL A   1      43.816  28.875  30.792  1.00  0.00     0.049 A 
ATOM     59  H   UNL A   1      42.015  29.959  30.603  1.00  0.00     0.167 HD
ATOM     60  C   UNL A   1      44.163  30.883  32.201  1.00  0.00     0.074 A 
ATOM     61  C   UNL A   1      44.948  31.707  33.097  1.00  0.00     0.031 C 
ATOM     62  C   UNL A   1      44.584  29.703  31.685  1.00  0.00     0.031 A 
BRANCH  49  63
ATOM     63  C   UNL A   1      40.437  26.930  28.039  1.00  0.00    -0.014 A 
ATOM     64  C   UNL A   1      40.893  26.806  26.717  1.00  0.00     0.009 A 
ATOM     65  C   UNL A   1      39.659  25.899  28.587  1.00  0.00     0.009 A 
ATOM     66  C   UNL A   1      40.546  25.692  25.949  1.00  0.00     0.001 A 
ATOM     67  C   UNL A   1      39.339  24.772  27.828  1.00  0.00     0.001 A 
ATOM     68  C   UNL A   1      39.773  24.674  26.507  1.00  0.00     0.000 A 
ENDBRANCH  49  63
BRANCH  50  69
ATOM     69  C   UNL A   1      42.286  34.907  33.746  1.00  0.00    -0.014 A 
ATOM     70  C   UNL A   1      41.913  34.891  35.100  1.00  0.00     0.009 A 
ATOM     71  C   UNL A   1      42.914  36.051  33.231  1.00  0.00     0.009 A 
ATOM     72  C   UNL A   1      42.138  36.007  35.909  1.00  0.00     0.001 A 
ATOM     73  C   UNL A   1      43.165  37.154  34.051  1.00  0.00     0.001 A 
ATOM     74  C   UNL A   1      42.767  37.135  35.386  1.00  0.00     0.000 A 
ENDBRANCH  50  69
BRANCH  62  75
ATOM     75  C   UNL A   1      45.971  29.250  32.047  1.00  0.00    -0.014 A 
ATOM     76  C   UNL A   1      47.091  29.661  31.307  1.00  0.00     0.009 A 
ATOM     77  C   UNL A   1      46.161  28.432  33.171  1.00  0.00     0.009 A 
ATOM     78  C   UNL A   1      48.370  29.231  31.667  1.00  0.00     0.001 A 
ATOM     79  C   UNL A   1      47.444  28.030  33.547  1.00  0.00     0.001 A 
ATOM     80  C   UNL A   1      48.546  28.421  32.790  1.00  0.00     0.000 A 
ENDBRANCH  62  75
ENDBRANCH  36  37
ENDBRANCH  28  31
ENDBRANCH  26  27
ENDBRANCH  25  26
ENDBRANCH  24  25
ENDBRANCH   1  24
TORSDOF 17
ENDMDL
MODEL 3
REMARK VINA RESULT:      -8.0      0.645      6.188
REMARK SMILES [NH3+]C[C@@H]([NH3+])c1ccccc1OCC(=O)NCCCCNC(=O)c1ccc(-c2c3nc(c(-c4ccccc4)c4ccc([nH]4)c(-c4ccccc4)c4nc(c(-c5ccccc5)c5ccc2[nH]5)C=C4)C=C3)cc1
REMARK SMILES IDX 16 1 15 2 13 3 14 4 12 6 11 7 10 8 5 9 6 10 7 11 9 12 8 13
REMARK SMILES IDX 3 14 2 15 1 16 4 20 17 24 18 25 19 26 20 27 21 28 22 30
REMARK SMILES IDX 23 31 24 32 70 33 25 34 69 35 26 36 27 37 28 38 63 39 29 40
REMARK SMILES IDX 68 41 62 42 64 43 30 44 67 45 61 46 60 47 31 49 53 50 38 51
REMARK SMILES IDX 52 52 39 53 42 54 51 55 65 56 40 57 41 58 50 60 66 61 43 62
REMARK SMILES IDX 32 63 33 64 37 65 34 66 36 67 35 68 54 69 55 70 59 71 56 72
REMARK SMILES IDX 58 73 57 74 44 75 45 76 49 77 46 78 48 79 47 80
REMARK H PARENT 15 5 1 17 1 18 1 19 4 21 4 22 4 23 20 29 64 48 42 59
REMARK Flexibility Score: inf
ROOT
ATOM      1  C   UNL A   1      45.937  20.811  25.091  1.00  0.00     0.116 C 
ENDROOT
BRANCH   1   2
ATOM      2  N   UNL A   1      46.290  21.790  24.095  1.00  0.00    -0.353 N 
ATOM      3  C   UNL A   1      46.466  23.121  24.281  1.00  0.00     0.257 C 
ATOM      4  O   UNL A   1      47.220  23.697  23.491  1.00  0.00    -0.271 OA
ATOM      5  H   UNL A   1      46.418  21.455  23.177  1.00  0.00     0.163 HD
BRANCH   3   6
ATOM      6  C   UNL A   1      45.830  23.857  25.484  1.00  0.00     0.329 C 
BRANCH   6   7
ATOM      7  O   UNL A   1      45.981  25.184  25.944  1.00  0.00    -0.483 OA
BRANCH   7   8
ATOM      8  C   UNL A   1      45.072  26.174  25.701  1.00  0.00     0.129 A 
ATOM      9  C   UNL A   1      45.129  27.462  26.279  1.00  0.00     0.057 A 
ATOM     10  C   UNL A   1      43.938  28.236  26.239  1.00  0.00     0.014 A 
ATOM     11  C   UNL A   1      42.735  27.756  25.720  1.00  0.00     0.001 A 
ATOM     12  C   UNL A   1      43.850  25.703  25.170  1.00  0.00     0.047 A 
ATOM     13  C   UNL A   1      42.688  26.482  25.185  1.00  0.00     0.004 A 
BRANCH   9  14
ATOM     14  C   UNL A   1      46.296  28.007  27.111  1.00  0.00     0.271 C 
BRANCH  14  15
ATOM     15  C   UNL A   1      47.671  28.091  26.404  1.00  0.00     0.329 C 
BRANCH  15  16
ATOM     16  N   UNL A   1      48.419  26.810  26.375  1.00  0.00    -0.352 N 
ATOM     17  H   UNL A   1      48.360  26.403  25.441  1.00  0.00     0.344 HD
ATOM     18  H   UNL A   1      48.015  26.164  27.053  1.00  0.00     0.344 HD
ATOM     19  H   UNL A   1      49.397  26.981  26.610  1.00  0.00     0.344 HD
ENDBRANCH  15  16
ENDBRANCH  14  15
BRANCH  14  20
ATOM     20  N   UNL A   1      46.041  29.367  27.651  1.00  0.00    -0.347 N 
ATOM     21  H   UNL A   1      46.462  30.062  27.034  1.00  0.00     0.345 HD
ATOM     22  H   UNL A   1      46.450  29.446  28.582  1.00  0.00     0.345 HD
ATOM     23  H   UNL A   1      45.035  29.528  27.706  1.00  0.00     0.345 HD
ENDBRANCH  14  20
ENDBRANCH   9  14
ENDBRANCH   7   8
ENDBRANCH   6   7
ENDBRANCH   3   6
ENDBRANCH   1   2
BRANCH   1  24
ATOM     24  C   UNL A   1      44.491  20.351  24.989  1.00  0.00     0.023 C 
BRANCH  24  25
ATOM     25  C   UNL A   1      44.234  18.864  25.237  1.00  0.00     0.023 C 
BRANCH  25  26
ATOM     26  C   UNL A   1      43.252  18.514  26.347  1.00  0.00     0.116 C 
BRANCH  26  27
ATOM     27  N   UNL A   1      41.860  18.616  25.947  1.00  0.00    -0.352 N 
ATOM     28  C   UNL A   1      40.968  19.654  26.103  1.00  0.00     0.251 C 
ATOM     29  H   UNL A   1      41.497  17.820  25.493  1.00  0.00     0.163 HD
ATOM     30  O   UNL A   1      39.806  19.518  25.766  1.00  0.00    -0.269 OA
BRANCH  28  31
ATOM     31  C   UNL A   1      41.419  20.919  26.724  1.00  0.00     0.039 A 
ATOM     32  C   UNL A   1      41.819  21.961  25.884  1.00  0.00     0.014 A 
ATOM     33  C   UNL A   1      41.436  21.086  28.110  1.00  0.00     0.014 A 
ATOM     34  C   UNL A   1      42.164  23.198  26.431  1.00  0.00     0.010 A 
ATOM     35  C   UNL A   1      41.706  22.342  28.650  1.00  0.00     0.010 A 
ATOM     36  C   UNL A   1      42.069  23.410  27.816  1.00  0.00    -0.014 A 
BRANCH  36  37
ATOM     37  C   UNL A   1      42.333  24.748  28.404  1.00  0.00     0.031 A 
ATOM     38  C   UNL A   1      43.678  25.066  28.995  1.00  0.00     0.074 A 
ATOM     39  C   UNL A   1      41.341  25.658  28.458  1.00  0.00     0.049 A 
ATOM     40  N   UNL A   1      44.079  26.159  29.592  1.00  0.00    -0.248 NA
ATOM     41  C   UNL A   1      44.700  24.009  28.926  1.00  0.00     0.031 C 
ATOM     42  C   UNL A   1      39.979  25.460  27.957  1.00  0.00     0.029 A 
ATOM     43  N   UNL A   1      41.325  26.933  28.966  1.00  0.00    -0.354 N 
ATOM     44  C   UNL A   1      45.391  25.917  29.981  1.00  0.00     0.074 A 
ATOM     45  C   UNL A   1      45.701  24.557  29.600  1.00  0.00     0.031 C 
ATOM     46  C   UNL A   1      39.269  26.582  28.158  1.00  0.00     0.029 A 
ATOM     47  C   UNL A   1      40.109  27.561  28.839  1.00  0.00     0.049 A 
ATOM     48  H   UNL A   1      42.109  27.357  29.383  1.00  0.00     0.167 HD
ATOM     49  C   UNL A   1      46.265  26.757  30.585  1.00  0.00     0.031 A 
ATOM     50  C   UNL A   1      39.711  28.787  29.232  1.00  0.00     0.031 A 
ATOM     51  C   UNL A   1      45.959  28.110  30.962  1.00  0.00     0.049 A 
ATOM     52  C   UNL A   1      40.696  29.692  29.919  1.00  0.00     0.074 A 
ATOM     53  C   UNL A   1      46.794  29.057  31.531  1.00  0.00     0.029 A 
ATOM     54  N   UNL A   1      44.718  28.709  30.813  1.00  0.00    -0.354 N 
ATOM     55  N   UNL A   1      41.954  29.472  30.215  1.00  0.00    -0.248 NA
ATOM     56  C   UNL A   1      40.206  31.020  30.316  1.00  0.00     0.031 C 
ATOM     57  C   UNL A   1      46.042  30.211  31.776  1.00  0.00     0.029 A 
ATOM     58  C   UNL A   1      44.756  30.004  31.303  1.00  0.00     0.049 A 
ATOM     59  H   UNL A   1      43.926  28.278  30.416  1.00  0.00     0.167 HD
ATOM     60  C   UNL A   1      42.414  30.641  30.807  1.00  0.00     0.074 A 
ATOM     61  C   UNL A   1      41.305  31.573  30.811  1.00  0.00     0.031 C 
ATOM     62  C   UNL A   1      43.645  30.919  31.302  1.00  0.00     0.031 A 
BRANCH  49  63
ATOM     63  C   UNL A   1      47.641  26.226  30.882  1.00  0.00    -0.014 A 
ATOM     64  C   UNL A   1      48.662  26.268  29.919  1.00  0.00     0.009 A 
ATOM     65  C   UNL A   1      47.931  25.707  32.153  1.00  0.00     0.009 A 
ATOM     66  C   UNL A   1      49.933  25.766  30.210  1.00  0.00     0.001 A 
ATOM     67  C   UNL A   1      49.210  25.234  32.452  1.00  0.00     0.001 A 
ATOM     68  C   UNL A   1      50.207  25.254  31.477  1.00  0.00     0.000 A 
ENDBRANCH  49  63
BRANCH  50  69
ATOM     69  C   UNL A   1      38.318  29.236  28.977  1.00  0.00    -0.014 A 
ATOM     70  C   UNL A   1      37.934  29.685  27.703  1.00  0.00     0.009 A 
ATOM     71  C   UNL A   1      37.365  29.229  30.007  1.00  0.00     0.009 A 
ATOM     72  C   UNL A   1      36.635  30.143  27.475  1.00  0.00     0.001 A 
ATOM     73  C   UNL A   1      36.057  29.658  29.768  1.00  0.00     0.001 A 
ATOM     74  C   UNL A   1      35.696  30.126  28.506  1.00  0.00     0.000 A 
ENDBRANCH  50  69
BRANCH  62  75
ATOM     75  C   UNL A   1      43.867  32.298  31.856  1.00  0.00    -0.014 A 
ATOM     76  C   UNL A   1      44.337  33.344  31.047  1.00  0.00     0.009 A 
ATOM     77  C   UNL A   1      43.562  32.562  33.201  1.00  0.00     0.009 A 
ATOM     78  C   UNL A   1      44.530  34.619  31.584  1.00  0.00     0.001 A 
ATOM     79  C   UNL A   1      43.727  33.844  33.726  1.00  0.00     0.001 A 
ATOM     80  C   UNL A   1      44.219  34.869  32.921  1.00  0.00     0.000 A 
ENDBRANCH  62  75
ENDBRANCH  36  37
ENDBRANCH  28  31
ENDBRANCH  26  27
ENDBRANCH  25  26
ENDBRANCH  24  25
ENDBRANCH   1  24
TORSDOF 17
ENDMDL
