MODEL 1
REMARK VINA RESULT:     -11.9      0.000      0.000
REMARK SMILES Cc1ccc(C(=O)NCCCCNC(=O)c2ccc(-c3c4nc(c(-c5ccccc5)c5ccc([nH]5)c(-c5ccccc5)c5nc(c(-c6ccccc6)c6ccc3[nH]6)C=C5)C=C4)cc2)cc1S(=O)(=O)N(C)[C@H]1CCSC1
REMARK SMILES IDX 10 1 9 2 8 3 6 4 7 5 5 7 1 8 2 9 3 10 65 11 4 12 64 13 66 14
REMARK SMILES IDX 67 15 68 16 69 17 70 18 71 19 72 20 75 21 73 22 74 23 11 24
REMARK SMILES IDX 12 25 13 26 14 27 15 29 16 30 17 31 63 32 18 33 62 34 19 35
REMARK SMILES IDX 20 36 21 37 56 38 22 39 61 40 55 41 57 42 23 43 60 44 54 45
REMARK SMILES IDX 53 46 24 48 46 49 31 50 45 51 32 52 35 53 44 54 58 55 33 56
REMARK SMILES IDX 34 57 43 59 59 60 36 61 25 62 26 63 30 64 27 65 29 66 28 67
REMARK SMILES IDX 47 68 48 69 52 70 49 71 51 72 50 73 37 74 38 75 42 76 39 77
REMARK SMILES IDX 41 78 40 79
REMARK H PARENT 8 6 13 28 57 47 35 58
REMARK Flexibility Score: inf
ROOT
ATOM      1  C   UNL A   1      32.626  29.061  25.643  1.00  0.00     0.023 C 
ENDROOT
BRANCH   1   2
ATOM      2  C   UNL A   1      33.229  28.749  24.262  1.00  0.00     0.116 C 
BRANCH   2   3
ATOM      3  N   UNL A   1      32.199  28.580  23.251  1.00  0.00    -0.352 N 
ATOM      4  C   UNL A   1      31.370  27.544  22.907  1.00  0.00     0.251 C 
ATOM      5  O   UNL A   1      30.569  27.756  21.995  1.00  0.00    -0.269 OA
ATOM      6  H   UNL A   1      32.069  29.382  22.694  1.00  0.00     0.163 HD
BRANCH   4   7
ATOM      7  C   UNL A   1      31.357  26.209  23.576  1.00  0.00     0.041 A 
ATOM      8  C   UNL A   1      31.009  22.505  25.825  1.00  0.00     0.046 C 
ATOM      9  C   UNL A   1      31.254  23.727  24.997  1.00  0.00    -0.031 A 
ATOM     10  C   UNL A   1      30.613  24.889  25.475  1.00  0.00     0.005 A 
ATOM     11  C   UNL A   1      31.952  23.829  23.786  1.00  0.00     0.086 A 
ATOM     12  C   UNL A   1      30.676  26.106  24.790  1.00  0.00     0.014 A 
ATOM     13  C   UNL A   1      31.948  25.053  23.079  1.00  0.00     0.035 A 
BRANCH  11  14
ATOM     14  S   UNL A   1      32.934  22.580  22.952  1.00  0.00     0.243 S 
ATOM     15  O   UNL A   1      32.000  21.630  22.414  1.00  0.00    -0.207 OA
ATOM     16  O   UNL A   1      33.836  23.321  22.075  1.00  0.00    -0.207 OA
BRANCH  14  17
ATOM     17  N   UNL A   1      33.906  21.824  24.093  1.00  0.00    -0.197 NA
ATOM     18  C   UNL A   1      33.515  20.473  24.511  1.00  0.00     0.125 C 
BRANCH  17  19
ATOM     19  C   UNL A   1      35.204  22.432  24.455  1.00  0.00     0.083 C 
ATOM     20  C   UNL A   1      35.170  23.309  25.706  1.00  0.00     0.032 C 
ATOM     21  C   UNL A   1      36.312  21.410  24.708  1.00  0.00     0.089 C 
ATOM     22  C   UNL A   1      36.590  23.828  25.859  1.00  0.00     0.071 C 
ATOM     23  S   UNL A   1      37.628  22.374  25.532  1.00  0.00    -0.160 SA
ENDBRANCH  17  19
ENDBRANCH  14  17
ENDBRANCH  11  14
ENDBRANCH   4   7
ENDBRANCH   2   3
ENDBRANCH   1   2
BRANCH   1  24
ATOM     24  C   UNL A   1      33.573  28.838  26.826  1.00  0.00     0.023 C 
BRANCH  24  25
ATOM     25  C   UNL A   1      34.138  30.122  27.403  1.00  0.00     0.116 C 
BRANCH  25  26
ATOM     26  N   UNL A   1      33.338  31.315  27.179  1.00  0.00    -0.352 N 
ATOM     27  C   UNL A   1      33.343  32.529  27.848  1.00  0.00     0.251 C 
ATOM     28  H   UNL A   1      32.694  31.251  26.438  1.00  0.00     0.163 HD
ATOM     29  O   UNL A   1      32.448  33.338  27.609  1.00  0.00    -0.269 OA
BRANCH  27  30
ATOM     30  C   UNL A   1      34.503  32.954  28.686  1.00  0.00     0.039 A 
ATOM     31  C   UNL A   1      35.585  33.544  28.015  1.00  0.00     0.014 A 
ATOM     32  C   UNL A   1      34.704  32.413  29.944  1.00  0.00     0.014 A 
ATOM     33  C   UNL A   1      36.878  33.254  28.429  1.00  0.00     0.010 A 
ATOM     34  C   UNL A   1      35.951  31.933  30.231  1.00  0.00     0.010 A 
ATOM     35  C   UNL A   1      37.027  32.312  29.432  1.00  0.00    -0.014 A 
BRANCH  35  36
ATOM     36  C   UNL A   1      38.276  31.723  29.851  1.00  0.00     0.031 A 
ATOM     37  C   UNL A   1      38.615  30.427  29.249  1.00  0.00     0.074 A 
ATOM     38  C   UNL A   1      39.147  32.508  30.521  1.00  0.00     0.049 A 
ATOM     39  N   UNL A   1      39.596  29.689  29.614  1.00  0.00    -0.248 NA
ATOM     40  C   UNL A   1      37.813  29.826  28.177  1.00  0.00     0.031 C 
ATOM     41  C   UNL A   1      40.586  32.347  30.691  1.00  0.00     0.029 A 
ATOM     42  N   UNL A   1      38.816  33.539  31.400  1.00  0.00    -0.354 N 
ATOM     43  C   UNL A   1      39.763  28.738  28.635  1.00  0.00     0.074 A 
ATOM     44  C   UNL A   1      38.561  28.770  27.848  1.00  0.00     0.031 C 
ATOM     45  C   UNL A   1      40.971  33.017  31.794  1.00  0.00     0.029 A 
ATOM     46  C   UNL A   1      39.756  33.483  32.448  1.00  0.00     0.049 A 
ATOM     47  H   UNL A   1      38.074  34.179  31.307  1.00  0.00     0.167 HD
ATOM     48  C   UNL A   1      40.989  28.165  28.511  1.00  0.00     0.031 A 
ATOM     49  C   UNL A   1      39.351  33.080  33.693  1.00  0.00     0.031 A 
ATOM     50  C   UNL A   1      41.826  28.520  29.655  1.00  0.00     0.049 A 
ATOM     51  C   UNL A   1      39.987  31.764  34.091  1.00  0.00     0.074 A 
ATOM     52  C   UNL A   1      42.820  29.468  29.828  1.00  0.00     0.029 A 
ATOM     53  N   UNL A   1      41.399  28.151  30.928  1.00  0.00    -0.354 N 
ATOM     54  N   UNL A   1      40.374  30.849  33.242  1.00  0.00    -0.248 NA
ATOM     55  C   UNL A   1      40.289  31.408  35.475  1.00  0.00     0.031 C 
ATOM     56  C   UNL A   1      42.882  29.769  31.219  1.00  0.00     0.029 A 
ATOM     57  C   UNL A   1      41.968  28.970  31.885  1.00  0.00     0.049 A 
ATOM     58  H   UNL A   1      40.780  27.411  31.120  1.00  0.00     0.167 HD
ATOM     59  C   UNL A   1      41.022  29.848  33.917  1.00  0.00     0.074 A 
ATOM     60  C   UNL A   1      40.918  30.230  35.314  1.00  0.00     0.031 C 
ATOM     61  C   UNL A   1      41.630  28.797  33.292  1.00  0.00     0.031 A 
BRANCH  48  62
ATOM     62  C   UNL A   1      41.514  27.519  27.254  1.00  0.00    -0.014 A 
ATOM     63  C   UNL A   1      41.246  26.156  27.035  1.00  0.00     0.009 A 
ATOM     64  C   UNL A   1      42.359  28.137  26.313  1.00  0.00     0.009 A 
ATOM     65  C   UNL A   1      41.804  25.451  25.959  1.00  0.00     0.001 A 
ATOM     66  C   UNL A   1      42.907  27.444  25.224  1.00  0.00     0.001 A 
ATOM     67  C   UNL A   1      42.635  26.096  25.052  1.00  0.00     0.000 A 
ENDBRANCH  48  62
BRANCH  49  68
ATOM     68  C   UNL A   1      37.941  33.500  33.985  1.00  0.00    -0.014 A 
ATOM     69  C   UNL A   1      37.556  34.789  33.548  1.00  0.00     0.009 A 
ATOM     70  C   UNL A   1      36.939  32.544  34.201  1.00  0.00     0.009 A 
ATOM     71  C   UNL A   1      36.245  35.038  33.129  1.00  0.00     0.001 A 
ATOM     72  C   UNL A   1      35.616  32.820  33.824  1.00  0.00     0.001 A 
ATOM     73  C   UNL A   1      35.285  34.037  33.226  1.00  0.00     0.000 A 
ENDBRANCH  49  68
BRANCH  61  74
ATOM     74  C   UNL A   1      42.050  27.515  33.968  1.00  0.00    -0.014 A 
ATOM     75  C   UNL A   1      41.203  26.741  34.771  1.00  0.00     0.009 A 
ATOM     76  C   UNL A   1      43.315  26.960  33.665  1.00  0.00     0.009 A 
ATOM     77  C   UNL A   1      41.619  25.512  35.298  1.00  0.00     0.001 A 
ATOM     78  C   UNL A   1      43.710  25.707  34.135  1.00  0.00     0.001 A 
ATOM     79  C   UNL A   1      42.867  24.991  34.972  1.00  0.00     0.000 A 
ENDBRANCH  61  74
ENDBRANCH  35  36
ENDBRANCH  27  30
ENDBRANCH  25  26
ENDBRANCH  24  25
ENDBRANCH   1  24
TORSDOF 14
ENDMDL
MODEL 2
REMARK VINA RESULT:     -11.6      2.912      8.125
REMARK SMILES Cc1ccc(C(=O)NCCCCNC(=O)c2ccc(-c3c4nc(c(-c5ccccc5)c5ccc([nH]5)c(-c5ccccc5)c5nc(c(-c6ccccc6)c6ccc3[nH]6)C=C5)C=C4)cc2)cc1S(=O)(=O)N(C)[C@H]1CCSC1
REMARK SMILES IDX 10 1 9 2 8 3 6 4 7 5 5 7 1 8 2 9 3 10 65 11 4 12 64 13 66 14
REMARK SMILES IDX 67 15 68 16 69 17 70 18 71 19 72 20 75 21 73 22 74 23 11 24
REMARK SMILES IDX 12 25 13 26 14 27 15 29 16 30 17 31 63 32 18 33 62 34 19 35
REMARK SMILES IDX 20 36 21 37 56 38 22 39 61 40 55 41 57 42 23 43 60 44 54 45
REMARK SMILES IDX 53 46 24 48 46 49 31 50 45 51 32 52 35 53 44 54 58 55 33 56
REMARK SMILES IDX 34 57 43 59 59 60 36 61 25 62 26 63 30 64 27 65 29 66 28 67
REMARK SMILES IDX 47 68 48 69 52 70 49 71 51 72 50 73 37 74 38 75 42 76 39 77
REMARK SMILES IDX 41 78 40 79
REMARK H PARENT 8 6 13 28 57 47 35 58
REMARK Flexibility Score: inf
ROOT
ATOM      1  C   UNL A   1      35.726  21.567  26.065  1.00  0.00     0.023 C 
ENDROOT
BRANCH   1   2
ATOM      2  C   UNL A   1      35.698  20.448  25.010  1.00  0.00     0.116 C 
BRANCH   2   3
ATOM      3  N   UNL A   1      34.539  19.587  25.169  1.00  0.00    -0.352 N 
ATOM      4  C   UNL A   1      33.188  19.782  25.036  1.00  0.00     0.251 C 
ATOM      5  O   UNL A   1      32.467  18.799  25.219  1.00  0.00    -0.269 OA
ATOM      6  H   UNL A   1      34.773  18.666  25.429  1.00  0.00     0.163 HD
BRANCH   4   7
ATOM      7  C   UNL A   1      32.550  21.079  24.661  1.00  0.00     0.041 A 
ATOM      8  C   UNL A   1      30.638  24.674  23.140  1.00  0.00     0.046 C 
ATOM      9  C   UNL A   1      31.347  23.519  23.773  1.00  0.00    -0.031 A 
ATOM     10  C   UNL A   1      31.661  22.472  22.881  1.00  0.00     0.005 A 
ATOM     11  C   UNL A   1      31.649  23.322  25.127  1.00  0.00     0.086 A 
ATOM     12  C   UNL A   1      32.263  21.286  23.311  1.00  0.00     0.014 A 
ATOM     13  C   UNL A   1      32.198  22.090  25.548  1.00  0.00     0.035 A 
BRANCH  11  14
ATOM     14  S   UNL A   1      31.460  24.470  26.494  1.00  0.00     0.243 S 
ATOM     15  O   UNL A   1      30.099  24.926  26.447  1.00  0.00    -0.207 OA
ATOM     16  O   UNL A   1      31.972  23.763  27.664  1.00  0.00    -0.207 OA
BRANCH  14  17
ATOM     17  N   UNL A   1      32.494  25.768  26.240  1.00  0.00    -0.197 NA
ATOM     18  C   UNL A   1      33.864  25.456  25.823  1.00  0.00     0.125 C 
BRANCH  17  19
ATOM     19  C   UNL A   1      31.942  27.140  26.223  1.00  0.00     0.083 C 
ATOM     20  C   UNL A   1      32.504  28.066  27.300  1.00  0.00     0.032 C 
ATOM     21  C   UNL A   1      32.163  27.876  24.902  1.00  0.00     0.089 C 
ATOM     22  C   UNL A   1      31.782  29.388  27.097  1.00  0.00     0.071 C 
ATOM     23  S   UNL A   1      31.791  29.621  25.296  1.00  0.00    -0.160 SA
ENDBRANCH  17  19
ENDBRANCH  14  17
ENDBRANCH  11  14
ENDBRANCH   4   7
ENDBRANCH   2   3
ENDBRANCH   1   2
BRANCH   1  24
ATOM     24  C   UNL A   1      36.803  22.634  25.846  1.00  0.00     0.023 C 
BRANCH  24  25
ATOM     25  C   UNL A   1      38.129  22.071  25.371  1.00  0.00     0.116 C 
BRANCH  25  26
ATOM     26  N   UNL A   1      39.143  21.902  26.398  1.00  0.00    -0.352 N 
ATOM     27  C   UNL A   1      39.902  22.849  27.066  1.00  0.00     0.251 C 
ATOM     28  H   UNL A   1      39.319  20.969  26.659  1.00  0.00     0.163 HD
ATOM     29  O   UNL A   1      40.839  22.469  27.766  1.00  0.00    -0.269 OA
BRANCH  27  30
ATOM     30  C   UNL A   1      39.490  24.283  27.117  1.00  0.00     0.039 A 
ATOM     31  C   UNL A   1      40.241  25.185  26.348  1.00  0.00     0.014 A 
ATOM     32  C   UNL A   1      38.729  24.765  28.169  1.00  0.00     0.014 A 
ATOM     33  C   UNL A   1      40.512  26.447  26.859  1.00  0.00     0.010 A 
ATOM     34  C   UNL A   1      39.163  25.901  28.791  1.00  0.00     0.010 A 
ATOM     35  C   UNL A   1      40.101  26.710  28.154  1.00  0.00    -0.014 A 
BRANCH  35  36
ATOM     36  C   UNL A   1      40.468  27.869  28.933  1.00  0.00     0.031 A 
ATOM     37  C   UNL A   1      39.496  28.970  28.952  1.00  0.00     0.074 A 
ATOM     38  C   UNL A   1      41.506  27.748  29.788  1.00  0.00     0.049 A 
ATOM     39  N   UNL A   1      39.717  30.126  29.456  1.00  0.00    -0.248 NA
ATOM     40  C   UNL A   1      38.166  28.854  28.342  1.00  0.00     0.031 C 
ATOM     41  C   UNL A   1      41.830  28.552  30.960  1.00  0.00     0.029 A 
ATOM     42  N   UNL A   1      42.636  26.952  29.601  1.00  0.00    -0.354 N 
ATOM     43  C   UNL A   1      38.498  30.755  29.555  1.00  0.00     0.074 A 
ATOM     44  C   UNL A   1      37.598  29.998  28.729  1.00  0.00     0.031 C 
ATOM     45  C   UNL A   1      43.147  28.436  31.216  1.00  0.00     0.029 A 
ATOM     46  C   UNL A   1      43.726  27.687  30.109  1.00  0.00     0.049 A 
ATOM     47  H   UNL A   1      42.667  26.056  29.195  1.00  0.00     0.167 HD
ATOM     48  C   UNL A   1      38.368  31.744  30.478  1.00  0.00     0.031 A 
ATOM     49  C   UNL A   1      44.658  28.193  29.243  1.00  0.00     0.031 A 
ATOM     50  C   UNL A   1      39.680  32.106  31.012  1.00  0.00     0.049 A 
ATOM     51  C   UNL A   1      44.644  29.708  29.225  1.00  0.00     0.074 A 
ATOM     52  C   UNL A   1      40.340  31.764  32.180  1.00  0.00     0.029 A 
ATOM     53  N   UNL A   1      40.646  32.581  30.130  1.00  0.00    -0.354 N 
ATOM     54  N   UNL A   1      43.591  30.435  29.494  1.00  0.00    -0.248 NA
ATOM     55  C   UNL A   1      45.831  30.516  28.962  1.00  0.00     0.031 C 
ATOM     56  C   UNL A   1      41.737  31.904  31.934  1.00  0.00     0.029 A 
ATOM     57  C   UNL A   1      41.912  32.378  30.644  1.00  0.00     0.049 A 
ATOM     58  H   UNL A   1      40.455  33.003  29.261  1.00  0.00     0.167 HD
ATOM     59  C   UNL A   1      43.948  31.758  29.519  1.00  0.00     0.074 A 
ATOM     60  C   UNL A   1      45.354  31.758  29.153  1.00  0.00     0.031 C 
ATOM     61  C   UNL A   1      43.087  32.758  29.870  1.00  0.00     0.031 A 
BRANCH  48  62
ATOM     62  C   UNL A   1      37.062  32.190  31.084  1.00  0.00    -0.014 A 
ATOM     63  C   UNL A   1      36.233  33.050  30.341  1.00  0.00     0.009 A 
ATOM     64  C   UNL A   1      36.635  31.909  32.396  1.00  0.00     0.009 A 
ATOM     65  C   UNL A   1      35.068  33.612  30.882  1.00  0.00     0.001 A 
ATOM     66  C   UNL A   1      35.461  32.451  32.938  1.00  0.00     0.001 A 
ATOM     67  C   UNL A   1      34.680  33.311  32.182  1.00  0.00     0.000 A 
ENDBRANCH  48  62
BRANCH  49  68
ATOM     68  C   UNL A   1      44.856  27.301  28.053  1.00  0.00    -0.014 A 
ATOM     69  C   UNL A   1      45.098  25.933  28.314  1.00  0.00     0.009 A 
ATOM     70  C   UNL A   1      44.347  27.659  26.796  1.00  0.00     0.009 A 
ATOM     71  C   UNL A   1      44.635  24.946  27.437  1.00  0.00     0.001 A 
ATOM     72  C   UNL A   1      43.931  26.662  25.901  1.00  0.00     0.001 A 
ATOM     73  C   UNL A   1      44.011  25.313  26.250  1.00  0.00     0.000 A 
ENDBRANCH  49  68
BRANCH  61  74
ATOM     74  C   UNL A   1      43.307  34.225  29.593  1.00  0.00    -0.014 A 
ATOM     75  C   UNL A   1      42.757  34.904  28.497  1.00  0.00     0.009 A 
ATOM     76  C   UNL A   1      43.970  35.016  30.559  1.00  0.00     0.009 A 
ATOM     77  C   UNL A   1      42.919  36.286  28.341  1.00  0.00     0.001 A 
ATOM     78  C   UNL A   1      44.078  36.402  30.439  1.00  0.00     0.001 A 
ATOM     79  C   UNL A   1      43.569  37.035  29.316  1.00  0.00     0.000 A 
ENDBRANCH  61  74
ENDBRANCH  35  36
ENDBRANCH  27  30
ENDBRANCH  25  26
ENDBRANCH  24  25
ENDBRANCH   1  24
TORSDOF 14
ENDMDL
MODEL 3
REMARK VINA RESULT:     -11.6      2.051      2.861
REMARK SMILES Cc1ccc(C(=O)NCCCCNC(=O)c2ccc(-c3c4nc(c(-c5ccccc5)c5ccc([nH]5)c(-c5ccccc5)c5nc(c(-c6ccccc6)c6ccc3[nH]6)C=C5)C=C4)cc2)cc1S(=O)(=O)N(C)[C@H]1CCSC1
REMARK SMILES IDX 10 1 9 2 8 3 6 4 7 5 5 7 1 8 2 9 3 10 65 11 4 12 64 13 66 14
REMARK SMILES IDX 67 15 68 16 69 17 70 18 71 19 72 20 75 21 73 22 74 23 11 24
REMARK SMILES IDX 12 25 13 26 14 27 15 29 16 30 17 31 63 32 18 33 62 34 19 35
REMARK SMILES IDX 20 36 21 37 56 38 22 39 61 40 55 41 57 42 23 43 60 44 54 45
REMARK SMILES IDX 53 46 24 48 46 49 31 50 45 51 32 52 35 53 44 54 58 55 33 56
REMARK SMILES IDX 34 57 43 59 59 60 36 61 25 62 26 63 30 64 27 65 29 66 28 67
REMARK SMILES IDX 47 68 48 69 52 70 49 71 51 72 50 73 37 74 38 75 42 76 39 77
REMARK SMILES IDX 41 78 40 79
REMARK H PARENT 8 6 13 28 57 47 35 58
REMARK Flexibility Score: inf
ROOT
ATOM      1  C   UNL A   1      35.207  29.662  27.363  1.00  0.00     0.023 C 
ENDROOT
BRANCH   1   2
ATOM      2  C   UNL A   1      34.207  28.628  26.817  1.00  0.00     0.116 C 
BRANCH   2   3
ATOM      3  N   UNL A   1      32.945  28.669  27.535  1.00  0.00    -0.352 N 
ATOM      4  C   UNL A   1      31.769  27.973  27.423  1.00  0.00     0.251 C 
ATOM      5  O   UNL A   1      30.885  28.245  28.238  1.00  0.00    -0.269 OA
ATOM      6  H   UNL A   1      32.930  29.340  28.256  1.00  0.00     0.163 HD
BRANCH   4   7
ATOM      7  C   UNL A   1      31.507  26.904  26.413  1.00  0.00     0.041 A 
ATOM      8  C   UNL A   1      30.663  24.139  23.167  1.00  0.00     0.046 C 
ATOM      9  C   UNL A   1      30.929  24.979  24.376  1.00  0.00    -0.031 A 
ATOM     10  C   UNL A   1      30.735  26.362  24.175  1.00  0.00     0.005 A 
ATOM     11  C   UNL A   1      31.420  24.574  25.624  1.00  0.00     0.086 A 
ATOM     12  C   UNL A   1      31.001  27.302  25.174  1.00  0.00     0.014 A 
ATOM     13  C   UNL A   1      31.743  25.547  26.597  1.00  0.00     0.035 A 
BRANCH  11  14
ATOM     14  S   UNL A   1      31.697  22.907  26.229  1.00  0.00     0.243 S 
ATOM     15  O   UNL A   1      32.156  23.044  27.583  1.00  0.00    -0.207 OA
ATOM     16  O   UNL A   1      30.469  22.179  25.925  1.00  0.00    -0.207 OA
BRANCH  14  17
ATOM     17  N   UNL A   1      32.904  22.202  25.299  1.00  0.00    -0.197 NA
ATOM     18  C   UNL A   1      34.091  23.016  25.019  1.00  0.00     0.125 C 
BRANCH  17  19
ATOM     19  C   UNL A   1      32.832  20.756  24.997  1.00  0.00     0.083 C 
ATOM     20  C   UNL A   1      32.390  20.423  23.573  1.00  0.00     0.032 C 
ATOM     21  C   UNL A   1      34.159  20.021  25.189  1.00  0.00     0.089 C 
ATOM     22  C   UNL A   1      32.373  18.905  23.513  1.00  0.00     0.071 C 
ATOM     23  S   UNL A   1      33.903  18.414  24.358  1.00  0.00    -0.160 SA
ENDBRANCH  17  19
ENDBRANCH  14  17
ENDBRANCH  11  14
ENDBRANCH   4   7
ENDBRANCH   2   3
ENDBRANCH   1   2
BRANCH   1  24
ATOM     24  C   UNL A   1      34.630  31.065  27.579  1.00  0.00     0.023 C 
BRANCH  24  25
ATOM     25  C   UNL A   1      34.798  31.580  28.996  1.00  0.00     0.116 C 
BRANCH  25  26
ATOM     26  N   UNL A   1      34.104  32.821  29.299  1.00  0.00    -0.352 N 
ATOM     27  C   UNL A   1      34.396  33.799  30.236  1.00  0.00     0.251 C 
ATOM     28  H   UNL A   1      33.302  32.993  28.754  1.00  0.00     0.163 HD
ATOM     29  O   UNL A   1      33.564  34.679  30.450  1.00  0.00    -0.269 OA
BRANCH  27  30
ATOM     30  C   UNL A   1      35.758  33.924  30.835  1.00  0.00     0.039 A 
ATOM     31  C   UNL A   1      36.804  34.259  29.961  1.00  0.00     0.014 A 
ATOM     32  C   UNL A   1      36.058  33.326  32.047  1.00  0.00     0.014 A 
ATOM     33  C   UNL A   1      38.048  33.667  30.136  1.00  0.00     0.010 A 
ATOM     34  C   UNL A   1      37.189  32.562  32.109  1.00  0.00     0.010 A 
ATOM     35  C   UNL A   1      38.156  32.696  31.116  1.00  0.00    -0.014 A 
BRANCH  35  36
ATOM     36  C   UNL A   1      39.289  31.823  31.311  1.00  0.00     0.031 A 
ATOM     37  C   UNL A   1      39.241  30.533  30.609  1.00  0.00     0.074 A 
ATOM     38  C   UNL A   1      40.400  32.351  31.869  1.00  0.00     0.049 A 
ATOM     39  N   UNL A   1      40.074  29.577  30.786  1.00  0.00    -0.248 NA
ATOM     40  C   UNL A   1      38.181  30.200  29.651  1.00  0.00     0.031 C 
ATOM     41  C   UNL A   1      41.776  31.873  31.807  1.00  0.00     0.029 A 
ATOM     42  N   UNL A   1      40.436  33.359  32.832  1.00  0.00    -0.354 N 
ATOM     43  C   UNL A   1      39.884  28.689  29.754  1.00  0.00     0.074 A 
ATOM     44  C   UNL A   1      38.619  29.037  29.165  1.00  0.00     0.031 C 
ATOM     45  C   UNL A   1      42.454  32.360  32.863  1.00  0.00     0.029 A 
ATOM     46  C   UNL A   1      41.479  33.025  33.718  1.00  0.00     0.049 A 
ATOM     47  H   UNL A   1      39.849  34.149  32.882  1.00  0.00     0.167 HD
ATOM     48  C   UNL A   1      40.921  27.878  29.416  1.00  0.00     0.031 A 
ATOM     49  C   UNL A   1      41.176  32.626  34.992  1.00  0.00     0.031 A 
ATOM     50  C   UNL A   1      41.970  27.958  30.431  1.00  0.00     0.049 A 
ATOM     51  C   UNL A   1      41.552  31.178  35.231  1.00  0.00     0.074 A 
ATOM     52  C   UNL A   1      43.165  28.655  30.486  1.00  0.00     0.029 A 
ATOM     53  N   UNL A   1      41.658  27.595  31.738  1.00  0.00    -0.354 N 
ATOM     54  N   UNL A   1      41.600  30.268  34.294  1.00  0.00    -0.248 NA
ATOM     55  C   UNL A   1      41.961  30.662  36.535  1.00  0.00     0.031 C 
ATOM     56  C   UNL A   1      43.490  28.831  31.862  1.00  0.00     0.029 A 
ATOM     57  C   UNL A   1      42.525  28.198  32.628  1.00  0.00     0.049 A 
ATOM     58  H   UNL A   1      40.922  26.992  31.993  1.00  0.00     0.167 HD
ATOM     59  C   UNL A   1      42.098  29.104  34.818  1.00  0.00     0.074 A 
ATOM     60  C   UNL A   1      42.283  29.393  36.229  1.00  0.00     0.031 C 
ATOM     61  C   UNL A   1      42.361  27.996  34.062  1.00  0.00     0.031 A 
BRANCH  48  62
ATOM     62  C   UNL A   1      41.104  27.231  28.067  1.00  0.00    -0.014 A 
ATOM     63  C   UNL A   1      41.778  27.948  27.062  1.00  0.00     0.009 A 
ATOM     64  C   UNL A   1      40.554  25.995  27.676  1.00  0.00     0.009 A 
ATOM     65  C   UNL A   1      41.877  27.472  25.747  1.00  0.00     0.001 A 
ATOM     66  C   UNL A   1      40.665  25.504  26.367  1.00  0.00     0.001 A 
ATOM     67  C   UNL A   1      41.320  26.248  25.399  1.00  0.00     0.000 A 
ENDBRANCH  48  62
BRANCH  49  68
ATOM     68  C   UNL A   1      39.952  33.315  35.517  1.00  0.00    -0.014 A 
ATOM     69  C   UNL A   1      38.746  32.576  35.498  1.00  0.00     0.009 A 
ATOM     70  C   UNL A   1      40.061  34.386  36.415  1.00  0.00     0.009 A 
ATOM     71  C   UNL A   1      37.781  32.760  36.493  1.00  0.00     0.001 A 
ATOM     72  C   UNL A   1      39.064  34.595  37.379  1.00  0.00     0.001 A 
ATOM     73  C   UNL A   1      37.962  33.741  37.461  1.00  0.00     0.000 A 
ENDBRANCH  49  68
BRANCH  61  74
ATOM     74  C   UNL A   1      42.577  26.607  34.610  1.00  0.00    -0.014 A 
ATOM     75  C   UNL A   1      41.596  25.875  35.291  1.00  0.00     0.009 A 
ATOM     76  C   UNL A   1      43.773  25.922  34.297  1.00  0.00     0.009 A 
ATOM     77  C   UNL A   1      41.823  24.554  35.697  1.00  0.00     0.001 A 
ATOM     78  C   UNL A   1      43.979  24.586  34.643  1.00  0.00     0.001 A 
ATOM     79  C   UNL A   1      43.008  23.908  35.364  1.00  0.00     0.000 A 
ENDBRANCH  61  74
ENDBRANCH  35  36
ENDBRANCH  27  30
ENDBRANCH  25  26
ENDBRANCH  24  25
ENDBRANCH   1  24
TORSDOF 14
ENDMDL
