MODEL 1
REMARK VINA RESULT:     -11.9      0.000      0.000
REMARK SMILES CCC(=O)N1CCC[C@](C[C@H]2CC(c3ccc(C)cc3)=NO2)(C(=O)NCCCCNC(=O)c2ccc(-c3c4nc(c(-c5ccccc5)c5ccc([nH]5)c(-c5ccccc5)c5nc(c(-c6ccccc6)c6ccc3[nH]6)C=C5)C=C4)cc2)C1
REMARK SMILES IDX 27 1 26 2 25 3 23 4 24 5 9 7 5 8 6 9 81 10 7 11 8 12 3 13
REMARK SMILES IDX 4 14 2 15 1 16 10 17 11 18 12 19 22 20 13 21 21 22 14 23
REMARK SMILES IDX 15 24 20 25 16 26 19 27 17 28 18 29 28 30 29 31 30 32 31 33
REMARK SMILES IDX 32 35 33 36 34 37 80 38 35 39 79 40 36 41 37 42 38 43 73 44
REMARK SMILES IDX 39 45 78 46 72 47 74 48 40 49 77 50 71 51 70 52 41 54 63 55
REMARK SMILES IDX 48 56 62 57 49 58 52 59 61 60 75 61 50 62 51 63 60 65 76 66
REMARK SMILES IDX 53 67 42 68 43 69 47 70 44 71 46 72 45 73 64 74 65 75 69 76
REMARK SMILES IDX 66 77 68 78 67 79 54 80 55 81 59 82 56 83 58 84 57 85
REMARK H PARENT 25 6 30 34 74 53 52 64
REMARK Flexibility Score: inf
ROOT
ATOM      1  C   UNL A   1      33.463  27.668  26.486  1.00  0.00     0.023 C 
ENDROOT
BRANCH   1   2
ATOM      2  C   UNL A   1      33.962  26.394  25.791  1.00  0.00     0.116 C 
BRANCH   2   3
ATOM      3  N   UNL A   1      33.251  25.194  26.218  1.00  0.00    -0.356 N 
ATOM      4  C   UNL A   1      33.339  23.870  25.883  1.00  0.00     0.228 C 
ATOM      5  O   UNL A   1      32.483  23.140  26.392  1.00  0.00    -0.274 OA
ATOM      6  H   UNL A   1      32.559  25.375  26.892  1.00  0.00     0.163 HD
BRANCH   4   7
ATOM      7  C   UNL A   1      34.397  23.320  24.886  1.00  0.00     0.070 C 
ATOM      8  N   UNL A   1      33.401  24.352  22.766  1.00  0.00    -0.342 N 
ATOM      9  C   UNL A   1      32.924  23.058  22.296  1.00  0.00     0.119 C 
ATOM     10  C   UNL A   1      34.547  24.331  23.691  1.00  0.00     0.136 C 
ATOM     11  C   UNL A   1      32.658  22.113  23.450  1.00  0.00     0.023 C 
ATOM     12  C   UNL A   1      33.920  21.979  24.296  1.00  0.00     0.021 C 
BRANCH   8  13
ATOM     13  C   UNL A   1      32.818  25.477  22.203  1.00  0.00     0.222 C 
ATOM     14  O   UNL A   1      33.352  26.074  21.261  1.00  0.00    -0.275 OA
BRANCH  13  15
ATOM     15  C   UNL A   1      31.621  26.127  22.883  1.00  0.00     0.097 C 
ATOM     16  C   UNL A   1      30.979  27.326  22.220  1.00  0.00     0.014 C 
ENDBRANCH  13  15
ENDBRANCH   8  13
BRANCH   7  17
ATOM     17  C   UNL A   1      35.734  23.273  25.702  1.00  0.00     0.067 C 
BRANCH  17  18
ATOM     18  C   UNL A   1      37.122  23.163  25.057  1.00  0.00     0.211 C 
ATOM     19  C   UNL A   1      38.288  23.790  25.790  1.00  0.00     0.108 C 
ATOM     20  O   UNL A   1      37.473  21.804  24.792  1.00  0.00    -0.392 OA
ATOM     21  C   UNL A   1      39.043  22.554  26.112  1.00  0.00     0.091 C 
ATOM     22  N   UNL A   1      38.625  21.476  25.535  1.00  0.00    -0.090 NA
BRANCH  21  23
ATOM     23  C   UNL A   1      40.206  22.570  27.009  1.00  0.00    -0.001 A 
ATOM     24  C   UNL A   1      41.235  21.638  26.863  1.00  0.00     0.010 A 
ATOM     25  C   UNL A   1      40.303  23.585  27.961  1.00  0.00     0.010 A 
ATOM     26  C   UNL A   1      42.383  21.744  27.651  1.00  0.00     0.004 A 
ATOM     27  C   UNL A   1      41.437  23.668  28.769  1.00  0.00     0.004 A 
ATOM     28  C   UNL A   1      42.494  22.762  28.603  1.00  0.00    -0.051 A 
ATOM     29  C   UNL A   1      43.720  22.876  29.459  1.00  0.00     0.044 C 
ENDBRANCH  21  23
ENDBRANCH  17  18
ENDBRANCH   7  17
ENDBRANCH   4   7
ENDBRANCH   2   3
ENDBRANCH   1   2
BRANCH   1  30
ATOM     30  C   UNL A   1      34.215  28.951  26.143  1.00  0.00     0.023 C 
BRANCH  30  31
ATOM     31  C   UNL A   1      34.403  29.910  27.310  1.00  0.00     0.116 C 
BRANCH  31  32
ATOM     32  N   UNL A   1      33.594  31.120  27.258  1.00  0.00    -0.352 N 
ATOM     33  C   UNL A   1      33.740  32.317  27.948  1.00  0.00     0.251 C 
ATOM     34  H   UNL A   1      32.827  31.085  26.640  1.00  0.00     0.163 HD
ATOM     35  O   UNL A   1      32.909  33.201  27.814  1.00  0.00    -0.269 OA
BRANCH  33  36
ATOM     36  C   UNL A   1      34.983  32.581  28.725  1.00  0.00     0.039 A 
ATOM     37  C   UNL A   1      36.045  33.217  28.066  1.00  0.00     0.014 A 
ATOM     38  C   UNL A   1      35.193  32.002  29.969  1.00  0.00     0.014 A 
ATOM     39  C   UNL A   1      37.349  33.008  28.513  1.00  0.00     0.010 A 
ATOM     40  C   UNL A   1      36.480  31.674  30.331  1.00  0.00     0.010 A 
ATOM     41  C   UNL A   1      37.559  32.120  29.564  1.00  0.00    -0.014 A 
BRANCH  41  42
ATOM     42  C   UNL A   1      38.835  31.478  29.845  1.00  0.00     0.031 A 
ATOM     43  C   UNL A   1      39.167  30.166  29.251  1.00  0.00     0.074 A 
ATOM     44  C   UNL A   1      39.778  32.156  30.537  1.00  0.00     0.049 A 
ATOM     45  N   UNL A   1      40.100  29.388  29.686  1.00  0.00    -0.248 NA
ATOM     46  C   UNL A   1      38.423  29.595  28.134  1.00  0.00     0.031 C 
ATOM     47  C   UNL A   1      41.210  31.879  30.605  1.00  0.00     0.029 A 
ATOM     48  N   UNL A   1      39.589  33.152  31.485  1.00  0.00    -0.354 N 
ATOM     49  C   UNL A   1      40.294  28.409  28.739  1.00  0.00     0.074 A 
ATOM     50  C   UNL A   1      39.165  28.523  27.847  1.00  0.00     0.031 C 
ATOM     51  C   UNL A   1      41.727  32.505  31.675  1.00  0.00     0.029 A 
ATOM     52  C   UNL A   1      40.619  33.071  32.427  1.00  0.00     0.049 A 
ATOM     53  H   UNL A   1      38.854  33.806  31.492  1.00  0.00     0.167 HD
ATOM     54  C   UNL A   1      41.466  27.714  28.729  1.00  0.00     0.031 A 
ATOM     55  C   UNL A   1      40.350  32.775  33.734  1.00  0.00     0.031 A 
ATOM     56  C   UNL A   1      42.305  28.051  29.880  1.00  0.00     0.049 A 
ATOM     57  C   UNL A   1      40.945  31.461  34.201  1.00  0.00     0.074 A 
ATOM     58  C   UNL A   1      43.426  28.850  30.030  1.00  0.00     0.029 A 
ATOM     59  N   UNL A   1      41.843  27.775  31.161  1.00  0.00    -0.354 N 
ATOM     60  N   UNL A   1      41.376  30.529  33.396  1.00  0.00    -0.248 NA
ATOM     61  C   UNL A   1      41.069  31.078  35.605  1.00  0.00     0.031 C 
ATOM     62  C   UNL A   1      43.596  29.111  31.417  1.00  0.00     0.029 A 
ATOM     63  C   UNL A   1      42.595  28.447  32.105  1.00  0.00     0.049 A 
ATOM     64  H   UNL A   1      41.085  27.182  31.368  1.00  0.00     0.167 HD
ATOM     65  C   UNL A   1      41.810  29.452  34.124  1.00  0.00     0.074 A 
ATOM     66  C   UNL A   1      41.609  29.850  35.505  1.00  0.00     0.031 C 
ATOM     67  C   UNL A   1      42.283  28.321  33.522  1.00  0.00     0.031 A 
BRANCH  54  68
ATOM     68  C   UNL A   1      41.972  26.949  27.526  1.00  0.00    -0.014 A 
ATOM     69  C   UNL A   1      41.094  26.675  26.460  1.00  0.00     0.009 A 
ATOM     70  C   UNL A   1      43.266  26.415  27.400  1.00  0.00     0.009 A 
ATOM     71  C   UNL A   1      41.455  25.841  25.391  1.00  0.00     0.001 A 
ATOM     72  C   UNL A   1      43.624  25.554  26.353  1.00  0.00     0.001 A 
ATOM     73  C   UNL A   1      42.712  25.257  25.352  1.00  0.00     0.000 A 
ENDBRANCH  54  68
BRANCH  55  74
ATOM     74  C   UNL A   1      39.055  33.333  34.215  1.00  0.00    -0.014 A 
ATOM     75  C   UNL A   1      37.864  32.773  33.712  1.00  0.00     0.009 A 
ATOM     76  C   UNL A   1      38.993  34.091  35.393  1.00  0.00     0.009 A 
ATOM     77  C   UNL A   1      36.668  32.869  34.431  1.00  0.00     0.001 A 
ATOM     78  C   UNL A   1      37.790  34.189  36.107  1.00  0.00     0.001 A 
ATOM     79  C   UNL A   1      36.641  33.550  35.645  1.00  0.00     0.000 A 
ENDBRANCH  55  74
BRANCH  67  80
ATOM     80  C   UNL A   1      42.563  26.998  34.197  1.00  0.00    -0.014 A 
ATOM     81  C   UNL A   1      41.670  26.336  35.049  1.00  0.00     0.009 A 
ATOM     82  C   UNL A   1      43.744  26.297  33.857  1.00  0.00     0.009 A 
ATOM     83  C   UNL A   1      41.961  25.065  35.568  1.00  0.00     0.001 A 
ATOM     84  C   UNL A   1      44.016  25.011  34.331  1.00  0.00     0.001 A 
ATOM     85  C   UNL A   1      43.126  24.399  35.200  1.00  0.00     0.000 A 
ENDBRANCH  67  80
ENDBRANCH  41  42
ENDBRANCH  33  36
ENDBRANCH  31  32
ENDBRANCH  30  31
ENDBRANCH   1  30
TORSDOF 16
ENDMDL
MODEL 2
REMARK VINA RESULT:     -11.8      3.370      9.177
REMARK SMILES CCC(=O)N1CCC[C@](C[C@H]2CC(c3ccc(C)cc3)=NO2)(C(=O)NCCCCNC(=O)c2ccc(-c3c4nc(c(-c5ccccc5)c5ccc([nH]5)c(-c5ccccc5)c5nc(c(-c6ccccc6)c6ccc3[nH]6)C=C5)C=C4)cc2)C1
REMARK SMILES IDX 27 1 26 2 25 3 23 4 24 5 9 7 5 8 6 9 81 10 7 11 8 12 3 13
REMARK SMILES IDX 4 14 2 15 1 16 10 17 11 18 12 19 22 20 13 21 21 22 14 23
REMARK SMILES IDX 15 24 20 25 16 26 19 27 17 28 18 29 28 30 29 31 30 32 31 33
REMARK SMILES IDX 32 35 33 36 34 37 80 38 35 39 79 40 36 41 37 42 38 43 73 44
REMARK SMILES IDX 39 45 78 46 72 47 74 48 40 49 77 50 71 51 70 52 41 54 63 55
REMARK SMILES IDX 48 56 62 57 49 58 52 59 61 60 75 61 50 62 51 63 60 65 76 66
REMARK SMILES IDX 53 67 42 68 43 69 47 70 44 71 46 72 45 73 64 74 65 75 69 76
REMARK SMILES IDX 66 77 68 78 67 79 54 80 55 81 59 82 56 83 58 84 57 85
REMARK H PARENT 25 6 30 34 74 53 52 64
REMARK Flexibility Score: inf
ROOT
ATOM      1  C   UNL A   1      38.562  23.206  26.820  1.00  0.00     0.023 C 
ENDROOT
BRANCH   1   2
ATOM      2  C   UNL A   1      37.461  23.981  26.084  1.00  0.00     0.116 C 
BRANCH   2   3
ATOM      3  N   UNL A   1      36.116  23.598  26.501  1.00  0.00    -0.356 N 
ATOM      4  C   UNL A   1      35.058  23.010  25.864  1.00  0.00     0.228 C 
ATOM      5  O   UNL A   1      34.021  22.930  26.529  1.00  0.00    -0.274 OA
ATOM      6  H   UNL A   1      35.930  23.808  27.443  1.00  0.00     0.163 HD
BRANCH   4   7
ATOM      7  C   UNL A   1      35.124  22.525  24.388  1.00  0.00     0.070 C 
ATOM      8  N   UNL A   1      33.803  20.356  24.708  1.00  0.00    -0.342 N 
ATOM      9  C   UNL A   1      35.004  19.543  24.570  1.00  0.00     0.119 C 
ATOM     10  C   UNL A   1      33.834  21.683  24.070  1.00  0.00     0.136 C 
ATOM     11  C   UNL A   1      36.242  20.306  24.992  1.00  0.00     0.023 C 
ATOM     12  C   UNL A   1      36.338  21.600  24.189  1.00  0.00     0.021 C 
BRANCH   8  13
ATOM     13  C   UNL A   1      32.707  19.760  25.314  1.00  0.00     0.222 C 
ATOM     14  O   UNL A   1      31.693  20.412  25.589  1.00  0.00    -0.275 OA
BRANCH  13  15
ATOM     15  C   UNL A   1      32.820  18.340  25.851  1.00  0.00     0.097 C 
ATOM     16  C   UNL A   1      32.409  17.195  24.953  1.00  0.00     0.014 C 
ENDBRANCH  13  15
ENDBRANCH   8  13
BRANCH   7  17
ATOM     17  C   UNL A   1      35.114  23.838  23.532  1.00  0.00     0.067 C 
BRANCH  17  18
ATOM     18  C   UNL A   1      33.833  24.547  23.073  1.00  0.00     0.211 C 
ATOM     19  C   UNL A   1      33.070  25.353  24.101  1.00  0.00     0.108 C 
ATOM     20  O   UNL A   1      34.077  25.406  21.959  1.00  0.00    -0.392 OA
ATOM     21  C   UNL A   1      33.264  26.703  23.517  1.00  0.00     0.091 C 
ATOM     22  N   UNL A   1      33.774  26.733  22.330  1.00  0.00    -0.090 NA
BRANCH  21  23
ATOM     23  C   UNL A   1      32.871  27.922  24.238  1.00  0.00    -0.001 A 
ATOM     24  C   UNL A   1      31.668  28.568  23.948  1.00  0.00     0.010 A 
ATOM     25  C   UNL A   1      33.686  28.376  25.275  1.00  0.00     0.010 A 
ATOM     26  C   UNL A   1      31.262  29.656  24.724  1.00  0.00     0.004 A 
ATOM     27  C   UNL A   1      33.293  29.484  26.026  1.00  0.00     0.004 A 
ATOM     28  C   UNL A   1      32.068  30.116  25.771  1.00  0.00    -0.051 A 
ATOM     29  C   UNL A   1      31.642  31.290  26.602  1.00  0.00     0.044 C 
ENDBRANCH  21  23
ENDBRANCH  17  18
ENDBRANCH   7  17
ENDBRANCH   4   7
ENDBRANCH   2   3
ENDBRANCH   1   2
BRANCH   1  30
ATOM     30  C   UNL A   1      39.365  22.224  25.971  1.00  0.00     0.023 C 
BRANCH  30  31
ATOM     31  C   UNL A   1      40.049  21.114  26.756  1.00  0.00     0.116 C 
BRANCH  31  32
ATOM     32  N   UNL A   1      41.074  20.376  26.029  1.00  0.00    -0.352 N 
ATOM     33  C   UNL A   1      42.442  20.602  25.948  1.00  0.00     0.251 C 
ATOM     34  H   UNL A   1      40.747  19.600  25.519  1.00  0.00     0.163 HD
ATOM     35  O   UNL A   1      43.131  19.902  25.224  1.00  0.00    -0.269 OA
BRANCH  33  36
ATOM     36  C   UNL A   1      43.089  21.591  26.855  1.00  0.00     0.039 A 
ATOM     37  C   UNL A   1      42.657  21.638  28.188  1.00  0.00     0.014 A 
ATOM     38  C   UNL A   1      43.902  22.601  26.359  1.00  0.00     0.014 A 
ATOM     39  C   UNL A   1      42.791  22.823  28.908  1.00  0.00     0.010 A 
ATOM     40  C   UNL A   1      43.910  23.815  27.009  1.00  0.00     0.010 A 
ATOM     41  C   UNL A   1      43.295  23.946  28.256  1.00  0.00    -0.014 A 
BRANCH  41  42
ATOM     42  C   UNL A   1      43.091  25.313  28.714  1.00  0.00     0.031 A 
ATOM     43  C   UNL A   1      41.912  26.088  28.276  1.00  0.00     0.074 A 
ATOM     44  C   UNL A   1      43.912  25.822  29.659  1.00  0.00     0.049 A 
ATOM     45  N   UNL A   1      41.816  27.372  28.358  1.00  0.00    -0.248 NA
ATOM     46  C   UNL A   1      40.748  25.469  27.650  1.00  0.00     0.031 C 
ATOM     47  C   UNL A   1      43.679  26.982  30.516  1.00  0.00     0.029 A 
ATOM     48  N   UNL A   1      45.234  25.485  29.913  1.00  0.00    -0.354 N 
ATOM     49  C   UNL A   1      40.502  27.703  28.118  1.00  0.00     0.074 A 
ATOM     50  C   UNL A   1      39.904  26.501  27.588  1.00  0.00     0.031 C 
ATOM     51  C   UNL A   1      44.853  27.396  31.021  1.00  0.00     0.029 A 
ATOM     52  C   UNL A   1      45.902  26.622  30.379  1.00  0.00     0.049 A 
ATOM     53  H   UNL A   1      45.634  24.595  29.787  1.00  0.00     0.167 HD
ATOM     54  C   UNL A   1      40.031  28.910  28.539  1.00  0.00     0.031 A 
ATOM     55  C   UNL A   1      46.932  27.170  29.666  1.00  0.00     0.031 A 
ATOM     56  C   UNL A   1      41.102  29.751  29.078  1.00  0.00     0.049 A 
ATOM     57  C   UNL A   1      46.646  28.568  29.154  1.00  0.00     0.074 A 
ATOM     58  C   UNL A   1      41.488  30.079  30.367  1.00  0.00     0.029 A 
ATOM     59  N   UNL A   1      42.139  30.146  28.243  1.00  0.00    -0.354 N 
ATOM     60  N   UNL A   1      45.453  29.088  29.082  1.00  0.00    -0.248 NA
ATOM     61  C   UNL A   1      47.675  29.473  28.649  1.00  0.00     0.031 C 
ATOM     62  C   UNL A   1      42.802  30.615  30.307  1.00  0.00     0.029 A 
ATOM     63  C   UNL A   1      43.199  30.637  28.981  1.00  0.00     0.049 A 
ATOM     64  H   UNL A   1      42.123  30.087  27.260  1.00  0.00     0.167 HD
ATOM     65  C   UNL A   1      45.526  30.343  28.535  1.00  0.00     0.074 A 
ATOM     66  C   UNL A   1      46.943  30.544  28.292  1.00  0.00     0.031 C 
ATOM     67  C   UNL A   1      44.410  31.099  28.317  1.00  0.00     0.031 A 
BRANCH  54  68
ATOM     68  C   UNL A   1      38.561  29.213  28.729  1.00  0.00    -0.014 A 
ATOM     69  C   UNL A   1      37.820  29.747  27.656  1.00  0.00     0.009 A 
ATOM     70  C   UNL A   1      37.860  29.064  29.937  1.00  0.00     0.009 A 
ATOM     71  C   UNL A   1      36.499  30.193  27.810  1.00  0.00     0.001 A 
ATOM     72  C   UNL A   1      36.551  29.538  30.109  1.00  0.00     0.001 A 
ATOM     73  C   UNL A   1      35.874  30.114  29.046  1.00  0.00     0.000 A 
ENDBRANCH  54  68
BRANCH  55  74
ATOM     74  C   UNL A   1      47.761  26.160  28.950  1.00  0.00    -0.014 A 
ATOM     75  C   UNL A   1      47.578  26.016  27.561  1.00  0.00     0.009 A 
ATOM     76  C   UNL A   1      48.938  25.660  29.526  1.00  0.00     0.009 A 
ATOM     77  C   UNL A   1      48.594  25.494  26.754  1.00  0.00     0.001 A 
ATOM     78  C   UNL A   1      49.951  25.132  28.714  1.00  0.00     0.001 A 
ATOM     79  C   UNL A   1      49.794  25.083  27.330  1.00  0.00     0.000 A 
ENDBRANCH  55  74
BRANCH  67  80
ATOM     80  C   UNL A   1      44.337  32.378  27.515  1.00  0.00    -0.014 A 
ATOM     81  C   UNL A   1      44.444  32.449  26.120  1.00  0.00     0.009 A 
ATOM     82  C   UNL A   1      44.007  33.581  28.182  1.00  0.00     0.009 A 
ATOM     83  C   UNL A   1      44.275  33.661  25.435  1.00  0.00     0.001 A 
ATOM     84  C   UNL A   1      43.789  34.781  27.499  1.00  0.00     0.001 A 
ATOM     85  C   UNL A   1      43.937  34.823  26.122  1.00  0.00     0.000 A 
ENDBRANCH  67  80
ENDBRANCH  41  42
ENDBRANCH  33  36
ENDBRANCH  31  32
ENDBRANCH  30  31
ENDBRANCH   1  30
TORSDOF 16
ENDMDL
MODEL 3
REMARK VINA RESULT:     -11.6      2.147      4.228
REMARK SMILES CCC(=O)N1CCC[C@](C[C@H]2CC(c3ccc(C)cc3)=NO2)(C(=O)NCCCCNC(=O)c2ccc(-c3c4nc(c(-c5ccccc5)c5ccc([nH]5)c(-c5ccccc5)c5nc(c(-c6ccccc6)c6ccc3[nH]6)C=C5)C=C4)cc2)C1
REMARK SMILES IDX 27 1 26 2 25 3 23 4 24 5 9 7 5 8 6 9 81 10 7 11 8 12 3 13
REMARK SMILES IDX 4 14 2 15 1 16 10 17 11 18 12 19 22 20 13 21 21 22 14 23
REMARK SMILES IDX 15 24 20 25 16 26 19 27 17 28 18 29 28 30 29 31 30 32 31 33
REMARK SMILES IDX 32 35 33 36 34 37 80 38 35 39 79 40 36 41 37 42 38 43 73 44
REMARK SMILES IDX 39 45 78 46 72 47 74 48 40 49 77 50 71 51 70 52 41 54 63 55
REMARK SMILES IDX 48 56 62 57 49 58 52 59 61 60 75 61 50 62 51 63 60 65 76 66
REMARK SMILES IDX 53 67 42 68 43 69 47 70 44 71 46 72 45 73 64 74 65 75 69 76
REMARK SMILES IDX 66 77 68 78 67 79 54 80 55 81 59 82 56 83 58 84 57 85
REMARK H PARENT 25 6 30 34 74 53 52 64
REMARK Flexibility Score: inf
ROOT
ATOM      1  C   UNL A   1      31.775  29.678  25.865  1.00  0.00     0.023 C 
ENDROOT
BRANCH   1   2
ATOM      2  C   UNL A   1      31.608  28.350  26.616  1.00  0.00     0.116 C 
BRANCH   2   3
ATOM      3  N   UNL A   1      32.511  27.307  26.140  1.00  0.00    -0.356 N 
ATOM      4  C   UNL A   1      32.351  26.204  25.348  1.00  0.00     0.228 C 
ATOM      5  O   UNL A   1      33.347  25.482  25.242  1.00  0.00    -0.274 OA
ATOM      6  H   UNL A   1      33.434  27.423  26.457  1.00  0.00     0.163 HD
BRANCH   4   7
ATOM      7  C   UNL A   1      31.000  25.838  24.672  1.00  0.00     0.070 C 
ATOM      8  N   UNL A   1      31.945  25.272  22.361  1.00  0.00    -0.342 N 
ATOM      9  C   UNL A   1      31.404  26.494  21.782  1.00  0.00     0.119 C 
ATOM     10  C   UNL A   1      31.261  24.757  23.560  1.00  0.00     0.136 C 
ATOM     11  C   UNL A   1      31.262  27.585  22.822  1.00  0.00     0.023 C 
ATOM     12  C   UNL A   1      30.404  27.077  23.977  1.00  0.00     0.021 C 
BRANCH   8  13
ATOM     13  C   UNL A   1      32.965  24.644  21.662  1.00  0.00     0.222 C 
ATOM     14  O   UNL A   1      33.277  25.004  20.521  1.00  0.00    -0.275 OA
BRANCH  13  15
ATOM     15  C   UNL A   1      33.570  23.356  22.203  1.00  0.00     0.097 C 
ATOM     16  C   UNL A   1      34.898  23.432  22.925  1.00  0.00     0.014 C 
ENDBRANCH  13  15
ENDBRANCH   8  13
BRANCH   7  17
ATOM     17  C   UNL A   1      30.133  25.210  25.817  1.00  0.00     0.067 C 
BRANCH  17  18
ATOM     18  C   UNL A   1      30.285  23.764  26.305  1.00  0.00     0.211 C 
ATOM     19  C   UNL A   1      31.132  22.827  25.471  1.00  0.00     0.108 C 
ATOM     20  O   UNL A   1      30.786  23.709  27.641  1.00  0.00    -0.392 OA
ATOM     21  C   UNL A   1      32.232  22.595  26.441  1.00  0.00     0.091 C 
ATOM     22  N   UNL A   1      32.027  23.038  27.637  1.00  0.00    -0.090 NA
BRANCH  21  23
ATOM     23  C   UNL A   1      33.458  21.880  26.062  1.00  0.00    -0.001 A 
ATOM     24  C   UNL A   1      33.409  20.778  25.207  1.00  0.00     0.010 A 
ATOM     25  C   UNL A   1      34.684  22.374  26.509  1.00  0.00     0.010 A 
ATOM     26  C   UNL A   1      34.597  20.188  24.770  1.00  0.00     0.004 A 
ATOM     27  C   UNL A   1      35.867  21.760  26.097  1.00  0.00     0.004 A 
ATOM     28  C   UNL A   1      35.832  20.679  25.206  1.00  0.00    -0.051 A 
ATOM     29  C   UNL A   1      37.111  20.043  24.748  1.00  0.00     0.044 C 
ENDBRANCH  21  23
ENDBRANCH  17  18
ENDBRANCH   7  17
ENDBRANCH   4   7
ENDBRANCH   2   3
ENDBRANCH   1   2
BRANCH   1  30
ATOM     30  C   UNL A   1      32.275  30.855  26.700  1.00  0.00     0.023 C 
BRANCH  30  31
ATOM     31  C   UNL A   1      33.469  30.542  27.590  1.00  0.00     0.116 C 
BRANCH  31  32
ATOM     32  N   UNL A   1      34.354  31.666  27.865  1.00  0.00    -0.352 N 
ATOM     33  C   UNL A   1      35.676  31.673  28.289  1.00  0.00     0.251 C 
ATOM     34  H   UNL A   1      33.954  32.556  27.728  1.00  0.00     0.163 HD
ATOM     35  O   UNL A   1      36.231  32.733  28.530  1.00  0.00    -0.269 OA
BRANCH  33  36
ATOM     36  C   UNL A   1      36.461  30.407  28.301  1.00  0.00     0.039 A 
ATOM     37  C   UNL A   1      36.604  29.736  29.524  1.00  0.00     0.014 A 
ATOM     38  C   UNL A   1      37.237  30.029  27.214  1.00  0.00     0.014 A 
ATOM     39  C   UNL A   1      37.711  28.914  29.726  1.00  0.00     0.010 A 
ATOM     40  C   UNL A   1      38.403  29.337  27.450  1.00  0.00     0.010 A 
ATOM     41  C   UNL A   1      38.675  28.835  28.725  1.00  0.00    -0.014 A 
BRANCH  41  42
ATOM     42  C   UNL A   1      40.045  28.395  28.947  1.00  0.00     0.031 A 
ATOM     43  C   UNL A   1      40.493  27.063  28.493  1.00  0.00     0.074 A 
ATOM     44  C   UNL A   1      40.948  29.272  29.442  1.00  0.00     0.049 A 
ATOM     45  N   UNL A   1      41.557  26.470  28.920  1.00  0.00    -0.248 NA
ATOM     46  C   UNL A   1      39.734  26.256  27.544  1.00  0.00     0.031 C 
ATOM     47  C   UNL A   1      42.405  29.180  29.390  1.00  0.00     0.029 A 
ATOM     48  N   UNL A   1      40.716  30.361  30.269  1.00  0.00    -0.354 N 
ATOM     49  C   UNL A   1      41.793  25.399  28.090  1.00  0.00     0.074 A 
ATOM     50  C   UNL A   1      40.582  25.251  27.317  1.00  0.00     0.031 C 
ATOM     51  C   UNL A   1      42.929  30.007  30.310  1.00  0.00     0.029 A 
ATOM     52  C   UNL A   1      41.828  30.536  31.098  1.00  0.00     0.049 A 
ATOM     53  H   UNL A   1      39.904  30.917  30.272  1.00  0.00     0.167 HD
ATOM     54  C   UNL A   1      43.040  24.854  28.043  1.00  0.00     0.031 A 
ATOM     55  C   UNL A   1      41.720  30.396  32.454  1.00  0.00     0.031 A 
ATOM     56  C   UNL A   1      43.928  25.447  29.044  1.00  0.00     0.049 A 
ATOM     57  C   UNL A   1      42.524  29.241  33.017  1.00  0.00     0.074 A 
ATOM     58  C   UNL A   1      44.942  26.387  28.971  1.00  0.00     0.029 A 
ATOM     59  N   UNL A   1      43.625  25.300  30.393  1.00  0.00    -0.354 N 
ATOM     60  N   UNL A   1      43.000  28.264  32.296  1.00  0.00    -0.248 NA
ATOM     61  C   UNL A   1      42.824  29.076  34.437  1.00  0.00     0.031 C 
ATOM     62  C   UNL A   1      45.201  26.858  30.286  1.00  0.00     0.029 A 
ATOM     63  C   UNL A   1      44.363  26.182  31.157  1.00  0.00     0.049 A 
ATOM     64  H   UNL A   1      42.974  24.655  30.754  1.00  0.00     0.167 HD
ATOM     65  C   UNL A   1      43.638  27.359  33.105  1.00  0.00     0.074 A 
ATOM     66  C   UNL A   1      43.511  27.920  34.437  1.00  0.00     0.031 C 
ATOM     67  C   UNL A   1      44.200  26.220  32.604  1.00  0.00     0.031 A 
BRANCH  54  68
ATOM     68  C   UNL A   1      43.533  23.994  26.900  1.00  0.00    -0.014 A 
ATOM     69  C   UNL A   1      44.574  23.073  27.125  1.00  0.00     0.009 A 
ATOM     70  C   UNL A   1      43.075  24.081  25.574  1.00  0.00     0.009 A 
ATOM     71  C   UNL A   1      45.180  22.361  26.079  1.00  0.00     0.001 A 
ATOM     72  C   UNL A   1      43.697  23.398  24.518  1.00  0.00     0.001 A 
ATOM     73  C   UNL A   1      44.759  22.545  24.771  1.00  0.00     0.000 A 
ENDBRANCH  54  68
BRANCH  55  74
ATOM     74  C   UNL A   1      40.411  30.857  32.995  1.00  0.00    -0.014 A 
ATOM     75  C   UNL A   1      39.451  29.882  33.330  1.00  0.00     0.009 A 
ATOM     76  C   UNL A   1      40.269  32.147  33.527  1.00  0.00     0.009 A 
ATOM     77  C   UNL A   1      38.446  30.157  34.263  1.00  0.00     0.001 A 
ATOM     78  C   UNL A   1      39.256  32.419  34.457  1.00  0.00     0.001 A 
ATOM     79  C   UNL A   1      38.370  31.417  34.850  1.00  0.00     0.000 A 
ENDBRANCH  55  74
BRANCH  67  80
ATOM     80  C   UNL A   1      44.714  25.047  33.408  1.00  0.00    -0.014 A 
ATOM     81  C   UNL A   1      43.946  23.931  33.764  1.00  0.00     0.009 A 
ATOM     82  C   UNL A   1      46.092  24.986  33.719  1.00  0.00     0.009 A 
ATOM     83  C   UNL A   1      44.514  22.836  34.432  1.00  0.00     0.001 A 
ATOM     84  C   UNL A   1      46.672  23.878  34.341  1.00  0.00     0.001 A 
ATOM     85  C   UNL A   1      45.877  22.805  34.710  1.00  0.00     0.000 A 
ENDBRANCH  67  80
ENDBRANCH  41  42
ENDBRANCH  33  36
ENDBRANCH  31  32
ENDBRANCH  30  31
ENDBRANCH   1  30
TORSDOF 16
ENDMDL
