MODEL 1
REMARK VINA RESULT:     -13.1      0.000      0.000
REMARK SMILES O=C(NCCCCNC(=O)c1nccnc1C(=O)Nc1n[nH]c2ncccc12)c1ccc(-c2c3nc(c(-c4ccccc4)c4ccc([nH]4)c(-c4ccccc4)c4nc(c(-c5ccccc5)c5ccc2[nH]5)C=C4)C=C3)cc1
REMARK SMILES IDX 5 1 4 2 3 3 1 4 2 5 29 7 30 8 76 9 31 10 75 11 32 12 33 13
REMARK SMILES IDX 34 14 69 15 35 16 74 17 68 18 70 19 36 20 73 21 67 22 66 23
REMARK SMILES IDX 37 25 59 26 44 27 58 28 45 29 48 30 57 31 71 32 46 33 47 34
REMARK SMILES IDX 56 36 72 37 49 38 38 39 39 40 43 41 40 42 42 43 41 44 60 45
REMARK SMILES IDX 61 46 65 47 62 48 64 49 63 50 50 51 51 52 55 53 52 54 54 55
REMARK SMILES IDX 53 56 6 57 7 58 8 59 9 60 10 62 11 63 12 64 16 65 13 66
REMARK SMILES IDX 15 67 14 68 17 69 18 70 19 71 20 73 21 74 28 75 22 76 23 77
REMARK SMILES IDX 27 78 24 80 26 81 25 82
REMARK H PARENT 3 6 70 24 48 35 8 61 19 72 22 79
REMARK Flexibility Score: inf
ROOT
ATOM      1  C   UNL A   1      37.464  20.976  25.153  1.00  0.00     0.023 C 
ENDROOT
BRANCH   1   2
ATOM      2  C   UNL A   1      38.873  20.991  25.734  1.00  0.00     0.116 C 
BRANCH   2   3
ATOM      3  N   UNL A   1      39.716  19.826  25.497  1.00  0.00    -0.352 N 
ATOM      4  O   UNL A   1      41.610  18.605  25.845  1.00  0.00    -0.269 OA
ATOM      5  C   UNL A   1      40.998  19.655  25.981  1.00  0.00     0.251 C 
ATOM      6  H   UNL A   1      39.341  19.102  24.945  1.00  0.00     0.163 HD
BRANCH   5   7
ATOM      7  C   UNL A   1      41.643  20.847  26.570  1.00  0.00     0.039 A 
ATOM      8  C   UNL A   1      41.554  21.076  27.944  1.00  0.00     0.014 A 
ATOM      9  C   UNL A   1      42.080  21.847  25.700  1.00  0.00     0.014 A 
ATOM     10  C   UNL A   1      41.699  22.371  28.416  1.00  0.00     0.010 A 
ATOM     11  C   UNL A   1      42.365  23.115  26.205  1.00  0.00     0.010 A 
ATOM     12  C   UNL A   1      42.137  23.399  27.562  1.00  0.00    -0.014 A 
BRANCH  12  13
ATOM     13  C   UNL A   1      42.463  24.729  28.131  1.00  0.00     0.031 A 
ATOM     14  C   UNL A   1      41.414  25.784  28.348  1.00  0.00     0.074 A 
ATOM     15  C   UNL A   1      43.753  24.974  28.435  1.00  0.00     0.049 A 
ATOM     16  N   UNL A   1      41.568  27.013  28.779  1.00  0.00    -0.248 NA
ATOM     17  C   UNL A   1      40.020  25.432  28.035  1.00  0.00     0.031 C 
ATOM     18  C   UNL A   1      44.856  24.023  28.262  1.00  0.00     0.029 A 
ATOM     19  N   UNL A   1      44.358  26.084  28.961  1.00  0.00    -0.354 N 
ATOM     20  C   UNL A   1      40.302  27.586  28.763  1.00  0.00     0.074 A 
ATOM     21  C   UNL A   1      39.391  26.579  28.261  1.00  0.00     0.031 C 
ATOM     22  C   UNL A   1      45.987  24.567  28.721  1.00  0.00     0.029 A 
ATOM     23  C   UNL A   1      45.713  25.938  29.121  1.00  0.00     0.049 A 
ATOM     24  H   UNL A   1      43.869  26.904  29.201  1.00  0.00     0.167 HD
ATOM     25  C   UNL A   1      39.940  28.840  29.132  1.00  0.00     0.031 A 
ATOM     26  C   UNL A   1      46.651  26.821  29.502  1.00  0.00     0.031 A 
ATOM     27  C   UNL A   1      40.863  29.835  29.619  1.00  0.00     0.049 A 
ATOM     28  C   UNL A   1      46.224  28.216  29.839  1.00  0.00     0.074 A 
ATOM     29  C   UNL A   1      40.591  31.124  30.050  1.00  0.00     0.029 A 
ATOM     30  N   UNL A   1      42.234  29.660  29.731  1.00  0.00    -0.354 N 
ATOM     31  N   UNL A   1      45.018  28.731  29.855  1.00  0.00    -0.248 NA
ATOM     32  C   UNL A   1      47.288  29.154  30.213  1.00  0.00     0.031 C 
ATOM     33  C   UNL A   1      41.804  31.751  30.346  1.00  0.00     0.029 A 
ATOM     34  C   UNL A   1      42.825  30.828  30.188  1.00  0.00     0.049 A 
ATOM     35  H   UNL A   1      42.716  28.828  29.517  1.00  0.00     0.167 HD
ATOM     36  C   UNL A   1      45.176  30.043  30.272  1.00  0.00     0.074 A 
ATOM     37  C   UNL A   1      46.589  30.236  30.522  1.00  0.00     0.031 C 
ATOM     38  C   UNL A   1      44.234  31.004  30.433  1.00  0.00     0.031 A 
BRANCH  25  39
ATOM     39  C   UNL A   1      38.492  29.234  28.993  1.00  0.00    -0.014 A 
ATOM     40  C   UNL A   1      37.605  29.174  30.079  1.00  0.00     0.009 A 
ATOM     41  C   UNL A   1      38.028  29.751  27.772  1.00  0.00     0.009 A 
ATOM     42  C   UNL A   1      36.280  29.599  29.937  1.00  0.00     0.001 A 
ATOM     43  C   UNL A   1      36.713  30.204  27.641  1.00  0.00     0.001 A 
ATOM     44  C   UNL A   1      35.838  30.120  28.722  1.00  0.00     0.000 A 
ENDBRANCH  25  39
BRANCH  26  45
ATOM     45  C   UNL A   1      48.082  26.422  29.538  1.00  0.00    -0.014 A 
ATOM     46  C   UNL A   1      48.900  26.584  28.411  1.00  0.00     0.009 A 
ATOM     47  C   UNL A   1      48.636  25.865  30.703  1.00  0.00     0.009 A 
ATOM     48  C   UNL A   1      50.228  26.155  28.434  1.00  0.00     0.001 A 
ATOM     49  C   UNL A   1      49.975  25.477  30.739  1.00  0.00     0.001 A 
ATOM     50  C   UNL A   1      50.764  25.605  29.599  1.00  0.00     0.000 A 
ENDBRANCH  26  45
BRANCH  38  51
ATOM     51  C   UNL A   1      44.701  32.333  30.956  1.00  0.00    -0.014 A 
ATOM     52  C   UNL A   1      45.125  33.358  30.095  1.00  0.00     0.009 A 
ATOM     53  C   UNL A   1      44.694  32.570  32.341  1.00  0.00     0.009 A 
ATOM     54  C   UNL A   1      45.576  34.574  30.613  1.00  0.00     0.001 A 
ATOM     55  C   UNL A   1      45.106  33.799  32.852  1.00  0.00     0.001 A 
ATOM     56  C   UNL A   1      45.559  34.795  31.989  1.00  0.00     0.000 A 
ENDBRANCH  38  51
ENDBRANCH  12  13
ENDBRANCH   5   7
ENDBRANCH   2   3
ENDBRANCH   1   2
BRANCH   1  57
ATOM     57  C   UNL A   1      36.896  22.172  24.056  1.00  0.00     0.023 C 
BRANCH  57  58
ATOM     58  C   UNL A   1      35.313  23.699  24.140  1.00  0.00     0.116 C 
BRANCH  58  59
ATOM     59  N   UNL A   1      35.049  24.935  25.139  1.00  0.00    -0.351 N 
ATOM     60  C   UNL A   1      33.908  25.697  25.311  1.00  0.00     0.272 C 
ATOM     61  H   UNL A   1      35.810  25.185  25.710  1.00  0.00     0.163 HD
ATOM     62  O   UNL A   1      33.900  26.711  25.995  1.00  0.00    -0.267 OA
BRANCH  60  63
ATOM     63  C   UNL A   1      32.685  25.204  24.655  1.00  0.00     0.159 A 
ATOM     64  N   UNL A   1      32.017  24.275  25.418  1.00  0.00    -0.247 NA
ATOM     65  C   UNL A   1      32.344  25.492  23.341  1.00  0.00     0.159 A 
ATOM     66  C   UNL A   1      30.984  23.654  24.824  1.00  0.00     0.132 A 
ATOM     67  N   UNL A   1      31.291  24.834  22.754  1.00  0.00    -0.247 NA
ATOM     68  C   UNL A   1      30.630  23.927  23.519  1.00  0.00     0.132 A 
BRANCH  65  69
ATOM     69  C   UNL A   1      32.974  26.531  22.465  1.00  0.00     0.277 C 
ATOM     70  O   UNL A   1      33.802  26.146  21.633  1.00  0.00    -0.267 OA
ATOM     71  N   UNL A   1      32.668  27.874  22.491  1.00  0.00    -0.303 N 
ATOM     72  H   UNL A   1      33.029  28.396  21.738  1.00  0.00     0.172 HD
BRANCH  71  73
ATOM     73  C   UNL A   1      31.940  28.599  23.397  1.00  0.00     0.164 A 
ATOM     74  N   UNL A   1      32.590  29.153  24.436  1.00  0.00    -0.155 NA
ATOM     75  C   UNL A   1      30.580  28.958  23.324  1.00  0.00     0.063 A 
ATOM     76  N   UNL A   1      31.875  30.224  24.891  1.00  0.00    -0.259 N 
ATOM     77  C   UNL A   1      30.618  30.338  24.369  1.00  0.00     0.157 A 
ATOM     78  C   UNL A   1      29.072  28.616  22.424  1.00  0.00     0.017 A 
ATOM     79  H   UNL A   1      32.238  30.865  25.545  1.00  0.00     0.192 HD
ATOM     80  N   UNL A   1      29.335  31.506  24.471  1.00  0.00    -0.237 NA
ATOM     81  C   UNL A   1      27.687  29.732  22.506  1.00  0.00     0.021 A 
ATOM     82  C   UNL A   1      27.841  31.129  23.557  1.00  0.00     0.113 A 
ENDBRANCH  71  73
ENDBRANCH  65  69
ENDBRANCH  60  63
ENDBRANCH  58  59
ENDBRANCH  57  58
ENDBRANCH   1  57
TORSDOF 13
ENDMDL
MODEL 2
REMARK VINA RESULT:     -13.1      2.698      7.218
REMARK SMILES O=C(NCCCCNC(=O)c1nccnc1C(=O)Nc1n[nH]c2ncccc12)c1ccc(-c2c3nc(c(-c4ccccc4)c4ccc([nH]4)c(-c4ccccc4)c4nc(c(-c5ccccc5)c5ccc2[nH]5)C=C4)C=C3)cc1
REMARK SMILES IDX 5 1 4 2 3 3 1 4 2 5 29 7 30 8 76 9 31 10 75 11 32 12 33 13
REMARK SMILES IDX 34 14 69 15 35 16 74 17 68 18 70 19 36 20 73 21 67 22 66 23
REMARK SMILES IDX 37 25 59 26 44 27 58 28 45 29 48 30 57 31 71 32 46 33 47 34
REMARK SMILES IDX 56 36 72 37 49 38 38 39 39 40 43 41 40 42 42 43 41 44 60 45
REMARK SMILES IDX 61 46 65 47 62 48 64 49 63 50 50 51 51 52 55 53 52 54 54 55
REMARK SMILES IDX 53 56 6 57 7 58 8 59 9 60 10 62 11 63 12 64 16 65 13 66
REMARK SMILES IDX 15 67 14 68 17 69 18 70 19 71 20 73 21 74 28 75 22 76 23 77
REMARK SMILES IDX 27 78 24 80 26 81 25 82
REMARK H PARENT 3 6 70 24 48 35 8 61 19 72 22 79
REMARK Flexibility Score: inf
ROOT
ATOM      1  C   UNL A   1      36.600  23.114  23.733  1.00  0.00     0.023 C 
ENDROOT
BRANCH   1   2
ATOM      2  C   UNL A   1      37.365  23.423  25.014  1.00  0.00     0.116 C 
BRANCH   2   3
ATOM      3  N   UNL A   1      38.417  22.497  25.415  1.00  0.00    -0.352 N 
ATOM      4  O   UNL A   1      40.157  21.882  26.753  1.00  0.00    -0.269 OA
ATOM      5  C   UNL A   1      39.374  22.743  26.380  1.00  0.00     0.251 C 
ATOM      6  H   UNL A   1      38.448  21.625  24.960  1.00  0.00     0.163 HD
BRANCH   5   7
ATOM      7  C   UNL A   1      39.486  24.138  26.855  1.00  0.00     0.039 A 
ATOM      8  C   UNL A   1      40.253  25.056  26.137  1.00  0.00     0.014 A 
ATOM      9  C   UNL A   1      39.052  24.420  28.151  1.00  0.00     0.014 A 
ATOM     10  C   UNL A   1      40.763  26.163  26.797  1.00  0.00     0.010 A 
ATOM     11  C   UNL A   1      39.451  25.608  28.761  1.00  0.00     0.010 A 
ATOM     12  C   UNL A   1      40.343  26.471  28.104  1.00  0.00    -0.014 A 
BRANCH  12  13
ATOM     13  C   UNL A   1      40.757  27.756  28.716  1.00  0.00     0.031 A 
ATOM     14  C   UNL A   1      42.147  27.979  29.246  1.00  0.00     0.074 A 
ATOM     15  C   UNL A   1      39.828  28.730  28.803  1.00  0.00     0.049 A 
ATOM     16  N   UNL A   1      42.627  29.031  29.863  1.00  0.00    -0.248 NA
ATOM     17  C   UNL A   1      43.121  26.890  29.078  1.00  0.00     0.031 C 
ATOM     18  C   UNL A   1      38.446  28.620  28.325  1.00  0.00     0.029 A 
ATOM     19  N   UNL A   1      39.900  30.000  29.310  1.00  0.00    -0.354 N 
ATOM     20  C   UNL A   1      43.945  28.722  30.180  1.00  0.00     0.074 A 
ATOM     21  C   UNL A   1      44.186  27.376  29.705  1.00  0.00     0.031 C 
ATOM     22  C   UNL A   1      37.819  29.787  28.511  1.00  0.00     0.029 A 
ATOM     23  C   UNL A   1      38.717  30.689  29.214  1.00  0.00     0.049 A 
ATOM     24  H   UNL A   1      40.719  30.380  29.702  1.00  0.00     0.167 HD
ATOM     25  C   UNL A   1      44.863  29.494  30.812  1.00  0.00     0.031 A 
ATOM     26  C   UNL A   1      38.366  31.898  29.684  1.00  0.00     0.031 A 
ATOM     27  C   UNL A   1      44.602  30.830  31.289  1.00  0.00     0.049 A 
ATOM     28  C   UNL A   1      39.387  32.696  30.435  1.00  0.00     0.074 A 
ATOM     29  C   UNL A   1      45.475  31.707  31.913  1.00  0.00     0.029 A 
ATOM     30  N   UNL A   1      43.379  31.478  31.207  1.00  0.00    -0.354 N 
ATOM     31  N   UNL A   1      40.639  32.404  30.692  1.00  0.00    -0.248 NA
ATOM     32  C   UNL A   1      38.947  33.993  30.959  1.00  0.00     0.031 C 
ATOM     33  C   UNL A   1      44.760  32.851  32.276  1.00  0.00     0.029 A 
ATOM     34  C   UNL A   1      43.465  32.728  31.801  1.00  0.00     0.049 A 
ATOM     35  H   UNL A   1      42.570  31.106  30.788  1.00  0.00     0.167 HD
ATOM     36  C   UNL A   1      41.145  33.496  31.380  1.00  0.00     0.074 A 
ATOM     37  C   UNL A   1      40.072  34.464  31.476  1.00  0.00     0.031 C 
ATOM     38  C   UNL A   1      42.387  33.681  31.888  1.00  0.00     0.031 A 
BRANCH  25  39
ATOM     39  C   UNL A   1      46.230  28.912  31.065  1.00  0.00    -0.014 A 
ATOM     40  C   UNL A   1      47.284  29.086  30.155  1.00  0.00     0.009 A 
ATOM     41  C   UNL A   1      46.488  28.248  32.276  1.00  0.00     0.009 A 
ATOM     42  C   UNL A   1      48.558  28.584  30.441  1.00  0.00     0.001 A 
ATOM     43  C   UNL A   1      47.768  27.776  32.573  1.00  0.00     0.001 A 
ATOM     44  C   UNL A   1      48.800  27.937  31.652  1.00  0.00     0.000 A 
ENDBRANCH  25  39
BRANCH  26  45
ATOM     45  C   UNL A   1      36.981  32.399  29.495  1.00  0.00    -0.014 A 
ATOM     46  C   UNL A   1      35.989  32.143  30.452  1.00  0.00     0.009 A 
ATOM     47  C   UNL A   1      36.640  33.132  28.345  1.00  0.00     0.009 A 
ATOM     48  C   UNL A   1      34.676  32.568  30.240  1.00  0.00     0.001 A 
ATOM     49  C   UNL A   1      35.338  33.595  28.157  1.00  0.00     0.001 A 
ATOM     50  C   UNL A   1      34.353  33.296  29.096  1.00  0.00     0.000 A 
ENDBRANCH  26  45
BRANCH  38  51
ATOM     51  C   UNL A   1      42.664  35.005  32.544  1.00  0.00    -0.014 A 
ATOM     52  C   UNL A   1      43.341  36.034  31.870  1.00  0.00     0.009 A 
ATOM     53  C   UNL A   1      42.218  35.231  33.856  1.00  0.00     0.009 A 
ATOM     54  C   UNL A   1      43.605  37.245  32.514  1.00  0.00     0.001 A 
ATOM     55  C   UNL A   1      42.447  36.455  34.482  1.00  0.00     0.001 A 
ATOM     56  C   UNL A   1      43.152  37.456  33.815  1.00  0.00     0.000 A 
ENDBRANCH  38  51
ENDBRANCH  12  13
ENDBRANCH   5   7
ENDBRANCH   2   3
ENDBRANCH   1   2
BRANCH   1  57
ATOM     57  C   UNL A   1      34.944  23.522  23.517  1.00  0.00     0.023 C 
BRANCH  57  58
ATOM     58  C   UNL A   1      33.183  22.434  22.766  1.00  0.00     0.116 C 
BRANCH  58  59
ATOM     59  N   UNL A   1      32.415  21.119  23.290  1.00  0.00    -0.351 N 
ATOM     60  C   UNL A   1      32.334  20.601  24.569  1.00  0.00     0.272 C 
ATOM     61  H   UNL A   1      31.933  20.610  22.599  1.00  0.00     0.163 HD
ATOM     62  O   UNL A   1      31.846  19.502  24.796  1.00  0.00    -0.267 OA
BRANCH  60  63
ATOM     63  C   UNL A   1      32.835  21.457  25.658  1.00  0.00     0.159 A 
ATOM     64  N   UNL A   1      34.141  21.178  25.988  1.00  0.00    -0.247 NA
ATOM     65  C   UNL A   1      32.031  22.312  26.399  1.00  0.00     0.159 A 
ATOM     66  C   UNL A   1      34.620  21.798  27.079  1.00  0.00     0.132 A 
ATOM     67  N   UNL A   1      32.543  22.923  27.518  1.00  0.00    -0.247 NA
ATOM     68  C   UNL A   1      33.836  22.651  27.829  1.00  0.00     0.132 A 
BRANCH  65  69
ATOM     69  C   UNL A   1      30.627  22.720  26.074  1.00  0.00     0.277 C 
ATOM     70  O   UNL A   1      29.713  22.071  26.593  1.00  0.00    -0.267 OA
ATOM     71  N   UNL A   1      30.281  23.787  25.275  1.00  0.00    -0.303 N 
ATOM     72  H   UNL A   1      29.329  24.035  25.304  1.00  0.00     0.172 HD
BRANCH  71  73
ATOM     73  C   UNL A   1      31.052  24.559  24.447  1.00  0.00     0.164 A 
ATOM     74  N   UNL A   1      30.788  24.537  23.128  1.00  0.00    -0.155 NA
ATOM     75  C   UNL A   1      32.037  25.498  24.811  1.00  0.00     0.063 A 
ATOM     76  N   UNL A   1      31.235  25.696  22.563  1.00  0.00    -0.259 N 
ATOM     77  C   UNL A   1      32.016  26.468  23.376  1.00  0.00     0.157 A 
ATOM     78  C   UNL A   1      33.010  26.063  26.202  1.00  0.00     0.017 A 
ATOM     79  H   UNL A   1      31.012  25.956  21.639  1.00  0.00     0.192 HD
ATOM     80  N   UNL A   1      32.749  28.040  23.263  1.00  0.00    -0.237 NA
ATOM     81  C   UNL A   1      33.837  27.640  26.159  1.00  0.00     0.021 A 
ATOM     82  C   UNL A   1      33.715  28.570  24.675  1.00  0.00     0.113 A 
ENDBRANCH  71  73
ENDBRANCH  65  69
ENDBRANCH  60  63
ENDBRANCH  58  59
ENDBRANCH  57  58
ENDBRANCH   1  57
TORSDOF 13
ENDMDL
MODEL 3
REMARK VINA RESULT:     -13.1      2.356      7.371
REMARK SMILES O=C(NCCCCNC(=O)c1nccnc1C(=O)Nc1n[nH]c2ncccc12)c1ccc(-c2c3nc(c(-c4ccccc4)c4ccc([nH]4)c(-c4ccccc4)c4nc(c(-c5ccccc5)c5ccc2[nH]5)C=C4)C=C3)cc1
REMARK SMILES IDX 5 1 4 2 3 3 1 4 2 5 29 7 30 8 76 9 31 10 75 11 32 12 33 13
REMARK SMILES IDX 34 14 69 15 35 16 74 17 68 18 70 19 36 20 73 21 67 22 66 23
REMARK SMILES IDX 37 25 59 26 44 27 58 28 45 29 48 30 57 31 71 32 46 33 47 34
REMARK SMILES IDX 56 36 72 37 49 38 38 39 39 40 43 41 40 42 42 43 41 44 60 45
REMARK SMILES IDX 61 46 65 47 62 48 64 49 63 50 50 51 51 52 55 53 52 54 54 55
REMARK SMILES IDX 53 56 6 57 7 58 8 59 9 60 10 62 11 63 12 64 16 65 13 66
REMARK SMILES IDX 15 67 14 68 17 69 18 70 19 71 20 73 21 74 28 75 22 76 23 77
REMARK SMILES IDX 27 78 24 80 26 81 25 82
REMARK H PARENT 3 6 70 24 48 35 8 61 19 72 22 79
REMARK Flexibility Score: inf
ROOT
ATOM      1  C   UNL A   1      32.348  27.957  27.411  1.00  0.00     0.023 C 
ENDROOT
BRANCH   1   2
ATOM      2  C   UNL A   1      33.583  28.833  27.243  1.00  0.00     0.116 C 
BRANCH   2   3
ATOM      3  N   UNL A   1      33.535  30.184  27.789  1.00  0.00    -0.352 N 
ATOM      4  O   UNL A   1      34.534  32.075  28.579  1.00  0.00    -0.269 OA
ATOM      5  C   UNL A   1      34.624  30.903  28.241  1.00  0.00     0.251 C 
ATOM      6  H   UNL A   1      32.653  30.618  27.842  1.00  0.00     0.163 HD
BRANCH   5   7
ATOM      7  C   UNL A   1      35.884  30.151  28.410  1.00  0.00     0.039 A 
ATOM      8  C   UNL A   1      36.230  29.651  29.666  1.00  0.00     0.014 A 
ATOM      9  C   UNL A   1      36.819  30.207  27.375  1.00  0.00     0.014 A 
ATOM     10  C   UNL A   1      37.566  29.406  29.944  1.00  0.00     0.010 A 
ATOM     11  C   UNL A   1      38.136  29.821  27.623  1.00  0.00     0.010 A 
ATOM     12  C   UNL A   1      38.529  29.456  28.921  1.00  0.00    -0.014 A 
BRANCH  12  13
ATOM     13  C   UNL A   1      39.914  29.010  29.204  1.00  0.00     0.031 A 
ATOM     14  C   UNL A   1      40.929  29.913  29.851  1.00  0.00     0.074 A 
ATOM     15  C   UNL A   1      40.249  27.755  28.841  1.00  0.00     0.049 A 
ATOM     16  N   UNL A   1      42.194  29.674  30.099  1.00  0.00    -0.248 NA
ATOM     17  C   UNL A   1      40.482  31.253  30.261  1.00  0.00     0.031 C 
ATOM     18  C   UNL A   1      39.344  26.794  28.201  1.00  0.00     0.029 A 
ATOM     19  N   UNL A   1      41.426  27.067  28.962  1.00  0.00    -0.354 N 
ATOM     20  C   UNL A   1      42.699  30.838  30.668  1.00  0.00     0.074 A 
ATOM     21  C   UNL A   1      41.610  31.791  30.710  1.00  0.00     0.031 C 
ATOM     22  C   UNL A   1      39.980  25.629  28.036  1.00  0.00     0.029 A 
ATOM     23  C   UNL A   1      41.362  25.792  28.458  1.00  0.00     0.049 A 
ATOM     24  H   UNL A   1      42.236  27.449  29.370  1.00  0.00     0.167 HD
ATOM     25  C   UNL A   1      43.958  31.083  31.109  1.00  0.00     0.031 A 
ATOM     26  C   UNL A   1      42.320  24.862  28.301  1.00  0.00     0.031 A 
ATOM     27  C   UNL A   1      45.034  30.124  31.049  1.00  0.00     0.049 A 
ATOM     28  C   UNL A   1      43.713  25.191  28.740  1.00  0.00     0.074 A 
ATOM     29  C   UNL A   1      46.337  30.264  31.499  1.00  0.00     0.029 A 
ATOM     30  N   UNL A   1      44.938  28.856  30.496  1.00  0.00    -0.354 N 
ATOM     31  N   UNL A   1      44.165  26.282  29.310  1.00  0.00    -0.248 NA
ATOM     32  C   UNL A   1      44.731  24.159  28.516  1.00  0.00     0.031 C 
ATOM     33  C   UNL A   1      47.047  29.112  31.148  1.00  0.00     0.029 A 
ATOM     34  C   UNL A   1      46.167  28.217  30.561  1.00  0.00     0.049 A 
ATOM     35  H   UNL A   1      44.118  28.467  30.115  1.00  0.00     0.167 HD
ATOM     36  C   UNL A   1      45.513  26.054  29.541  1.00  0.00     0.074 A 
ATOM     37  C   UNL A   1      45.797  24.713  29.073  1.00  0.00     0.031 C 
ATOM     38  C   UNL A   1      46.434  26.881  30.091  1.00  0.00     0.031 A 
BRANCH  25  39
ATOM     39  C   UNL A   1      44.265  32.449  31.665  1.00  0.00    -0.014 A 
ATOM     40  C   UNL A   1      44.676  33.505  30.837  1.00  0.00     0.009 A 
ATOM     41  C   UNL A   1      44.058  32.705  33.031  1.00  0.00     0.009 A 
ATOM     42  C   UNL A   1      44.900  34.779  31.370  1.00  0.00     0.001 A 
ATOM     43  C   UNL A   1      44.251  33.985  33.555  1.00  0.00     0.001 A 
ATOM     44  C   UNL A   1      44.680  35.019  32.726  1.00  0.00     0.000 A 
ENDBRANCH  25  39
BRANCH  26  45
ATOM     45  C   UNL A   1      41.998  23.559  27.664  1.00  0.00    -0.014 A 
ATOM     46  C   UNL A   1      42.222  23.356  26.296  1.00  0.00     0.009 A 
ATOM     47  C   UNL A   1      41.453  22.511  28.425  1.00  0.00     0.009 A 
ATOM     48  C   UNL A   1      41.865  22.149  25.693  1.00  0.00     0.001 A 
ATOM     49  C   UNL A   1      41.138  21.289  27.829  1.00  0.00     0.001 A 
ATOM     50  C   UNL A   1      41.327  21.116  26.461  1.00  0.00     0.000 A 
ENDBRANCH  26  45
BRANCH  38  51
ATOM     51  C   UNL A   1      47.822  26.333  30.267  1.00  0.00    -0.014 A 
ATOM     52  C   UNL A   1      48.753  26.333  29.216  1.00  0.00     0.009 A 
ATOM     53  C   UNL A   1      48.210  25.827  31.518  1.00  0.00     0.009 A 
ATOM     54  C   UNL A   1      50.028  25.794  29.402  1.00  0.00     0.001 A 
ATOM     55  C   UNL A   1      49.497  25.328  31.713  1.00  0.00     0.001 A 
ATOM     56  C   UNL A   1      50.400  25.300  30.652  1.00  0.00     0.000 A 
ENDBRANCH  38  51
ENDBRANCH  12  13
ENDBRANCH   5   7
ENDBRANCH   2   3
ENDBRANCH   1   2
BRANCH   1  57
ATOM     57  C   UNL A   1      32.002  26.627  26.377  1.00  0.00     0.023 C 
BRANCH  57  58
ATOM     58  C   UNL A   1      30.351  26.143  25.003  1.00  0.00     0.116 C 
BRANCH  58  59
ATOM     59  N   UNL A   1      29.704  26.938  23.761  1.00  0.00    -0.351 N 
ATOM     60  C   UNL A   1      30.305  27.795  22.858  1.00  0.00     0.272 C 
ATOM     61  H   UNL A   1      28.740  26.793  23.625  1.00  0.00     0.163 HD
ATOM     62  O   UNL A   1      29.657  28.456  22.058  1.00  0.00    -0.267 OA
BRANCH  60  63
ATOM     63  C   UNL A   1      31.777  27.847  22.882  1.00  0.00     0.159 A 
ATOM     64  N   UNL A   1      32.254  28.905  23.620  1.00  0.00    -0.247 NA
ATOM     65  C   UNL A   1      32.590  27.043  22.095  1.00  0.00     0.159 A 
ATOM     66  C   UNL A   1      33.578  29.122  23.556  1.00  0.00     0.132 A 
ATOM     67  N   UNL A   1      33.939  27.295  22.039  1.00  0.00    -0.247 NA
ATOM     68  C   UNL A   1      34.403  28.333  22.780  1.00  0.00     0.132 A 
BRANCH  65  69
ATOM     69  C   UNL A   1      32.165  25.838  21.316  1.00  0.00     0.277 C 
ATOM     70  O   UNL A   1      31.425  26.022  20.344  1.00  0.00    -0.267 OA
ATOM     71  N   UNL A   1      32.570  24.547  21.577  1.00  0.00    -0.303 N 
ATOM     72  H   UNL A   1      32.352  23.894  20.873  1.00  0.00     0.172 HD
BRANCH  71  73
ATOM     73  C   UNL A   1      33.228  24.028  22.660  1.00  0.00     0.164 A 
ATOM     74  N   UNL A   1      34.565  24.169  22.719  1.00  0.00    -0.155 NA
ATOM     75  C   UNL A   1      32.668  23.457  23.819  1.00  0.00     0.063 A 
ATOM     76  N   UNL A   1      34.964  24.108  24.023  1.00  0.00    -0.259 N 
ATOM     77  C   UNL A   1      33.998  23.704  24.901  1.00  0.00     0.157 A 
ATOM     78  C   UNL A   1      31.129  22.846  24.495  1.00  0.00     0.017 A 
ATOM     79  H   UNL A   1      35.879  24.337  24.309  1.00  0.00     0.192 HD
ATOM     80  N   UNL A   1      33.879  23.550  26.628  1.00  0.00    -0.237 NA
ATOM     81  C   UNL A   1      30.929  22.612  26.249  1.00  0.00     0.021 A 
ATOM     82  C   UNL A   1      32.323  22.935  27.267  1.00  0.00     0.113 A 
ENDBRANCH  71  73
ENDBRANCH  65  69
ENDBRANCH  60  63
ENDBRANCH  58  59
ENDBRANCH  57  58
ENDBRANCH   1  57
TORSDOF 13
ENDMDL
