MODEL 1
REMARK VINA RESULT:     -11.9      0.000      0.000
REMARK SMILES Cc1ccc(S(=O)(=O)N2CCN(C(=O)[C@H]3CCCC[C@H]3C(=O)NCCCCNC(=O)c3ccc(-c4c5nc(c(-c6ccccc6)c6ccc([nH]6)c(-c6ccccc6)c6nc(c(-c7ccccc7)c7ccc4[nH]7)C=C6)C=C5)cc3)CC2)cc1C
REMARK SMILES IDX 25 1 24 2 23 3 21 4 22 5 20 7 15 8 16 9 17 10 19 11 18 12
REMARK SMILES IDX 13 13 9 14 10 15 80 16 11 17 79 18 12 19 14 20 6 21 7 22
REMARK SMILES IDX 8 23 5 24 1 25 2 26 3 27 82 28 4 29 81 30 83 31 26 32 27 33
REMARK SMILES IDX 28 34 29 35 30 37 31 38 32 39 78 40 33 41 77 42 34 43 35 44
REMARK SMILES IDX 36 45 71 46 37 47 76 48 70 49 72 50 38 51 75 52 69 53 68 54
REMARK SMILES IDX 39 56 61 57 46 58 60 59 47 60 50 61 59 62 73 63 48 64 49 65
REMARK SMILES IDX 58 67 74 68 51 69 40 70 41 71 45 72 42 73 44 74 43 75 62 76
REMARK SMILES IDX 63 77 67 78 64 79 66 80 65 81 52 82 53 83 57 84 54 85 56 86
REMARK SMILES IDX 55 87
REMARK H PARENT 23 6 28 36 72 55 50 66
REMARK Flexibility Score: inf
ROOT
ATOM      1  C   UNL A   1      34.809  31.101  28.060  1.00  0.00     0.023 C 
ENDROOT
BRANCH   1   2
ATOM      2  C   UNL A   1      34.807  29.788  27.284  1.00  0.00     0.116 C 
BRANCH   2   3
ATOM      3  N   UNL A   1      33.676  28.955  27.628  1.00  0.00    -0.356 N 
ATOM      4  C   UNL A   1      32.580  28.585  26.911  1.00  0.00     0.223 C 
ATOM      5  O   UNL A   1      31.699  27.969  27.520  1.00  0.00    -0.275 OA
ATOM      6  H   UNL A   1      33.704  28.590  28.542  1.00  0.00     0.163 HD
BRANCH   4   7
ATOM      7  C   UNL A   1      32.418  28.844  25.405  1.00  0.00     0.091 C 
ATOM      8  C   UNL A   1      33.293  27.992  24.439  1.00  0.00     0.091 C 
ATOM      9  C   UNL A   1      32.948  28.244  22.964  1.00  0.00     0.014 C 
ATOM     10  C   UNL A   1      31.451  28.245  22.692  1.00  0.00     0.001 C 
ATOM     11  C   UNL A   1      30.949  29.068  25.001  1.00  0.00     0.014 C 
ATOM     12  C   UNL A   1      30.772  29.329  23.512  1.00  0.00     0.001 C 
BRANCH   8  13
ATOM     13  C   UNL A   1      33.513  26.532  24.833  1.00  0.00     0.226 C 
ATOM     14  N   UNL A   1      31.919  22.783  23.979  1.00  0.00    -0.194 NA
ATOM     15  C   UNL A   1      31.203  23.536  25.011  1.00  0.00     0.124 C 
ATOM     16  C   UNL A   1      32.289  23.585  22.801  1.00  0.00     0.124 C 
ATOM     17  C   UNL A   1      32.049  24.729  25.444  1.00  0.00     0.136 C 
ATOM     18  C   UNL A   1      33.098  24.829  23.197  1.00  0.00     0.136 C 
ATOM     19  N   UNL A   1      32.607  25.566  24.376  1.00  0.00    -0.340 N 
ATOM     20  O   UNL A   1      34.526  26.185  25.439  1.00  0.00    -0.275 OA
BRANCH  14  21
ATOM     21  S   UNL A   1      32.345  21.177  24.176  1.00  0.00     0.243 S 
ATOM     22  O   UNL A   1      32.152  20.507  22.904  1.00  0.00    -0.207 OA
ATOM     23  O   UNL A   1      31.690  20.711  25.377  1.00  0.00    -0.207 OA
BRANCH  21  24
ATOM     24  C   UNL A   1      34.096  21.109  24.507  1.00  0.00     0.082 A 
ATOM     25  C   UNL A   1      38.316  21.101  25.445  1.00  0.00     0.044 C 
ATOM     26  C   UNL A   1      36.854  21.146  25.093  1.00  0.00    -0.048 A 
ATOM     27  C   UNL A   1      36.147  19.937  25.001  1.00  0.00     0.005 A 
ATOM     28  C   UNL A   1      36.167  22.357  24.881  1.00  0.00    -0.047 A 
ATOM     29  C   UNL A   1      34.779  19.920  24.717  1.00  0.00     0.022 A 
ATOM     30  C   UNL A   1      34.792  22.324  24.575  1.00  0.00     0.025 A 
ATOM     31  C   UNL A   1      36.837  23.703  24.968  1.00  0.00     0.044 C 
ENDBRANCH  21  24
ENDBRANCH  14  21
ENDBRANCH   8  13
ENDBRANCH   4   7
ENDBRANCH   2   3
ENDBRANCH   1   2
BRANCH   1  32
ATOM     32  C   UNL A   1      33.603  31.996  27.866  1.00  0.00     0.023 C 
BRANCH  32  33
ATOM     33  C   UNL A   1      33.944  33.472  27.764  1.00  0.00     0.116 C 
BRANCH  33  34
ATOM     34  N   UNL A   1      33.333  34.300  28.805  1.00  0.00    -0.352 N 
ATOM     35  C   UNL A   1      33.677  34.449  30.128  1.00  0.00     0.251 C 
ATOM     36  H   UNL A   1      32.556  34.830  28.513  1.00  0.00     0.163 HD
ATOM     37  O   UNL A   1      32.976  35.112  30.884  1.00  0.00    -0.269 OA
BRANCH  35  38
ATOM     38  C   UNL A   1      34.891  33.779  30.628  1.00  0.00     0.039 A 
ATOM     39  C   UNL A   1      34.774  32.680  31.481  1.00  0.00     0.014 A 
ATOM     40  C   UNL A   1      36.141  34.199  30.176  1.00  0.00     0.014 A 
ATOM     41  C   UNL A   1      35.915  31.940  31.799  1.00  0.00     0.010 A 
ATOM     42  C   UNL A   1      37.244  33.388  30.382  1.00  0.00     0.010 A 
ATOM     43  C   UNL A   1      37.149  32.260  31.209  1.00  0.00    -0.014 A 
BRANCH  43  44
ATOM     44  C   UNL A   1      38.378  31.473  31.463  1.00  0.00     0.031 A 
ATOM     45  C   UNL A   1      39.307  31.906  32.566  1.00  0.00     0.074 A 
ATOM     46  C   UNL A   1      38.716  30.457  30.647  1.00  0.00     0.049 A 
ATOM     47  N   UNL A   1      40.512  31.485  32.848  1.00  0.00    -0.248 NA
ATOM     48  C   UNL A   1      38.838  33.003  33.433  1.00  0.00     0.031 C 
ATOM     49  C   UNL A   1      37.937  29.983  29.500  1.00  0.00     0.029 A 
ATOM     50  N   UNL A   1      39.821  29.644  30.654  1.00  0.00    -0.354 N 
ATOM     51  C   UNL A   1      40.959  32.298  33.882  1.00  0.00     0.074 A 
ATOM     52  C   UNL A   1      39.925  33.274  34.137  1.00  0.00     0.031 C 
ATOM     53  C   UNL A   1      38.573  28.943  28.935  1.00  0.00     0.029 A 
ATOM     54  C   UNL A   1      39.819  28.702  29.654  1.00  0.00     0.049 A 
ATOM     55  H   UNL A   1      40.548  29.729  31.312  1.00  0.00     0.167 HD
ATOM     56  C   UNL A   1      42.113  32.220  34.584  1.00  0.00     0.031 A 
ATOM     57  C   UNL A   1      40.722  27.750  29.357  1.00  0.00     0.031 A 
ATOM     58  C   UNL A   1      43.109  31.209  34.372  1.00  0.00     0.049 A 
ATOM     59  C   UNL A   1      41.957  27.627  30.204  1.00  0.00     0.074 A 
ATOM     60  C   UNL A   1      44.288  30.998  35.063  1.00  0.00     0.029 A 
ATOM     61  N   UNL A   1      43.023  30.217  33.408  1.00  0.00    -0.354 N 
ATOM     62  N   UNL A   1      42.348  28.378  31.206  1.00  0.00    -0.248 NA
ATOM     63  C   UNL A   1      42.863  26.513  29.896  1.00  0.00     0.031 C 
ATOM     64  C   UNL A   1      44.923  29.882  34.508  1.00  0.00     0.029 A 
ATOM     65  C   UNL A   1      44.119  29.381  33.495  1.00  0.00     0.049 A 
ATOM     66  H   UNL A   1      42.288  30.122  32.758  1.00  0.00     0.167 HD
ATOM     67  C   UNL A   1      43.529  27.812  31.665  1.00  0.00     0.074 A 
ATOM     68  C   UNL A   1      43.782  26.646  30.842  1.00  0.00     0.031 C 
ATOM     69  C   UNL A   1      44.335  28.219  32.674  1.00  0.00     0.031 A 
BRANCH  56  70
ATOM     70  C   UNL A   1      42.333  33.248  35.657  1.00  0.00    -0.014 A 
ATOM     71  C   UNL A   1      41.895  33.024  36.973  1.00  0.00     0.009 A 
ATOM     72  C   UNL A   1      42.980  34.455  35.353  1.00  0.00     0.009 A 
ATOM     73  C   UNL A   1      42.059  34.007  37.950  1.00  0.00     0.001 A 
ATOM     74  C   UNL A   1      43.171  35.423  36.340  1.00  0.00     0.001 A 
ATOM     75  C   UNL A   1      42.699  35.203  37.634  1.00  0.00     0.000 A 
ENDBRANCH  56  70
BRANCH  57  76
ATOM     76  C   UNL A   1      40.474  26.810  28.233  1.00  0.00    -0.014 A 
ATOM     77  C   UNL A   1      39.669  25.676  28.424  1.00  0.00     0.009 A 
ATOM     78  C   UNL A   1      41.042  27.036  26.970  1.00  0.00     0.009 A 
ATOM     79  C   UNL A   1      39.462  24.770  27.381  1.00  0.00     0.001 A 
ATOM     80  C   UNL A   1      40.811  26.141  25.921  1.00  0.00     0.001 A 
ATOM     81  C   UNL A   1      40.031  25.005  26.130  1.00  0.00     0.000 A 
ENDBRANCH  57  76
BRANCH  69  82
ATOM     82  C   UNL A   1      45.536  27.372  32.974  1.00  0.00    -0.014 A 
ATOM     83  C   UNL A   1      46.774  27.627  32.368  1.00  0.00     0.009 A 
ATOM     84  C   UNL A   1      45.431  26.334  33.912  1.00  0.00     0.009 A 
ATOM     85  C   UNL A   1      47.883  26.837  32.676  1.00  0.00     0.001 A 
ATOM     86  C   UNL A   1      46.547  25.561  34.236  1.00  0.00     0.001 A 
ATOM     87  C   UNL A   1      47.769  25.808  33.612  1.00  0.00     0.000 A 
ENDBRANCH  69  82
ENDBRANCH  43  44
ENDBRANCH  35  38
ENDBRANCH  33  34
ENDBRANCH  32  33
ENDBRANCH   1  32
TORSDOF 14
ENDMDL
MODEL 2
REMARK VINA RESULT:     -11.9      4.005      9.174
REMARK SMILES Cc1ccc(S(=O)(=O)N2CCN(C(=O)[C@H]3CCCC[C@H]3C(=O)NCCCCNC(=O)c3ccc(-c4c5nc(c(-c6ccccc6)c6ccc([nH]6)c(-c6ccccc6)c6nc(c(-c7ccccc7)c7ccc4[nH]7)C=C6)C=C5)cc3)CC2)cc1C
REMARK SMILES IDX 25 1 24 2 23 3 21 4 22 5 20 7 15 8 16 9 17 10 19 11 18 12
REMARK SMILES IDX 13 13 9 14 10 15 80 16 11 17 79 18 12 19 14 20 6 21 7 22
REMARK SMILES IDX 8 23 5 24 1 25 2 26 3 27 82 28 4 29 81 30 83 31 26 32 27 33
REMARK SMILES IDX 28 34 29 35 30 37 31 38 32 39 78 40 33 41 77 42 34 43 35 44
REMARK SMILES IDX 36 45 71 46 37 47 76 48 70 49 72 50 38 51 75 52 69 53 68 54
REMARK SMILES IDX 39 56 61 57 46 58 60 59 47 60 50 61 59 62 73 63 48 64 49 65
REMARK SMILES IDX 58 67 74 68 51 69 40 70 41 71 45 72 42 73 44 74 43 75 62 76
REMARK SMILES IDX 63 77 67 78 64 79 66 80 65 81 52 82 53 83 57 84 54 85 56 86
REMARK SMILES IDX 55 87
REMARK H PARENT 23 6 28 36 72 55 50 66
REMARK Flexibility Score: inf
ROOT
ATOM      1  C   UNL A   1      36.973  20.819  24.925  1.00  0.00     0.023 C 
ENDROOT
BRANCH   1   2
ATOM      2  C   UNL A   1      37.248  22.309  24.747  1.00  0.00     0.116 C 
BRANCH   2   3
ATOM      3  N   UNL A   1      36.448  22.888  23.690  1.00  0.00    -0.356 N 
ATOM      4  C   UNL A   1      35.111  22.841  23.445  1.00  0.00     0.223 C 
ATOM      5  O   UNL A   1      34.724  23.323  22.375  1.00  0.00    -0.275 OA
ATOM      6  H   UNL A   1      36.963  23.408  23.030  1.00  0.00     0.163 HD
BRANCH   4   7
ATOM      7  C   UNL A   1      34.081  22.282  24.438  1.00  0.00     0.091 C 
ATOM      8  C   UNL A   1      33.654  23.206  25.617  1.00  0.00     0.091 C 
ATOM      9  C   UNL A   1      32.527  22.594  26.460  1.00  0.00     0.014 C 
ATOM     10  C   UNL A   1      31.400  22.011  25.620  1.00  0.00     0.001 C 
ATOM     11  C   UNL A   1      32.965  21.482  23.741  1.00  0.00     0.014 C 
ATOM     12  C   UNL A   1      31.937  20.918  24.712  1.00  0.00     0.001 C 
BRANCH   8  13
ATOM     13  C   UNL A   1      33.513  24.693  25.295  1.00  0.00     0.226 C 
ATOM     14  N   UNL A   1      30.767  27.268  23.520  1.00  0.00    -0.194 NA
ATOM     15  C   UNL A   1      31.659  26.579  22.584  1.00  0.00     0.124 C 
ATOM     16  C   UNL A   1      30.215  26.399  24.571  1.00  0.00     0.124 C 
ATOM     17  C   UNL A   1      32.796  25.923  23.361  1.00  0.00     0.136 C 
ATOM     18  C   UNL A   1      31.326  25.675  25.345  1.00  0.00     0.136 C 
ATOM     19  N   UNL A   1      32.420  25.118  24.529  1.00  0.00    -0.340 N 
ATOM     20  O   UNL A   1      34.273  25.524  25.793  1.00  0.00    -0.275 OA
BRANCH  14  21
ATOM     21  S   UNL A   1      30.482  28.915  23.434  1.00  0.00     0.243 S 
ATOM     22  O   UNL A   1      29.070  29.134  23.682  1.00  0.00    -0.207 OA
ATOM     23  O   UNL A   1      31.115  29.391  22.225  1.00  0.00    -0.207 OA
BRANCH  21  24
ATOM     24  C   UNL A   1      31.346  29.693  24.787  1.00  0.00     0.082 A 
ATOM     25  C   UNL A   1      33.617  31.545  27.964  1.00  0.00     0.044 C 
ATOM     26  C   UNL A   1      32.843  30.857  26.873  1.00  0.00    -0.048 A 
ATOM     27  C   UNL A   1      31.659  31.450  26.411  1.00  0.00     0.005 A 
ATOM     28  C   UNL A   1      33.281  29.655  26.283  1.00  0.00    -0.047 A 
ATOM     29  C   UNL A   1      30.921  30.876  25.373  1.00  0.00     0.022 A 
ATOM     30  C   UNL A   1      32.516  29.077  25.251  1.00  0.00     0.025 A 
ATOM     31  C   UNL A   1      34.543  28.949  26.704  1.00  0.00     0.044 C 
ENDBRANCH  21  24
ENDBRANCH  14  21
ENDBRANCH   8  13
ENDBRANCH   4   7
ENDBRANCH   2   3
ENDBRANCH   1   2
BRANCH   1  32
ATOM     32  C   UNL A   1      38.165  19.897  24.778  1.00  0.00     0.023 C 
BRANCH  32  33
ATOM     33  C   UNL A   1      39.026  19.801  26.025  1.00  0.00     0.116 C 
BRANCH  33  34
ATOM     34  N   UNL A   1      40.252  19.023  25.846  1.00  0.00    -0.352 N 
ATOM     35  C   UNL A   1      41.566  19.400  25.995  1.00  0.00     0.251 C 
ATOM     36  H   UNL A   1      40.115  18.085  25.578  1.00  0.00     0.163 HD
ATOM     37  O   UNL A   1      42.474  18.633  25.696  1.00  0.00    -0.269 OA
BRANCH  35  38
ATOM     38  C   UNL A   1      41.865  20.753  26.499  1.00  0.00     0.039 A 
ATOM     39  C   UNL A   1      42.225  20.931  27.836  1.00  0.00     0.014 A 
ATOM     40  C   UNL A   1      41.865  21.830  25.613  1.00  0.00     0.014 A 
ATOM     41  C   UNL A   1      42.684  22.180  28.258  1.00  0.00     0.010 A 
ATOM     42  C   UNL A   1      42.445  23.025  25.999  1.00  0.00     0.010 A 
ATOM     43  C   UNL A   1      42.846  23.221  27.329  1.00  0.00    -0.014 A 
BRANCH  43  44
ATOM     44  C   UNL A   1      43.385  24.548  27.708  1.00  0.00     0.031 A 
ATOM     45  C   UNL A   1      42.431  25.622  28.159  1.00  0.00     0.074 A 
ATOM     46  C   UNL A   1      44.693  24.823  27.544  1.00  0.00     0.049 A 
ATOM     47  N   UNL A   1      42.653  26.895  28.364  1.00  0.00    -0.248 NA
ATOM     48  C   UNL A   1      41.025  25.221  28.348  1.00  0.00     0.031 C 
ATOM     49  C   UNL A   1      45.709  23.890  27.049  1.00  0.00     0.029 A 
ATOM     50  N   UNL A   1      45.389  25.983  27.765  1.00  0.00    -0.354 N 
ATOM     51  C   UNL A   1      41.411  27.447  28.650  1.00  0.00     0.074 A 
ATOM     52  C   UNL A   1      40.434  26.390  28.533  1.00  0.00     0.031 C 
ATOM     53  C   UNL A   1      46.903  24.507  27.035  1.00  0.00     0.029 A 
ATOM     54  C   UNL A   1      46.730  25.884  27.483  1.00  0.00     0.049 A 
ATOM     55  H   UNL A   1      44.968  26.810  28.094  1.00  0.00     0.167 HD
ATOM     56  C   UNL A   1      41.110  28.716  29.013  1.00  0.00     0.031 A 
ATOM     57  C   UNL A   1      47.708  26.803  27.580  1.00  0.00     0.031 A 
ATOM     58  C   UNL A   1      42.091  29.748  29.192  1.00  0.00     0.049 A 
ATOM     59  C   UNL A   1      47.365  28.182  28.069  1.00  0.00     0.074 A 
ATOM     60  C   UNL A   1      41.908  31.052  29.615  1.00  0.00     0.029 A 
ATOM     61  N   UNL A   1      43.451  29.578  28.985  1.00  0.00    -0.354 N 
ATOM     62  N   UNL A   1      46.191  28.681  28.375  1.00  0.00    -0.248 NA
ATOM     63  C   UNL A   1      48.484  29.119  28.245  1.00  0.00     0.031 C 
ATOM     64  C   UNL A   1      43.159  31.676  29.652  1.00  0.00     0.029 A 
ATOM     65  C   UNL A   1      44.121  30.748  29.286  1.00  0.00     0.049 A 
ATOM     66  H   UNL A   1      43.876  28.746  28.670  1.00  0.00     0.167 HD
ATOM     67  C   UNL A   1      46.432  29.978  28.808  1.00  0.00     0.074 A 
ATOM     68  C   UNL A   1      47.865  30.184  28.738  1.00  0.00     0.031 C 
ATOM     69  C   UNL A   1      45.549  30.917  29.223  1.00  0.00     0.031 A 
BRANCH  56  70
ATOM     70  C   UNL A   1      39.663  29.033  29.260  1.00  0.00    -0.014 A 
ATOM     71  C   UNL A   1      39.081  28.816  30.521  1.00  0.00     0.009 A 
ATOM     72  C   UNL A   1      38.870  29.549  28.225  1.00  0.00     0.009 A 
ATOM     73  C   UNL A   1      37.723  29.067  30.725  1.00  0.00     0.001 A 
ATOM     74  C   UNL A   1      37.520  29.829  28.441  1.00  0.00     0.001 A 
ATOM     75  C   UNL A   1      36.944  29.575  29.687  1.00  0.00     0.000 A 
ENDBRANCH  56  70
BRANCH  57  76
ATOM     76  C   UNL A   1      49.110  26.440  27.250  1.00  0.00    -0.014 A 
ATOM     77  C   UNL A   1      49.966  25.945  28.245  1.00  0.00     0.009 A 
ATOM     78  C   UNL A   1      49.602  26.591  25.944  1.00  0.00     0.009 A 
ATOM     79  C   UNL A   1      51.296  25.636  27.949  1.00  0.00     0.001 A 
ATOM     80  C   UNL A   1      50.926  26.256  25.645  1.00  0.00     0.001 A 
ATOM     81  C   UNL A   1      51.773  25.789  26.648  1.00  0.00     0.000 A 
ENDBRANCH  57  76
BRANCH  69  82
ATOM     82  C   UNL A   1      46.112  32.230  29.679  1.00  0.00    -0.014 A 
ATOM     83  C   UNL A   1      46.279  33.298  28.786  1.00  0.00     0.009 A 
ATOM     84  C   UNL A   1      46.435  32.409  31.033  1.00  0.00     0.009 A 
ATOM     85  C   UNL A   1      46.788  34.517  29.237  1.00  0.00     0.001 A 
ATOM     86  C   UNL A   1      46.920  33.637  31.485  1.00  0.00     0.001 A 
ATOM     87  C   UNL A   1      47.104  34.686  30.586  1.00  0.00     0.000 A 
ENDBRANCH  69  82
ENDBRANCH  43  44
ENDBRANCH  35  38
ENDBRANCH  33  34
ENDBRANCH  32  33
ENDBRANCH   1  32
TORSDOF 14
ENDMDL
MODEL 3
REMARK VINA RESULT:     -11.8      3.537      8.923
REMARK SMILES Cc1ccc(S(=O)(=O)N2CCN(C(=O)[C@H]3CCCC[C@H]3C(=O)NCCCCNC(=O)c3ccc(-c4c5nc(c(-c6ccccc6)c6ccc([nH]6)c(-c6ccccc6)c6nc(c(-c7ccccc7)c7ccc4[nH]7)C=C6)C=C5)cc3)CC2)cc1C
REMARK SMILES IDX 25 1 24 2 23 3 21 4 22 5 20 7 15 8 16 9 17 10 19 11 18 12
REMARK SMILES IDX 13 13 9 14 10 15 80 16 11 17 79 18 12 19 14 20 6 21 7 22
REMARK SMILES IDX 8 23 5 24 1 25 2 26 3 27 82 28 4 29 81 30 83 31 26 32 27 33
REMARK SMILES IDX 28 34 29 35 30 37 31 38 32 39 78 40 33 41 77 42 34 43 35 44
REMARK SMILES IDX 36 45 71 46 37 47 76 48 70 49 72 50 38 51 75 52 69 53 68 54
REMARK SMILES IDX 39 56 61 57 46 58 60 59 47 60 50 61 59 62 73 63 48 64 49 65
REMARK SMILES IDX 58 67 74 68 51 69 40 70 41 71 45 72 42 73 44 74 43 75 62 76
REMARK SMILES IDX 63 77 67 78 64 79 66 80 65 81 52 82 53 83 57 84 54 85 56 86
REMARK SMILES IDX 55 87
REMARK H PARENT 23 6 28 36 72 55 50 66
REMARK Flexibility Score: inf
ROOT
ATOM      1  C   UNL A   1      39.375  22.822  26.358  1.00  0.00     0.023 C 
ENDROOT
BRANCH   1   2
ATOM      2  C   UNL A   1      38.078  23.623  26.301  1.00  0.00     0.116 C 
BRANCH   2   3
ATOM      3  N   UNL A   1      37.542  23.696  24.960  1.00  0.00    -0.356 N 
ATOM      4  C   UNL A   1      36.497  23.052  24.373  1.00  0.00     0.223 C 
ATOM      5  O   UNL A   1      36.356  23.216  23.156  1.00  0.00    -0.275 OA
ATOM      6  H   UNL A   1      38.017  24.323  24.367  1.00  0.00     0.163 HD
BRANCH   4   7
ATOM      7  C   UNL A   1      35.479  22.199  25.144  1.00  0.00     0.091 C 
ATOM      8  C   UNL A   1      34.512  22.945  26.111  1.00  0.00     0.091 C 
ATOM      9  C   UNL A   1      33.457  22.009  26.718  1.00  0.00     0.014 C 
ATOM     10  C   UNL A   1      32.808  21.092  25.692  1.00  0.00     0.001 C 
ATOM     11  C   UNL A   1      34.871  21.080  24.277  1.00  0.00     0.014 C 
ATOM     12  C   UNL A   1      33.862  20.223  25.027  1.00  0.00     0.001 C 
BRANCH   8  13
ATOM     13  C   UNL A   1      34.003  24.308  25.641  1.00  0.00     0.226 C 
ATOM     14  N   UNL A   1      30.855  25.881  23.419  1.00  0.00    -0.194 NA
ATOM     15  C   UNL A   1      31.993  25.410  22.626  1.00  0.00     0.124 C 
ATOM     16  C   UNL A   1      30.457  24.964  24.499  1.00  0.00     0.124 C 
ATOM     17  C   UNL A   1      33.180  25.154  23.550  1.00  0.00     0.136 C 
ATOM     18  C   UNL A   1      31.637  24.635  25.424  1.00  0.00     0.136 C 
ATOM     19  N   UNL A   1      32.920  24.355  24.754  1.00  0.00    -0.340 N 
ATOM     20  O   UNL A   1      34.451  25.350  26.120  1.00  0.00    -0.275 OA
BRANCH  14  21
ATOM     21  S   UNL A   1      30.140  27.372  23.159  1.00  0.00     0.243 S 
ATOM     22  O   UNL A   1      28.733  27.252  23.488  1.00  0.00    -0.207 OA
ATOM     23  O   UNL A   1      30.570  27.824  21.855  1.00  0.00    -0.207 OA
BRANCH  21  24
ATOM     24  C   UNL A   1      30.825  28.523  24.336  1.00  0.00     0.082 A 
ATOM     25  C   UNL A   1      32.674  31.238  27.146  1.00  0.00     0.044 C 
ATOM     26  C   UNL A   1      32.038  30.256  26.200  1.00  0.00    -0.048 A 
ATOM     27  C   UNL A   1      31.045  30.715  25.321  1.00  0.00     0.005 A 
ATOM     28  C   UNL A   1      32.425  28.903  26.147  1.00  0.00    -0.047 A 
ATOM     29  C   UNL A   1      30.449  29.857  24.393  1.00  0.00     0.022 A 
ATOM     30  C   UNL A   1      31.801  28.044  25.221  1.00  0.00     0.025 A 
ATOM     31  C   UNL A   1      33.487  28.320  27.042  1.00  0.00     0.044 C 
ENDBRANCH  21  24
ENDBRANCH  14  21
ENDBRANCH   8  13
ENDBRANCH   4   7
ENDBRANCH   2   3
ENDBRANCH   1   2
BRANCH   1  32
ATOM     32  C   UNL A   1      39.306  21.397  25.848  1.00  0.00     0.023 C 
BRANCH  32  33
ATOM     33  C   UNL A   1      40.028  20.394  26.729  1.00  0.00     0.116 C 
BRANCH  33  34
ATOM     34  N   UNL A   1      41.141  19.711  26.069  1.00  0.00    -0.352 N 
ATOM     35  C   UNL A   1      42.397  20.175  25.753  1.00  0.00     0.251 C 
ATOM     36  H   UNL A   1      40.964  18.777  25.812  1.00  0.00     0.163 HD
ATOM     37  O   UNL A   1      43.170  19.486  25.097  1.00  0.00    -0.269 OA
BRANCH  35  38
ATOM     38  C   UNL A   1      42.789  21.525  26.196  1.00  0.00     0.039 A 
ATOM     39  C   UNL A   1      42.976  22.537  25.252  1.00  0.00     0.014 A 
ATOM     40  C   UNL A   1      42.888  21.797  27.559  1.00  0.00     0.014 A 
ATOM     41  C   UNL A   1      43.164  23.850  25.689  1.00  0.00     0.010 A 
ATOM     42  C   UNL A   1      42.939  23.113  27.987  1.00  0.00     0.010 A 
ATOM     43  C   UNL A   1      43.095  24.153  27.058  1.00  0.00    -0.014 A 
BRANCH  43  44
ATOM     44  C   UNL A   1      43.227  25.536  27.574  1.00  0.00     0.031 A 
ATOM     45  C   UNL A   1      44.600  26.074  27.875  1.00  0.00     0.074 A 
ATOM     46  C   UNL A   1      42.130  26.257  27.875  1.00  0.00     0.049 A 
ATOM     47  N   UNL A   1      44.942  27.174  28.495  1.00  0.00    -0.248 NA
ATOM     48  C   UNL A   1      45.743  25.231  27.478  1.00  0.00     0.031 C 
ATOM     49  C   UNL A   1      40.743  25.822  27.695  1.00  0.00     0.029 A 
ATOM     50  N   UNL A   1      42.016  27.513  28.413  1.00  0.00    -0.354 N 
ATOM     51  C   UNL A   1      46.325  27.125  28.606  1.00  0.00     0.074 A 
ATOM     52  C   UNL A   1      46.756  25.864  28.048  1.00  0.00     0.031 C 
ATOM     53  C   UNL A   1      39.918  26.809  28.086  1.00  0.00     0.029 A 
ATOM     54  C   UNL A   1      40.717  27.926  28.577  1.00  0.00     0.049 A 
ATOM     55  H   UNL A   1      42.792  28.066  28.660  1.00  0.00     0.167 HD
ATOM     56  C   UNL A   1      47.171  28.061  29.098  1.00  0.00     0.031 A 
ATOM     57  C   UNL A   1      40.228  29.080  29.066  1.00  0.00     0.031 A 
ATOM     58  C   UNL A   1      46.745  29.339  29.592  1.00  0.00     0.049 A 
ATOM     59  C   UNL A   1      41.188  30.141  29.527  1.00  0.00     0.074 A 
ATOM     60  C   UNL A   1      47.518  30.387  30.058  1.00  0.00     0.029 A 
ATOM     61  N   UNL A   1      45.424  29.753  29.653  1.00  0.00    -0.354 N 
ATOM     62  N   UNL A   1      42.498  30.097  29.588  1.00  0.00    -0.248 NA
ATOM     63  C   UNL A   1      40.605  31.417  29.964  1.00  0.00     0.031 C 
ATOM     64  C   UNL A   1      46.661  31.434  30.414  1.00  0.00     0.029 A 
ATOM     65  C   UNL A   1      45.359  31.046  30.135  1.00  0.00     0.049 A 
ATOM     66  H   UNL A   1      44.647  29.206  29.392  1.00  0.00     0.167 HD
ATOM     67  C   UNL A   1      42.896  31.347  30.043  1.00  0.00     0.074 A 
ATOM     68  C   UNL A   1      41.692  32.130  30.227  1.00  0.00     0.031 C 
ATOM     69  C   UNL A   1      44.147  31.806  30.290  1.00  0.00     0.031 A 
BRANCH  56  70
ATOM     70  C   UNL A   1      48.636  27.730  29.095  1.00  0.00    -0.014 A 
ATOM     71  C   UNL A   1      49.235  27.095  30.196  1.00  0.00     0.009 A 
ATOM     72  C   UNL A   1      49.429  28.058  27.986  1.00  0.00     0.009 A 
ATOM     73  C   UNL A   1      50.607  26.837  30.204  1.00  0.00     0.001 A 
ATOM     74  C   UNL A   1      50.795  27.771  27.984  1.00  0.00     0.001 A 
ATOM     75  C   UNL A   1      51.385  27.173  29.097  1.00  0.00     0.000 A 
ENDBRANCH  56  70
BRANCH  57  76
ATOM     76  C   UNL A   1      38.761  29.314  29.107  1.00  0.00    -0.014 A 
ATOM     77  C   UNL A   1      38.084  29.759  27.962  1.00  0.00     0.009 A 
ATOM     78  C   UNL A   1      38.032  29.099  30.287  1.00  0.00     0.009 A 
ATOM     79  C   UNL A   1      36.711  30.014  28.003  1.00  0.00     0.001 A 
ATOM     80  C   UNL A   1      36.654  29.329  30.318  1.00  0.00     0.001 A 
ATOM     81  C   UNL A   1      35.997  29.796  29.181  1.00  0.00     0.000 A 
ENDBRANCH  57  76
BRANCH  69  82
ATOM     82  C   UNL A   1      44.275  33.232  30.737  1.00  0.00    -0.014 A 
ATOM     83  C   UNL A   1      44.241  33.573  32.097  1.00  0.00     0.009 A 
ATOM     84  C   UNL A   1      44.479  34.239  29.780  1.00  0.00     0.009 A 
ATOM     85  C   UNL A   1      44.381  34.905  32.490  1.00  0.00     0.001 A 
ATOM     86  C   UNL A   1      44.643  35.566  30.179  1.00  0.00     0.001 A 
ATOM     87  C   UNL A   1      44.586  35.898  31.531  1.00  0.00     0.000 A 
ENDBRANCH  69  82
ENDBRANCH  43  44
ENDBRANCH  35  38
ENDBRANCH  33  34
ENDBRANCH  32  33
ENDBRANCH   1  32
TORSDOF 14
ENDMDL
