MODEL 1
REMARK VINA RESULT:     -11.8      0.000      0.000
REMARK SMILES O=C(CNC(=O)Nc1cccc2c1CCCC2)NCCCCNC(=O)c1ccc(-c2c3nc(c(-c4ccccc4)c4ccc([nH]4)c(-c4ccccc4)c4nc(c(-c5ccccc5)c5ccc2[nH]5)C=C4)C=C3)cc1
REMARK SMILES IDX 20 1 19 2 18 3 1 4 2 5 3 7 4 8 5 9 6 11 7 12 8 14 9 15 13 16
REMARK SMILES IDX 10 17 12 18 14 19 11 20 17 21 15 22 16 23 21 24 22 25 23 26
REMARK SMILES IDX 24 27 25 29 26 30 27 31 73 32 28 33 72 34 29 35 30 36 31 37
REMARK SMILES IDX 66 38 32 39 71 40 65 41 67 42 33 43 70 44 64 45 63 46 34 48
REMARK SMILES IDX 56 49 41 50 55 51 42 52 45 53 54 54 68 55 43 56 44 57 53 59
REMARK SMILES IDX 69 60 46 61 35 62 36 63 40 64 37 65 39 66 38 67 57 68 58 69
REMARK SMILES IDX 62 70 59 71 61 72 60 73 47 74 48 75 52 76 49 77 51 78 50 79
REMARK H PARENT 18 6 4 10 7 13 23 28 67 47 45 58
REMARK Flexibility Score: inf
ROOT
ATOM      1  C   UNL A   1      36.402  20.947  24.864  1.00  0.00     0.023 C 
ENDROOT
BRANCH   1   2
ATOM      2  C   UNL A   1      35.049  20.238  24.934  1.00  0.00     0.116 C 
BRANCH   2   3
ATOM      3  N   UNL A   1      33.968  21.179  25.128  1.00  0.00    -0.355 N 
ATOM      4  O   UNL A   1      32.314  19.589  25.245  1.00  0.00    -0.273 OA
ATOM      5  C   UNL A   1      32.657  20.768  25.224  1.00  0.00     0.239 C 
ATOM      6  H   UNL A   1      34.175  22.138  25.195  1.00  0.00     0.163 HD
BRANCH   5   7
ATOM      7  C   UNL A   1      31.655  21.891  24.996  1.00  0.00     0.217 C 
BRANCH   7   8
ATOM      8  N   UNL A   1      30.714  22.142  26.080  1.00  0.00    -0.329 N 
ATOM      9  C   UNL A   1      30.389  23.218  26.817  1.00  0.00     0.319 C 
ATOM     10  H   UNL A   1      30.197  21.341  26.328  1.00  0.00     0.165 HD
ATOM     11  O   UNL A   1      29.490  23.072  27.651  1.00  0.00    -0.248 OA
ATOM     12  N   UNL A   1      31.034  24.405  26.786  1.00  0.00    -0.308 N 
ATOM     13  H   UNL A   1      30.695  25.064  27.433  1.00  0.00     0.171 HD
BRANCH  12  14
ATOM     14  C   UNL A   1      32.095  24.866  26.001  1.00  0.00     0.046 A 
ATOM     15  C   UNL A   1      33.378  24.502  26.429  1.00  0.00     0.026 A 
ATOM     16  C   UNL A   1      31.918  25.599  24.812  1.00  0.00    -0.021 A 
ATOM     17  C   UNL A   1      34.474  24.711  25.599  1.00  0.00     0.002 A 
ATOM     18  C   UNL A   1      33.016  25.713  23.935  1.00  0.00    -0.043 A 
ATOM     19  C   UNL A   1      30.588  26.243  24.480  1.00  0.00     0.038 C 
ATOM     20  C   UNL A   1      34.288  25.279  24.342  1.00  0.00     0.004 A 
ATOM     21  C   UNL A   1      32.846  26.255  22.537  1.00  0.00     0.036 C 
ATOM     22  C   UNL A   1      30.514  26.908  23.102  1.00  0.00     0.005 C 
ATOM     23  C   UNL A   1      31.390  26.196  22.082  1.00  0.00     0.005 C 
ENDBRANCH  12  14
ENDBRANCH   7   8
ENDBRANCH   5   7
ENDBRANCH   2   3
ENDBRANCH   1   2
BRANCH   1  24
ATOM     24  C   UNL A   1      37.617  20.018  24.808  1.00  0.00     0.023 C 
BRANCH  24  25
ATOM     25  C   UNL A   1      38.746  20.362  25.774  1.00  0.00     0.116 C 
BRANCH  25  26
ATOM     26  N   UNL A   1      39.832  19.397  25.747  1.00  0.00    -0.352 N 
ATOM     27  C   UNL A   1      41.157  19.566  26.071  1.00  0.00     0.251 C 
ATOM     28  H   UNL A   1      39.582  18.490  25.456  1.00  0.00     0.163 HD
ATOM     29  O   UNL A   1      41.957  18.658  25.882  1.00  0.00    -0.269 OA
BRANCH  27  30
ATOM     30  C   UNL A   1      41.623  20.862  26.610  1.00  0.00     0.039 A 
ATOM     31  C   UNL A   1      42.086  21.828  25.713  1.00  0.00     0.014 A 
ATOM     32  C   UNL A   1      41.597  21.131  27.980  1.00  0.00     0.014 A 
ATOM     33  C   UNL A   1      42.457  23.088  26.184  1.00  0.00     0.010 A 
ATOM     34  C   UNL A   1      41.895  22.411  28.440  1.00  0.00     0.010 A 
ATOM     35  C   UNL A   1      42.327  23.403  27.547  1.00  0.00    -0.014 A 
BRANCH  35  36
ATOM     36  C   UNL A   1      42.627  24.767  28.051  1.00  0.00     0.031 A 
ATOM     37  C   UNL A   1      44.027  25.137  28.457  1.00  0.00     0.074 A 
ATOM     38  C   UNL A   1      41.626  25.657  28.201  1.00  0.00     0.049 A 
ATOM     39  N   UNL A   1      44.470  26.259  28.965  1.00  0.00    -0.248 NA
ATOM     40  C   UNL A   1      45.062  24.102  28.293  1.00  0.00     0.031 C 
ATOM     41  C   UNL A   1      40.218  25.415  27.878  1.00  0.00     0.029 A 
ATOM     42  N   UNL A   1      41.640  26.948  28.670  1.00  0.00    -0.354 N 
ATOM     43  C   UNL A   1      45.826  26.060  29.196  1.00  0.00     0.074 A 
ATOM     44  C   UNL A   1      46.123  24.695  28.819  1.00  0.00     0.031 C 
ATOM     45  C   UNL A   1      39.512  26.529  28.126  1.00  0.00     0.029 A 
ATOM     46  C   UNL A   1      40.404  27.548  28.669  1.00  0.00     0.049 A 
ATOM     47  H   UNL A   1      42.459  27.401  28.976  1.00  0.00     0.167 HD
ATOM     48  C   UNL A   1      46.745  26.937  29.665  1.00  0.00     0.031 A 
ATOM     49  C   UNL A   1      40.029  28.778  29.066  1.00  0.00     0.031 A 
ATOM     50  C   UNL A   1      46.452  28.298  30.032  1.00  0.00     0.049 A 
ATOM     51  C   UNL A   1      41.065  29.725  29.606  1.00  0.00     0.074 A 
ATOM     52  C   UNL A   1      47.327  29.282  30.460  1.00  0.00     0.029 A 
ATOM     53  N   UNL A   1      45.187  28.864  30.021  1.00  0.00    -0.354 N 
ATOM     54  N   UNL A   1      42.355  29.544  29.751  1.00  0.00    -0.248 NA
ATOM     55  C   UNL A   1      40.591  31.050  30.030  1.00  0.00     0.031 C 
ATOM     56  C   UNL A   1      46.583  30.426  30.763  1.00  0.00     0.029 A 
ATOM     57  C   UNL A   1      45.254  30.175  30.463  1.00  0.00     0.049 A 
ATOM     58  H   UNL A   1      44.364  28.403  29.741  1.00  0.00     0.167 HD
ATOM     59  C   UNL A   1      42.852  30.741  30.250  1.00  0.00     0.074 A 
ATOM     60  C   UNL A   1      41.726  31.645  30.369  1.00  0.00     0.031 C 
ATOM     61  C   UNL A   1      44.127  31.064  30.577  1.00  0.00     0.031 A 
BRANCH  48  62
ATOM     62  C   UNL A   1      48.158  26.447  29.819  1.00  0.00    -0.014 A 
ATOM     63  C   UNL A   1      48.592  25.833  31.005  1.00  0.00     0.009 A 
ATOM     64  C   UNL A   1      49.058  26.564  28.749  1.00  0.00     0.009 A 
ATOM     65  C   UNL A   1      49.907  25.380  31.128  1.00  0.00     0.001 A 
ATOM     66  C   UNL A   1      50.363  26.083  28.863  1.00  0.00     0.001 A 
ATOM     67  C   UNL A   1      50.790  25.500  30.055  1.00  0.00     0.000 A 
ENDBRANCH  48  62
BRANCH  49  68
ATOM     68  C   UNL A   1      38.606  29.197  28.960  1.00  0.00    -0.014 A 
ATOM     69  C   UNL A   1      37.762  29.137  30.079  1.00  0.00     0.009 A 
ATOM     70  C   UNL A   1      38.080  29.642  27.738  1.00  0.00     0.009 A 
ATOM     71  C   UNL A   1      36.414  29.485  29.970  1.00  0.00     0.001 A 
ATOM     72  C   UNL A   1      36.739  30.020  27.638  1.00  0.00     0.001 A 
ATOM     73  C   UNL A   1      35.905  29.931  28.751  1.00  0.00     0.000 A 
ENDBRANCH  49  68
BRANCH  61  74
ATOM     74  C   UNL A   1      44.381  32.465  31.058  1.00  0.00    -0.014 A 
ATOM     75  C   UNL A   1      44.666  33.507  30.161  1.00  0.00     0.009 A 
ATOM     76  C   UNL A   1      44.293  32.754  32.428  1.00  0.00     0.009 A 
ATOM     77  C   UNL A   1      44.893  34.802  30.632  1.00  0.00     0.001 A 
ATOM     78  C   UNL A   1      44.488  34.055  32.893  1.00  0.00     0.001 A 
ATOM     79  C   UNL A   1      44.798  35.076  31.996  1.00  0.00     0.000 A 
ENDBRANCH  61  74
ENDBRANCH  35  36
ENDBRANCH  27  30
ENDBRANCH  25  26
ENDBRANCH  24  25
ENDBRANCH   1  24
TORSDOF 13
ENDMDL
MODEL 2
REMARK VINA RESULT:     -11.7      1.273      2.084
REMARK SMILES O=C(CNC(=O)Nc1cccc2c1CCCC2)NCCCCNC(=O)c1ccc(-c2c3nc(c(-c4ccccc4)c4ccc([nH]4)c(-c4ccccc4)c4nc(c(-c5ccccc5)c5ccc2[nH]5)C=C4)C=C3)cc1
REMARK SMILES IDX 20 1 19 2 18 3 1 4 2 5 3 7 4 8 5 9 6 11 7 12 8 14 9 15 13 16
REMARK SMILES IDX 10 17 12 18 14 19 11 20 17 21 15 22 16 23 21 24 22 25 23 26
REMARK SMILES IDX 24 27 25 29 26 30 27 31 73 32 28 33 72 34 29 35 30 36 31 37
REMARK SMILES IDX 66 38 32 39 71 40 65 41 67 42 33 43 70 44 64 45 63 46 34 48
REMARK SMILES IDX 56 49 41 50 55 51 42 52 45 53 54 54 68 55 43 56 44 57 53 59
REMARK SMILES IDX 69 60 46 61 35 62 36 63 40 64 37 65 39 66 38 67 57 68 58 69
REMARK SMILES IDX 62 70 59 71 61 72 60 73 47 74 48 75 52 76 49 77 51 78 50 79
REMARK H PARENT 18 6 4 10 7 13 23 28 67 47 45 58
REMARK Flexibility Score: inf
ROOT
ATOM      1  C   UNL A   1      36.209  20.765  25.125  1.00  0.00     0.023 C 
ENDROOT
BRANCH   1   2
ATOM      2  C   UNL A   1      35.921  21.996  24.264  1.00  0.00     0.116 C 
BRANCH   2   3
ATOM      3  N   UNL A   1      34.704  22.659  24.679  1.00  0.00    -0.355 N 
ATOM      4  O   UNL A   1      34.438  23.860  22.740  1.00  0.00    -0.273 OA
ATOM      5  C   UNL A   1      34.077  23.590  23.882  1.00  0.00     0.239 C 
ATOM      6  H   UNL A   1      34.314  22.438  25.555  1.00  0.00     0.163 HD
BRANCH   5   7
ATOM      7  C   UNL A   1      33.092  24.467  24.640  1.00  0.00     0.217 C 
BRANCH   7   8
ATOM      8  N   UNL A   1      32.443  23.857  25.793  1.00  0.00    -0.329 N 
ATOM      9  C   UNL A   1      31.350  24.144  26.522  1.00  0.00     0.319 C 
ATOM     10  H   UNL A   1      32.911  23.051  26.111  1.00  0.00     0.165 HD
ATOM     11  O   UNL A   1      31.068  23.363  27.436  1.00  0.00    -0.248 OA
ATOM     12  N   UNL A   1      30.604  25.264  26.396  1.00  0.00    -0.308 N 
ATOM     13  H   UNL A   1      29.871  25.334  27.050  1.00  0.00     0.171 HD
BRANCH  12  14
ATOM     14  C   UNL A   1      30.684  26.340  25.507  1.00  0.00     0.046 A 
ATOM     15  C   UNL A   1      29.946  26.216  24.325  1.00  0.00     0.026 A 
ATOM     16  C   UNL A   1      31.401  27.520  25.783  1.00  0.00    -0.021 A 
ATOM     17  C   UNL A   1      29.775  27.315  23.491  1.00  0.00     0.002 A 
ATOM     18  C   UNL A   1      31.138  28.655  24.989  1.00  0.00    -0.043 A 
ATOM     19  C   UNL A   1      32.422  27.574  26.901  1.00  0.00     0.038 C 
ATOM     20  C   UNL A   1      30.337  28.540  23.842  1.00  0.00     0.004 A 
ATOM     21  C   UNL A   1      31.665  30.016  25.374  1.00  0.00     0.036 C 
ATOM     22  C   UNL A   1      33.036  28.953  27.155  1.00  0.00     0.005 C 
ATOM     23  C   UNL A   1      32.056  30.075  26.848  1.00  0.00     0.005 C 
ENDBRANCH  12  14
ENDBRANCH   7   8
ENDBRANCH   5   7
ENDBRANCH   2   3
ENDBRANCH   1   2
BRANCH   1  24
ATOM     24  C   UNL A   1      37.531  20.057  24.819  1.00  0.00     0.023 C 
BRANCH  24  25
ATOM     25  C   UNL A   1      38.702  20.446  25.714  1.00  0.00     0.116 C 
BRANCH  25  26
ATOM     26  N   UNL A   1      39.771  19.463  25.713  1.00  0.00    -0.352 N 
ATOM     27  C   UNL A   1      41.092  19.610  26.062  1.00  0.00     0.251 C 
ATOM     28  H   UNL A   1      39.513  18.560  25.421  1.00  0.00     0.163 HD
ATOM     29  O   UNL A   1      41.880  18.688  25.893  1.00  0.00    -0.269 OA
BRANCH  27  30
ATOM     30  C   UNL A   1      41.570  20.900  26.606  1.00  0.00     0.039 A 
ATOM     31  C   UNL A   1      42.049  21.863  25.713  1.00  0.00     0.014 A 
ATOM     32  C   UNL A   1      41.540  21.168  27.976  1.00  0.00     0.014 A 
ATOM     33  C   UNL A   1      42.430  23.118  26.188  1.00  0.00     0.010 A 
ATOM     34  C   UNL A   1      41.849  22.444  28.439  1.00  0.00     0.010 A 
ATOM     35  C   UNL A   1      42.297  23.433  27.550  1.00  0.00    -0.014 A 
BRANCH  35  36
ATOM     36  C   UNL A   1      42.609  24.793  28.058  1.00  0.00     0.031 A 
ATOM     37  C   UNL A   1      44.016  25.155  28.445  1.00  0.00     0.074 A 
ATOM     38  C   UNL A   1      41.613  25.685  28.228  1.00  0.00     0.049 A 
ATOM     39  N   UNL A   1      44.471  26.273  28.952  1.00  0.00    -0.248 NA
ATOM     40  C   UNL A   1      45.045  24.118  28.258  1.00  0.00     0.031 C 
ATOM     41  C   UNL A   1      40.200  25.449  27.925  1.00  0.00     0.029 A 
ATOM     42  N   UNL A   1      41.639  26.973  28.704  1.00  0.00    -0.354 N 
ATOM     43  C   UNL A   1      45.829  26.068  29.162  1.00  0.00     0.074 A 
ATOM     44  C   UNL A   1      46.116  24.705  28.772  1.00  0.00     0.031 C 
ATOM     45  C   UNL A   1      39.502  26.564  28.191  1.00  0.00     0.029 A 
ATOM     46  C   UNL A   1      40.405  27.577  28.726  1.00  0.00     0.049 A 
ATOM     47  H   UNL A   1      42.464  27.421  29.001  1.00  0.00     0.167 HD
ATOM     48  C   UNL A   1      46.758  26.940  29.622  1.00  0.00     0.031 A 
ATOM     49  C   UNL A   1      40.040  28.806  29.136  1.00  0.00     0.031 A 
ATOM     50  C   UNL A   1      46.476  28.299  30.001  1.00  0.00     0.049 A 
ATOM     51  C   UNL A   1      41.088  29.746  29.666  1.00  0.00     0.074 A 
ATOM     52  C   UNL A   1      47.360  29.277  30.422  1.00  0.00     0.029 A 
ATOM     53  N   UNL A   1      45.213  28.869  30.013  1.00  0.00    -0.354 N 
ATOM     54  N   UNL A   1      42.379  29.560  29.790  1.00  0.00    -0.248 NA
ATOM     55  C   UNL A   1      40.625  31.071  30.105  1.00  0.00     0.031 C 
ATOM     56  C   UNL A   1      46.625  30.422  30.743  1.00  0.00     0.029 A 
ATOM     57  C   UNL A   1      45.291  30.177  30.462  1.00  0.00     0.049 A 
ATOM     58  H   UNL A   1      44.384  28.413  29.742  1.00  0.00     0.167 HD
ATOM     59  C   UNL A   1      42.887  30.752  30.288  1.00  0.00     0.074 A 
ATOM     60  C   UNL A   1      41.767  31.659  30.430  1.00  0.00     0.031 C 
ATOM     61  C   UNL A   1      44.168  31.069  30.598  1.00  0.00     0.031 A 
BRANCH  48  62
ATOM     62  C   UNL A   1      48.172  26.444  29.752  1.00  0.00    -0.014 A 
ATOM     63  C   UNL A   1      49.098  26.596  28.707  1.00  0.00     0.009 A 
ATOM     64  C   UNL A   1      48.596  25.853  30.952  1.00  0.00     0.009 A 
ATOM     65  C   UNL A   1      50.408  26.133  28.849  1.00  0.00     0.001 A 
ATOM     66  C   UNL A   1      49.914  25.418  31.102  1.00  0.00     0.001 A 
ATOM     67  C   UNL A   1      50.816  25.550  30.048  1.00  0.00     0.000 A 
ENDBRANCH  48  62
BRANCH  49  68
ATOM     68  C   UNL A   1      38.617  29.230  29.054  1.00  0.00    -0.014 A 
ATOM     69  C   UNL A   1      38.104  29.767  27.862  1.00  0.00     0.009 A 
ATOM     70  C   UNL A   1      37.770  29.119  30.167  1.00  0.00     0.009 A 
ATOM     71  C   UNL A   1      36.781  30.210  27.797  1.00  0.00     0.001 A 
ATOM     72  C   UNL A   1      36.439  29.534  30.089  1.00  0.00     0.001 A 
ATOM     73  C   UNL A   1      35.949  30.089  28.908  1.00  0.00     0.000 A 
ENDBRANCH  49  68
BRANCH  61  74
ATOM     74  C   UNL A   1      44.434  32.466  31.083  1.00  0.00    -0.014 A 
ATOM     75  C   UNL A   1      44.703  33.514  30.188  1.00  0.00     0.009 A 
ATOM     76  C   UNL A   1      44.375  32.746  32.457  1.00  0.00     0.009 A 
ATOM     77  C   UNL A   1      44.941  34.805  30.663  1.00  0.00     0.001 A 
ATOM     78  C   UNL A   1      44.582  34.043  32.927  1.00  0.00     0.001 A 
ATOM     79  C   UNL A   1      44.875  35.070  32.031  1.00  0.00     0.000 A 
ENDBRANCH  61  74
ENDBRANCH  35  36
ENDBRANCH  27  30
ENDBRANCH  25  26
ENDBRANCH  24  25
ENDBRANCH   1  24
TORSDOF 13
ENDMDL
MODEL 3
REMARK VINA RESULT:     -11.6      1.271      6.293
REMARK SMILES O=C(CNC(=O)Nc1cccc2c1CCCC2)NCCCCNC(=O)c1ccc(-c2c3nc(c(-c4ccccc4)c4ccc([nH]4)c(-c4ccccc4)c4nc(c(-c5ccccc5)c5ccc2[nH]5)C=C4)C=C3)cc1
REMARK SMILES IDX 20 1 19 2 18 3 1 4 2 5 3 7 4 8 5 9 6 11 7 12 8 14 9 15 13 16
REMARK SMILES IDX 10 17 12 18 14 19 11 20 17 21 15 22 16 23 21 24 22 25 23 26
REMARK SMILES IDX 24 27 25 29 26 30 27 31 73 32 28 33 72 34 29 35 30 36 31 37
REMARK SMILES IDX 66 38 32 39 71 40 65 41 67 42 33 43 70 44 64 45 63 46 34 48
REMARK SMILES IDX 56 49 41 50 55 51 42 52 45 53 54 54 68 55 43 56 44 57 53 59
REMARK SMILES IDX 69 60 46 61 35 62 36 63 40 64 37 65 39 66 38 67 57 68 58 69
REMARK SMILES IDX 62 70 59 71 61 72 60 73 47 74 48 75 52 76 49 77 51 78 50 79
REMARK H PARENT 18 6 4 10 7 13 23 28 67 47 45 58
REMARK Flexibility Score: inf
ROOT
ATOM      1  C   UNL A   1      36.461  21.533  24.599  1.00  0.00     0.023 C 
ENDROOT
BRANCH   1   2
ATOM      2  C   UNL A   1      35.506  21.872  25.745  1.00  0.00     0.116 C 
BRANCH   2   3
ATOM      3  N   UNL A   1      34.236  22.356  25.250  1.00  0.00    -0.355 N 
ATOM      4  O   UNL A   1      34.907  24.543  25.036  1.00  0.00    -0.273 OA
ATOM      5  C   UNL A   1      34.026  23.689  24.974  1.00  0.00     0.239 C 
ATOM      6  H   UNL A   1      33.503  21.716  25.105  1.00  0.00     0.163 HD
BRANCH   5   7
ATOM      7  C   UNL A   1      32.553  24.061  24.882  1.00  0.00     0.217 C 
BRANCH   7   8
ATOM      8  N   UNL A   1      31.693  23.545  25.939  1.00  0.00    -0.329 N 
ATOM      9  C   UNL A   1      30.550  23.959  26.512  1.00  0.00     0.319 C 
ATOM     10  H   UNL A   1      32.025  22.700  26.321  1.00  0.00     0.165 HD
ATOM     11  O   UNL A   1      30.065  23.230  27.382  1.00  0.00    -0.248 OA
ATOM     12  N   UNL A   1      29.952  25.149  26.281  1.00  0.00    -0.308 N 
ATOM     13  H   UNL A   1      29.149  25.309  26.829  1.00  0.00     0.171 HD
BRANCH  12  14
ATOM     14  C   UNL A   1      30.266  26.194  25.406  1.00  0.00     0.046 A 
ATOM     15  C   UNL A   1      29.629  26.164  24.160  1.00  0.00     0.026 A 
ATOM     16  C   UNL A   1      31.116  27.262  25.750  1.00  0.00    -0.021 A 
ATOM     17  C   UNL A   1      29.694  27.268  23.318  1.00  0.00     0.002 A 
ATOM     18  C   UNL A   1      31.091  28.415  24.939  1.00  0.00    -0.043 A 
ATOM     19  C   UNL A   1      32.027  27.181  26.958  1.00  0.00     0.038 C 
ATOM     20  C   UNL A   1      30.390  28.403  23.723  1.00  0.00     0.004 A 
ATOM     21  C   UNL A   1      31.770  29.691  25.374  1.00  0.00     0.036 C 
ATOM     22  C   UNL A   1      32.806  28.461  27.271  1.00  0.00     0.005 C 
ATOM     23  C   UNL A   1      32.029  29.708  26.878  1.00  0.00     0.005 C 
ENDBRANCH  12  14
ENDBRANCH   7   8
ENDBRANCH   5   7
ENDBRANCH   2   3
ENDBRANCH   1   2
BRANCH   1  24
ATOM     24  C   UNL A   1      37.422  20.375  24.880  1.00  0.00     0.023 C 
BRANCH  24  25
ATOM     25  C   UNL A   1      38.651  20.734  25.707  1.00  0.00     0.116 C 
BRANCH  25  26
ATOM     26  N   UNL A   1      39.671  19.699  25.691  1.00  0.00    -0.352 N 
ATOM     27  C   UNL A   1      40.995  19.773  26.049  1.00  0.00     0.251 C 
ATOM     28  H   UNL A   1      39.369  18.816  25.378  1.00  0.00     0.163 HD
ATOM     29  O   UNL A   1      41.737  18.817  25.864  1.00  0.00    -0.269 OA
BRANCH  27  30
ATOM     30  C   UNL A   1      41.533  21.026  26.622  1.00  0.00     0.039 A 
ATOM     31  C   UNL A   1      42.046  21.990  25.750  1.00  0.00     0.014 A 
ATOM     32  C   UNL A   1      41.525  21.259  27.999  1.00  0.00     0.014 A 
ATOM     33  C   UNL A   1      42.486  23.215  26.254  1.00  0.00     0.010 A 
ATOM     34  C   UNL A   1      41.893  22.508  28.493  1.00  0.00     0.010 A 
ATOM     35  C   UNL A   1      42.377  23.499  27.626  1.00  0.00    -0.014 A 
BRANCH  35  36
ATOM     36  C   UNL A   1      42.752  24.830  28.166  1.00  0.00     0.031 A 
ATOM     37  C   UNL A   1      41.705  25.890  28.371  1.00  0.00     0.074 A 
ATOM     38  C   UNL A   1      44.048  25.107  28.416  1.00  0.00     0.049 A 
ATOM     39  N   UNL A   1      41.849  27.123  28.785  1.00  0.00    -0.248 NA
ATOM     40  C   UNL A   1      40.317  25.523  28.048  1.00  0.00     0.031 C 
ATOM     41  C   UNL A   1      45.166  24.180  28.227  1.00  0.00     0.029 A 
ATOM     42  N   UNL A   1      44.643  26.254  28.880  1.00  0.00    -0.354 N 
ATOM     43  C   UNL A   1      40.578  27.683  28.754  1.00  0.00     0.074 A 
ATOM     44  C   UNL A   1      39.683  26.671  28.236  1.00  0.00     0.031 C 
ATOM     45  C   UNL A   1      46.305  24.784  28.602  1.00  0.00     0.029 A 
ATOM     46  C   UNL A   1      46.007  26.151  29.014  1.00  0.00     0.049 A 
ATOM     47  H   UNL A   1      44.140  27.072  29.097  1.00  0.00     0.167 HD
ATOM     48  C   UNL A   1      40.186  28.922  29.137  1.00  0.00     0.031 A 
ATOM     49  C   UNL A   1      46.917  27.058  29.416  1.00  0.00     0.031 A 
ATOM     50  C   UNL A   1      41.074  29.926  29.661  1.00  0.00     0.049 A 
ATOM     51  C   UNL A   1      46.458  28.435  29.812  1.00  0.00     0.074 A 
ATOM     52  C   UNL A   1      40.762  31.189  30.132  1.00  0.00     0.029 A 
ATOM     53  N   UNL A   1      42.448  29.784  29.775  1.00  0.00    -0.354 N 
ATOM     54  N   UNL A   1      45.242  28.924  29.845  1.00  0.00    -0.248 NA
ATOM     55  C   UNL A   1      47.500  29.382  30.235  1.00  0.00     0.031 C 
ATOM     56  C   UNL A   1      41.954  31.834  30.478  1.00  0.00     0.029 A 
ATOM     57  C   UNL A   1      43.001  30.947  30.282  1.00  0.00     0.049 A 
ATOM     58  H   UNL A   1      42.954  28.975  29.532  1.00  0.00     0.167 HD
ATOM     59  C   UNL A   1      45.369  30.221  30.323  1.00  0.00     0.074 A 
ATOM     60  C   UNL A   1      46.778  30.438  30.580  1.00  0.00     0.031 C 
ATOM     61  C   UNL A   1      44.404  31.150  30.533  1.00  0.00     0.031 A 
BRANCH  48  62
ATOM     62  C   UNL A   1      38.729  29.265  28.992  1.00  0.00    -0.014 A 
ATOM     63  C   UNL A   1      38.207  29.730  27.774  1.00  0.00     0.009 A 
ATOM     64  C   UNL A   1      37.858  29.083  30.077  1.00  0.00     0.009 A 
ATOM     65  C   UNL A   1      36.850  30.040  27.658  1.00  0.00     0.001 A 
ATOM     66  C   UNL A   1      36.497  29.364  29.949  1.00  0.00     0.001 A 
ATOM     67  C   UNL A   1      35.995  29.851  28.744  1.00  0.00     0.000 A 
ENDBRANCH  48  62
BRANCH  49  68
ATOM     68  C   UNL A   1      48.357  26.696  29.479  1.00  0.00    -0.014 A 
ATOM     69  C   UNL A   1      49.191  26.903  28.368  1.00  0.00     0.009 A 
ATOM     70  C   UNL A   1      48.903  26.125  30.638  1.00  0.00     0.009 A 
ATOM     71  C   UNL A   1      50.533  26.520  28.409  1.00  0.00     0.001 A 
ATOM     72  C   UNL A   1      50.253  25.772  30.687  1.00  0.00     0.001 A 
ATOM     73  C   UNL A   1      51.064  25.959  29.569  1.00  0.00     0.000 A 
ENDBRANCH  49  68
BRANCH  61  74
ATOM     74  C   UNL A   1      44.834  32.472  31.105  1.00  0.00    -0.014 A 
ATOM     75  C   UNL A   1      45.167  33.555  30.277  1.00  0.00     0.009 A 
ATOM     76  C   UNL A   1      44.866  32.647  32.498  1.00  0.00     0.009 A 
ATOM     77  C   UNL A   1      45.558  34.775  30.833  1.00  0.00     0.001 A 
ATOM     78  C   UNL A   1      45.225  33.876  33.050  1.00  0.00     0.001 A 
ATOM     79  C   UNL A   1      45.581  34.937  32.218  1.00  0.00     0.000 A 
ENDBRANCH  61  74
ENDBRANCH  35  36
ENDBRANCH  27  30
ENDBRANCH  25  26
ENDBRANCH  24  25
ENDBRANCH   1  24
TORSDOF 13
ENDMDL
