MODEL 1
REMARK VINA RESULT:     -13.4      0.000      0.000
REMARK SMILES Cc1ccccc1-c1c(Cl)ccc2c1C=C(C(=O)NCCCCNC(=O)c1ccc(-c3c4nc(c(-c5ccccc5)c5ccc([nH]5)c(-c5ccccc5)c5nc(c(-c6ccccc6)c6ccc3[nH]6)C=C5)C=C4)cc1)[C@@H](C(F)(F)F)O2
REMARK SMILES IDX 22 1 21 2 20 3 19 4 17 5 18 6 16 8 8 9 9 10 14 11 10 12
REMARK SMILES IDX 11 13 13 14 15 15 12 16 80 17 75 18 7 19 1 20 2 21 3 22 4 23
REMARK SMILES IDX 6 24 5 25 76 26 77 27 78 28 79 29 23 30 24 31 25 32 26 34
REMARK SMILES IDX 27 35 28 36 74 37 29 38 73 39 30 40 31 41 32 42 67 43 33 44
REMARK SMILES IDX 72 45 66 46 68 47 34 48 71 49 65 50 64 51 35 53 57 54 42 55
REMARK SMILES IDX 56 56 43 57 46 58 55 59 69 60 44 61 45 62 54 64 70 65 47 66
REMARK SMILES IDX 36 67 37 68 41 69 38 70 40 71 39 72 58 73 59 74 63 75 60 76
REMARK SMILES IDX 62 77 61 78 48 79 49 80 53 81 50 82 52 83 51 84
REMARK H PARENT 19 7 24 33 68 52 46 63
REMARK Flexibility Score: inf
ROOT
ATOM      1  C   UNL A   1      39.847  22.026  26.146  1.00  0.00     0.023 C 
ENDROOT
BRANCH   1   2
ATOM      2  C   UNL A   1      38.337  22.205  25.957  1.00  0.00     0.023 C 
BRANCH   2   3
ATOM      3  C   UNL A   1      37.865  23.626  25.630  1.00  0.00     0.116 C 
BRANCH   3   4
ATOM      4  N   UNL A   1      37.026  23.675  24.450  1.00  0.00    -0.352 N 
ATOM      5  C   UNL A   1      35.681  23.699  24.286  1.00  0.00     0.251 C 
ATOM      6  O   UNL A   1      35.257  23.635  23.132  1.00  0.00    -0.270 OA
ATOM      7  H   UNL A   1      37.531  23.694  23.605  1.00  0.00     0.163 HD
BRANCH   5   8
ATOM      8  C   UNL A   1      34.726  23.777  25.450  1.00  0.00     0.067 C 
ATOM      9  C   UNL A   1      31.835  26.038  24.763  1.00  0.00     0.012 A 
ATOM     10  C   UNL A   1      30.679  25.928  23.948  1.00  0.00     0.049 A 
ATOM     11  C   UNL A   1      32.631  24.874  24.926  1.00  0.00     0.027 A 
ATOM     12  Cl  UNL A   1      29.691  27.302  23.560  1.00  0.00    -0.084 Cl
ATOM     13  C   UNL A   1      30.281  24.704  23.400  1.00  0.00     0.025 A 
ATOM     14  C   UNL A   1      32.167  23.636  24.437  1.00  0.00     0.128 A 
ATOM     15  C   UNL A   1      33.995  24.907  25.484  1.00  0.00     0.026 C 
ATOM     16  C   UNL A   1      31.007  23.553  23.675  1.00  0.00     0.049 A 
ATOM     17  O   UNL A   1      32.810  22.442  24.650  1.00  0.00    -0.475 OA
ATOM     18  C   UNL A   1      33.938  22.479  25.555  1.00  0.00     0.314 C 
BRANCH   9  19
ATOM     19  C   UNL A   1      32.105  27.292  25.514  1.00  0.00    -0.013 A 
ATOM     20  C   UNL A   1      33.615  28.347  23.730  1.00  0.00     0.045 C 
ATOM     21  C   UNL A   1      32.907  28.356  25.054  1.00  0.00    -0.043 A 
ATOM     22  C   UNL A   1      33.104  29.484  25.878  1.00  0.00     0.004 A 
ATOM     23  C   UNL A   1      32.495  29.584  27.127  1.00  0.00     0.000 A 
ATOM     24  C   UNL A   1      31.509  27.419  26.790  1.00  0.00     0.009 A 
ATOM     25  C   UNL A   1      31.689  28.552  27.582  1.00  0.00     0.001 A 
ENDBRANCH   9  19
BRANCH  18  26
ATOM     26  C   UNL A   1      33.517  22.204  27.008  1.00  0.00     0.429 C 
ATOM     27  F   UNL A   1      32.229  22.563  27.230  1.00  0.00    -0.167 F 
ATOM     28  F   UNL A   1      33.607  20.879  27.296  1.00  0.00    -0.167 F 
ATOM     29  F   UNL A   1      34.278  22.857  27.916  1.00  0.00    -0.167 F 
ENDBRANCH  18  26
ENDBRANCH   5   8
ENDBRANCH   3   4
ENDBRANCH   2   3
ENDBRANCH   1   2
BRANCH   1  30
ATOM     30  C   UNL A   1      40.295  20.640  26.593  1.00  0.00     0.116 C 
BRANCH  30  31
ATOM     31  N   UNL A   1      41.421  20.090  25.856  1.00  0.00    -0.352 N 
ATOM     32  C   UNL A   1      42.745  20.507  25.792  1.00  0.00     0.251 C 
ATOM     33  H   UNL A   1      41.213  19.293  25.315  1.00  0.00     0.163 HD
ATOM     34  O   UNL A   1      43.513  19.943  25.035  1.00  0.00    -0.269 OA
BRANCH  32  35
ATOM     35  C   UNL A   1      43.268  21.529  26.744  1.00  0.00     0.039 A 
ATOM     36  C   UNL A   1      42.694  21.580  28.024  1.00  0.00     0.014 A 
ATOM     37  C   UNL A   1      44.142  22.534  26.349  1.00  0.00     0.014 A 
ATOM     38  C   UNL A   1      42.772  22.756  28.769  1.00  0.00     0.010 A 
ATOM     39  C   UNL A   1      44.134  23.734  27.026  1.00  0.00     0.010 A 
ATOM     40  C   UNL A   1      43.379  23.867  28.193  1.00  0.00    -0.014 A 
BRANCH  40  41
ATOM     41  C   UNL A   1      43.145  25.237  28.631  1.00  0.00     0.031 A 
ATOM     42  C   UNL A   1      41.991  26.006  28.114  1.00  0.00     0.074 A 
ATOM     43  C   UNL A   1      43.898  25.729  29.644  1.00  0.00     0.049 A 
ATOM     44  N   UNL A   1      41.886  27.291  28.175  1.00  0.00    -0.248 NA
ATOM     45  C   UNL A   1      40.858  25.376  27.439  1.00  0.00     0.031 C 
ATOM     46  C   UNL A   1      43.618  26.918  30.448  1.00  0.00     0.029 A 
ATOM     47  N   UNL A   1      45.164  25.348  30.093  1.00  0.00    -0.354 N 
ATOM     48  C   UNL A   1      40.577  27.609  27.895  1.00  0.00     0.074 A 
ATOM     49  C   UNL A   1      40.020  26.409  27.317  1.00  0.00     0.031 C 
ATOM     50  C   UNL A   1      44.764  27.336  31.009  1.00  0.00     0.029 A 
ATOM     51  C   UNL A   1      45.828  26.537  30.425  1.00  0.00     0.049 A 
ATOM     52  H   UNL A   1      45.518  24.432  30.163  1.00  0.00     0.167 HD
ATOM     53  C   UNL A   1      40.066  28.791  28.348  1.00  0.00     0.031 A 
ATOM     54  C   UNL A   1      46.890  27.056  29.736  1.00  0.00     0.031 A 
ATOM     55  C   UNL A   1      41.105  29.633  28.948  1.00  0.00     0.049 A 
ATOM     56  C   UNL A   1      46.640  28.471  29.234  1.00  0.00     0.074 A 
ATOM     57  C   UNL A   1      41.430  29.947  30.259  1.00  0.00     0.029 A 
ATOM     58  N   UNL A   1      42.175  30.061  28.168  1.00  0.00    -0.354 N 
ATOM     59  N   UNL A   1      45.450  28.988  29.097  1.00  0.00    -0.248 NA
ATOM     60  C   UNL A   1      47.690  29.393  28.803  1.00  0.00     0.031 C 
ATOM     61  C   UNL A   1      42.740  30.492  30.269  1.00  0.00     0.029 A 
ATOM     62  C   UNL A   1      43.198  30.540  28.963  1.00  0.00     0.049 A 
ATOM     63  H   UNL A   1      42.201  30.025  27.184  1.00  0.00     0.167 HD
ATOM     64  C   UNL A   1      45.545  30.259  28.601  1.00  0.00     0.074 A 
ATOM     65  C   UNL A   1      46.972  30.470  28.432  1.00  0.00     0.031 C 
ATOM     66  C   UNL A   1      44.438  31.022  28.363  1.00  0.00     0.031 A 
BRANCH  53  67
ATOM     67  C   UNL A   1      38.582  29.055  28.527  1.00  0.00    -0.014 A 
ATOM     68  C   UNL A   1      37.833  29.570  27.450  1.00  0.00     0.009 A 
ATOM     69  C   UNL A   1      37.876  28.900  29.732  1.00  0.00     0.009 A 
ATOM     70  C   UNL A   1      36.502  29.988  27.596  1.00  0.00     0.001 A 
ATOM     71  C   UNL A   1      36.554  29.338  29.894  1.00  0.00     0.001 A 
ATOM     72  C   UNL A   1      35.869  29.896  28.828  1.00  0.00     0.000 A 
ENDBRANCH  53  67
BRANCH  54  73
ATOM     73  C   UNL A   1      47.710  26.051  29.007  1.00  0.00    -0.014 A 
ATOM     74  C   UNL A   1      47.436  25.820  27.645  1.00  0.00     0.009 A 
ATOM     75  C   UNL A   1      48.935  25.613  29.529  1.00  0.00     0.009 A 
ATOM     76  C   UNL A   1      48.414  25.287  26.801  1.00  0.00     0.001 A 
ATOM     77  C   UNL A   1      49.905  25.062  28.682  1.00  0.00     0.001 A 
ATOM     78  C   UNL A   1      49.659  24.938  27.315  1.00  0.00     0.000 A 
ENDBRANCH  54  73
BRANCH  66  79
ATOM     79  C   UNL A   1      44.400  32.324  27.602  1.00  0.00    -0.014 A 
ATOM     80  C   UNL A   1      44.279  32.424  26.211  1.00  0.00     0.009 A 
ATOM     81  C   UNL A   1      44.342  33.536  28.330  1.00  0.00     0.009 A 
ATOM     82  C   UNL A   1      44.150  33.669  25.577  1.00  0.00     0.001 A 
ATOM     83  C   UNL A   1      44.166  34.775  27.707  1.00  0.00     0.001 A 
ATOM     84  C   UNL A   1      44.083  34.841  26.324  1.00  0.00     0.000 A 
ENDBRANCH  66  79
ENDBRANCH  40  41
ENDBRANCH  32  35
ENDBRANCH  30  31
ENDBRANCH   1  30
TORSDOF 13
ENDMDL
MODEL 2
REMARK VINA RESULT:     -13.4      4.606      9.236
REMARK SMILES Cc1ccccc1-c1c(Cl)ccc2c1C=C(C(=O)NCCCCNC(=O)c1ccc(-c3c4nc(c(-c5ccccc5)c5ccc([nH]5)c(-c5ccccc5)c5nc(c(-c6ccccc6)c6ccc3[nH]6)C=C5)C=C4)cc1)[C@@H](C(F)(F)F)O2
REMARK SMILES IDX 22 1 21 2 20 3 19 4 17 5 18 6 16 8 8 9 9 10 14 11 10 12
REMARK SMILES IDX 11 13 13 14 15 15 12 16 80 17 75 18 7 19 1 20 2 21 3 22 4 23
REMARK SMILES IDX 6 24 5 25 76 26 77 27 78 28 79 29 23 30 24 31 25 32 26 34
REMARK SMILES IDX 27 35 28 36 74 37 29 38 73 39 30 40 31 41 32 42 67 43 33 44
REMARK SMILES IDX 72 45 66 46 68 47 34 48 71 49 65 50 64 51 35 53 57 54 42 55
REMARK SMILES IDX 56 56 43 57 46 58 55 59 69 60 44 61 45 62 54 64 70 65 47 66
REMARK SMILES IDX 36 67 37 68 41 69 38 70 40 71 39 72 58 73 59 74 63 75 60 76
REMARK SMILES IDX 62 77 61 78 48 79 49 80 53 81 50 82 52 83 51 84
REMARK H PARENT 19 7 24 33 68 52 46 63
REMARK Flexibility Score: inf
ROOT
ATOM      1  C   UNL A   1      34.064  31.599  27.998  1.00  0.00     0.023 C 
ENDROOT
BRANCH   1   2
ATOM      2  C   UNL A   1      35.127  30.580  27.575  1.00  0.00     0.023 C 
BRANCH   2   3
ATOM      3  C   UNL A   1      34.602  29.283  26.949  1.00  0.00     0.116 C 
BRANCH   3   4
ATOM      4  N   UNL A   1      33.438  28.766  27.640  1.00  0.00    -0.352 N 
ATOM      5  C   UNL A   1      32.402  27.994  27.231  1.00  0.00     0.251 C 
ATOM      6  O   UNL A   1      31.495  27.802  28.041  1.00  0.00    -0.270 OA
ATOM      7  H   UNL A   1      33.392  29.024  28.589  1.00  0.00     0.163 HD
BRANCH   5   8
ATOM      8  C   UNL A   1      32.330  27.406  25.845  1.00  0.00     0.067 C 
ATOM      9  C   UNL A   1      33.108  23.754  25.813  1.00  0.00     0.012 A 
ATOM     10  C   UNL A   1      32.400  22.599  26.234  1.00  0.00     0.049 A 
ATOM     11  C   UNL A   1      32.401  24.984  25.804  1.00  0.00     0.027 A 
ATOM     12  Cl  UNL A   1      33.177  21.057  26.416  1.00  0.00    -0.084 Cl
ATOM     13  C   UNL A   1      31.036  22.645  26.540  1.00  0.00     0.025 A 
ATOM     14  C   UNL A   1      31.011  24.994  26.034  1.00  0.00     0.128 A 
ATOM     15  C   UNL A   1      33.070  26.293  25.684  1.00  0.00     0.026 C 
ATOM     16  C   UNL A   1      30.335  23.836  26.405  1.00  0.00     0.049 A 
ATOM     17  O   UNL A   1      30.226  26.116  25.929  1.00  0.00    -0.475 OA
ATOM     18  C   UNL A   1      30.875  27.299  25.408  1.00  0.00     0.314 C 
BRANCH   9  19
ATOM     19  C   UNL A   1      34.490  23.632  25.277  1.00  0.00    -0.013 A 
ATOM     20  C   UNL A   1      33.794  23.181  22.851  1.00  0.00     0.045 C 
ATOM     21  C   UNL A   1      34.818  23.379  23.930  1.00  0.00    -0.043 A 
ATOM     22  C   UNL A   1      36.173  23.261  23.556  1.00  0.00     0.004 A 
ATOM     23  C   UNL A   1      37.198  23.422  24.486  1.00  0.00     0.000 A 
ATOM     24  C   UNL A   1      35.551  23.780  26.199  1.00  0.00     0.009 A 
ATOM     25  C   UNL A   1      36.887  23.689  25.811  1.00  0.00     0.001 A 
ENDBRANCH   9  19
BRANCH  18  26
ATOM     26  C   UNL A   1      30.749  27.396  23.878  1.00  0.00     0.429 C 
ATOM     27  F   UNL A   1      29.613  28.037  23.513  1.00  0.00    -0.167 F 
ATOM     28  F   UNL A   1      31.783  28.103  23.351  1.00  0.00    -0.167 F 
ATOM     29  F   UNL A   1      30.745  26.189  23.267  1.00  0.00    -0.167 F 
ENDBRANCH  18  26
ENDBRANCH   5   8
ENDBRANCH   3   4
ENDBRANCH   2   3
ENDBRANCH   1   2
BRANCH   1  30
ATOM     30  C   UNL A   1      34.514  33.055  28.006  1.00  0.00     0.116 C 
BRANCH  30  31
ATOM     31  N   UNL A   1      33.694  33.948  28.809  1.00  0.00    -0.352 N 
ATOM     32  C   UNL A   1      33.769  34.268  30.160  1.00  0.00     0.251 C 
ATOM     33  H   UNL A   1      32.969  34.399  28.318  1.00  0.00     0.163 HD
ATOM     34  O   UNL A   1      32.917  34.984  30.651  1.00  0.00    -0.269 OA
BRANCH  32  35
ATOM     35  C   UNL A   1      34.956  33.871  30.971  1.00  0.00     0.039 A 
ATOM     36  C   UNL A   1      36.136  34.612  30.804  1.00  0.00     0.014 A 
ATOM     37  C   UNL A   1      34.987  32.700  31.719  1.00  0.00     0.014 A 
ATOM     38  C   UNL A   1      37.363  34.040  31.135  1.00  0.00     0.010 A 
ATOM     39  C   UNL A   1      36.197  32.083  31.947  1.00  0.00     0.010 A 
ATOM     40  C   UNL A   1      37.382  32.720  31.577  1.00  0.00    -0.014 A 
BRANCH  40  41
ATOM     41  C   UNL A   1      38.560  31.865  31.524  1.00  0.00     0.031 A 
ATOM     42  C   UNL A   1      38.517  30.566  30.816  1.00  0.00     0.074 A 
ATOM     43  C   UNL A   1      39.736  32.356  31.983  1.00  0.00     0.049 A 
ATOM     44  N   UNL A   1      39.369  29.613  30.990  1.00  0.00    -0.248 NA
ATOM     45  C   UNL A   1      37.463  30.218  29.865  1.00  0.00     0.031 C 
ATOM     46  C   UNL A   1      41.072  31.819  31.725  1.00  0.00     0.029 A 
ATOM     47  N   UNL A   1      39.990  33.375  32.904  1.00  0.00    -0.354 N 
ATOM     48  C   UNL A   1      39.199  28.718  29.958  1.00  0.00     0.074 A 
ATOM     49  C   UNL A   1      37.926  29.066  29.373  1.00  0.00     0.031 C 
ATOM     50  C   UNL A   1      41.905  32.265  32.680  1.00  0.00     0.029 A 
ATOM     51  C   UNL A   1      41.081  32.940  33.668  1.00  0.00     0.049 A 
ATOM     52  H   UNL A   1      39.502  34.225  32.997  1.00  0.00     0.167 HD
ATOM     53  C   UNL A   1      40.235  27.902  29.606  1.00  0.00     0.031 A 
ATOM     54  C   UNL A   1      41.019  32.584  34.987  1.00  0.00     0.031 A 
ATOM     55  C   UNL A   1      41.356  28.016  30.544  1.00  0.00     0.049 A 
ATOM     56  C   UNL A   1      41.509  31.167  35.247  1.00  0.00     0.074 A 
ATOM     57  C   UNL A   1      42.592  28.639  30.471  1.00  0.00     0.029 A 
ATOM     58  N   UNL A   1      41.166  27.680  31.881  1.00  0.00    -0.354 N 
ATOM     59  N   UNL A   1      41.588  30.251  34.322  1.00  0.00    -0.248 NA
ATOM     60  C   UNL A   1      41.897  30.654  36.560  1.00  0.00     0.031 C 
ATOM     61  C   UNL A   1      43.107  28.749  31.789  1.00  0.00     0.029 A 
ATOM     62  C   UNL A   1      42.201  28.164  32.658  1.00  0.00     0.049 A 
ATOM     63  H   UNL A   1      40.398  27.170  32.227  1.00  0.00     0.167 HD
ATOM     64  C   UNL A   1      42.034  29.076  34.862  1.00  0.00     0.074 A 
ATOM     65  C   UNL A   1      42.214  29.377  36.271  1.00  0.00     0.031 C 
ATOM     66  C   UNL A   1      42.203  27.954  34.101  1.00  0.00     0.031 A 
BRANCH  53  67
ATOM     67  C   UNL A   1      40.358  27.235  28.248  1.00  0.00    -0.014 A 
ATOM     68  C   UNL A   1      39.829  25.942  28.059  1.00  0.00     0.009 A 
ATOM     69  C   UNL A   1      41.041  27.773  27.145  1.00  0.00     0.009 A 
ATOM     70  C   UNL A   1      40.051  25.207  26.885  1.00  0.00     0.001 A 
ATOM     71  C   UNL A   1      41.290  27.037  25.977  1.00  0.00     0.001 A 
ATOM     72  C   UNL A   1      40.806  25.745  25.852  1.00  0.00     0.000 A 
ENDBRANCH  53  67
BRANCH  54  73
ATOM     73  C   UNL A   1      39.923  33.236  35.756  1.00  0.00    -0.014 A 
ATOM     74  C   UNL A   1      38.710  32.540  35.919  1.00  0.00     0.009 A 
ATOM     75  C   UNL A   1      40.190  34.327  36.595  1.00  0.00     0.009 A 
ATOM     76  C   UNL A   1      37.850  32.843  36.978  1.00  0.00     0.001 A 
ATOM     77  C   UNL A   1      39.315  34.639  37.644  1.00  0.00     0.001 A 
ATOM     78  C   UNL A   1      38.170  33.873  37.859  1.00  0.00     0.000 A 
ENDBRANCH  54  73
BRANCH  66  79
ATOM     79  C   UNL A   1      42.451  26.558  34.617  1.00  0.00    -0.014 A 
ATOM     80  C   UNL A   1      41.547  25.833  35.403  1.00  0.00     0.009 A 
ATOM     81  C   UNL A   1      43.602  25.863  34.175  1.00  0.00     0.009 A 
ATOM     82  C   UNL A   1      41.798  24.501  35.764  1.00  0.00     0.001 A 
ATOM     83  C   UNL A   1      43.834  24.522  34.493  1.00  0.00     0.001 A 
ATOM     84  C   UNL A   1      42.934  23.844  35.302  1.00  0.00     0.000 A 
ENDBRANCH  66  79
ENDBRANCH  40  41
ENDBRANCH  32  35
ENDBRANCH  30  31
ENDBRANCH   1  30
TORSDOF 13
ENDMDL
MODEL 3
REMARK VINA RESULT:     -13.1      4.161      9.343
REMARK SMILES Cc1ccccc1-c1c(Cl)ccc2c1C=C(C(=O)NCCCCNC(=O)c1ccc(-c3c4nc(c(-c5ccccc5)c5ccc([nH]5)c(-c5ccccc5)c5nc(c(-c6ccccc6)c6ccc3[nH]6)C=C5)C=C4)cc1)[C@@H](C(F)(F)F)O2
REMARK SMILES IDX 22 1 21 2 20 3 19 4 17 5 18 6 16 8 8 9 9 10 14 11 10 12
REMARK SMILES IDX 11 13 13 14 15 15 12 16 80 17 75 18 7 19 1 20 2 21 3 22 4 23
REMARK SMILES IDX 6 24 5 25 76 26 77 27 78 28 79 29 23 30 24 31 25 32 26 34
REMARK SMILES IDX 27 35 28 36 74 37 29 38 73 39 30 40 31 41 32 42 67 43 33 44
REMARK SMILES IDX 72 45 66 46 68 47 34 48 71 49 65 50 64 51 35 53 57 54 42 55
REMARK SMILES IDX 56 56 43 57 46 58 55 59 69 60 44 61 45 62 54 64 70 65 47 66
REMARK SMILES IDX 36 67 37 68 41 69 38 70 40 71 39 72 58 73 59 74 63 75 60 76
REMARK SMILES IDX 62 77 61 78 48 79 49 80 53 81 50 82 52 83 51 84
REMARK H PARENT 19 7 24 33 68 52 46 63
REMARK Flexibility Score: inf
ROOT
ATOM      1  C   UNL A   1      31.421  32.178  27.241  1.00  0.00     0.023 C 
ENDROOT
BRANCH   1   2
ATOM      2  C   UNL A   1      31.826  30.921  26.464  1.00  0.00     0.023 C 
BRANCH   2   3
ATOM      3  C   UNL A   1      32.814  29.985  27.170  1.00  0.00     0.116 C 
BRANCH   3   4
ATOM      4  N   UNL A   1      32.240  28.685  27.451  1.00  0.00    -0.352 N 
ATOM      5  C   UNL A   1      32.178  27.539  26.730  1.00  0.00     0.251 C 
ATOM      6  O   UNL A   1      31.522  26.613  27.208  1.00  0.00    -0.270 OA
ATOM      7  H   UNL A   1      31.815  28.622  28.337  1.00  0.00     0.163 HD
BRANCH   5   8
ATOM      8  C   UNL A   1      32.853  27.389  25.391  1.00  0.00     0.067 C 
ATOM      9  C   UNL A   1      33.055  23.824  24.297  1.00  0.00     0.012 A 
ATOM     10  C   UNL A   1      32.101  22.894  23.811  1.00  0.00     0.049 A 
ATOM     11  C   UNL A   1      32.641  25.175  24.430  1.00  0.00     0.027 A 
ATOM     12  Cl  UNL A   1      32.434  21.193  23.722  1.00  0.00    -0.084 Cl
ATOM     13  C   UNL A   1      30.831  23.300  23.389  1.00  0.00     0.025 A 
ATOM     14  C   UNL A   1      31.389  25.575  23.921  1.00  0.00     0.128 A 
ATOM     15  C   UNL A   1      33.408  26.178  25.191  1.00  0.00     0.026 C 
ATOM     16  C   UNL A   1      30.489  24.645  23.411  1.00  0.00     0.049 A 
ATOM     17  O   UNL A   1      30.954  26.877  23.898  1.00  0.00    -0.475 OA
ATOM     18  C   UNL A   1      31.923  27.878  24.290  1.00  0.00     0.314 C 
BRANCH   9  19
ATOM     19  C   UNL A   1      34.464  23.404  24.521  1.00  0.00    -0.013 A 
ATOM     20  C   UNL A   1      34.217  22.985  27.039  1.00  0.00     0.045 C 
ATOM     21  C   UNL A   1      35.006  23.012  25.762  1.00  0.00    -0.043 A 
ATOM     22  C   UNL A   1      36.369  22.659  25.844  1.00  0.00     0.004 A 
ATOM     23  C   UNL A   1      37.186  22.657  24.715  1.00  0.00     0.000 A 
ATOM     24  C   UNL A   1      35.321  23.402  23.397  1.00  0.00     0.009 A 
ATOM     25  C   UNL A   1      36.660  23.024  23.486  1.00  0.00     0.001 A 
ENDBRANCH   9  19
BRANCH  18  26
ATOM     26  C   UNL A   1      32.721  28.406  23.086  1.00  0.00     0.429 C 
ATOM     27  F   UNL A   1      32.026  29.347  22.402  1.00  0.00    -0.167 F 
ATOM     28  F   UNL A   1      33.877  28.993  23.491  1.00  0.00    -0.167 F 
ATOM     29  F   UNL A   1      33.059  27.437  22.204  1.00  0.00    -0.167 F 
ENDBRANCH  18  26
ENDBRANCH   5   8
ENDBRANCH   3   4
ENDBRANCH   2   3
ENDBRANCH   1   2
BRANCH   1  30
ATOM     30  C   UNL A   1      32.203  33.442  26.903  1.00  0.00     0.116 C 
BRANCH  30  31
ATOM     31  N   UNL A   1      32.591  34.249  28.048  1.00  0.00    -0.352 N 
ATOM     32  C   UNL A   1      33.648  34.100  28.939  1.00  0.00     0.251 C 
ATOM     33  H   UNL A   1      32.014  35.028  28.220  1.00  0.00     0.163 HD
ATOM     34  O   UNL A   1      33.738  34.854  29.889  1.00  0.00    -0.269 OA
BRANCH  32  35
ATOM     35  C   UNL A   1      34.746  33.130  28.660  1.00  0.00     0.039 A 
ATOM     36  C   UNL A   1      34.690  31.882  29.301  1.00  0.00     0.014 A 
ATOM     37  C   UNL A   1      35.893  33.486  27.961  1.00  0.00     0.014 A 
ATOM     38  C   UNL A   1      35.860  31.144  29.476  1.00  0.00     0.010 A 
ATOM     39  C   UNL A   1      37.070  32.820  28.222  1.00  0.00     0.010 A 
ATOM     40  C   UNL A   1      37.063  31.696  29.049  1.00  0.00    -0.014 A 
BRANCH  40  41
ATOM     41  C   UNL A   1      38.368  31.282  29.549  1.00  0.00     0.031 A 
ATOM     42  C   UNL A   1      39.041  30.085  28.995  1.00  0.00     0.074 A 
ATOM     43  C   UNL A   1      39.025  32.105  30.399  1.00  0.00     0.049 A 
ATOM     44  N   UNL A   1      40.006  29.458  29.578  1.00  0.00    -0.248 NA
ATOM     45  C   UNL A   1      38.642  29.465  27.733  1.00  0.00     0.031 C 
ATOM     46  C   UNL A   1      40.445  32.056  30.748  1.00  0.00     0.029 A 
ATOM     47  N   UNL A   1      38.536  33.095  31.255  1.00  0.00    -0.354 N 
ATOM     48  C   UNL A   1      40.572  28.620  28.645  1.00  0.00     0.074 A 
ATOM     49  C   UNL A   1      39.611  28.561  27.569  1.00  0.00     0.031 C 
ATOM     50  C   UNL A   1      40.622  32.694  31.916  1.00  0.00     0.029 A 
ATOM     51  C   UNL A   1      39.297  33.000  32.427  1.00  0.00     0.049 A 
ATOM     52  H   UNL A   1      37.806  33.730  31.071  1.00  0.00     0.167 HD
ATOM     53  C   UNL A   1      41.865  28.213  28.810  1.00  0.00     0.031 A 
ATOM     54  C   UNL A   1      38.821  32.568  33.634  1.00  0.00     0.031 A 
ATOM     55  C   UNL A   1      42.402  28.635  30.107  1.00  0.00     0.049 A 
ATOM     56  C   UNL A   1      39.594  31.378  34.188  1.00  0.00     0.074 A 
ATOM     57  C   UNL A   1      43.285  29.634  30.487  1.00  0.00     0.029 A 
ATOM     58  N   UNL A   1      41.803  28.178  31.277  1.00  0.00    -0.354 N 
ATOM     59  N   UNL A   1      40.336  30.596  33.455  1.00  0.00    -0.248 NA
ATOM     60  C   UNL A   1      39.555  30.946  35.585  1.00  0.00     0.031 C 
ATOM     61  C   UNL A   1      43.152  29.830  31.886  1.00  0.00     0.029 A 
ATOM     62  C   UNL A   1      42.214  28.929  32.362  1.00  0.00     0.049 A 
ATOM     63  H   UNL A   1      41.172  27.424  31.326  1.00  0.00     0.167 HD
ATOM     64  C   UNL A   1      40.877  29.604  34.226  1.00  0.00     0.074 A 
ATOM     65  C   UNL A   1      40.358  29.865  35.557  1.00  0.00     0.031 C 
ATOM     66  C   UNL A   1      41.695  28.648  33.696  1.00  0.00     0.031 A 
BRANCH  53  67
ATOM     67  C   UNL A   1      42.740  27.705  27.679  1.00  0.00    -0.014 A 
ATOM     68  C   UNL A   1      42.565  28.221  26.380  1.00  0.00     0.009 A 
ATOM     69  C   UNL A   1      43.691  26.677  27.795  1.00  0.00     0.009 A 
ATOM     70  C   UNL A   1      43.223  27.682  25.264  1.00  0.00     0.001 A 
ATOM     71  C   UNL A   1      44.335  26.114  26.683  1.00  0.00     0.001 A 
ATOM     72  C   UNL A   1      44.090  26.609  25.413  1.00  0.00     0.000 A 
ENDBRANCH  53  67
BRANCH  54  73
ATOM     73  C   UNL A   1      37.361  32.775  33.838  1.00  0.00    -0.014 A 
ATOM     74  C   UNL A   1      36.938  33.902  34.569  1.00  0.00     0.009 A 
ATOM     75  C   UNL A   1      36.425  32.101  33.041  1.00  0.00     0.009 A 
ATOM     76  C   UNL A   1      35.650  34.418  34.403  1.00  0.00     0.001 A 
ATOM     77  C   UNL A   1      35.129  32.612  32.893  1.00  0.00     0.001 A 
ATOM     78  C   UNL A   1      34.757  33.790  33.540  1.00  0.00     0.000 A 
ENDBRANCH  54  73
BRANCH  66  79
ATOM     79  C   UNL A   1      42.149  27.384  34.383  1.00  0.00    -0.014 A 
ATOM     80  C   UNL A   1      41.295  26.491  35.042  1.00  0.00     0.009 A 
ATOM     81  C   UNL A   1      43.499  26.982  34.247  1.00  0.00     0.009 A 
ATOM     82  C   UNL A   1      41.771  25.284  35.574  1.00  0.00     0.001 A 
ATOM     83  C   UNL A   1      43.968  25.759  34.734  1.00  0.00     0.001 A 
ATOM     84  C   UNL A   1      43.102  24.913  35.411  1.00  0.00     0.000 A 
ENDBRANCH  66  79
ENDBRANCH  40  41
ENDBRANCH  32  35
ENDBRANCH  30  31
ENDBRANCH   1  30
TORSDOF 13
ENDMDL
