MODEL 1
REMARK VINA RESULT:     -10.9      0.000      0.000
REMARK SMILES O=C(NCCCCNC(=O)c1ccc(S(=O)(=O)NCC[NH+]2CCCC2)c(F)c1)c1ccc(-c2c3nc(c(-c4ccccc4)c4ccc([nH]4)c(-c4ccccc4)c4nc(c(-c5ccccc5)c5ccc2[nH]5)C=C4)C=C3)cc1
REMARK SMILES IDX 7 1 6 2 5 3 4 4 3 5 1 6 2 7 29 9 30 10 76 11 31 12 75 13
REMARK SMILES IDX 32 14 33 15 34 16 69 17 35 18 74 19 68 20 70 21 36 22 73 23
REMARK SMILES IDX 67 24 66 25 37 27 59 28 44 29 58 30 45 31 48 32 57 33 71 34
REMARK SMILES IDX 46 35 47 36 56 38 72 39 49 40 38 41 39 42 43 43 40 44 42 45
REMARK SMILES IDX 41 46 60 47 61 48 65 49 62 50 64 51 63 52 50 53 51 54 55 55
REMARK SMILES IDX 52 56 54 57 53 58 8 59 9 60 10 62 11 63 12 64 28 65 13 66
REMARK SMILES IDX 26 67 14 68 27 69 15 70 16 71 17 72 18 73 19 75 20 76 21 77
REMARK SMILES IDX 22 78 25 79 23 81 24 82
REMARK H PARENT 3 8 70 26 48 37 8 61 18 74 21 80
REMARK Flexibility Score: inf
ROOT
ATOM      1  C   UNL A   1      35.322  21.753  25.836  1.00  0.00     0.116 C 
ENDROOT
BRANCH   1   2
ATOM      2  C   UNL A   1      36.306  21.558  24.687  1.00  0.00     0.023 C 
BRANCH   2   3
ATOM      3  C   UNL A   1      37.320  20.431  24.864  1.00  0.00     0.023 C 
BRANCH   3   4
ATOM      4  C   UNL A   1      38.595  20.799  25.612  1.00  0.00     0.116 C 
BRANCH   4   5
ATOM      5  N   UNL A   1      39.606  19.752  25.586  1.00  0.00    -0.352 N 
ATOM      6  O   UNL A   1      41.654  18.825  25.777  1.00  0.00    -0.269 OA
ATOM      7  C   UNL A   1      40.926  19.794  25.972  1.00  0.00     0.251 C 
ATOM      8  H   UNL A   1      39.299  18.883  25.242  1.00  0.00     0.163 HD
BRANCH   7   9
ATOM      9  C   UNL A   1      41.486  21.022  26.580  1.00  0.00     0.039 A 
ATOM     10  C   UNL A   1      41.524  21.186  27.966  1.00  0.00     0.014 A 
ATOM     11  C   UNL A   1      41.959  22.038  25.744  1.00  0.00     0.014 A 
ATOM     12  C   UNL A   1      41.856  22.425  28.504  1.00  0.00     0.010 A 
ATOM     13  C   UNL A   1      42.379  23.254  26.293  1.00  0.00     0.010 A 
ATOM     14  C   UNL A   1      42.276  23.477  27.674  1.00  0.00    -0.014 A 
BRANCH  14  15
ATOM     15  C   UNL A   1      42.596  24.797  28.280  1.00  0.00     0.031 A 
ATOM     16  C   UNL A   1      44.018  25.181  28.595  1.00  0.00     0.074 A 
ATOM     17  C   UNL A   1      41.602  25.680  28.492  1.00  0.00     0.049 A 
ATOM     18  N   UNL A   1      44.480  26.320  29.048  1.00  0.00    -0.248 NA
ATOM     19  C   UNL A   1      45.054  24.160  28.379  1.00  0.00     0.031 C 
ATOM     20  C   UNL A   1      40.182  25.430  28.235  1.00  0.00     0.029 A 
ATOM     21  N   UNL A   1      41.637  26.975  28.938  1.00  0.00    -0.354 N 
ATOM     22  C   UNL A   1      45.850  26.143  29.200  1.00  0.00     0.074 A 
ATOM     23  C   UNL A   1      46.144  24.782  28.807  1.00  0.00     0.031 C 
ATOM     24  C   UNL A   1      39.490  26.556  28.463  1.00  0.00     0.029 A 
ATOM     25  C   UNL A   1      40.408  27.589  28.930  1.00  0.00     0.049 A 
ATOM     26  H   UNL A   1      42.462  27.423  29.234  1.00  0.00     0.167 HD
ATOM     27  C   UNL A   1      46.781  27.032  29.624  1.00  0.00     0.031 A 
ATOM     28  C   UNL A   1      40.056  28.846  29.256  1.00  0.00     0.031 A 
ATOM     29  C   UNL A   1      46.501  28.393  29.996  1.00  0.00     0.049 A 
ATOM     30  C   UNL A   1      41.108  29.812  29.713  1.00  0.00     0.074 A 
ATOM     31  C   UNL A   1      47.387  29.377  30.401  1.00  0.00     0.029 A 
ATOM     32  N   UNL A   1      45.238  28.964  30.003  1.00  0.00    -0.354 N 
ATOM     33  N   UNL A   1      42.401  29.633  29.821  1.00  0.00    -0.248 NA
ATOM     34  C   UNL A   1      40.647  31.156  30.091  1.00  0.00     0.031 C 
ATOM     35  C   UNL A   1      46.654  30.536  30.688  1.00  0.00     0.029 A 
ATOM     36  C   UNL A   1      45.319  30.282  30.422  1.00  0.00     0.049 A 
ATOM     37  H   UNL A   1      44.406  28.502  29.749  1.00  0.00     0.167 HD
ATOM     38  C   UNL A   1      42.912  30.846  30.262  1.00  0.00     0.074 A 
ATOM     39  C   UNL A   1      41.792  31.756  30.384  1.00  0.00     0.031 C 
ATOM     40  C   UNL A   1      44.197  31.175  30.540  1.00  0.00     0.031 A 
BRANCH  27  41
ATOM     41  C   UNL A   1      48.200  26.549  29.734  1.00  0.00    -0.014 A 
ATOM     42  C   UNL A   1      48.668  25.917  30.897  1.00  0.00     0.009 A 
ATOM     43  C   UNL A   1      49.070  26.695  28.642  1.00  0.00     0.009 A 
ATOM     44  C   UNL A   1      49.988  25.465  30.971  1.00  0.00     0.001 A 
ATOM     45  C   UNL A   1      50.380  26.222  28.712  1.00  0.00     0.001 A 
ATOM     46  C   UNL A   1      50.841  25.615  29.879  1.00  0.00     0.000 A 
ENDBRANCH  27  41
BRANCH  28  47
ATOM     47  C   UNL A   1      38.637  29.265  29.141  1.00  0.00    -0.014 A 
ATOM     48  C   UNL A   1      38.117  29.680  27.907  1.00  0.00     0.009 A 
ATOM     49  C   UNL A   1      37.792  29.236  30.262  1.00  0.00     0.009 A 
ATOM     50  C   UNL A   1      36.782  30.073  27.800  1.00  0.00     0.001 A 
ATOM     51  C   UNL A   1      36.452  29.606  30.147  1.00  0.00     0.001 A 
ATOM     52  C   UNL A   1      35.950  30.031  28.918  1.00  0.00     0.000 A 
ENDBRANCH  28  47
BRANCH  40  53
ATOM     53  C   UNL A   1      44.456  32.586  30.977  1.00  0.00    -0.014 A 
ATOM     54  C   UNL A   1      44.436  32.941  32.334  1.00  0.00     0.009 A 
ATOM     55  C   UNL A   1      44.742  33.569  30.018  1.00  0.00     0.009 A 
ATOM     56  C   UNL A   1      44.663  34.263  32.720  1.00  0.00     0.001 A 
ATOM     57  C   UNL A   1      44.991  34.886  30.407  1.00  0.00     0.001 A 
ATOM     58  C   UNL A   1      44.942  35.233  31.757  1.00  0.00     0.000 A 
ENDBRANCH  40  53
ENDBRANCH  14  15
ENDBRANCH   7   9
ENDBRANCH   4   5
ENDBRANCH   3   4
ENDBRANCH   2   3
ENDBRANCH   1   2
BRANCH   1  59
ATOM     59  N   UNL A   1      34.228  20.792  25.833  1.00  0.00    -0.352 N 
ATOM     60  C   UNL A   1      33.017  20.842  25.184  1.00  0.00     0.251 C 
ATOM     61  H   UNL A   1      34.377  19.986  26.378  1.00  0.00     0.163 HD
ATOM     62  O   UNL A   1      32.173  19.973  25.375  1.00  0.00    -0.269 OA
BRANCH  60  63
ATOM     63  C   UNL A   1      32.707  21.979  24.294  1.00  0.00     0.042 A 
ATOM     64  C   UNL A   1      32.896  21.886  22.912  1.00  0.00     0.015 A 
ATOM     65  C   UNL A   1      32.258  23.174  24.865  1.00  0.00     0.054 A 
ATOM     66  C   UNL A   1      32.801  23.034  22.131  1.00  0.00     0.026 A 
ATOM     67  C   UNL A   1      32.122  24.310  24.069  1.00  0.00     0.144 A 
ATOM     68  C   UNL A   1      32.455  24.260  22.724  1.00  0.00     0.118 A 
ATOM     69  F   UNL A   1      31.713  25.439  24.657  1.00  0.00    -0.205 F 
BRANCH  68  70
ATOM     70  S   UNL A   1      32.621  25.703  21.726  1.00  0.00     0.243 S 
ATOM     71  O   UNL A   1      33.224  25.262  20.486  1.00  0.00    -0.207 OA
ATOM     72  O   UNL A   1      31.328  26.352  21.720  1.00  0.00    -0.207 OA
BRANCH  70  73
ATOM     73  N   UNL A   1      33.692  26.761  22.469  1.00  0.00    -0.205 NA
ATOM     74  H   UNL A   1      34.518  26.795  21.872  1.00  0.00     0.141 HD
BRANCH  73  75
ATOM     75  C   UNL A   1      33.339  28.168  22.763  1.00  0.00     0.160 C 
BRANCH  75  76
ATOM     76  C   UNL A   1      33.883  28.690  24.100  1.00  0.00     0.278 C 
BRANCH  76  77
ATOM     77  N   UNL A   1      32.942  29.610  24.771  1.00  0.00    -0.334 N 
ATOM     78  C   UNL A   1      33.397  29.899  26.145  1.00  0.00     0.262 C 
ATOM     79  C   UNL A   1      31.618  28.989  24.964  1.00  0.00     0.262 C 
ATOM     80  H   UNL A   1      32.896  30.438  24.179  1.00  0.00     0.348 HD
ATOM     81  C   UNL A   1      32.966  28.693  26.958  1.00  0.00     0.067 C 
ATOM     82  C   UNL A   1      31.657  28.268  26.310  1.00  0.00     0.067 C 
ENDBRANCH  76  77
ENDBRANCH  75  76
ENDBRANCH  73  75
ENDBRANCH  70  73
ENDBRANCH  68  70
ENDBRANCH  60  63
ENDBRANCH   1  59
TORSDOF 16
ENDMDL
MODEL 2
REMARK VINA RESULT:     -10.7      4.124      9.492
REMARK SMILES O=C(NCCCCNC(=O)c1ccc(S(=O)(=O)NCC[NH+]2CCCC2)c(F)c1)c1ccc(-c2c3nc(c(-c4ccccc4)c4ccc([nH]4)c(-c4ccccc4)c4nc(c(-c5ccccc5)c5ccc2[nH]5)C=C4)C=C3)cc1
REMARK SMILES IDX 7 1 6 2 5 3 4 4 3 5 1 6 2 7 29 9 30 10 76 11 31 12 75 13
REMARK SMILES IDX 32 14 33 15 34 16 69 17 35 18 74 19 68 20 70 21 36 22 73 23
REMARK SMILES IDX 67 24 66 25 37 27 59 28 44 29 58 30 45 31 48 32 57 33 71 34
REMARK SMILES IDX 46 35 47 36 56 38 72 39 49 40 38 41 39 42 43 43 40 44 42 45
REMARK SMILES IDX 41 46 60 47 61 48 65 49 62 50 64 51 63 52 50 53 51 54 55 55
REMARK SMILES IDX 52 56 54 57 53 58 8 59 9 60 10 62 11 63 12 64 28 65 13 66
REMARK SMILES IDX 26 67 14 68 27 69 15 70 16 71 17 72 18 73 19 75 20 76 21 77
REMARK SMILES IDX 22 78 25 79 23 81 24 82
REMARK H PARENT 3 8 70 26 48 37 8 61 18 74 21 80
REMARK Flexibility Score: inf
ROOT
ATOM      1  C   UNL A   1      31.415  30.107  25.036  1.00  0.00     0.116 C 
ENDROOT
BRANCH   1   2
ATOM      2  C   UNL A   1      31.802  30.546  26.445  1.00  0.00     0.023 C 
BRANCH   2   3
ATOM      3  C   UNL A   1      31.498  32.001  26.795  1.00  0.00     0.023 C 
BRANCH   3   4
ATOM      4  C   UNL A   1      32.697  32.849  27.201  1.00  0.00     0.116 C 
BRANCH   4   5
ATOM      5  N   UNL A   1      32.338  34.192  27.633  1.00  0.00    -0.352 N 
ATOM      6  O   UNL A   1      32.420  36.076  28.872  1.00  0.00    -0.269 OA
ATOM      7  C   UNL A   1      32.936  35.003  28.570  1.00  0.00     0.251 C 
ATOM      8  H   UNL A   1      31.549  34.578  27.188  1.00  0.00     0.163 HD
BRANCH   7   9
ATOM      9  C   UNL A   1      34.176  34.567  29.250  1.00  0.00     0.039 A 
ATOM     10  C   UNL A   1      35.419  34.684  28.625  1.00  0.00     0.014 A 
ATOM     11  C   UNL A   1      34.087  34.009  30.530  1.00  0.00     0.014 A 
ATOM     12  C   UNL A   1      36.535  34.079  29.194  1.00  0.00     0.010 A 
ATOM     13  C   UNL A   1      35.229  33.480  31.139  1.00  0.00     0.010 A 
ATOM     14  C   UNL A   1      36.452  33.460  30.451  1.00  0.00    -0.014 A 
BRANCH  14  15
ATOM     15  C   UNL A   1      37.657  32.797  31.016  1.00  0.00     0.031 A 
ATOM     16  C   UNL A   1      38.221  33.219  32.348  1.00  0.00     0.074 A 
ATOM     17  C   UNL A   1      38.212  31.767  30.351  1.00  0.00     0.049 A 
ATOM     18  N   UNL A   1      39.215  32.695  33.023  1.00  0.00    -0.248 NA
ATOM     19  C   UNL A   1      37.597  34.376  33.007  1.00  0.00     0.031 C 
ATOM     20  C   UNL A   1      37.765  31.264  29.050  1.00  0.00     0.029 A 
ATOM     21  N   UNL A   1      39.248  30.936  30.692  1.00  0.00    -0.354 N 
ATOM     22  C   UNL A   1      39.353  33.473  34.165  1.00  0.00     0.074 A 
ATOM     23  C   UNL A   1      38.354  34.517  34.086  1.00  0.00     0.031 C 
ATOM     24  C   UNL A   1      38.477  30.172  28.735  1.00  0.00     0.029 A 
ATOM     25  C   UNL A   1      39.461  29.928  29.784  1.00  0.00     0.049 A 
ATOM     26  H   UNL A   1      39.785  31.049  31.509  1.00  0.00     0.167 HD
ATOM     27  C   UNL A   1      40.229  33.333  35.189  1.00  0.00     0.031 A 
ATOM     28  C   UNL A   1      40.347  28.915  29.792  1.00  0.00     0.031 A 
ATOM     29  C   UNL A   1      41.211  32.286  35.286  1.00  0.00     0.049 A 
ATOM     30  C   UNL A   1      41.298  28.778  30.943  1.00  0.00     0.074 A 
ATOM     31  C   UNL A   1      42.115  32.042  36.306  1.00  0.00     0.029 A 
ATOM     32  N   UNL A   1      41.414  31.305  34.328  1.00  0.00    -0.354 N 
ATOM     33  N   UNL A   1      41.392  29.507  32.027  1.00  0.00    -0.248 NA
ATOM     34  C   UNL A   1      42.264  27.672  30.870  1.00  0.00     0.031 C 
ATOM     35  C   UNL A   1      42.891  30.933  35.949  1.00  0.00     0.029 A 
ATOM     36  C   UNL A   1      42.441  30.464  34.726  1.00  0.00     0.049 A 
ATOM     37  H   UNL A   1      40.906  31.219  33.490  1.00  0.00     0.167 HD
ATOM     38  C   UNL A   1      42.416  28.939  32.774  1.00  0.00     0.074 A 
ATOM     39  C   UNL A   1      42.898  27.795  32.027  1.00  0.00     0.031 C 
ATOM     40  C   UNL A   1      42.911  29.332  33.973  1.00  0.00     0.031 A 
BRANCH  27  41
ATOM     41  C   UNL A   1      40.182  34.359  36.286  1.00  0.00    -0.014 A 
ATOM     42  C   UNL A   1      40.969  35.521  36.234  1.00  0.00     0.009 A 
ATOM     43  C   UNL A   1      39.308  34.178  37.370  1.00  0.00     0.009 A 
ATOM     44  C   UNL A   1      40.899  36.467  37.259  1.00  0.00     0.001 A 
ATOM     45  C   UNL A   1      39.224  35.136  38.381  1.00  0.00     0.001 A 
ATOM     46  C   UNL A   1      40.026  36.275  38.329  1.00  0.00     0.000 A 
ENDBRANCH  27  41
BRANCH  28  47
ATOM     47  C   UNL A   1      40.357  27.938  28.676  1.00  0.00    -0.014 A 
ATOM     48  C   UNL A   1      39.655  26.729  28.783  1.00  0.00     0.009 A 
ATOM     49  C   UNL A   1      41.057  28.218  27.491  1.00  0.00     0.009 A 
ATOM     50  C   UNL A   1      39.665  25.811  27.732  1.00  0.00     0.001 A 
ATOM     51  C   UNL A   1      41.045  27.309  26.432  1.00  0.00     0.001 A 
ATOM     52  C   UNL A   1      40.356  26.104  26.556  1.00  0.00     0.000 A 
ENDBRANCH  28  47
BRANCH  40  53
ATOM     53  C   UNL A   1      44.012  28.498  34.557  1.00  0.00    -0.014 A 
ATOM     54  C   UNL A   1      45.359  28.792  34.301  1.00  0.00     0.009 A 
ATOM     55  C   UNL A   1      43.695  27.415  35.391  1.00  0.00     0.009 A 
ATOM     56  C   UNL A   1      46.370  27.994  34.841  1.00  0.00     0.001 A 
ATOM     57  C   UNL A   1      44.708  26.632  35.948  1.00  0.00     0.001 A 
ATOM     58  C   UNL A   1      46.043  26.917  35.665  1.00  0.00     0.000 A 
ENDBRANCH  40  53
ENDBRANCH  14  15
ENDBRANCH   7   9
ENDBRANCH   4   5
ENDBRANCH   3   4
ENDBRANCH   2   3
ENDBRANCH   1   2
BRANCH   1  59
ATOM     59  N   UNL A   1      32.546  29.655  24.239  1.00  0.00    -0.352 N 
ATOM     60  C   UNL A   1      33.124  28.409  24.162  1.00  0.00     0.251 C 
ATOM     61  H   UNL A   1      32.959  30.343  23.669  1.00  0.00     0.163 HD
ATOM     62  O   UNL A   1      34.139  28.236  23.497  1.00  0.00    -0.269 OA
BRANCH  60  63
ATOM     63  C   UNL A   1      32.552  27.285  24.931  1.00  0.00     0.042 A 
ATOM     64  C   UNL A   1      33.179  26.808  26.085  1.00  0.00     0.015 A 
ATOM     65  C   UNL A   1      31.386  26.675  24.458  1.00  0.00     0.054 A 
ATOM     66  C   UNL A   1      32.737  25.620  26.660  1.00  0.00     0.026 A 
ATOM     67  C   UNL A   1      30.922  25.511  25.067  1.00  0.00     0.144 A 
ATOM     68  C   UNL A   1      31.629  24.947  26.119  1.00  0.00     0.118 A 
ATOM     69  F   UNL A   1      29.818  24.943  24.570  1.00  0.00    -0.205 F 
BRANCH  68  70
ATOM     70  S   UNL A   1      31.303  23.328  26.731  1.00  0.00     0.243 S 
ATOM     71  O   UNL A   1      32.411  23.002  27.605  1.00  0.00    -0.207 OA
ATOM     72  O   UNL A   1      29.949  23.344  27.241  1.00  0.00    -0.207 OA
BRANCH  70  73
ATOM     73  N   UNL A   1      31.327  22.244  25.449  1.00  0.00    -0.205 NA
ATOM     74  H   UNL A   1      31.430  22.805  24.604  1.00  0.00     0.141 HD
BRANCH  73  75
ATOM     75  C   UNL A   1      32.328  21.158  25.347  1.00  0.00     0.160 C 
BRANCH  75  76
ATOM     76  C   UNL A   1      33.551  21.505  24.489  1.00  0.00     0.278 C 
BRANCH  76  77
ATOM     77  N   UNL A   1      34.488  22.412  25.184  1.00  0.00    -0.334 N 
ATOM     78  C   UNL A   1      34.810  23.572  24.330  1.00  0.00     0.262 C 
ATOM     79  C   UNL A   1      35.797  21.772  25.412  1.00  0.00     0.262 C 
ATOM     80  H   UNL A   1      34.028  22.669  26.056  1.00  0.00     0.348 HD
ATOM     81  C   UNL A   1      35.856  23.060  23.358  1.00  0.00     0.067 C 
ATOM     82  C   UNL A   1      36.652  22.056  24.179  1.00  0.00     0.067 C 
ENDBRANCH  76  77
ENDBRANCH  75  76
ENDBRANCH  73  75
ENDBRANCH  70  73
ENDBRANCH  68  70
ENDBRANCH  60  63
ENDBRANCH   1  59
TORSDOF 16
ENDMDL
MODEL 3
REMARK VINA RESULT:     -10.7      1.630      6.082
REMARK SMILES O=C(NCCCCNC(=O)c1ccc(S(=O)(=O)NCC[NH+]2CCCC2)c(F)c1)c1ccc(-c2c3nc(c(-c4ccccc4)c4ccc([nH]4)c(-c4ccccc4)c4nc(c(-c5ccccc5)c5ccc2[nH]5)C=C4)C=C3)cc1
REMARK SMILES IDX 7 1 6 2 5 3 4 4 3 5 1 6 2 7 29 9 30 10 76 11 31 12 75 13
REMARK SMILES IDX 32 14 33 15 34 16 69 17 35 18 74 19 68 20 70 21 36 22 73 23
REMARK SMILES IDX 67 24 66 25 37 27 59 28 44 29 58 30 45 31 48 32 57 33 71 34
REMARK SMILES IDX 46 35 47 36 56 38 72 39 49 40 38 41 39 42 43 43 40 44 42 45
REMARK SMILES IDX 41 46 60 47 61 48 65 49 62 50 64 51 63 52 50 53 51 54 55 55
REMARK SMILES IDX 52 56 54 57 53 58 8 59 9 60 10 62 11 63 12 64 28 65 13 66
REMARK SMILES IDX 26 67 14 68 27 69 15 70 16 71 17 72 18 73 19 75 20 76 21 77
REMARK SMILES IDX 22 78 25 79 23 81 24 82
REMARK H PARENT 3 8 70 26 48 37 8 61 18 74 21 80
REMARK Flexibility Score: inf
ROOT
ATOM      1  C   UNL A   1      35.468  20.526  25.027  1.00  0.00     0.116 C 
ENDROOT
BRANCH   1   2
ATOM      2  C   UNL A   1      36.923  20.926  24.805  1.00  0.00     0.023 C 
BRANCH   2   3
ATOM      3  C   UNL A   1      37.955  19.818  25.001  1.00  0.00     0.023 C 
BRANCH   3   4
ATOM      4  C   UNL A   1      39.191  20.198  25.806  1.00  0.00     0.116 C 
BRANCH   4   5
ATOM      5  N   UNL A   1      40.179  19.132  25.891  1.00  0.00    -0.352 N 
ATOM      6  O   UNL A   1      42.222  18.190  26.058  1.00  0.00    -0.269 OA
ATOM      7  C   UNL A   1      41.533  19.204  26.126  1.00  0.00     0.251 C 
ATOM      8  H   UNL A   1      39.825  18.223  25.761  1.00  0.00     0.163 HD
BRANCH   7   9
ATOM      9  C   UNL A   1      42.170  20.508  26.415  1.00  0.00     0.039 A 
ATOM     10  C   UNL A   1      42.224  21.011  27.716  1.00  0.00     0.014 A 
ATOM     11  C   UNL A   1      42.703  21.251  25.357  1.00  0.00     0.014 A 
ATOM     12  C   UNL A   1      42.635  22.322  27.932  1.00  0.00     0.010 A 
ATOM     13  C   UNL A   1      43.200  22.538  25.591  1.00  0.00     0.010 A 
ATOM     14  C   UNL A   1      43.117  23.105  26.871  1.00  0.00    -0.014 A 
BRANCH  14  15
ATOM     15  C   UNL A   1      43.521  24.512  27.131  1.00  0.00     0.031 A 
ATOM     16  C   UNL A   1      42.524  25.525  27.631  1.00  0.00     0.074 A 
ATOM     17  C   UNL A   1      44.811  24.864  26.974  1.00  0.00     0.049 A 
ATOM     18  N   UNL A   1      42.726  26.770  27.985  1.00  0.00    -0.248 NA
ATOM     19  C   UNL A   1      41.124  25.092  27.743  1.00  0.00     0.031 C 
ATOM     20  C   UNL A   1      45.875  23.979  26.493  1.00  0.00     0.029 A 
ATOM     21  N   UNL A   1      45.454  26.046  27.237  1.00  0.00    -0.354 N 
ATOM     22  C   UNL A   1      41.479  27.275  28.332  1.00  0.00     0.074 A 
ATOM     23  C   UNL A   1      40.522  26.209  28.130  1.00  0.00     0.031 C 
ATOM     24  C   UNL A   1      47.047  24.628  26.557  1.00  0.00     0.029 A 
ATOM     25  C   UNL A   1      46.811  25.986  27.036  1.00  0.00     0.049 A 
ATOM     26  H   UNL A   1      44.988  26.858  27.541  1.00  0.00     0.167 HD
ATOM     27  C   UNL A   1      41.157  28.512  28.782  1.00  0.00     0.031 A 
ATOM     28  C   UNL A   1      47.765  26.917  27.219  1.00  0.00     0.031 A 
ATOM     29  C   UNL A   1      42.104  29.571  29.007  1.00  0.00     0.049 A 
ATOM     30  C   UNL A   1      47.382  28.275  27.727  1.00  0.00     0.074 A 
ATOM     31  C   UNL A   1      41.874  30.846  29.498  1.00  0.00     0.029 A 
ATOM     32  N   UNL A   1      43.464  29.478  28.759  1.00  0.00    -0.354 N 
ATOM     33  N   UNL A   1      46.202  28.722  28.077  1.00  0.00    -0.248 NA
ATOM     34  C   UNL A   1      48.468  29.255  27.867  1.00  0.00     0.031 C 
ATOM     35  C   UNL A   1      43.092  31.536  29.514  1.00  0.00     0.029 A 
ATOM     36  C   UNL A   1      44.084  30.677  29.072  1.00  0.00     0.049 A 
ATOM     37  H   UNL A   1      43.923  28.679  28.413  1.00  0.00     0.167 HD
ATOM     38  C   UNL A   1      46.404  30.030  28.495  1.00  0.00     0.074 A 
ATOM     39  C   UNL A   1      47.823  30.297  28.372  1.00  0.00     0.031 C 
ATOM     40  C   UNL A   1      45.494  30.929  28.942  1.00  0.00     0.031 A 
BRANCH  27  41
ATOM     41  C   UNL A   1      39.704  28.799  29.040  1.00  0.00    -0.014 A 
ATOM     42  C   UNL A   1      39.135  28.603  30.307  1.00  0.00     0.009 A 
ATOM     43  C   UNL A   1      38.904  29.311  28.006  1.00  0.00     0.009 A 
ATOM     44  C   UNL A   1      37.785  28.889  30.527  1.00  0.00     0.001 A 
ATOM     45  C   UNL A   1      37.561  29.616  28.234  1.00  0.00     0.001 A 
ATOM     46  C   UNL A   1      37.001  29.397  29.492  1.00  0.00     0.000 A 
ENDBRANCH  27  41
BRANCH  28  47
ATOM     47  C   UNL A   1      49.182  26.583  26.935  1.00  0.00    -0.014 A 
ATOM     48  C   UNL A   1      49.998  26.039  27.938  1.00  0.00     0.009 A 
ATOM     49  C   UNL A   1      49.722  26.792  25.656  1.00  0.00     0.009 A 
ATOM     50  C   UNL A   1      51.332  25.725  27.670  1.00  0.00     0.001 A 
ATOM     51  C   UNL A   1      51.048  26.454  25.384  1.00  0.00     0.001 A 
ATOM     52  C   UNL A   1      51.853  25.928  26.393  1.00  0.00     0.000 A 
ENDBRANCH  28  47
BRANCH  40  53
ATOM     53  C   UNL A   1      46.016  32.274  29.355  1.00  0.00    -0.014 A 
ATOM     54  C   UNL A   1      46.089  33.335  28.441  1.00  0.00     0.009 A 
ATOM     55  C   UNL A   1      46.422  32.484  30.682  1.00  0.00     0.009 A 
ATOM     56  C   UNL A   1      46.593  34.574  28.840  1.00  0.00     0.001 A 
ATOM     57  C   UNL A   1      46.904  33.730  31.084  1.00  0.00     0.001 A 
ATOM     58  C   UNL A   1      46.998  34.771  30.161  1.00  0.00     0.000 A 
ENDBRANCH  40  53
ENDBRANCH  14  15
ENDBRANCH   7   9
ENDBRANCH   4   5
ENDBRANCH   3   4
ENDBRANCH   2   3
ENDBRANCH   1   2
BRANCH   1  59
ATOM     59  N   UNL A   1      34.842  21.212  26.148  1.00  0.00    -0.352 N 
ATOM     60  C   UNL A   1      34.120  22.383  26.170  1.00  0.00     0.251 C 
ATOM     61  H   UNL A   1      34.951  20.772  27.022  1.00  0.00     0.163 HD
ATOM     62  O   UNL A   1      33.744  22.861  27.234  1.00  0.00    -0.269 OA
BRANCH  60  63
ATOM     63  C   UNL A   1      33.846  23.100  24.908  1.00  0.00     0.042 A 
ATOM     64  C   UNL A   1      34.820  23.902  24.308  1.00  0.00     0.015 A 
ATOM     65  C   UNL A   1      32.572  22.994  24.341  1.00  0.00     0.054 A 
ATOM     66  C   UNL A   1      34.464  24.728  23.245  1.00  0.00     0.026 A 
ATOM     67  C   UNL A   1      32.236  23.791  23.249  1.00  0.00     0.144 A 
ATOM     68  C   UNL A   1      33.152  24.702  22.744  1.00  0.00     0.118 A 
ATOM     69  F   UNL A   1      30.999  23.680  22.751  1.00  0.00    -0.205 F 
BRANCH  68  70
ATOM     70  S   UNL A   1      32.714  25.959  21.590  1.00  0.00     0.243 S 
ATOM     71  O   UNL A   1      32.905  25.379  20.278  1.00  0.00    -0.207 OA
ATOM     72  O   UNL A   1      31.415  26.453  21.991  1.00  0.00    -0.207 OA
BRANCH  70  73
ATOM     73  N   UNL A   1      33.789  27.241  21.745  1.00  0.00    -0.205 NA
ATOM     74  H   UNL A   1      33.980  27.567  20.798  1.00  0.00     0.141 HD
BRANCH  73  75
ATOM     75  C   UNL A   1      33.472  28.449  22.540  1.00  0.00     0.160 C 
BRANCH  75  76
ATOM     76  C   UNL A   1      33.636  28.270  24.054  1.00  0.00     0.278 C 
BRANCH  76  77
ATOM     77  N   UNL A   1      32.393  27.809  24.706  1.00  0.00    -0.334 N 
ATOM     78  C   UNL A   1      31.382  28.885  24.705  1.00  0.00     0.262 C 
ATOM     79  C   UNL A   1      32.601  27.525  26.137  1.00  0.00     0.262 C 
ATOM     80  H   UNL A   1      32.101  26.981  24.188  1.00  0.00     0.348 HD
ATOM     81  C   UNL A   1      31.778  29.789  25.857  1.00  0.00     0.067 C 
ATOM     82  C   UNL A   1      32.349  28.830  26.891  1.00  0.00     0.067 C 
ENDBRANCH  76  77
ENDBRANCH  75  76
ENDBRANCH  73  75
ENDBRANCH  70  73
ENDBRANCH  68  70
ENDBRANCH  60  63
ENDBRANCH   1  59
TORSDOF 16
ENDMDL
