MODEL 1
REMARK VINA RESULT:     -11.3      0.000      0.000
REMARK SMILES CC1(C)C(CNC(=O)N2C[C@H](O)C[C@@H]2C(=O)NCCCCNC(=O)c2ccc(-c3c4nc(c(-c5ccccc5)c5ccc([nH]5)c(-c5ccccc5)c5nc(c(-c6ccccc6)c6ccc3[nH]6)C=C5)C=C4)cc2)C1(C)C
REMARK SMILES IDX 19 1 18 2 17 3 15 4 16 5 14 7 9 8 10 9 11 10 13 11 7 12 6 13
REMARK SMILES IDX 8 15 5 16 4 17 1 18 2 19 3 20 73 21 74 22 75 23 12 24 20 26
REMARK SMILES IDX 21 27 22 28 23 29 24 31 25 32 26 33 72 34 27 35 71 36 28 37
REMARK SMILES IDX 29 38 30 39 65 40 31 41 70 42 64 43 66 44 32 45 69 46 63 47
REMARK SMILES IDX 62 48 33 50 55 51 40 52 54 53 41 54 44 55 53 56 67 57 42 58
REMARK SMILES IDX 43 59 52 61 68 62 45 63 34 64 35 65 39 66 36 67 38 68 37 69
REMARK SMILES IDX 56 70 57 71 61 72 58 73 60 74 59 75 46 76 47 77 51 78 48 79
REMARK SMILES IDX 50 80 49 81
REMARK H PARENT 17 6 6 14 12 25 22 30 66 49 44 60
REMARK Flexibility Score: inf
ROOT
ATOM      1  C   UNL A   1      36.969  20.952  24.491  1.00  0.00     0.023 C 
ENDROOT
BRANCH   1   2
ATOM      2  C   UNL A   1      36.859  22.156  25.418  1.00  0.00     0.116 C 
BRANCH   2   3
ATOM      3  N   UNL A   1      35.957  21.962  26.532  1.00  0.00    -0.354 N 
ATOM      4  C   UNL A   1      34.599  21.826  26.521  1.00  0.00     0.242 C 
ATOM      5  O   UNL A   1      34.095  21.338  27.538  1.00  0.00    -0.273 OA
ATOM      6  H   UNL A   1      36.381  21.924  27.421  1.00  0.00     0.163 HD
BRANCH   4   7
ATOM      7  C   UNL A   1      33.750  22.295  25.307  1.00  0.00     0.179 C 
ATOM      8  N   UNL A   1      32.393  22.640  25.768  1.00  0.00    -0.310 N 
ATOM      9  C   UNL A   1      31.380  21.900  25.025  1.00  0.00     0.154 C 
ATOM     10  C   UNL A   1      32.130  20.639  24.634  1.00  0.00     0.136 C 
ATOM     11  C   UNL A   1      33.498  21.196  24.261  1.00  0.00     0.069 C 
BRANCH   8  12
ATOM     12  C   UNL A   1      32.168  23.739  26.542  1.00  0.00     0.318 C 
ATOM     13  N   UNL A   1      32.350  24.964  25.982  1.00  0.00    -0.338 N 
ATOM     14  H   UNL A   1      32.465  25.712  26.612  1.00  0.00     0.165 HD
ATOM     15  O   UNL A   1      31.748  23.655  27.694  1.00  0.00    -0.249 OA
BRANCH  13  16
ATOM     16  C   UNL A   1      32.398  25.308  24.578  1.00  0.00     0.122 C 
BRANCH  16  17
ATOM     17  C   UNL A   1      32.766  26.742  24.364  1.00  0.00     0.021 C 
ATOM     18  C   UNL A   1      34.058  28.580  23.034  1.00  0.00     0.012 C 
ATOM     19  C   UNL A   1      33.058  27.439  23.041  1.00  0.00    -0.025 C 
ATOM     20  C   UNL A   1      33.200  26.571  21.811  1.00  0.00     0.012 C 
ATOM     21  C   UNL A   1      31.704  27.657  23.760  1.00  0.00    -0.025 C 
ATOM     22  C   UNL A   1      31.405  28.898  24.578  1.00  0.00     0.012 C 
ATOM     23  C   UNL A   1      30.444  27.088  23.141  1.00  0.00     0.012 C 
ENDBRANCH  16  17
ENDBRANCH  13  16
ENDBRANCH   8  12
BRANCH  10  24
ATOM     24  O   UNL A   1      32.260  19.746  25.741  1.00  0.00    -0.391 OA
ATOM     25  H   UNL A   1      33.184  19.459  25.819  1.00  0.00     0.211 HD
ENDBRANCH  10  24
ENDBRANCH   4   7
ENDBRANCH   2   3
ENDBRANCH   1   2
BRANCH   1  26
ATOM     26  C   UNL A   1      37.904  19.833  24.955  1.00  0.00     0.023 C 
BRANCH  26  27
ATOM     27  C   UNL A   1      39.053  20.257  25.865  1.00  0.00     0.116 C 
BRANCH  27  28
ATOM     28  N   UNL A   1      40.190  19.351  25.809  1.00  0.00    -0.352 N 
ATOM     29  C   UNL A   1      41.525  19.584  26.048  1.00  0.00     0.251 C 
ATOM     30  H   UNL A   1      39.969  18.424  25.561  1.00  0.00     0.163 HD
ATOM     31  O   UNL A   1      42.351  18.714  25.800  1.00  0.00    -0.269 OA
BRANCH  29  32
ATOM     32  C   UNL A   1      41.975  20.895  26.571  1.00  0.00     0.039 A 
ATOM     33  C   UNL A   1      42.401  21.871  25.666  1.00  0.00     0.014 A 
ATOM     34  C   UNL A   1      41.983  21.164  27.941  1.00  0.00     0.014 A 
ATOM     35  C   UNL A   1      42.753  23.142  26.130  1.00  0.00     0.010 A 
ATOM     36  C   UNL A   1      42.247  22.455  28.393  1.00  0.00     0.010 A 
ATOM     37  C   UNL A   1      42.635  23.460  27.493  1.00  0.00    -0.014 A 
BRANCH  37  38
ATOM     38  C   UNL A   1      42.907  24.833  27.994  1.00  0.00     0.031 A 
ATOM     39  C   UNL A   1      44.301  25.236  28.392  1.00  0.00     0.074 A 
ATOM     40  C   UNL A   1      41.887  25.701  28.153  1.00  0.00     0.049 A 
ATOM     41  N   UNL A   1      44.719  26.363  28.911  1.00  0.00    -0.248 NA
ATOM     42  C   UNL A   1      45.361  24.233  28.203  1.00  0.00     0.031 C 
ATOM     43  C   UNL A   1      40.481  25.427  27.847  1.00  0.00     0.029 A 
ATOM     44  N   UNL A   1      41.877  26.993  28.622  1.00  0.00    -0.354 N 
ATOM     45  C   UNL A   1      46.082  26.200  29.121  1.00  0.00     0.074 A 
ATOM     46  C   UNL A   1      46.411  24.846  28.730  1.00  0.00     0.031 C 
ATOM     47  C   UNL A   1      39.751  26.523  28.112  1.00  0.00     0.029 A 
ATOM     48  C   UNL A   1      40.625  27.561  28.649  1.00  0.00     0.049 A 
ATOM     49  H   UNL A   1      42.689  27.467  28.913  1.00  0.00     0.167 HD
ATOM     50  C   UNL A   1      46.987  27.100  29.575  1.00  0.00     0.031 A 
ATOM     51  C   UNL A   1      40.222  28.774  29.069  1.00  0.00     0.031 A 
ATOM     52  C   UNL A   1      46.665  28.447  29.965  1.00  0.00     0.049 A 
ATOM     53  C   UNL A   1      41.241  29.746  29.596  1.00  0.00     0.074 A 
ATOM     54  C   UNL A   1      47.518  29.445  30.401  1.00  0.00     0.029 A 
ATOM     55  N   UNL A   1      45.387  28.983  29.969  1.00  0.00    -0.354 N 
ATOM     56  N   UNL A   1      42.536  29.595  29.728  1.00  0.00    -0.248 NA
ATOM     57  C   UNL A   1      40.743  31.063  30.019  1.00  0.00     0.031 C 
ATOM     58  C   UNL A   1      46.750  30.569  30.721  1.00  0.00     0.029 A 
ATOM     59  C   UNL A   1      45.426  30.292  30.421  1.00  0.00     0.049 A 
ATOM     60  H   UNL A   1      44.572  28.505  29.692  1.00  0.00     0.167 HD
ATOM     61  C   UNL A   1      43.010  30.806  30.219  1.00  0.00     0.074 A 
ATOM     62  C   UNL A   1      41.867  31.685  30.343  1.00  0.00     0.031 C 
ATOM     63  C   UNL A   1      44.281  31.157  30.538  1.00  0.00     0.031 A 
BRANCH  50  64
ATOM     64  C   UNL A   1      48.420  26.651  29.673  1.00  0.00    -0.014 A 
ATOM     65  C   UNL A   1      49.326  26.877  28.623  1.00  0.00     0.009 A 
ATOM     66  C   UNL A   1      48.881  26.026  30.842  1.00  0.00     0.009 A 
ATOM     67  C   UNL A   1      50.651  26.451  28.727  1.00  0.00     0.001 A 
ATOM     68  C   UNL A   1      50.216  25.631  30.956  1.00  0.00     0.001 A 
ATOM     69  C   UNL A   1      51.097  25.834  29.895  1.00  0.00     0.000 A 
ENDBRANCH  50  64
BRANCH  51  70
ATOM     70  C   UNL A   1      38.782  29.145  29.009  1.00  0.00    -0.014 A 
ATOM     71  C   UNL A   1      38.228  29.681  27.837  1.00  0.00     0.009 A 
ATOM     72  C   UNL A   1      37.957  28.980  30.133  1.00  0.00     0.009 A 
ATOM     73  C   UNL A   1      36.888  30.074  27.802  1.00  0.00     0.001 A 
ATOM     74  C   UNL A   1      36.609  29.342  30.084  1.00  0.00     0.001 A 
ATOM     75  C   UNL A   1      36.078  29.900  28.922  1.00  0.00     0.000 A 
ENDBRANCH  51  70
BRANCH  63  76
ATOM     76  C   UNL A   1      44.509  32.566  31.011  1.00  0.00    -0.014 A 
ATOM     77  C   UNL A   1      44.480  32.897  32.374  1.00  0.00     0.009 A 
ATOM     78  C   UNL A   1      44.797  33.572  30.074  1.00  0.00     0.009 A 
ATOM     79  C   UNL A   1      44.699  34.214  32.786  1.00  0.00     0.001 A 
ATOM     80  C   UNL A   1      45.050  34.879  30.490  1.00  0.00     0.001 A 
ATOM     81  C   UNL A   1      44.989  35.201  31.845  1.00  0.00     0.000 A 
ENDBRANCH  63  76
ENDBRANCH  37  38
ENDBRANCH  29  32
ENDBRANCH  27  28
ENDBRANCH  26  27
ENDBRANCH   1  26
TORSDOF 15
ENDMDL
MODEL 2
REMARK VINA RESULT:     -11.2      1.114      5.940
REMARK SMILES CC1(C)C(CNC(=O)N2C[C@H](O)C[C@@H]2C(=O)NCCCCNC(=O)c2ccc(-c3c4nc(c(-c5ccccc5)c5ccc([nH]5)c(-c5ccccc5)c5nc(c(-c6ccccc6)c6ccc3[nH]6)C=C5)C=C4)cc2)C1(C)C
REMARK SMILES IDX 19 1 18 2 17 3 15 4 16 5 14 7 9 8 10 9 11 10 13 11 7 12 6 13
REMARK SMILES IDX 8 15 5 16 4 17 1 18 2 19 3 20 73 21 74 22 75 23 12 24 20 26
REMARK SMILES IDX 21 27 22 28 23 29 24 31 25 32 26 33 72 34 27 35 71 36 28 37
REMARK SMILES IDX 29 38 30 39 65 40 31 41 70 42 64 43 66 44 32 45 69 46 63 47
REMARK SMILES IDX 62 48 33 50 55 51 40 52 54 53 41 54 44 55 53 56 67 57 42 58
REMARK SMILES IDX 43 59 52 61 68 62 45 63 34 64 35 65 39 66 36 67 38 68 37 69
REMARK SMILES IDX 56 70 57 71 61 72 58 73 60 74 59 75 46 76 47 77 51 78 48 79
REMARK SMILES IDX 50 80 49 81
REMARK H PARENT 17 6 6 14 12 25 22 30 66 49 44 60
REMARK Flexibility Score: inf
ROOT
ATOM      1  C   UNL A   1      37.056  21.082  24.477  1.00  0.00     0.023 C 
ENDROOT
BRANCH   1   2
ATOM      2  C   UNL A   1      36.892  22.263  25.427  1.00  0.00     0.116 C 
BRANCH   2   3
ATOM      3  N   UNL A   1      35.995  22.009  26.533  1.00  0.00    -0.354 N 
ATOM      4  C   UNL A   1      34.642  21.830  26.514  1.00  0.00     0.242 C 
ATOM      5  O   UNL A   1      34.152  21.298  27.516  1.00  0.00    -0.273 OA
ATOM      6  H   UNL A   1      36.418  21.960  27.421  1.00  0.00     0.163 HD
BRANCH   4   7
ATOM      7  C   UNL A   1      33.780  22.305  25.312  1.00  0.00     0.179 C 
ATOM      8  N   UNL A   1      32.433  22.661  25.791  1.00  0.00    -0.310 N 
ATOM      9  C   UNL A   1      31.404  21.929  25.063  1.00  0.00     0.154 C 
ATOM     10  C   UNL A   1      32.137  20.661  24.663  1.00  0.00     0.136 C 
ATOM     11  C   UNL A   1      33.505  21.206  24.271  1.00  0.00     0.069 C 
BRANCH   8  12
ATOM     12  C   UNL A   1      32.227  23.763  26.566  1.00  0.00     0.318 C 
ATOM     13  N   UNL A   1      32.462  24.984  26.018  1.00  0.00    -0.338 N 
ATOM     14  H   UNL A   1      32.587  25.724  26.655  1.00  0.00     0.165 HD
ATOM     15  O   UNL A   1      31.780  23.686  27.708  1.00  0.00    -0.249 OA
BRANCH  13  16
ATOM     16  C   UNL A   1      32.550  25.334  24.618  1.00  0.00     0.122 C 
BRANCH  16  17
ATOM     17  C   UNL A   1      32.929  26.768  24.420  1.00  0.00     0.021 C 
ATOM     18  C   UNL A   1      34.128  28.629  23.037  1.00  0.00     0.012 C 
ATOM     19  C   UNL A   1      33.108  27.509  23.101  1.00  0.00    -0.025 C 
ATOM     20  C   UNL A   1      33.109  26.686  21.832  1.00  0.00     0.012 C 
ATOM     21  C   UNL A   1      31.836  27.726  23.957  1.00  0.00    -0.025 C 
ATOM     22  C   UNL A   1      31.646  28.940  24.845  1.00  0.00     0.012 C 
ATOM     23  C   UNL A   1      30.508  27.206  23.444  1.00  0.00     0.012 C 
ENDBRANCH  16  17
ENDBRANCH  13  16
ENDBRANCH   8  12
BRANCH  10  24
ATOM     24  O   UNL A   1      32.275  19.768  25.769  1.00  0.00    -0.391 OA
ATOM     25  H   UNL A   1      32.330  20.279  26.592  1.00  0.00     0.211 HD
ENDBRANCH  10  24
ENDBRANCH   4   7
ENDBRANCH   2   3
ENDBRANCH   1   2
BRANCH   1  26
ATOM     26  C   UNL A   1      37.906  19.920  24.996  1.00  0.00     0.023 C 
BRANCH  26  27
ATOM     27  C   UNL A   1      39.119  20.302  25.838  1.00  0.00     0.116 C 
BRANCH  27  28
ATOM     28  N   UNL A   1      40.135  19.262  25.882  1.00  0.00    -0.352 N 
ATOM     29  C   UNL A   1      41.487  19.350  26.122  1.00  0.00     0.251 C 
ATOM     30  H   UNL A   1      39.802  18.351  25.714  1.00  0.00     0.163 HD
ATOM     31  O   UNL A   1      42.200  18.366  25.966  1.00  0.00    -0.269 OA
BRANCH  29  32
ATOM     32  C   UNL A   1      42.093  20.637  26.534  1.00  0.00     0.039 A 
ATOM     33  C   UNL A   1      42.663  21.457  25.557  1.00  0.00     0.014 A 
ATOM     34  C   UNL A   1      42.107  21.035  27.873  1.00  0.00     0.014 A 
ATOM     35  C   UNL A   1      43.168  22.712  25.911  1.00  0.00     0.010 A 
ATOM     36  C   UNL A   1      42.529  22.319  28.210  1.00  0.00     0.010 A 
ATOM     37  C   UNL A   1      43.063  23.174  27.233  1.00  0.00    -0.014 A 
BRANCH  37  38
ATOM     38  C   UNL A   1      43.501  24.543  27.612  1.00  0.00     0.031 A 
ATOM     39  C   UNL A   1      42.486  25.590  27.985  1.00  0.00     0.074 A 
ATOM     40  C   UNL A   1      44.809  24.866  27.558  1.00  0.00     0.049 A 
ATOM     41  N   UNL A   1      42.672  26.853  28.278  1.00  0.00    -0.248 NA
ATOM     42  C   UNL A   1      41.076  25.170  28.008  1.00  0.00     0.031 C 
ATOM     43  C   UNL A   1      45.894  23.961  27.173  1.00  0.00     0.029 A 
ATOM     44  N   UNL A   1      45.449  26.054  27.823  1.00  0.00    -0.354 N 
ATOM     45  C   UNL A   1      41.406  27.377  28.508  1.00  0.00     0.074 A 
ATOM     46  C   UNL A   1      40.457  26.313  28.262  1.00  0.00     0.031 C 
ATOM     47  C   UNL A   1      47.063  24.617  27.250  1.00  0.00     0.029 A 
ATOM     48  C   UNL A   1      46.811  25.999  27.645  1.00  0.00     0.049 A 
ATOM     49  H   UNL A   1      44.976  26.867  28.113  1.00  0.00     0.167 HD
ATOM     50  C   UNL A   1      41.062  28.623  28.911  1.00  0.00     0.031 A 
ATOM     51  C   UNL A   1      47.750  26.953  27.772  1.00  0.00     0.031 A 
ATOM     52  C   UNL A   1      42.002  29.684  29.157  1.00  0.00     0.049 A 
ATOM     53  C   UNL A   1      47.340  28.338  28.193  1.00  0.00     0.074 A 
ATOM     54  C   UNL A   1      41.753  30.970  29.605  1.00  0.00     0.029 A 
ATOM     55  N   UNL A   1      43.371  29.584  28.971  1.00  0.00    -0.354 N 
ATOM     56  N   UNL A   1      46.144  28.798  28.467  1.00  0.00    -0.248 NA
ATOM     57  C   UNL A   1      48.414  29.331  28.336  1.00  0.00     0.031 C 
ATOM     58  C   UNL A   1      42.966  31.664  29.638  1.00  0.00     0.029 A 
ATOM     59  C   UNL A   1      43.979  30.791  29.276  1.00  0.00     0.049 A 
ATOM     60  H   UNL A   1      43.844  28.774  28.669  1.00  0.00     0.167 HD
ATOM     61  C   UNL A   1      46.325  30.123  28.844  1.00  0.00     0.074 A 
ATOM     62  C   UNL A   1      47.747  30.387  28.781  1.00  0.00     0.031 C 
ATOM     63  C   UNL A   1      45.395  31.040  29.211  1.00  0.00     0.031 A 
BRANCH  50  64
ATOM     64  C   UNL A   1      39.597  28.905  29.113  1.00  0.00    -0.014 A 
ATOM     65  C   UNL A   1      38.801  29.395  28.064  1.00  0.00     0.009 A 
ATOM     66  C   UNL A   1      38.997  28.646  30.354  1.00  0.00     0.009 A 
ATOM     67  C   UNL A   1      37.444  29.656  28.267  1.00  0.00     0.001 A 
ATOM     68  C   UNL A   1      37.632  28.876  30.544  1.00  0.00     0.001 A 
ATOM     69  C   UNL A   1      36.860  29.391  29.504  1.00  0.00     0.000 A 
ENDBRANCH  50  64
BRANCH  51  70
ATOM     70  C   UNL A   1      49.179  26.638  27.499  1.00  0.00    -0.014 A 
ATOM     71  C   UNL A   1      49.734  26.866  26.230  1.00  0.00     0.009 A 
ATOM     72  C   UNL A   1      49.992  26.091  28.504  1.00  0.00     0.009 A 
ATOM     73  C   UNL A   1      51.061  26.522  25.964  1.00  0.00     0.001 A 
ATOM     74  C   UNL A   1      51.329  25.780  28.245  1.00  0.00     0.001 A 
ATOM     75  C   UNL A   1      51.859  25.985  26.972  1.00  0.00     0.000 A 
ENDBRANCH  51  70
BRANCH  63  76
ATOM     76  C   UNL A   1      45.890  32.401  29.614  1.00  0.00    -0.014 A 
ATOM     77  C   UNL A   1      46.265  32.685  30.937  1.00  0.00     0.009 A 
ATOM     78  C   UNL A   1      46.020  33.406  28.641  1.00  0.00     0.009 A 
ATOM     79  C   UNL A   1      46.724  33.958  31.283  1.00  0.00     0.001 A 
ATOM     80  C   UNL A   1      46.512  34.666  28.983  1.00  0.00     0.001 A 
ATOM     81  C   UNL A   1      46.853  34.944  30.306  1.00  0.00     0.000 A 
ENDBRANCH  63  76
ENDBRANCH  37  38
ENDBRANCH  29  32
ENDBRANCH  27  28
ENDBRANCH  26  27
ENDBRANCH   1  26
TORSDOF 15
ENDMDL
MODEL 3
REMARK VINA RESULT:     -11.1      3.795      9.001
REMARK SMILES CC1(C)C(CNC(=O)N2C[C@H](O)C[C@@H]2C(=O)NCCCCNC(=O)c2ccc(-c3c4nc(c(-c5ccccc5)c5ccc([nH]5)c(-c5ccccc5)c5nc(c(-c6ccccc6)c6ccc3[nH]6)C=C5)C=C4)cc2)C1(C)C
REMARK SMILES IDX 19 1 18 2 17 3 15 4 16 5 14 7 9 8 10 9 11 10 13 11 7 12 6 13
REMARK SMILES IDX 8 15 5 16 4 17 1 18 2 19 3 20 73 21 74 22 75 23 12 24 20 26
REMARK SMILES IDX 21 27 22 28 23 29 24 31 25 32 26 33 72 34 27 35 71 36 28 37
REMARK SMILES IDX 29 38 30 39 65 40 31 41 70 42 64 43 66 44 32 45 69 46 63 47
REMARK SMILES IDX 62 48 33 50 55 51 40 52 54 53 41 54 44 55 53 56 67 57 42 58
REMARK SMILES IDX 43 59 52 61 68 62 45 63 34 64 35 65 39 66 36 67 38 68 37 69
REMARK SMILES IDX 56 70 57 71 61 72 58 73 60 74 59 75 46 76 47 77 51 78 48 79
REMARK SMILES IDX 50 80 49 81
REMARK H PARENT 17 6 6 14 12 25 22 30 66 49 44 60
REMARK Flexibility Score: inf
ROOT
ATOM      1  C   UNL A   1      31.894  30.034  26.627  1.00  0.00     0.023 C 
ENDROOT
BRANCH   1   2
ATOM      2  C   UNL A   1      33.242  29.600  26.064  1.00  0.00     0.116 C 
BRANCH   2   3
ATOM      3  N   UNL A   1      33.298  29.580  24.618  1.00  0.00    -0.354 N 
ATOM      4  C   UNL A   1      32.668  28.737  23.748  1.00  0.00     0.242 C 
ATOM      5  O   UNL A   1      32.599  29.122  22.577  1.00  0.00    -0.273 OA
ATOM      6  H   UNL A   1      33.869  30.268  24.206  1.00  0.00     0.163 HD
BRANCH   4   7
ATOM      7  C   UNL A   1      32.110  27.364  24.214  1.00  0.00     0.179 C 
ATOM      8  N   UNL A   1      32.201  26.401  23.102  1.00  0.00    -0.310 N 
ATOM      9  C   UNL A   1      30.902  25.802  22.817  1.00  0.00     0.154 C 
ATOM     10  C   UNL A   1      29.944  26.892  23.264  1.00  0.00     0.136 C 
ATOM     11  C   UNL A   1      30.609  27.382  24.545  1.00  0.00     0.069 C 
BRANCH   8  12
ATOM     12  C   UNL A   1      33.405  25.934  22.668  1.00  0.00     0.318 C 
ATOM     13  N   UNL A   1      34.051  25.018  23.436  1.00  0.00    -0.338 N 
ATOM     14  H   UNL A   1      35.015  24.915  23.264  1.00  0.00     0.165 HD
ATOM     15  O   UNL A   1      33.884  26.264  21.585  1.00  0.00    -0.249 OA
BRANCH  13  16
ATOM     16  C   UNL A   1      33.501  24.175  24.475  1.00  0.00     0.122 C 
BRANCH  16  17
ATOM     17  C   UNL A   1      33.857  22.735  24.277  1.00  0.00     0.021 C 
ATOM     18  C   UNL A   1      35.208  20.614  24.975  1.00  0.00     0.012 C 
ATOM     19  C   UNL A   1      34.233  21.715  25.343  1.00  0.00    -0.025 C 
ATOM     20  C   UNL A   1      34.481  22.228  26.744  1.00  0.00     0.012 C 
ATOM     21  C   UNL A   1      32.826  21.693  24.697  1.00  0.00    -0.025 C 
ATOM     22  C   UNL A   1      32.444  20.710  23.607  1.00  0.00     0.012 C 
ATOM     23  C   UNL A   1      31.625  22.076  25.538  1.00  0.00     0.012 C 
ENDBRANCH  16  17
ENDBRANCH  13  16
ENDBRANCH   8  12
BRANCH  10  24
ATOM     24  O   UNL A   1      29.886  27.957  22.314  1.00  0.00    -0.391 OA
ATOM     25  H   UNL A   1      30.240  28.767  22.715  1.00  0.00     0.211 HD
ENDBRANCH  10  24
ENDBRANCH   4   7
ENDBRANCH   2   3
ENDBRANCH   1   2
BRANCH   1  26
ATOM     26  C   UNL A   1      31.675  31.544  26.750  1.00  0.00     0.023 C 
BRANCH  26  27
ATOM     27  C   UNL A   1      32.904  32.370  27.117  1.00  0.00     0.116 C 
BRANCH  27  28
ATOM     28  N   UNL A   1      32.573  33.689  27.634  1.00  0.00    -0.352 N 
ATOM     29  C   UNL A   1      33.198  34.449  28.595  1.00  0.00     0.251 C 
ATOM     30  H   UNL A   1      31.775  34.102  27.232  1.00  0.00     0.163 HD
ATOM     31  O   UNL A   1      32.671  35.480  28.996  1.00  0.00    -0.269 OA
BRANCH  29  32
ATOM     32  C   UNL A   1      34.489  34.012  29.175  1.00  0.00     0.039 A 
ATOM     33  C   UNL A   1      34.477  33.222  30.326  1.00  0.00     0.014 A 
ATOM     34  C   UNL A   1      35.705  34.380  28.594  1.00  0.00     0.014 A 
ATOM     35  C   UNL A   1      35.679  32.730  30.844  1.00  0.00     0.010 A 
ATOM     36  C   UNL A   1      36.892  33.818  29.057  1.00  0.00     0.010 A 
ATOM     37  C   UNL A   1      36.894  32.985  30.187  1.00  0.00    -0.014 A 
BRANCH  37  38
ATOM     38  C   UNL A   1      38.171  32.390  30.661  1.00  0.00     0.031 A 
ATOM     39  C   UNL A   1      38.673  31.098  30.074  1.00  0.00     0.074 A 
ATOM     40  C   UNL A   1      38.851  32.977  31.667  1.00  0.00     0.049 A 
ATOM     41  N   UNL A   1      39.726  30.394  30.406  1.00  0.00    -0.248 NA
ATOM     42  C   UNL A   1      37.872  30.507  28.990  1.00  0.00     0.031 C 
ATOM     43  C   UNL A   1      38.457  34.209  32.355  1.00  0.00     0.029 A 
ATOM     44  N   UNL A   1      40.018  32.609  32.294  1.00  0.00    -0.354 N 
ATOM     45  C   UNL A   1      39.708  29.276  29.580  1.00  0.00     0.074 A 
ATOM     46  C   UNL A   1      38.508  29.364  28.777  1.00  0.00     0.031 C 
ATOM     47  C   UNL A   1      39.375  34.506  33.287  1.00  0.00     0.029 A 
ATOM     48  C   UNL A   1      40.399  33.466  33.298  1.00  0.00     0.049 A 
ATOM     49  H   UNL A   1      40.531  31.806  32.047  1.00  0.00     0.167 HD
ATOM     50  C   UNL A   1      40.617  28.277  29.481  1.00  0.00     0.031 A 
ATOM     51  C   UNL A   1      41.447  33.417  34.141  1.00  0.00     0.031 A 
ATOM     52  C   UNL A   1      41.811  28.186  30.279  1.00  0.00     0.049 A 
ATOM     53  C   UNL A   1      42.428  32.282  34.031  1.00  0.00     0.074 A 
ATOM     54  C   UNL A   1      42.813  27.232  30.225  1.00  0.00     0.029 A 
ATOM     55  N   UNL A   1      42.162  29.079  31.278  1.00  0.00    -0.354 N 
ATOM     56  N   UNL A   1      42.427  31.267  33.202  1.00  0.00    -0.248 NA
ATOM     57  C   UNL A   1      43.562  32.295  34.965  1.00  0.00     0.031 C 
ATOM     58  C   UNL A   1      43.743  27.517  31.228  1.00  0.00     0.029 A 
ATOM     59  C   UNL A   1      43.355  28.687  31.863  1.00  0.00     0.049 A 
ATOM     60  H   UNL A   1      41.642  29.874  31.535  1.00  0.00     0.167 HD
ATOM     61  C   UNL A   1      43.574  30.540  33.493  1.00  0.00     0.074 A 
ATOM     62  C   UNL A   1      44.255  31.240  34.562  1.00  0.00     0.031 C 
ATOM     63  C   UNL A   1      44.024  29.393  32.925  1.00  0.00     0.031 A 
BRANCH  50  64
ATOM     64  C   UNL A   1      40.351  27.198  28.466  1.00  0.00    -0.014 A 
ATOM     65  C   UNL A   1      40.894  27.268  27.172  1.00  0.00     0.009 A 
ATOM     66  C   UNL A   1      39.578  26.081  28.816  1.00  0.00     0.009 A 
ATOM     67  C   UNL A   1      40.635  26.262  26.240  1.00  0.00     0.001 A 
ATOM     68  C   UNL A   1      39.349  25.059  27.892  1.00  0.00     0.001 A 
ATOM     69  C   UNL A   1      39.868  25.156  26.602  1.00  0.00     0.000 A 
ENDBRANCH  50  64
BRANCH  51  70
ATOM     70  C   UNL A   1      41.629  34.477  35.171  1.00  0.00    -0.014 A 
ATOM     71  C   UNL A   1      42.376  35.630  34.887  1.00  0.00     0.009 A 
ATOM     72  C   UNL A   1      41.068  34.332  36.449  1.00  0.00     0.009 A 
ATOM     73  C   UNL A   1      42.586  36.599  35.871  1.00  0.00     0.001 A 
ATOM     74  C   UNL A   1      41.250  35.318  37.421  1.00  0.00     0.001 A 
ATOM     75  C   UNL A   1      42.019  36.445  37.135  1.00  0.00     0.000 A 
ENDBRANCH  51  70
BRANCH  63  76
ATOM     76  C   UNL A   1      45.335  28.847  33.417  1.00  0.00    -0.014 A 
ATOM     77  C   UNL A   1      45.394  27.885  34.438  1.00  0.00     0.009 A 
ATOM     78  C   UNL A   1      46.531  29.276  32.819  1.00  0.00     0.009 A 
ATOM     79  C   UNL A   1      46.626  27.392  34.874  1.00  0.00     0.001 A 
ATOM     80  C   UNL A   1      47.758  28.757  33.233  1.00  0.00     0.001 A 
ATOM     81  C   UNL A   1      47.805  27.824  34.267  1.00  0.00     0.000 A 
ENDBRANCH  63  76
ENDBRANCH  37  38
ENDBRANCH  29  32
ENDBRANCH  27  28
ENDBRANCH  26  27
ENDBRANCH   1  26
TORSDOF 15
ENDMDL
