MODEL 1
REMARK VINA RESULT:     -11.1      0.000      0.000
REMARK SMILES CC[C@@H](C)[C@@H](C(=O)NCCCCNC(=O)c1ccc(-c2c3nc(c(-c4ccccc4)c4ccc([nH]4)c(-c4ccccc4)c4nc(c(-c5ccccc5)c5ccc2[nH]5)C=C4)C=C3)cc1)S(=O)(=O)c1ccc(OC)cc1
REMARK SMILES IDX 10 1 9 2 8 3 6 4 7 5 5 7 3 8 4 9 2 10 1 11 64 12 65 13 66 14
REMARK SMILES IDX 67 15 68 16 74 17 69 18 73 19 70 20 71 21 72 22 11 23 12 24
REMARK SMILES IDX 13 25 14 26 15 28 16 29 17 30 63 31 18 32 62 33 19 34 20 35
REMARK SMILES IDX 21 36 56 37 22 38 61 39 55 40 57 41 23 42 60 43 54 44 53 45
REMARK SMILES IDX 24 47 46 48 31 49 45 50 32 51 35 52 44 53 58 54 33 55 34 56
REMARK SMILES IDX 43 58 59 59 36 60 25 61 26 62 30 63 27 64 29 65 28 66 47 67
REMARK SMILES IDX 48 68 52 69 49 70 51 71 50 72 37 73 38 74 42 75 39 76 41 77
REMARK SMILES IDX 40 78
REMARK H PARENT 8 6 13 27 57 46 35 57
REMARK Flexibility Score: inf
ROOT
ATOM      1  C   UNL A   1      31.831  30.491  26.815  1.00  0.00     0.023 C 
ENDROOT
BRANCH   1   2
ATOM      2  C   UNL A   1      33.141  29.989  26.183  1.00  0.00     0.116 C 
BRANCH   2   3
ATOM      3  N   UNL A   1      32.988  29.806  24.755  1.00  0.00    -0.355 N 
ATOM      4  C   UNL A   1      32.352  28.895  23.970  1.00  0.00     0.239 C 
ATOM      5  O   UNL A   1      32.749  28.936  22.805  1.00  0.00    -0.274 OA
ATOM      6  H   UNL A   1      33.451  30.500  24.232  1.00  0.00     0.163 HD
BRANCH   4   7
ATOM      7  C   UNL A   1      31.265  27.924  24.457  1.00  0.00     0.205 C 
BRANCH   7   8
ATOM      8  C   UNL A   1      31.730  26.499  24.928  1.00  0.00     0.014 C 
ATOM      9  C   UNL A   1      31.804  26.393  26.461  1.00  0.00     0.009 C 
BRANCH   8  10
ATOM     10  C   UNL A   1      33.086  26.118  24.328  1.00  0.00     0.002 C 
ATOM     11  C   UNL A   1      34.096  25.399  25.206  1.00  0.00     0.004 C 
ENDBRANCH   8  10
ENDBRANCH   7   8
BRANCH   7  12
ATOM     12  S   UNL A   1      30.004  27.809  23.123  1.00  0.00     0.190 S 
ATOM     13  O   UNL A   1      30.665  27.340  21.916  1.00  0.00    -0.223 OA
ATOM     14  O   UNL A   1      28.853  27.056  23.591  1.00  0.00    -0.223 OA
BRANCH  12  15
ATOM     15  C   UNL A   1      29.450  29.481  22.768  1.00  0.00     0.068 A 
ATOM     16  C   UNL A   1      29.151  29.853  21.457  1.00  0.00     0.024 A 
ATOM     17  C   UNL A   1      29.357  30.433  23.789  1.00  0.00     0.024 A 
ATOM     18  C   UNL A   1      28.617  31.115  21.192  1.00  0.00     0.048 A 
ATOM     19  C   UNL A   1      28.872  31.722  23.506  1.00  0.00     0.048 A 
ATOM     20  C   UNL A   1      28.472  32.055  22.210  1.00  0.00     0.118 A 
BRANCH  20  21
ATOM     21  O   UNL A   1      27.934  33.243  21.803  1.00  0.00    -0.497 OA
ATOM     22  C   UNL A   1      27.514  33.334  20.449  1.00  0.00     0.278 C 
ENDBRANCH  20  21
ENDBRANCH  12  15
ENDBRANCH   7  12
ENDBRANCH   4   7
ENDBRANCH   2   3
ENDBRANCH   1   2
BRANCH   1  23
ATOM     23  C   UNL A   1      31.640  32.006  26.814  1.00  0.00     0.023 C 
BRANCH  23  24
ATOM     24  C   UNL A   1      32.822  32.781  27.362  1.00  0.00     0.116 C 
BRANCH  24  25
ATOM     25  N   UNL A   1      32.492  34.172  27.648  1.00  0.00    -0.352 N 
ATOM     26  C   UNL A   1      33.015  35.011  28.597  1.00  0.00     0.251 C 
ATOM     27  H   UNL A   1      31.792  34.565  27.077  1.00  0.00     0.163 HD
ATOM     28  O   UNL A   1      32.506  36.106  28.810  1.00  0.00    -0.269 OA
BRANCH  26  29
ATOM     29  C   UNL A   1      34.182  34.564  29.379  1.00  0.00     0.039 A 
ATOM     30  C   UNL A   1      33.981  33.979  30.630  1.00  0.00     0.014 A 
ATOM     31  C   UNL A   1      35.467  34.676  28.841  1.00  0.00     0.014 A 
ATOM     32  C   UNL A   1      35.070  33.437  31.311  1.00  0.00     0.010 A 
ATOM     33  C   UNL A   1      36.527  34.045  29.471  1.00  0.00     0.010 A 
ATOM     34  C   UNL A   1      36.342  33.429  30.716  1.00  0.00    -0.014 A 
BRANCH  34  35
ATOM     35  C   UNL A   1      37.502  32.797  31.385  1.00  0.00     0.031 A 
ATOM     36  C   UNL A   1      38.169  31.606  30.753  1.00  0.00     0.074 A 
ATOM     37  C   UNL A   1      37.901  33.243  32.591  1.00  0.00     0.049 A 
ATOM     38  N   UNL A   1      39.152  30.875  31.209  1.00  0.00    -0.248 NA
ATOM     39  C   UNL A   1      37.635  31.155  29.457  1.00  0.00     0.031 C 
ATOM     40  C   UNL A   1      37.292  34.350  33.333  1.00  0.00     0.029 A 
ATOM     41  N   UNL A   1      38.916  32.815  33.408  1.00  0.00    -0.354 N 
ATOM     42  C   UNL A   1      39.334  29.866  30.271  1.00  0.00     0.074 A 
ATOM     43  C   UNL A   1      38.323  30.044  29.253  1.00  0.00     0.031 C 
ATOM     44  C   UNL A   1      37.969  34.537  34.477  1.00  0.00     0.029 A 
ATOM     45  C   UNL A   1      39.032  33.542  34.567  1.00  0.00     0.049 A 
ATOM     46  H   UNL A   1      39.504  32.058  33.184  1.00  0.00     0.167 HD
ATOM     47  C   UNL A   1      40.275  28.894  30.246  1.00  0.00     0.031 A 
ATOM     48  C   UNL A   1      39.904  33.422  35.585  1.00  0.00     0.031 A 
ATOM     49  C   UNL A   1      41.297  28.740  31.243  1.00  0.00     0.049 A 
ATOM     50  C   UNL A   1      40.956  32.351  35.521  1.00  0.00     0.074 A 
ATOM     51  C   UNL A   1      42.343  27.836  31.274  1.00  0.00     0.029 A 
ATOM     52  N   UNL A   1      41.400  29.515  32.388  1.00  0.00    -0.354 N 
ATOM     53  N   UNL A   1      41.166  31.454  34.587  1.00  0.00    -0.248 NA
ATOM     54  C   UNL A   1      41.901  32.286  36.644  1.00  0.00     0.031 C 
ATOM     55  C   UNL A   1      43.057  28.039  32.459  1.00  0.00     0.029 A 
ATOM     56  C   UNL A   1      42.482  29.100  33.142  1.00  0.00     0.049 A 
ATOM     57  H   UNL A   1      40.793  30.252  32.627  1.00  0.00     0.167 HD
ATOM     58  C   UNL A   1      42.278  30.733  34.998  1.00  0.00     0.074 A 
ATOM     59  C   UNL A   1      42.710  31.310  36.256  1.00  0.00     0.031 C 
ATOM     60  C   UNL A   1      42.891  29.689  34.390  1.00  0.00     0.031 A 
BRANCH  47  61
ATOM     61  C   UNL A   1      40.235  27.929  29.094  1.00  0.00    -0.014 A 
ATOM     62  C   UNL A   1      40.898  28.207  27.888  1.00  0.00     0.009 A 
ATOM     63  C   UNL A   1      39.537  26.718  29.222  1.00  0.00     0.009 A 
ATOM     64  C   UNL A   1      40.827  27.312  26.819  1.00  0.00     0.001 A 
ATOM     65  C   UNL A   1      39.493  25.811  28.161  1.00  0.00     0.001 A 
ATOM     66  C   UNL A   1      40.129  26.114  26.957  1.00  0.00     0.000 A 
ENDBRANCH  47  61
BRANCH  48  67
ATOM     67  C   UNL A   1      39.840  34.360  36.735  1.00  0.00    -0.014 A 
ATOM     68  C   UNL A   1      40.534  35.579  36.694  1.00  0.00     0.009 A 
ATOM     69  C   UNL A   1      39.083  34.048  37.873  1.00  0.00     0.009 A 
ATOM     70  C   UNL A   1      40.492  36.454  37.781  1.00  0.00     0.001 A 
ATOM     71  C   UNL A   1      39.021  34.937  38.950  1.00  0.00     0.001 A 
ATOM     72  C   UNL A   1      39.734  36.135  38.906  1.00  0.00     0.000 A 
ENDBRANCH  48  67
BRANCH  60  73
ATOM     73  C   UNL A   1      44.107  29.122  35.063  1.00  0.00    -0.014 A 
ATOM     74  C   UNL A   1      45.388  29.629  34.795  1.00  0.00     0.009 A 
ATOM     75  C   UNL A   1      43.961  28.096  36.009  1.00  0.00     0.009 A 
ATOM     76  C   UNL A   1      46.504  29.097  35.442  1.00  0.00     0.001 A 
ATOM     77  C   UNL A   1      45.077  27.585  36.674  1.00  0.00     0.001 A 
ATOM     78  C   UNL A   1      46.347  28.079  36.383  1.00  0.00     0.000 A 
ENDBRANCH  60  73
ENDBRANCH  34  35
ENDBRANCH  26  29
ENDBRANCH  24  25
ENDBRANCH  23  24
ENDBRANCH   1  23
TORSDOF 16
ENDMDL
MODEL 2
REMARK VINA RESULT:     -11.0      1.771      7.060
REMARK SMILES CC[C@@H](C)[C@@H](C(=O)NCCCCNC(=O)c1ccc(-c2c3nc(c(-c4ccccc4)c4ccc([nH]4)c(-c4ccccc4)c4nc(c(-c5ccccc5)c5ccc2[nH]5)C=C4)C=C3)cc1)S(=O)(=O)c1ccc(OC)cc1
REMARK SMILES IDX 10 1 9 2 8 3 6 4 7 5 5 7 3 8 4 9 2 10 1 11 64 12 65 13 66 14
REMARK SMILES IDX 67 15 68 16 74 17 69 18 73 19 70 20 71 21 72 22 11 23 12 24
REMARK SMILES IDX 13 25 14 26 15 28 16 29 17 30 63 31 18 32 62 33 19 34 20 35
REMARK SMILES IDX 21 36 56 37 22 38 61 39 55 40 57 41 23 42 60 43 54 44 53 45
REMARK SMILES IDX 24 47 46 48 31 49 45 50 32 51 35 52 44 53 58 54 33 55 34 56
REMARK SMILES IDX 43 58 59 59 36 60 25 61 26 62 30 63 27 64 29 65 28 66 47 67
REMARK SMILES IDX 48 68 52 69 49 70 51 71 50 72 37 73 38 74 42 75 39 76 41 77
REMARK SMILES IDX 40 78
REMARK H PARENT 8 6 13 27 57 46 35 57
REMARK Flexibility Score: inf
ROOT
ATOM      1  C   UNL A   1      31.555  30.586  26.247  1.00  0.00     0.023 C 
ENDROOT
BRANCH   1   2
ATOM      2  C   UNL A   1      32.995  30.048  26.193  1.00  0.00     0.116 C 
BRANCH   2   3
ATOM      3  N   UNL A   1      33.359  29.683  24.840  1.00  0.00    -0.355 N 
ATOM      4  C   UNL A   1      33.162  28.587  24.059  1.00  0.00     0.239 C 
ATOM      5  O   UNL A   1      33.916  28.574  23.086  1.00  0.00    -0.274 OA
ATOM      6  H   UNL A   1      33.864  30.391  24.379  1.00  0.00     0.163 HD
BRANCH   4   7
ATOM      7  C   UNL A   1      32.126  27.485  24.337  1.00  0.00     0.205 C 
BRANCH   7   8
ATOM      8  C   UNL A   1      30.611  27.902  24.330  1.00  0.00     0.014 C 
ATOM      9  C   UNL A   1      29.681  26.697  24.105  1.00  0.00     0.009 C 
BRANCH   8  10
ATOM     10  C   UNL A   1      30.322  28.970  23.272  1.00  0.00     0.002 C 
ATOM     11  C   UNL A   1      28.934  29.032  22.658  1.00  0.00     0.004 C 
ENDBRANCH   8  10
ENDBRANCH   7   8
BRANCH   7  12
ATOM     12  S   UNL A   1      32.594  26.691  25.928  1.00  0.00     0.190 S 
ATOM     13  O   UNL A   1      34.014  26.921  26.147  1.00  0.00    -0.223 OA
ATOM     14  O   UNL A   1      31.680  27.105  26.979  1.00  0.00    -0.223 OA
BRANCH  12  15
ATOM     15  C   UNL A   1      32.407  24.917  25.714  1.00  0.00     0.068 A 
ATOM     16  C   UNL A   1      31.742  24.164  26.682  1.00  0.00     0.024 A 
ATOM     17  C   UNL A   1      32.962  24.271  24.605  1.00  0.00     0.024 A 
ATOM     18  C   UNL A   1      31.498  22.807  26.468  1.00  0.00     0.048 A 
ATOM     19  C   UNL A   1      32.763  22.891  24.423  1.00  0.00     0.048 A 
ATOM     20  C   UNL A   1      32.004  22.162  25.341  1.00  0.00     0.118 A 
BRANCH  20  21
ATOM     21  O   UNL A   1      31.684  20.836  25.264  1.00  0.00    -0.497 OA
ATOM     22  C   UNL A   1      32.759  19.912  25.185  1.00  0.00     0.278 C 
ENDBRANCH  20  21
ENDBRANCH  12  15
ENDBRANCH   7  12
ENDBRANCH   4   7
ENDBRANCH   2   3
ENDBRANCH   1   2
BRANCH   1  23
ATOM     23  C   UNL A   1      31.423  32.087  26.498  1.00  0.00     0.023 C 
BRANCH  23  24
ATOM     24  C   UNL A   1      32.573  32.688  27.284  1.00  0.00     0.116 C 
BRANCH  24  25
ATOM     25  N   UNL A   1      32.344  34.086  27.625  1.00  0.00    -0.352 N 
ATOM     26  C   UNL A   1      32.989  34.872  28.545  1.00  0.00     0.251 C 
ATOM     27  H   UNL A   1      31.621  34.530  27.123  1.00  0.00     0.163 HD
ATOM     28  O   UNL A   1      32.560  35.987  28.822  1.00  0.00    -0.269 OA
BRANCH  26  29
ATOM     29  C   UNL A   1      34.190  34.345  29.216  1.00  0.00     0.039 A 
ATOM     30  C   UNL A   1      34.046  33.615  30.396  1.00  0.00     0.014 A 
ATOM     31  C   UNL A   1      35.450  34.529  28.639  1.00  0.00     0.014 A 
ATOM     32  C   UNL A   1      35.165  33.004  30.960  1.00  0.00     0.010 A 
ATOM     33  C   UNL A   1      36.538  33.836  29.143  1.00  0.00     0.010 A 
ATOM     34  C   UNL A   1      36.409  33.076  30.313  1.00  0.00    -0.014 A 
BRANCH  34  35
ATOM     35  C   UNL A   1      37.600  32.379  30.851  1.00  0.00     0.031 A 
ATOM     36  C   UNL A   1      38.268  32.895  32.095  1.00  0.00     0.074 A 
ATOM     37  C   UNL A   1      38.122  31.336  30.177  1.00  0.00     0.049 A 
ATOM     38  N   UNL A   1      39.353  32.466  32.686  1.00  0.00    -0.248 NA
ATOM     39  C   UNL A   1      37.658  34.071  32.738  1.00  0.00     0.031 C 
ATOM     40  C   UNL A   1      37.600  30.784  28.924  1.00  0.00     0.029 A 
ATOM     41  N   UNL A   1      39.215  30.554  30.454  1.00  0.00    -0.354 N 
ATOM     42  C   UNL A   1      39.568  33.334  33.749  1.00  0.00     0.074 A 
ATOM     43  C   UNL A   1      38.537  34.346  33.688  1.00  0.00     0.031 C 
ATOM     44  C   UNL A   1      38.350  29.731  28.562  1.00  0.00     0.029 A 
ATOM     45  C   UNL A   1      39.425  29.558  29.533  1.00  0.00     0.049 A 
ATOM     46  H   UNL A   1      39.794  30.696  31.238  1.00  0.00     0.167 HD
ATOM     47  C   UNL A   1      40.522  33.280  34.706  1.00  0.00     0.031 A 
ATOM     48  C   UNL A   1      40.377  28.607  29.482  1.00  0.00     0.031 A 
ATOM     49  C   UNL A   1      41.526  32.256  34.782  1.00  0.00     0.049 A 
ATOM     50  C   UNL A   1      41.410  28.552  30.572  1.00  0.00     0.074 A 
ATOM     51  C   UNL A   1      42.493  32.064  35.752  1.00  0.00     0.029 A 
ATOM     52  N   UNL A   1      41.688  31.245  33.846  1.00  0.00    -0.354 N 
ATOM     53  N   UNL A   1      41.552  29.332  31.616  1.00  0.00    -0.248 NA
ATOM     54  C   UNL A   1      42.404  27.473  30.483  1.00  0.00     0.031 C 
ATOM     55  C   UNL A   1      43.266  30.959  35.382  1.00  0.00     0.029 A 
ATOM     56  C   UNL A   1      42.750  30.436  34.206  1.00  0.00     0.049 A 
ATOM     57  H   UNL A   1      41.129  31.122  33.046  1.00  0.00     0.167 HD
ATOM     58  C   UNL A   1      42.636  28.828  32.321  1.00  0.00     0.074 A 
ATOM     59  C   UNL A   1      43.102  27.663  31.595  1.00  0.00     0.031 C 
ATOM     60  C   UNL A   1      43.196  29.284  33.467  1.00  0.00     0.031 A 
BRANCH  47  61
ATOM     61  C   UNL A   1      40.514  34.363  35.748  1.00  0.00    -0.014 A 
ATOM     62  C   UNL A   1      41.266  35.538  35.584  1.00  0.00     0.009 A 
ATOM     63  C   UNL A   1      39.732  34.215  36.904  1.00  0.00     0.009 A 
ATOM     64  C   UNL A   1      41.268  36.522  36.574  1.00  0.00     0.001 A 
ATOM     65  C   UNL A   1      39.712  35.213  37.879  1.00  0.00     0.001 A 
ATOM     66  C   UNL A   1      40.489  36.360  37.719  1.00  0.00     0.000 A 
ENDBRANCH  47  61
BRANCH  48  67
ATOM     67  C   UNL A   1      40.376  27.612  28.380  1.00  0.00    -0.014 A 
ATOM     68  C   UNL A   1      39.682  26.400  28.519  1.00  0.00     0.009 A 
ATOM     69  C   UNL A   1      41.062  27.868  27.183  1.00  0.00     0.009 A 
ATOM     70  C   UNL A   1      39.696  25.454  27.493  1.00  0.00     0.001 A 
ATOM     71  C   UNL A   1      41.054  26.931  26.147  1.00  0.00     0.001 A 
ATOM     72  C   UNL A   1      40.378  25.721  26.306  1.00  0.00     0.000 A 
ENDBRANCH  48  67
BRANCH  60  73
ATOM     73  C   UNL A   1      44.356  28.507  34.019  1.00  0.00    -0.014 A 
ATOM     74  C   UNL A   1      45.678  28.839  33.684  1.00  0.00     0.009 A 
ATOM     75  C   UNL A   1      44.121  27.457  34.920  1.00  0.00     0.009 A 
ATOM     76  C   UNL A   1      46.741  28.112  34.219  1.00  0.00     0.001 A 
ATOM     77  C   UNL A   1      45.189  26.751  35.474  1.00  0.00     0.001 A 
ATOM     78  C   UNL A   1      46.497  27.073  35.116  1.00  0.00     0.000 A 
ENDBRANCH  60  73
ENDBRANCH  34  35
ENDBRANCH  26  29
ENDBRANCH  24  25
ENDBRANCH  23  24
ENDBRANCH   1  23
TORSDOF 16
ENDMDL
MODEL 3
REMARK VINA RESULT:     -10.9      5.200      9.630
REMARK SMILES CC[C@@H](C)[C@@H](C(=O)NCCCCNC(=O)c1ccc(-c2c3nc(c(-c4ccccc4)c4ccc([nH]4)c(-c4ccccc4)c4nc(c(-c5ccccc5)c5ccc2[nH]5)C=C4)C=C3)cc1)S(=O)(=O)c1ccc(OC)cc1
REMARK SMILES IDX 10 1 9 2 8 3 6 4 7 5 5 7 3 8 4 9 2 10 1 11 64 12 65 13 66 14
REMARK SMILES IDX 67 15 68 16 74 17 69 18 73 19 70 20 71 21 72 22 11 23 12 24
REMARK SMILES IDX 13 25 14 26 15 28 16 29 17 30 63 31 18 32 62 33 19 34 20 35
REMARK SMILES IDX 21 36 56 37 22 38 61 39 55 40 57 41 23 42 60 43 54 44 53 45
REMARK SMILES IDX 24 47 46 48 31 49 45 50 32 51 35 52 44 53 58 54 33 55 34 56
REMARK SMILES IDX 43 58 59 59 36 60 25 61 26 62 30 63 27 64 29 65 28 66 47 67
REMARK SMILES IDX 48 68 52 69 49 70 51 71 50 72 37 73 38 74 42 75 39 76 41 77
REMARK SMILES IDX 40 78
REMARK H PARENT 8 6 13 27 57 46 35 57
REMARK Flexibility Score: inf
ROOT
ATOM      1  C   UNL A   1      37.169  21.053  24.937  1.00  0.00     0.023 C 
ENDROOT
BRANCH   1   2
ATOM      2  C   UNL A   1      35.721  20.536  24.992  1.00  0.00     0.116 C 
BRANCH   2   3
ATOM      3  N   UNL A   1      35.016  21.096  26.125  1.00  0.00    -0.355 N 
ATOM      4  C   UNL A   1      34.204  22.172  26.310  1.00  0.00     0.239 C 
ATOM      5  O   UNL A   1      34.083  22.456  27.501  1.00  0.00    -0.274 OA
ATOM      6  H   UNL A   1      35.155  20.580  26.951  1.00  0.00     0.163 HD
BRANCH   4   7
ATOM      7  C   UNL A   1      33.509  22.951  25.182  1.00  0.00     0.205 C 
BRANCH   7   8
ATOM      8  C   UNL A   1      32.781  22.113  24.069  1.00  0.00     0.014 C 
ATOM      9  C   UNL A   1      31.706  22.935  23.338  1.00  0.00     0.009 C 
BRANCH   8  10
ATOM     10  C   UNL A   1      32.145  20.843  24.641  1.00  0.00     0.002 C 
ATOM     11  C   UNL A   1      32.352  19.530  23.907  1.00  0.00     0.004 C 
ENDBRANCH   8  10
ENDBRANCH   7   8
BRANCH   7  12
ATOM     12  S   UNL A   1      34.761  24.084  24.454  1.00  0.00     0.190 S 
ATOM     13  O   UNL A   1      35.920  24.100  25.333  1.00  0.00    -0.223 OA
ATOM     14  O   UNL A   1      34.985  23.748  23.059  1.00  0.00    -0.223 OA
BRANCH  12  15
ATOM     15  C   UNL A   1      34.075  25.744  24.508  1.00  0.00     0.068 A 
ATOM     16  C   UNL A   1      33.877  26.377  25.735  1.00  0.00     0.024 A 
ATOM     17  C   UNL A   1      33.693  26.395  23.331  1.00  0.00     0.024 A 
ATOM     18  C   UNL A   1      33.448  27.704  25.777  1.00  0.00     0.048 A 
ATOM     19  C   UNL A   1      33.207  27.713  23.383  1.00  0.00     0.048 A 
ATOM     20  C   UNL A   1      33.112  28.381  24.606  1.00  0.00     0.118 A 
BRANCH  20  21
ATOM     21  O   UNL A   1      32.712  29.672  24.801  1.00  0.00    -0.497 OA
ATOM     22  C   UNL A   1      32.525  30.098  26.143  1.00  0.00     0.278 C 
ENDBRANCH  20  21
ENDBRANCH  12  15
ENDBRANCH   7  12
ENDBRANCH   4   7
ENDBRANCH   2   3
ENDBRANCH   1   2
BRANCH   1  23
ATOM     23  C   UNL A   1      38.253  19.977  24.981  1.00  0.00     0.023 C 
BRANCH  23  24
ATOM     24  C   UNL A   1      39.332  20.225  26.017  1.00  0.00     0.116 C 
BRANCH  24  25
ATOM     25  N   UNL A   1      40.432  19.275  25.914  1.00  0.00    -0.352 N 
ATOM     26  C   UNL A   1      41.778  19.486  26.067  1.00  0.00     0.251 C 
ATOM     27  H   UNL A   1      40.171  18.348  25.704  1.00  0.00     0.163 HD
ATOM     28  O   UNL A   1      42.583  18.605  25.784  1.00  0.00    -0.269 OA
BRANCH  26  29
ATOM     29  C   UNL A   1      42.244  20.798  26.550  1.00  0.00     0.039 A 
ATOM     30  C   UNL A   1      42.635  21.765  25.623  1.00  0.00     0.014 A 
ATOM     31  C   UNL A   1      42.237  21.081  27.918  1.00  0.00     0.014 A 
ATOM     32  C   UNL A   1      42.949  23.048  26.069  1.00  0.00     0.010 A 
ATOM     33  C   UNL A   1      42.447  22.382  28.346  1.00  0.00     0.010 A 
ATOM     34  C   UNL A   1      42.816  23.375  27.428  1.00  0.00    -0.014 A 
BRANCH  34  35
ATOM     35  C   UNL A   1      43.074  24.748  27.920  1.00  0.00     0.031 A 
ATOM     36  C   UNL A   1      44.481  25.174  28.236  1.00  0.00     0.074 A 
ATOM     37  C   UNL A   1      42.039  25.576  28.158  1.00  0.00     0.049 A 
ATOM     38  N   UNL A   1      44.906  26.306  28.735  1.00  0.00    -0.248 NA
ATOM     39  C   UNL A   1      45.546  24.186  27.993  1.00  0.00     0.031 C 
ATOM     40  C   UNL A   1      40.625  25.253  27.951  1.00  0.00     0.029 A 
ATOM     41  N   UNL A   1      42.020  26.864  28.629  1.00  0.00    -0.354 N 
ATOM     42  C   UNL A   1      46.278  26.153  28.890  1.00  0.00     0.074 A 
ATOM     43  C   UNL A   1      46.605  24.804  28.489  1.00  0.00     0.031 C 
ATOM     44  C   UNL A   1      39.880  26.327  28.259  1.00  0.00     0.029 A 
ATOM     45  C   UNL A   1      40.757  27.397  28.719  1.00  0.00     0.049 A 
ATOM     46  H   UNL A   1      42.833  27.358  28.881  1.00  0.00     0.167 HD
ATOM     47  C   UNL A   1      47.189  27.063  29.306  1.00  0.00     0.031 A 
ATOM     48  C   UNL A   1      40.355  28.616  29.122  1.00  0.00     0.031 A 
ATOM     49  C   UNL A   1      46.864  28.413  29.675  1.00  0.00     0.049 A 
ATOM     50  C   UNL A   1      41.388  29.619  29.554  1.00  0.00     0.074 A 
ATOM     51  C   UNL A   1      47.719  29.438  30.038  1.00  0.00     0.029 A 
ATOM     52  N   UNL A   1      45.577  28.925  29.723  1.00  0.00    -0.354 N 
ATOM     53  N   UNL A   1      42.691  29.486  29.619  1.00  0.00    -0.248 NA
ATOM     54  C   UNL A   1      40.895  30.944  29.952  1.00  0.00     0.031 C 
ATOM     55  C   UNL A   1      46.944  30.560  30.345  1.00  0.00     0.029 A 
ATOM     56  C   UNL A   1      45.611  30.247  30.128  1.00  0.00     0.049 A 
ATOM     57  H   UNL A   1      44.760  28.422  29.503  1.00  0.00     0.167 HD
ATOM     58  C   UNL A   1      43.176  30.715  30.043  1.00  0.00     0.074 A 
ATOM     59  C   UNL A   1      42.028  31.586  30.202  1.00  0.00     0.031 C 
ATOM     60  C   UNL A   1      44.456  31.093  30.280  1.00  0.00     0.031 A 
BRANCH  47  61
ATOM     61  C   UNL A   1      48.623  26.619  29.376  1.00  0.00    -0.014 A 
ATOM     62  C   UNL A   1      49.488  26.777  28.280  1.00  0.00     0.009 A 
ATOM     63  C   UNL A   1      49.121  26.047  30.556  1.00  0.00     0.009 A 
ATOM     64  C   UNL A   1      50.810  26.333  28.352  1.00  0.00     0.001 A 
ATOM     65  C   UNL A   1      50.451  25.631  30.635  1.00  0.00     0.001 A 
ATOM     66  C   UNL A   1      51.291  25.764  29.530  1.00  0.00     0.000 A 
ENDBRANCH  47  61
BRANCH  48  67
ATOM     67  C   UNL A   1      38.912  28.968  29.105  1.00  0.00    -0.014 A 
ATOM     68  C   UNL A   1      38.307  29.421  27.922  1.00  0.00     0.009 A 
ATOM     69  C   UNL A   1      38.132  28.848  30.264  1.00  0.00     0.009 A 
ATOM     70  C   UNL A   1      36.956  29.770  27.907  1.00  0.00     0.001 A 
ATOM     71  C   UNL A   1      36.773  29.174  30.240  1.00  0.00     0.001 A 
ATOM     72  C   UNL A   1      36.189  29.644  29.064  1.00  0.00     0.000 A 
ENDBRANCH  48  67
BRANCH  60  73
ATOM     73  C   UNL A   1      44.683  32.513  30.708  1.00  0.00    -0.014 A 
ATOM     74  C   UNL A   1      44.722  32.865  32.066  1.00  0.00     0.009 A 
ATOM     75  C   UNL A   1      44.902  33.503  29.737  1.00  0.00     0.009 A 
ATOM     76  C   UNL A   1      44.948  34.190  32.442  1.00  0.00     0.001 A 
ATOM     77  C   UNL A   1      45.155  34.821  30.119  1.00  0.00     0.001 A 
ATOM     78  C   UNL A   1      45.168  35.165  31.469  1.00  0.00     0.000 A 
ENDBRANCH  60  73
ENDBRANCH  34  35
ENDBRANCH  26  29
ENDBRANCH  24  25
ENDBRANCH  23  24
ENDBRANCH   1  23
TORSDOF 16
ENDMDL
