MODEL 1
REMARK VINA RESULT:     -11.4      0.000      0.000
REMARK SMILES CC(C)c1nc(N2C[C@H](C)OC(C)(C)C2)sc1C(=O)NCCCCNC(=O)c1ccc(-c2c3nc(c(-c4ccccc4)c4ccc([nH]4)c(-c4ccccc4)c4nc(c(-c5ccccc5)c5ccc2[nH]5)C=C4)C=C3)cc1
REMARK SMILES IDX 23 1 22 2 21 3 20 4 18 5 19 6 17 8 4 9 5 10 6 11 16 12 2 13
REMARK SMILES IDX 1 14 3 15 7 16 8 17 15 18 9 19 12 20 11 21 10 22 13 23 14 24
REMARK SMILES IDX 24 25 25 26 26 27 27 29 28 30 29 31 75 32 30 33 74 34 31 35
REMARK SMILES IDX 32 36 33 37 68 38 34 39 73 40 67 41 69 42 35 43 72 44 66 45
REMARK SMILES IDX 65 46 36 48 58 49 43 50 57 51 44 52 47 53 56 54 70 55 45 56
REMARK SMILES IDX 46 57 55 59 71 60 48 61 37 62 38 63 42 64 39 65 41 66 40 67
REMARK SMILES IDX 59 68 60 69 64 70 61 71 63 72 62 73 49 74 50 75 54 76 51 77
REMARK SMILES IDX 53 78 52 79
REMARK H PARENT 20 7 25 28 69 47 47 58
REMARK Flexibility Score: inf
ROOT
ATOM      1  C   UNL A   1      37.717  20.568  24.863  1.00  0.00     0.023 C 
ENDROOT
BRANCH   1   2
ATOM      2  C   UNL A   1      36.980  21.866  24.542  1.00  0.00     0.023 C 
BRANCH   2   3
ATOM      3  C   UNL A   1      36.540  22.670  25.769  1.00  0.00     0.116 C 
BRANCH   3   4
ATOM      4  N   UNL A   1      35.506  21.974  26.490  1.00  0.00    -0.351 N 
ATOM      5  C   UNL A   1      34.139  22.031  26.545  1.00  0.00     0.263 C 
ATOM      6  O   UNL A   1      33.698  21.218  27.372  1.00  0.00    -0.268 OA
ATOM      7  H   UNL A   1      35.872  21.287  27.093  1.00  0.00     0.163 HD
BRANCH   5   8
ATOM      8  C   UNL A   1      33.253  22.884  25.749  1.00  0.00     0.117 A 
ATOM      9  C   UNL A   1      32.797  23.035  24.436  1.00  0.00     0.069 A 
ATOM     10  N   UNL A   1      31.856  24.053  24.253  1.00  0.00    -0.224 NA
ATOM     11  C   UNL A   1      31.717  24.795  25.318  1.00  0.00     0.186 A 
ATOM     12  S   UNL A   1      32.557  24.194  26.678  1.00  0.00    -0.091 S 
BRANCH   9  13
ATOM     13  C   UNL A   1      33.157  22.327  23.162  1.00  0.00     0.034 C 
ATOM     14  C   UNL A   1      32.171  21.207  22.828  1.00  0.00     0.014 C 
ATOM     15  C   UNL A   1      33.279  23.283  21.968  1.00  0.00     0.014 C 
ENDBRANCH   9  13
BRANCH  11  16
ATOM     16  N   UNL A   1      30.958  25.916  25.367  1.00  0.00    -0.343 N 
ATOM     17  C   UNL A   1      31.140  26.926  26.408  1.00  0.00     0.150 C 
ATOM     18  C   UNL A   1      30.211  26.363  24.192  1.00  0.00     0.153 C 
ATOM     19  C   UNL A   1      31.766  28.187  25.780  1.00  0.00     0.135 C 
ATOM     20  C   UNL A   1      30.727  27.725  23.651  1.00  0.00     0.081 C 
ATOM     21  O   UNL A   1      30.943  28.687  24.711  1.00  0.00    -0.369 OA
ATOM     22  C   UNL A   1      31.904  29.298  26.812  1.00  0.00     0.040 C 
ATOM     23  C   UNL A   1      32.001  27.562  22.810  1.00  0.00     0.044 C 
ATOM     24  C   UNL A   1      29.636  28.343  22.763  1.00  0.00     0.044 C 
ENDBRANCH  11  16
ENDBRANCH   5   8
ENDBRANCH   3   4
ENDBRANCH   2   3
ENDBRANCH   1   2
BRANCH   1  25
ATOM     25  C   UNL A   1      38.940  20.756  25.753  1.00  0.00     0.116 C 
BRANCH  25  26
ATOM     26  N   UNL A   1      39.888  19.651  25.695  1.00  0.00    -0.352 N 
ATOM     27  C   UNL A   1      41.213  19.655  26.063  1.00  0.00     0.251 C 
ATOM     28  H   UNL A   1      39.537  18.797  25.351  1.00  0.00     0.163 HD
ATOM     29  O   UNL A   1      41.918  18.665  25.901  1.00  0.00    -0.269 OA
BRANCH  27  30
ATOM     30  C   UNL A   1      41.787  20.901  26.601  1.00  0.00     0.039 A 
ATOM     31  C   UNL A   1      42.265  21.860  25.706  1.00  0.00     0.014 A 
ATOM     32  C   UNL A   1      41.753  21.158  27.974  1.00  0.00     0.014 A 
ATOM     33  C   UNL A   1      42.632  23.118  26.183  1.00  0.00     0.010 A 
ATOM     34  C   UNL A   1      42.050  22.433  28.437  1.00  0.00     0.010 A 
ATOM     35  C   UNL A   1      42.481  23.427  27.545  1.00  0.00    -0.014 A 
BRANCH  35  36
ATOM     36  C   UNL A   1      42.753  24.791  28.057  1.00  0.00     0.031 A 
ATOM     37  C   UNL A   1      44.143  25.171  28.478  1.00  0.00     0.074 A 
ATOM     38  C   UNL A   1      41.734  25.656  28.218  1.00  0.00     0.049 A 
ATOM     39  N   UNL A   1      44.564  26.288  29.013  1.00  0.00    -0.248 NA
ATOM     40  C   UNL A   1      45.191  24.153  28.300  1.00  0.00     0.031 C 
ATOM     41  C   UNL A   1      40.329  25.388  27.900  1.00  0.00     0.029 A 
ATOM     42  N   UNL A   1      41.724  26.940  28.703  1.00  0.00    -0.354 N 
ATOM     43  C   UNL A   1      45.917  26.097  29.259  1.00  0.00     0.074 A 
ATOM     44  C   UNL A   1      46.237  24.745  28.856  1.00  0.00     0.031 C 
ATOM     45  C   UNL A   1      39.601  26.483  28.170  1.00  0.00     0.029 A 
ATOM     46  C   UNL A   1      40.477  27.516  28.709  1.00  0.00     0.049 A 
ATOM     47  H   UNL A   1      42.535  27.404  29.015  1.00  0.00     0.167 HD
ATOM     48  C   UNL A   1      46.819  26.975  29.757  1.00  0.00     0.031 A 
ATOM     49  C   UNL A   1      40.086  28.741  29.106  1.00  0.00     0.031 A 
ATOM     50  C   UNL A   1      46.509  28.327  30.135  1.00  0.00     0.049 A 
ATOM     51  C   UNL A   1      41.108  29.704  29.636  1.00  0.00     0.074 A 
ATOM     52  C   UNL A   1      47.368  29.315  30.585  1.00  0.00     0.029 A 
ATOM     53  N   UNL A   1      45.240  28.880  30.102  1.00  0.00    -0.354 N 
ATOM     54  N   UNL A   1      42.399  29.532  29.798  1.00  0.00    -0.248 NA
ATOM     55  C   UNL A   1      40.622  31.034  30.030  1.00  0.00     0.031 C 
ATOM     56  C   UNL A   1      46.609  30.459  30.858  1.00  0.00     0.029 A 
ATOM     57  C   UNL A   1      45.287  30.193  30.539  1.00  0.00     0.049 A 
ATOM     58  H   UNL A   1      44.425  28.411  29.811  1.00  0.00     0.167 HD
ATOM     59  C   UNL A   1      42.881  30.737  30.290  1.00  0.00     0.074 A 
ATOM     60  C   UNL A   1      41.748  31.635  30.387  1.00  0.00     0.031 C 
ATOM     61  C   UNL A   1      44.150  31.069  30.629  1.00  0.00     0.031 A 
BRANCH  48  62
ATOM     62  C   UNL A   1      48.230  26.489  29.921  1.00  0.00    -0.014 A 
ATOM     63  C   UNL A   1      49.177  26.656  28.897  1.00  0.00     0.009 A 
ATOM     64  C   UNL A   1      48.622  25.868  31.116  1.00  0.00     0.009 A 
ATOM     65  C   UNL A   1      50.478  26.177  29.053  1.00  0.00     0.001 A 
ATOM     66  C   UNL A   1      49.932  25.412  31.279  1.00  0.00     0.001 A 
ATOM     67  C   UNL A   1      50.855  25.558  30.244  1.00  0.00     0.000 A 
ENDBRANCH  48  62
BRANCH  49  68
ATOM     68  C   UNL A   1      38.660  29.140  28.989  1.00  0.00    -0.014 A 
ATOM     69  C   UNL A   1      37.797  28.999  30.086  1.00  0.00     0.009 A 
ATOM     70  C   UNL A   1      38.156  29.658  27.787  1.00  0.00     0.009 A 
ATOM     71  C   UNL A   1      36.449  29.346  29.973  1.00  0.00     0.001 A 
ATOM     72  C   UNL A   1      36.813  30.026  27.685  1.00  0.00     0.001 A 
ATOM     73  C   UNL A   1      35.960  29.863  28.774  1.00  0.00     0.000 A 
ENDBRANCH  49  68
BRANCH  61  74
ATOM     74  C   UNL A   1      44.381  32.472  31.113  1.00  0.00    -0.014 A 
ATOM     75  C   UNL A   1      44.327  32.785  32.479  1.00  0.00     0.009 A 
ATOM     76  C   UNL A   1      44.699  33.481  30.191  1.00  0.00     0.009 A 
ATOM     77  C   UNL A   1      44.559  34.092  32.911  1.00  0.00     0.001 A 
ATOM     78  C   UNL A   1      44.954  34.781  30.628  1.00  0.00     0.001 A 
ATOM     79  C   UNL A   1      44.876  35.087  31.986  1.00  0.00     0.000 A 
ENDBRANCH  61  74
ENDBRANCH  35  36
ENDBRANCH  27  30
ENDBRANCH  25  26
ENDBRANCH   1  25
TORSDOF 13
ENDMDL
MODEL 2
REMARK VINA RESULT:     -11.4      1.630      7.727
REMARK SMILES CC(C)c1nc(N2C[C@H](C)OC(C)(C)C2)sc1C(=O)NCCCCNC(=O)c1ccc(-c2c3nc(c(-c4ccccc4)c4ccc([nH]4)c(-c4ccccc4)c4nc(c(-c5ccccc5)c5ccc2[nH]5)C=C4)C=C3)cc1
REMARK SMILES IDX 23 1 22 2 21 3 20 4 18 5 19 6 17 8 4 9 5 10 6 11 16 12 2 13
REMARK SMILES IDX 1 14 3 15 7 16 8 17 15 18 9 19 12 20 11 21 10 22 13 23 14 24
REMARK SMILES IDX 24 25 25 26 26 27 27 29 28 30 29 31 75 32 30 33 74 34 31 35
REMARK SMILES IDX 32 36 33 37 68 38 34 39 73 40 67 41 69 42 35 43 72 44 66 45
REMARK SMILES IDX 65 46 36 48 58 49 43 50 57 51 44 52 47 53 56 54 70 55 45 56
REMARK SMILES IDX 46 57 55 59 71 60 48 61 37 62 38 63 42 64 39 65 41 66 40 67
REMARK SMILES IDX 59 68 60 69 64 70 61 71 63 72 62 73 49 74 50 75 54 76 51 77
REMARK SMILES IDX 53 78 52 79
REMARK H PARENT 20 7 25 28 69 47 47 58
REMARK Flexibility Score: inf
ROOT
ATOM      1  C   UNL A   1      32.401  28.709  26.335  1.00  0.00     0.023 C 
ENDROOT
BRANCH   1   2
ATOM      2  C   UNL A   1      32.556  29.547  25.069  1.00  0.00     0.023 C 
BRANCH   2   3
ATOM      3  C   UNL A   1      31.694  29.087  23.888  1.00  0.00     0.116 C 
BRANCH   3   4
ATOM      4  N   UNL A   1      32.496  28.401  22.909  1.00  0.00    -0.351 N 
ATOM      5  C   UNL A   1      33.040  27.149  22.789  1.00  0.00     0.263 C 
ATOM      6  O   UNL A   1      33.694  27.054  21.739  1.00  0.00    -0.268 OA
ATOM      7  H   UNL A   1      32.705  28.970  22.134  1.00  0.00     0.163 HD
BRANCH   5   8
ATOM      8  C   UNL A   1      32.889  26.023  23.713  1.00  0.00     0.117 A 
ATOM      9  C   UNL A   1      31.948  25.457  24.578  1.00  0.00     0.069 A 
ATOM     10  N   UNL A   1      32.358  24.276  25.204  1.00  0.00    -0.224 NA
ATOM     11  C   UNL A   1      33.622  24.022  25.000  1.00  0.00     0.186 A 
ATOM     12  S   UNL A   1      34.353  25.076  23.873  1.00  0.00    -0.091 S 
BRANCH   9  13
ATOM     13  C   UNL A   1      30.576  25.902  24.996  1.00  0.00     0.034 C 
ATOM     14  C   UNL A   1      29.606  25.962  23.815  1.00  0.00     0.014 C 
ATOM     15  C   UNL A   1      29.984  25.027  26.108  1.00  0.00     0.014 C 
ENDBRANCH   9  13
BRANCH  11  16
ATOM     16  N   UNL A   1      34.295  23.005  25.590  1.00  0.00    -0.343 N 
ATOM     17  C   UNL A   1      33.744  21.653  25.657  1.00  0.00     0.150 C 
ATOM     18  C   UNL A   1      35.734  23.100  25.829  1.00  0.00     0.153 C 
ATOM     19  C   UNL A   1      34.542  20.738  24.707  1.00  0.00     0.135 C 
ATOM     20  C   UNL A   1      36.538  22.062  24.999  1.00  0.00     0.081 C 
ATOM     21  O   UNL A   1      35.941  20.745  25.047  1.00  0.00    -0.369 OA
ATOM     22  C   UNL A   1      34.055  19.298  24.799  1.00  0.00     0.040 C 
ATOM     23  C   UNL A   1      36.725  22.512  23.544  1.00  0.00     0.044 C 
ATOM     24  C   UNL A   1      37.927  21.897  25.637  1.00  0.00     0.044 C 
ENDBRANCH  11  16
ENDBRANCH   5   8
ENDBRANCH   3   4
ENDBRANCH   2   3
ENDBRANCH   1   2
BRANCH   1  25
ATOM     25  C   UNL A   1      33.498  28.942  27.368  1.00  0.00     0.116 C 
BRANCH  25  26
ATOM     26  N   UNL A   1      33.574  30.316  27.848  1.00  0.00    -0.352 N 
ATOM     27  C   UNL A   1      34.660  30.959  28.394  1.00  0.00     0.251 C 
ATOM     28  H   UNL A   1      32.749  30.848  27.773  1.00  0.00     0.163 HD
ATOM     29  O   UNL A   1      34.569  32.105  28.818  1.00  0.00    -0.269 OA
BRANCH  27  30
ATOM     30  C   UNL A   1      35.927  30.216  28.516  1.00  0.00     0.039 A 
ATOM     31  C   UNL A   1      36.820  30.234  27.442  1.00  0.00     0.014 A 
ATOM     32  C   UNL A   1      36.270  29.598  29.720  1.00  0.00     0.014 A 
ATOM     33  C   UNL A   1      38.098  29.703  27.608  1.00  0.00     0.010 A 
ATOM     34  C   UNL A   1      37.566  29.135  29.906  1.00  0.00     0.010 A 
ATOM     35  C   UNL A   1      38.495  29.193  28.855  1.00  0.00    -0.014 A 
BRANCH  35  36
ATOM     36  C   UNL A   1      39.883  28.731  29.090  1.00  0.00     0.031 A 
ATOM     37  C   UNL A   1      40.890  29.662  29.700  1.00  0.00     0.074 A 
ATOM     38  C   UNL A   1      40.253  27.503  28.680  1.00  0.00     0.049 A 
ATOM     39  N   UNL A   1      42.165  29.466  29.920  1.00  0.00    -0.248 NA
ATOM     40  C   UNL A   1      40.409  30.999  30.087  1.00  0.00     0.031 C 
ATOM     41  C   UNL A   1      39.383  26.525  28.024  1.00  0.00     0.029 A 
ATOM     42  N   UNL A   1      41.470  26.871  28.749  1.00  0.00    -0.354 N 
ATOM     43  C   UNL A   1      42.642  30.660  30.445  1.00  0.00     0.074 A 
ATOM     44  C   UNL A   1      41.532  31.587  30.471  1.00  0.00     0.031 C 
ATOM     45  C   UNL A   1      40.085  25.408  27.777  1.00  0.00     0.029 A 
ATOM     46  C   UNL A   1      41.459  25.601  28.226  1.00  0.00     0.049 A 
ATOM     47  H   UNL A   1      42.273  27.289  29.136  1.00  0.00     0.167 HD
ATOM     48  C   UNL A   1      43.887  30.953  30.887  1.00  0.00     0.031 A 
ATOM     49  C   UNL A   1      42.449  24.694  28.121  1.00  0.00     0.031 A 
ATOM     50  C   UNL A   1      44.985  30.025  30.886  1.00  0.00     0.049 A 
ATOM     51  C   UNL A   1      43.817  25.036  28.636  1.00  0.00     0.074 A 
ATOM     52  C   UNL A   1      46.266  30.206  31.376  1.00  0.00     0.029 A 
ATOM     53  N   UNL A   1      44.927  28.740  30.372  1.00  0.00    -0.354 N 
ATOM     54  N   UNL A   1      44.235  26.147  29.195  1.00  0.00    -0.248 NA
ATOM     55  C   UNL A   1      44.848  23.995  28.515  1.00  0.00     0.031 C 
ATOM     56  C   UNL A   1      46.996  29.037  31.126  1.00  0.00     0.029 A 
ATOM     57  C   UNL A   1      46.156  28.119  30.518  1.00  0.00     0.049 A 
ATOM     58  H   UNL A   1      44.131  28.329  29.964  1.00  0.00     0.167 HD
ATOM     59  C   UNL A   1      45.569  25.930  29.512  1.00  0.00     0.074 A 
ATOM     60  C   UNL A   1      45.886  24.579  29.096  1.00  0.00     0.031 C 
ATOM     61  C   UNL A   1      46.452  26.775  30.097  1.00  0.00     0.031 A 
BRANCH  48  62
ATOM     62  C   UNL A   1      44.120  32.342  31.407  1.00  0.00    -0.014 A 
ATOM     63  C   UNL A   1      44.562  33.368  30.557  1.00  0.00     0.009 A 
ATOM     64  C   UNL A   1      43.883  32.631  32.759  1.00  0.00     0.009 A 
ATOM     65  C   UNL A   1      44.798  34.649  31.059  1.00  0.00     0.001 A 
ATOM     66  C   UNL A   1      44.096  33.920  33.253  1.00  0.00     0.001 A 
ATOM     67  C   UNL A   1      44.562  34.924  32.406  1.00  0.00     0.000 A 
ENDBRANCH  48  62
BRANCH  49  68
ATOM     68  C   UNL A   1      42.175  23.361  27.528  1.00  0.00    -0.014 A 
ATOM     69  C   UNL A   1      42.505  23.104  26.189  1.00  0.00     0.009 A 
ATOM     70  C   UNL A   1      41.583  22.344  28.292  1.00  0.00     0.009 A 
ATOM     71  C   UNL A   1      42.224  21.860  25.618  1.00  0.00     0.001 A 
ATOM     72  C   UNL A   1      41.325  21.094  27.725  1.00  0.00     0.001 A 
ATOM     73  C   UNL A   1      41.638  20.856  26.388  1.00  0.00     0.000 A 
ENDBRANCH  49  68
BRANCH  61  74
ATOM     74  C   UNL A   1      47.837  26.252  30.344  1.00  0.00    -0.014 A 
ATOM     75  C   UNL A   1      48.211  25.762  31.603  1.00  0.00     0.009 A 
ATOM     76  C   UNL A   1      48.763  26.210  29.290  1.00  0.00     0.009 A 
ATOM     77  C   UNL A   1      49.499  25.266  31.811  1.00  0.00     0.001 A 
ATOM     78  C   UNL A   1      50.041  25.691  29.494  1.00  0.00     0.001 A 
ATOM     79  C   UNL A   1      50.411  25.227  30.756  1.00  0.00     0.000 A 
ENDBRANCH  61  74
ENDBRANCH  35  36
ENDBRANCH  27  30
ENDBRANCH  25  26
ENDBRANCH   1  25
TORSDOF 13
ENDMDL
MODEL 3
REMARK VINA RESULT:     -11.4      1.085      2.014
REMARK SMILES CC(C)c1nc(N2C[C@H](C)OC(C)(C)C2)sc1C(=O)NCCCCNC(=O)c1ccc(-c2c3nc(c(-c4ccccc4)c4ccc([nH]4)c(-c4ccccc4)c4nc(c(-c5ccccc5)c5ccc2[nH]5)C=C4)C=C3)cc1
REMARK SMILES IDX 23 1 22 2 21 3 20 4 18 5 19 6 17 8 4 9 5 10 6 11 16 12 2 13
REMARK SMILES IDX 1 14 3 15 7 16 8 17 15 18 9 19 12 20 11 21 10 22 13 23 14 24
REMARK SMILES IDX 24 25 25 26 26 27 27 29 28 30 29 31 75 32 30 33 74 34 31 35
REMARK SMILES IDX 32 36 33 37 68 38 34 39 73 40 67 41 69 42 35 43 72 44 66 45
REMARK SMILES IDX 65 46 36 48 58 49 43 50 57 51 44 52 47 53 56 54 70 55 45 56
REMARK SMILES IDX 46 57 55 59 71 60 48 61 37 62 38 63 42 64 39 65 41 66 40 67
REMARK SMILES IDX 59 68 60 69 64 70 61 71 63 72 62 73 49 74 50 75 54 76 51 77
REMARK SMILES IDX 53 78 52 79
REMARK H PARENT 20 7 25 28 69 47 47 58
REMARK Flexibility Score: inf
ROOT
ATOM      1  C   UNL A   1      37.738  20.595  24.892  1.00  0.00     0.023 C 
ENDROOT
BRANCH   1   2
ATOM      2  C   UNL A   1      36.753  21.759  24.955  1.00  0.00     0.023 C 
BRANCH   2   3
ATOM      3  C   UNL A   1      35.344  21.379  25.421  1.00  0.00     0.116 C 
BRANCH   3   4
ATOM      4  N   UNL A   1      34.398  21.511  24.343  1.00  0.00    -0.351 N 
ATOM      5  C   UNL A   1      33.449  22.428  23.977  1.00  0.00     0.263 C 
ATOM      6  O   UNL A   1      32.856  22.060  22.952  1.00  0.00    -0.268 OA
ATOM      7  H   UNL A   1      34.444  20.755  23.715  1.00  0.00     0.163 HD
BRANCH   5   8
ATOM      8  C   UNL A   1      33.143  23.700  24.635  1.00  0.00     0.117 A 
ATOM      9  C   UNL A   1      32.583  24.194  25.816  1.00  0.00     0.069 A 
ATOM     10  N   UNL A   1      32.598  25.587  25.938  1.00  0.00    -0.224 NA
ATOM     11  C   UNL A   1      32.970  26.175  24.833  1.00  0.00     0.186 A 
ATOM     12  S   UNL A   1      33.524  25.088  23.639  1.00  0.00    -0.091 S 
BRANCH   9  13
ATOM     13  C   UNL A   1      31.927  23.507  26.979  1.00  0.00     0.034 C 
ATOM     14  C   UNL A   1      30.665  22.750  26.562  1.00  0.00     0.014 C 
ATOM     15  C   UNL A   1      32.880  22.558  27.719  1.00  0.00     0.014 C 
ENDBRANCH   9  13
BRANCH  11  16
ATOM     16  N   UNL A   1      32.957  27.517  24.649  1.00  0.00    -0.343 N 
ATOM     17  C   UNL A   1      32.071  28.153  23.676  1.00  0.00     0.150 C 
ATOM     18  C   UNL A   1      33.517  28.415  25.657  1.00  0.00     0.153 C 
ATOM     19  C   UNL A   1      30.968  28.923  24.430  1.00  0.00     0.135 C 
ATOM     20  C   UNL A   1      32.433  29.320  26.306  1.00  0.00     0.081 C 
ATOM     21  O   UNL A   1      31.543  29.896  25.321  1.00  0.00    -0.369 OA
ATOM     22  C   UNL A   1      30.063  29.668  23.459  1.00  0.00     0.040 C 
ATOM     23  C   UNL A   1      31.631  28.573  27.380  1.00  0.00     0.044 C 
ATOM     24  C   UNL A   1      33.129  30.519  26.968  1.00  0.00     0.044 C 
ENDBRANCH  11  16
ENDBRANCH   5   8
ENDBRANCH   3   4
ENDBRANCH   2   3
ENDBRANCH   1   2
BRANCH   1  25
ATOM     25  C   UNL A   1      38.965  20.775  25.779  1.00  0.00     0.116 C 
BRANCH  25  26
ATOM     26  N   UNL A   1      39.913  19.671  25.707  1.00  0.00    -0.352 N 
ATOM     27  C   UNL A   1      41.243  19.676  26.055  1.00  0.00     0.251 C 
ATOM     28  H   UNL A   1      39.557  18.816  25.368  1.00  0.00     0.163 HD
ATOM     29  O   UNL A   1      41.946  18.687  25.883  1.00  0.00    -0.269 OA
BRANCH  27  30
ATOM     30  C   UNL A   1      41.824  20.923  26.584  1.00  0.00     0.039 A 
ATOM     31  C   UNL A   1      42.303  21.875  25.681  1.00  0.00     0.014 A 
ATOM     32  C   UNL A   1      41.797  21.188  27.955  1.00  0.00     0.014 A 
ATOM     33  C   UNL A   1      42.676  23.134  26.150  1.00  0.00     0.010 A 
ATOM     34  C   UNL A   1      42.101  22.464  28.410  1.00  0.00     0.010 A 
ATOM     35  C   UNL A   1      42.532  23.451  27.511  1.00  0.00    -0.014 A 
BRANCH  35  36
ATOM     36  C   UNL A   1      42.811  24.816  28.014  1.00  0.00     0.031 A 
ATOM     37  C   UNL A   1      44.210  25.203  28.398  1.00  0.00     0.074 A 
ATOM     38  C   UNL A   1      41.793  25.678  28.201  1.00  0.00     0.049 A 
ATOM     39  N   UNL A   1      44.641  26.323  28.921  1.00  0.00    -0.248 NA
ATOM     40  C   UNL A   1      45.258  24.189  28.195  1.00  0.00     0.031 C 
ATOM     41  C   UNL A   1      40.382  25.403  27.919  1.00  0.00     0.029 A 
ATOM     42  N   UNL A   1      41.791  26.962  28.684  1.00  0.00    -0.354 N 
ATOM     43  C   UNL A   1      46.001  26.138  29.132  1.00  0.00     0.074 A 
ATOM     44  C   UNL A   1      46.316  24.786  28.722  1.00  0.00     0.031 C 
ATOM     45  C   UNL A   1      39.656  26.495  28.207  1.00  0.00     0.029 A 
ATOM     46  C   UNL A   1      40.542  27.533  28.722  1.00  0.00     0.049 A 
ATOM     47  H   UNL A   1      42.607  27.430  28.975  1.00  0.00     0.167 HD
ATOM     48  C   UNL A   1      46.912  27.020  29.606  1.00  0.00     0.031 A 
ATOM     49  C   UNL A   1      40.156  28.757  29.127  1.00  0.00     0.031 A 
ATOM     50  C   UNL A   1      46.606  28.370  29.989  1.00  0.00     0.049 A 
ATOM     51  C   UNL A   1      41.188  29.725  29.630  1.00  0.00     0.074 A 
ATOM     52  C   UNL A   1      47.472  29.362  30.416  1.00  0.00     0.029 A 
ATOM     53  N   UNL A   1      45.334  28.919  29.989  1.00  0.00    -0.354 N 
ATOM     54  N   UNL A   1      42.483  29.558  29.758  1.00  0.00    -0.248 NA
ATOM     55  C   UNL A   1      40.707  31.054  30.035  1.00  0.00     0.031 C 
ATOM     56  C   UNL A   1      46.715  30.504  30.707  1.00  0.00     0.029 A 
ATOM     57  C   UNL A   1      45.387  30.232  30.423  1.00  0.00     0.049 A 
ATOM     58  H   UNL A   1      44.514  28.446  29.720  1.00  0.00     0.167 HD
ATOM     59  C   UNL A   1      42.973  30.766  30.236  1.00  0.00     0.074 A 
ATOM     60  C   UNL A   1      41.840  31.660  30.362  1.00  0.00     0.031 C 
ATOM     61  C   UNL A   1      44.248  31.104  30.542  1.00  0.00     0.031 A 
BRANCH  48  62
ATOM     62  C   UNL A   1      48.328  26.539  29.733  1.00  0.00    -0.014 A 
ATOM     63  C   UNL A   1      48.771  25.889  30.896  1.00  0.00     0.009 A 
ATOM     64  C   UNL A   1      49.229  26.728  28.672  1.00  0.00     0.009 A 
ATOM     65  C   UNL A   1      50.097  25.470  31.009  1.00  0.00     0.001 A 
ATOM     66  C   UNL A   1      50.548  26.284  28.780  1.00  0.00     0.001 A 
ATOM     67  C   UNL A   1      50.984  25.665  29.951  1.00  0.00     0.000 A 
ENDBRANCH  48  62
BRANCH  49  68
ATOM     68  C   UNL A   1      38.727  29.150  29.047  1.00  0.00    -0.014 A 
ATOM     69  C   UNL A   1      38.212  29.702  27.865  1.00  0.00     0.009 A 
ATOM     70  C   UNL A   1      37.873  28.978  30.148  1.00  0.00     0.009 A 
ATOM     71  C   UNL A   1      36.874  30.098  27.794  1.00  0.00     0.001 A 
ATOM     72  C   UNL A   1      36.530  29.354  30.065  1.00  0.00     0.001 A 
ATOM     73  C   UNL A   1      36.035  29.920  28.892  1.00  0.00     0.000 A 
ENDBRANCH  49  68
BRANCH  61  74
ATOM     74  C   UNL A   1      44.487  32.508  31.018  1.00  0.00    -0.014 A 
ATOM     75  C   UNL A   1      44.465  32.823  32.384  1.00  0.00     0.009 A 
ATOM     76  C   UNL A   1      44.777  33.518  30.087  1.00  0.00     0.009 A 
ATOM     77  C   UNL A   1      44.704  34.131  32.809  1.00  0.00     0.001 A 
ATOM     78  C   UNL A   1      45.039  34.819  30.516  1.00  0.00     0.001 A 
ATOM     79  C   UNL A   1      44.994  35.126  31.875  1.00  0.00     0.000 A 
ENDBRANCH  61  74
ENDBRANCH  35  36
ENDBRANCH  27  30
ENDBRANCH  25  26
ENDBRANCH   1  25
TORSDOF 13
ENDMDL
