MODEL 1
REMARK VINA RESULT:     -10.7      0.000      0.000
REMARK SMILES CCOc1cc(/C=C(/F)C(=O)NCCCCNC(=O)c2ccc(-c3c4nc(c(-c5ccccc5)c5ccc([nH]5)c(-c5ccccc5)c5nc(c(-c6ccccc6)c6ccc3[nH]6)C=C5)C=C4)cc2)ccc1O
REMARK SMILES IDX 14 1 13 2 12 3 10 4 11 5 8 7 7 8 9 9 6 10 4 11 5 12 70 13
REMARK SMILES IDX 69 14 68 15 3 16 2 17 1 18 71 19 15 21 16 22 17 23 18 24
REMARK SMILES IDX 19 26 20 27 21 28 67 29 22 30 66 31 23 32 24 33 25 34 60 35
REMARK SMILES IDX 26 36 65 37 59 38 61 39 27 40 64 41 58 42 57 43 28 45 50 46
REMARK SMILES IDX 35 47 49 48 36 49 39 50 48 51 62 52 37 53 38 54 47 56 63 57
REMARK SMILES IDX 40 58 29 59 30 60 34 61 31 62 33 63 32 64 51 65 52 66 56 67
REMARK SMILES IDX 53 68 55 69 54 70 41 71 42 72 46 73 43 74 45 75 44 76
REMARK H PARENT 12 6 71 20 17 25 61 44 39 55
REMARK Flexibility Score: inf
ROOT
ATOM      1  C   UNL A   1      31.317  30.281  25.642  1.00  0.00     0.023 C 
ENDROOT
BRANCH   1   2
ATOM      2  C   UNL A   1      32.717  29.671  25.589  1.00  0.00     0.116 C 
BRANCH   2   3
ATOM      3  N   UNL A   1      33.272  29.623  24.247  1.00  0.00    -0.350 N 
ATOM      4  C   UNL A   1      33.353  28.635  23.309  1.00  0.00     0.280 C 
ATOM      5  O   UNL A   1      33.772  28.964  22.199  1.00  0.00    -0.267 OA
ATOM      6  H   UNL A   1      33.671  30.474  23.956  1.00  0.00     0.163 HD
BRANCH   4   7
ATOM      7  C   UNL A   1      32.941  27.236  23.622  1.00  0.00     0.188 C 
ATOM      8  C   UNL A   1      31.701  26.734  23.734  1.00  0.00     0.053 C 
ATOM      9  F   UNL A   1      33.951  26.376  23.879  1.00  0.00    -0.201 F 
BRANCH   8  10
ATOM     10  C   UNL A   1      30.362  27.320  23.555  1.00  0.00    -0.019 A 
ATOM     11  C   UNL A   1      28.788  28.912  22.596  1.00  0.00     0.161 A 
ATOM     12  C   UNL A   1      30.099  28.464  22.789  1.00  0.00     0.058 A 
ATOM     13  C   UNL A   1      27.722  28.178  23.116  1.00  0.00     0.157 A 
ATOM     14  C   UNL A   1      27.956  27.041  23.875  1.00  0.00     0.051 A 
ATOM     15  C   UNL A   1      29.270  26.611  24.087  1.00  0.00     0.012 A 
BRANCH  11  16
ATOM     16  O   UNL A   1      28.596  29.971  21.748  1.00  0.00    -0.490 OA
BRANCH  16  17
ATOM     17  C   UNL A   1      29.039  31.223  22.287  1.00  0.00     0.226 C 
ATOM     18  C   UNL A   1      28.011  31.644  23.326  1.00  0.00     0.049 C 
ENDBRANCH  16  17
ENDBRANCH  11  16
BRANCH  13  19
ATOM     19  O   UNL A   1      26.425  28.489  22.833  1.00  0.00    -0.504 OA
ATOM     20  H   UNL A   1      26.218  29.300  22.413  1.00  0.00     0.293 HD
ENDBRANCH  13  19
ENDBRANCH   8  10
ENDBRANCH   4   7
ENDBRANCH   2   3
ENDBRANCH   1   2
BRANCH   1  21
ATOM     21  C   UNL A   1      31.231  31.708  26.187  1.00  0.00     0.023 C 
BRANCH  21  22
ATOM     22  C   UNL A   1      32.455  32.212  26.943  1.00  0.00     0.116 C 
BRANCH  22  23
ATOM     23  N   UNL A   1      32.290  33.551  27.479  1.00  0.00    -0.352 N 
ATOM     24  C   UNL A   1      33.095  34.258  28.339  1.00  0.00     0.251 C 
ATOM     25  H   UNL A   1      31.478  34.024  27.182  1.00  0.00     0.163 HD
ATOM     26  O   UNL A   1      32.721  35.343  28.770  1.00  0.00    -0.269 OA
BRANCH  24  27
ATOM     27  C   UNL A   1      34.400  33.707  28.773  1.00  0.00     0.039 A 
ATOM     28  C   UNL A   1      34.436  32.903  29.916  1.00  0.00     0.014 A 
ATOM     29  C   UNL A   1      35.582  33.992  28.086  1.00  0.00     0.014 A 
ATOM     30  C   UNL A   1      35.646  32.352  30.342  1.00  0.00     0.010 A 
ATOM     31  C   UNL A   1      36.774  33.376  28.463  1.00  0.00     0.010 A 
ATOM     32  C   UNL A   1      36.823  32.562  29.605  1.00  0.00    -0.014 A 
BRANCH  32  33
ATOM     33  C   UNL A   1      38.110  31.956  30.035  1.00  0.00     0.031 A 
ATOM     34  C   UNL A   1      38.983  32.659  31.040  1.00  0.00     0.074 A 
ATOM     35  C   UNL A   1      38.511  30.786  29.501  1.00  0.00     0.049 A 
ATOM     36  N   UNL A   1      40.137  32.286  31.536  1.00  0.00    -0.248 NA
ATOM     37  C   UNL A   1      38.511  33.962  31.538  1.00  0.00     0.031 C 
ATOM     38  C   UNL A   1      37.780  30.020  28.489  1.00  0.00     0.029 A 
ATOM     39  N   UNL A   1      39.634  30.033  29.738  1.00  0.00    -0.354 N 
ATOM     40  C   UNL A   1      40.530  33.310  32.390  1.00  0.00     0.074 A 
ATOM     41  C   UNL A   1      39.524  34.346  32.299  1.00  0.00     0.031 C 
ATOM     42  C   UNL A   1      38.453  28.889  28.223  1.00  0.00     0.029 A 
ATOM     43  C   UNL A   1      39.680  28.868  29.011  1.00  0.00     0.049 A 
ATOM     44  H   UNL A   1      40.339  30.301  30.371  1.00  0.00     0.167 HD
ATOM     45  C   UNL A   1      41.617  33.377  33.196  1.00  0.00     0.031 A 
ATOM     46  C   UNL A   1      40.606  27.890  28.984  1.00  0.00     0.031 A 
ATOM     47  C   UNL A   1      42.619  32.348  33.290  1.00  0.00     0.049 A 
ATOM     48  C   UNL A   1      41.811  27.994  29.877  1.00  0.00     0.074 A 
ATOM     49  C   UNL A   1      43.733  32.301  34.110  1.00  0.00     0.029 A 
ATOM     50  N   UNL A   1      42.628  31.185  32.535  1.00  0.00    -0.354 N 
ATOM     51  N   UNL A   1      42.132  28.938  30.728  1.00  0.00    -0.248 NA
ATOM     52  C   UNL A   1      42.771  26.883  29.817  1.00  0.00     0.031 C 
ATOM     53  C   UNL A   1      44.449  31.137  33.810  1.00  0.00     0.029 A 
ATOM     54  C   UNL A   1      43.740  30.424  32.855  1.00  0.00     0.049 A 
ATOM     55  H   UNL A   1      41.946  30.937  31.871  1.00  0.00     0.167 HD
ATOM     56  C   UNL A   1      43.310  28.516  31.333  1.00  0.00     0.074 A 
ATOM     57  C   UNL A   1      43.635  27.227  30.762  1.00  0.00     0.031 C 
ATOM     58  C   UNL A   1      44.054  29.141  32.280  1.00  0.00     0.031 A 
BRANCH  45  59
ATOM     59  C   UNL A   1      41.782  34.616  34.035  1.00  0.00    -0.014 A 
ATOM     60  C   UNL A   1      42.456  35.746  33.544  1.00  0.00     0.009 A 
ATOM     61  C   UNL A   1      41.232  34.665  35.326  1.00  0.00     0.009 A 
ATOM     62  C   UNL A   1      42.612  36.882  34.342  1.00  0.00     0.001 A 
ATOM     63  C   UNL A   1      41.359  35.814  36.109  1.00  0.00     0.001 A 
ATOM     64  C   UNL A   1      42.058  36.917  35.621  1.00  0.00     0.000 A 
ENDBRANCH  45  59
BRANCH  46  65
ATOM     65  C   UNL A   1      40.420  26.710  28.097  1.00  0.00    -0.014 A 
ATOM     66  C   UNL A   1      39.739  25.571  28.556  1.00  0.00     0.009 A 
ATOM     67  C   UNL A   1      40.938  26.709  26.793  1.00  0.00     0.009 A 
ATOM     68  C   UNL A   1      39.612  24.445  27.740  1.00  0.00     0.001 A 
ATOM     69  C   UNL A   1      40.780  25.593  25.967  1.00  0.00     0.001 A 
ATOM     70  C   UNL A   1      40.128  24.458  26.445  1.00  0.00     0.000 A 
ENDBRANCH  46  65
BRANCH  58  71
ATOM     71  C   UNL A   1      45.262  28.409  32.798  1.00  0.00    -0.014 A 
ATOM     72  C   UNL A   1      46.529  28.568  32.212  1.00  0.00     0.009 A 
ATOM     73  C   UNL A   1      45.129  27.556  33.905  1.00  0.00     0.009 A 
ATOM     74  C   UNL A   1      47.625  27.849  32.695  1.00  0.00     0.001 A 
ATOM     75  C   UNL A   1      46.233  26.867  34.408  1.00  0.00     0.001 A 
ATOM     76  C   UNL A   1      47.476  27.003  33.795  1.00  0.00     0.000 A 
ENDBRANCH  58  71
ENDBRANCH  32  33
ENDBRANCH  24  27
ENDBRANCH  22  23
ENDBRANCH  21  22
ENDBRANCH   1  21
TORSDOF 15
ENDMDL
MODEL 2
REMARK VINA RESULT:     -10.7      4.013      6.836
REMARK SMILES CCOc1cc(/C=C(/F)C(=O)NCCCCNC(=O)c2ccc(-c3c4nc(c(-c5ccccc5)c5ccc([nH]5)c(-c5ccccc5)c5nc(c(-c6ccccc6)c6ccc3[nH]6)C=C5)C=C4)cc2)ccc1O
REMARK SMILES IDX 14 1 13 2 12 3 10 4 11 5 8 7 7 8 9 9 6 10 4 11 5 12 70 13
REMARK SMILES IDX 69 14 68 15 3 16 2 17 1 18 71 19 15 21 16 22 17 23 18 24
REMARK SMILES IDX 19 26 20 27 21 28 67 29 22 30 66 31 23 32 24 33 25 34 60 35
REMARK SMILES IDX 26 36 65 37 59 38 61 39 27 40 64 41 58 42 57 43 28 45 50 46
REMARK SMILES IDX 35 47 49 48 36 49 39 50 48 51 62 52 37 53 38 54 47 56 63 57
REMARK SMILES IDX 40 58 29 59 30 60 34 61 31 62 33 63 32 64 51 65 52 66 56 67
REMARK SMILES IDX 53 68 55 69 54 70 41 71 42 72 46 73 43 74 45 75 44 76
REMARK H PARENT 12 6 71 20 17 25 61 44 39 55
REMARK Flexibility Score: inf
ROOT
ATOM      1  C   UNL A   1      37.028  33.850  29.189  1.00  0.00     0.023 C 
ENDROOT
BRANCH   1   2
ATOM      2  C   UNL A   1      37.649  32.827  30.139  1.00  0.00     0.116 C 
BRANCH   2   3
ATOM      3  N   UNL A   1      38.009  33.387  31.431  1.00  0.00    -0.350 N 
ATOM      4  C   UNL A   1      37.425  33.333  32.663  1.00  0.00     0.280 C 
ATOM      5  O   UNL A   1      38.069  33.812  33.596  1.00  0.00    -0.267 OA
ATOM      6  H   UNL A   1      38.842  33.911  31.413  1.00  0.00     0.163 HD
BRANCH   4   7
ATOM      7  C   UNL A   1      36.081  32.715  32.855  1.00  0.00     0.188 C 
ATOM      8  C   UNL A   1      34.875  33.299  32.785  1.00  0.00     0.053 C 
ATOM      9  F   UNL A   1      36.085  31.409  33.199  1.00  0.00    -0.201 F 
BRANCH   8  10
ATOM     10  C   UNL A   1      34.441  34.670  32.463  1.00  0.00    -0.019 A 
ATOM     11  C   UNL A   1      33.221  36.322  31.155  1.00  0.00     0.161 A 
ATOM     12  C   UNL A   1      33.664  35.009  31.348  1.00  0.00     0.058 A 
ATOM     13  C   UNL A   1      33.497  37.294  32.117  1.00  0.00     0.157 A 
ATOM     14  C   UNL A   1      34.262  36.982  33.232  1.00  0.00     0.051 A 
ATOM     15  C   UNL A   1      34.725  35.675  33.407  1.00  0.00     0.012 A 
BRANCH  11  16
ATOM     16  O   UNL A   1      32.376  36.560  30.104  1.00  0.00    -0.490 OA
BRANCH  16  17
ATOM     17  C   UNL A   1      32.874  36.078  28.849  1.00  0.00     0.226 C 
ATOM     18  C   UNL A   1      34.029  36.986  28.456  1.00  0.00     0.049 C 
ENDBRANCH  16  17
ENDBRANCH  11  16
BRANCH  13  19
ATOM     19  O   UNL A   1      32.964  38.548  32.051  1.00  0.00    -0.504 OA
ATOM     20  H   UNL A   1      32.674  38.976  32.832  1.00  0.00     0.293 HD
ENDBRANCH  13  19
ENDBRANCH   8  10
ENDBRANCH   4   7
ENDBRANCH   2   3
ENDBRANCH   1   2
BRANCH   1  21
ATOM     21  C   UNL A   1      35.754  33.405  28.469  1.00  0.00     0.023 C 
BRANCH  21  22
ATOM     22  C   UNL A   1      34.769  32.584  29.294  1.00  0.00     0.116 C 
BRANCH  22  23
ATOM     23  N   UNL A   1      34.064  31.580  28.518  1.00  0.00    -0.352 N 
ATOM     24  C   UNL A   1      34.523  30.397  27.991  1.00  0.00     0.251 C 
ATOM     25  H   UNL A   1      33.115  31.776  28.344  1.00  0.00     0.163 HD
ATOM     26  O   UNL A   1      33.794  29.734  27.260  1.00  0.00    -0.269 OA
BRANCH  24  27
ATOM     27  C   UNL A   1      35.899  29.930  28.274  1.00  0.00     0.039 A 
ATOM     28  C   UNL A   1      36.867  30.065  27.274  1.00  0.00     0.014 A 
ATOM     29  C   UNL A   1      36.238  29.341  29.494  1.00  0.00     0.014 A 
ATOM     30  C   UNL A   1      38.179  29.653  27.515  1.00  0.00     0.010 A 
ATOM     31  C   UNL A   1      37.564  29.005  29.763  1.00  0.00     0.010 A 
ATOM     32  C   UNL A   1      38.547  29.143  28.771  1.00  0.00    -0.014 A 
BRANCH  32  33
ATOM     33  C   UNL A   1      39.947  28.727  29.044  1.00  0.00     0.031 A 
ATOM     34  C   UNL A   1      40.894  29.662  29.747  1.00  0.00     0.074 A 
ATOM     35  C   UNL A   1      40.378  27.518  28.635  1.00  0.00     0.049 A 
ATOM     36  N   UNL A   1      42.150  29.475  30.073  1.00  0.00    -0.248 NA
ATOM     37  C   UNL A   1      40.372  30.989  30.114  1.00  0.00     0.031 C 
ATOM     38  C   UNL A   1      39.575  26.532  27.908  1.00  0.00     0.029 A 
ATOM     39  N   UNL A   1      41.601  26.911  28.775  1.00  0.00    -0.354 N 
ATOM     40  C   UNL A   1      42.566  30.660  30.669  1.00  0.00     0.074 A 
ATOM     41  C   UNL A   1      41.451  31.579  30.605  1.00  0.00     0.031 C 
ATOM     42  C   UNL A   1      40.314  25.430  27.702  1.00  0.00     0.029 A 
ATOM     43  C   UNL A   1      41.652  25.645  28.243  1.00  0.00     0.049 A 
ATOM     44  H   UNL A   1      42.369  27.341  29.216  1.00  0.00     0.167 HD
ATOM     45  C   UNL A   1      43.760  30.953  31.238  1.00  0.00     0.031 A 
ATOM     46  C   UNL A   1      42.662  24.755  28.197  1.00  0.00     0.031 A 
ATOM     47  C   UNL A   1      44.870  30.040  31.305  1.00  0.00     0.049 A 
ATOM     48  C   UNL A   1      43.982  25.109  28.824  1.00  0.00     0.074 A 
ATOM     49  C   UNL A   1      46.106  30.226  31.901  1.00  0.00     0.029 A 
ATOM     50  N   UNL A   1      44.880  28.769  30.753  1.00  0.00    -0.354 N 
ATOM     51  N   UNL A   1      44.336  26.209  29.442  1.00  0.00    -0.248 NA
ATOM     52  C   UNL A   1      45.035  24.086  28.762  1.00  0.00     0.031 C 
ATOM     53  C   UNL A   1      46.884  29.089  31.659  1.00  0.00     0.029 A 
ATOM     54  C   UNL A   1      46.107  28.166  30.975  1.00  0.00     0.049 A 
ATOM     55  H   UNL A   1      44.127  28.354  30.273  1.00  0.00     0.167 HD
ATOM     56  C   UNL A   1      45.639  25.995  29.877  1.00  0.00     0.074 A 
ATOM     57  C   UNL A   1      46.003  24.657  29.464  1.00  0.00     0.031 C 
ATOM     58  C   UNL A   1      46.459  26.833  30.560  1.00  0.00     0.031 A 
BRANCH  45  59
ATOM     59  C   UNL A   1      43.927  32.328  31.828  1.00  0.00    -0.014 A 
ATOM     60  C   UNL A   1      44.400  33.402  31.056  1.00  0.00     0.009 A 
ATOM     61  C   UNL A   1      43.580  32.561  33.169  1.00  0.00     0.009 A 
ATOM     62  C   UNL A   1      44.561  34.667  31.623  1.00  0.00     0.001 A 
ATOM     63  C   UNL A   1      43.710  33.835  33.725  1.00  0.00     0.001 A 
ATOM     64  C   UNL A   1      44.211  34.884  32.956  1.00  0.00     0.000 A 
ENDBRANCH  45  59
BRANCH  46  65
ATOM     65  C   UNL A   1      42.460  23.427  27.556  1.00  0.00    -0.014 A 
ATOM     66  C   UNL A   1      42.752  23.240  26.195  1.00  0.00     0.009 A 
ATOM     67  C   UNL A   1      41.958  22.346  28.296  1.00  0.00     0.009 A 
ATOM     68  C   UNL A   1      42.512  22.007  25.583  1.00  0.00     0.001 A 
ATOM     69  C   UNL A   1      41.751  21.105  27.688  1.00  0.00     0.001 A 
ATOM     70  C   UNL A   1      42.016  20.940  26.330  1.00  0.00     0.000 A 
ENDBRANCH  46  65
BRANCH  58  71
ATOM     71  C   UNL A   1      47.810  26.301  30.953  1.00  0.00    -0.014 A 
ATOM     72  C   UNL A   1      48.909  26.359  30.079  1.00  0.00     0.009 A 
ATOM     73  C   UNL A   1      47.989  25.748  32.230  1.00  0.00     0.009 A 
ATOM     74  C   UNL A   1      50.143  25.827  30.461  1.00  0.00     0.001 A 
ATOM     75  C   UNL A   1      49.232  25.251  32.622  1.00  0.00     0.001 A 
ATOM     76  C   UNL A   1      50.304  25.277  31.733  1.00  0.00     0.000 A 
ENDBRANCH  58  71
ENDBRANCH  32  33
ENDBRANCH  24  27
ENDBRANCH  22  23
ENDBRANCH  21  22
ENDBRANCH   1  21
TORSDOF 15
ENDMDL
MODEL 3
REMARK VINA RESULT:     -10.7      4.037      9.127
REMARK SMILES CCOc1cc(/C=C(/F)C(=O)NCCCCNC(=O)c2ccc(-c3c4nc(c(-c5ccccc5)c5ccc([nH]5)c(-c5ccccc5)c5nc(c(-c6ccccc6)c6ccc3[nH]6)C=C5)C=C4)cc2)ccc1O
REMARK SMILES IDX 14 1 13 2 12 3 10 4 11 5 8 7 7 8 9 9 6 10 4 11 5 12 70 13
REMARK SMILES IDX 69 14 68 15 3 16 2 17 1 18 71 19 15 21 16 22 17 23 18 24
REMARK SMILES IDX 19 26 20 27 21 28 67 29 22 30 66 31 23 32 24 33 25 34 60 35
REMARK SMILES IDX 26 36 65 37 59 38 61 39 27 40 64 41 58 42 57 43 28 45 50 46
REMARK SMILES IDX 35 47 49 48 36 49 39 50 48 51 62 52 37 53 38 54 47 56 63 57
REMARK SMILES IDX 40 58 29 59 30 60 34 61 31 62 33 63 32 64 51 65 52 66 56 67
REMARK SMILES IDX 53 68 55 69 54 70 41 71 42 72 46 73 43 74 45 75 44 76
REMARK H PARENT 12 6 71 20 17 25 61 44 39 55
REMARK Flexibility Score: inf
ROOT
ATOM      1  C   UNL A   1      36.865  33.891  29.270  1.00  0.00     0.023 C 
ENDROOT
BRANCH   1   2
ATOM      2  C   UNL A   1      37.558  32.860  30.159  1.00  0.00     0.116 C 
BRANCH   2   3
ATOM      3  N   UNL A   1      37.949  33.389  31.455  1.00  0.00    -0.350 N 
ATOM      4  C   UNL A   1      37.393  33.310  32.698  1.00  0.00     0.280 C 
ATOM      5  O   UNL A   1      38.058  33.764  33.628  1.00  0.00    -0.267 OA
ATOM      6  H   UNL A   1      38.783  33.911  31.431  1.00  0.00     0.163 HD
BRANCH   4   7
ATOM      7  C   UNL A   1      36.050  32.692  32.906  1.00  0.00     0.188 C 
ATOM      8  C   UNL A   1      34.843  33.276  32.848  1.00  0.00     0.053 C 
ATOM      9  F   UNL A   1      36.058  31.386  33.252  1.00  0.00    -0.201 F 
BRANCH   8  10
ATOM     10  C   UNL A   1      34.406  34.646  32.529  1.00  0.00    -0.019 A 
ATOM     11  C   UNL A   1      33.228  36.305  31.190  1.00  0.00     0.161 A 
ATOM     12  C   UNL A   1      33.681  34.995  31.382  1.00  0.00     0.058 A 
ATOM     13  C   UNL A   1      33.443  37.263  32.181  1.00  0.00     0.157 A 
ATOM     14  C   UNL A   1      34.156  36.942  33.327  1.00  0.00     0.051 A 
ATOM     15  C   UNL A   1      34.629  35.638  33.502  1.00  0.00     0.012 A 
BRANCH  11  16
ATOM     16  O   UNL A   1      32.433  36.550  30.102  1.00  0.00    -0.490 OA
BRANCH  16  17
ATOM     17  C   UNL A   1      32.915  35.946  28.894  1.00  0.00     0.226 C 
ATOM     18  C   UNL A   1      34.028  36.840  28.370  1.00  0.00     0.049 C 
ENDBRANCH  16  17
ENDBRANCH  11  16
BRANCH  13  19
ATOM     19  O   UNL A   1      32.896  38.510  32.110  1.00  0.00    -0.504 OA
ATOM     20  H   UNL A   1      32.561  38.920  32.883  1.00  0.00     0.293 HD
ENDBRANCH  13  19
ENDBRANCH   8  10
ENDBRANCH   4   7
ENDBRANCH   2   3
ENDBRANCH   1   2
BRANCH   1  21
ATOM     21  C   UNL A   1      35.627  33.398  28.517  1.00  0.00     0.023 C 
BRANCH  21  22
ATOM     22  C   UNL A   1      34.691  32.479  29.294  1.00  0.00     0.116 C 
BRANCH  22  23
ATOM     23  N   UNL A   1      34.053  31.473  28.466  1.00  0.00    -0.352 N 
ATOM     24  C   UNL A   1      34.577  30.327  27.917  1.00  0.00     0.251 C 
ATOM     25  H   UNL A   1      33.102  31.635  28.268  1.00  0.00     0.163 HD
ATOM     26  O   UNL A   1      33.900  29.659  27.143  1.00  0.00    -0.269 OA
BRANCH  24  27
ATOM     27  C   UNL A   1      35.963  29.908  28.228  1.00  0.00     0.039 A 
ATOM     28  C   UNL A   1      36.946  30.077  27.249  1.00  0.00     0.014 A 
ATOM     29  C   UNL A   1      36.297  29.331  29.455  1.00  0.00     0.014 A 
ATOM     30  C   UNL A   1      38.266  29.711  27.517  1.00  0.00     0.010 A 
ATOM     31  C   UNL A   1      37.628  29.042  29.751  1.00  0.00     0.010 A 
ATOM     32  C   UNL A   1      38.625  29.214  28.780  1.00  0.00    -0.014 A 
BRANCH  32  33
ATOM     33  C   UNL A   1      40.033  28.848  29.083  1.00  0.00     0.031 A 
ATOM     34  C   UNL A   1      40.577  27.508  28.665  1.00  0.00     0.074 A 
ATOM     35  C   UNL A   1      40.818  29.708  29.760  1.00  0.00     0.049 A 
ATOM     36  N   UNL A   1      41.778  27.012  28.840  1.00  0.00    -0.248 NA
ATOM     37  C   UNL A   1      39.647  26.595  27.980  1.00  0.00     0.031 C 
ATOM     38  C   UNL A   1      40.404  31.022  30.258  1.00  0.00     0.029 A 
ATOM     39  N   UNL A   1      42.132  29.607  30.145  1.00  0.00    -0.354 N 
ATOM     40  C   UNL A   1      41.740  25.732  28.299  1.00  0.00     0.074 A 
ATOM     41  C   UNL A   1      40.386  25.504  27.846  1.00  0.00     0.031 C 
ATOM     42  C   UNL A   1      41.454  31.619  30.847  1.00  0.00     0.029 A 
ATOM     43  C   UNL A   1      42.600  30.718  30.805  1.00  0.00     0.049 A 
ATOM     44  H   UNL A   1      42.687  28.814  29.964  1.00  0.00     0.167 HD
ATOM     45  C   UNL A   1      42.745  24.832  28.170  1.00  0.00     0.031 A 
ATOM     46  C   UNL A   1      43.817  30.982  31.317  1.00  0.00     0.031 A 
ATOM     47  C   UNL A   1      44.094  25.057  28.618  1.00  0.00     0.049 A 
ATOM     48  C   UNL A   1      44.913  29.962  31.174  1.00  0.00     0.074 A 
ATOM     49  C   UNL A   1      45.195  24.227  28.492  1.00  0.00     0.029 A 
ATOM     50  N   UNL A   1      44.525  26.195  29.282  1.00  0.00    -0.354 N 
ATOM     51  N   UNL A   1      44.877  28.784  30.600  1.00  0.00    -0.248 NA
ATOM     52  C   UNL A   1      46.223  30.321  31.733  1.00  0.00     0.031 C 
ATOM     53  C   UNL A   1      46.279  24.837  29.131  1.00  0.00     0.029 A 
ATOM     54  C   UNL A   1      45.871  26.080  29.591  1.00  0.00     0.049 A 
ATOM     55  H   UNL A   1      43.960  26.970  29.502  1.00  0.00     0.167 HD
ATOM     56  C   UNL A   1      46.168  28.278  30.695  1.00  0.00     0.074 A 
ATOM     57  C   UNL A   1      46.963  29.285  31.366  1.00  0.00     0.031 C 
ATOM     58  C   UNL A   1      46.652  27.088  30.261  1.00  0.00     0.031 A 
BRANCH  45  59
ATOM     59  C   UNL A   1      42.416  23.514  27.522  1.00  0.00    -0.014 A 
ATOM     60  C   UNL A   1      41.892  22.445  28.268  1.00  0.00     0.009 A 
ATOM     61  C   UNL A   1      42.606  23.346  26.141  1.00  0.00     0.009 A 
ATOM     62  C   UNL A   1      41.605  21.224  27.653  1.00  0.00     0.001 A 
ATOM     63  C   UNL A   1      42.286  22.136  25.522  1.00  0.00     0.001 A 
ATOM     64  C   UNL A   1      41.797  21.073  26.279  1.00  0.00     0.000 A 
ENDBRANCH  45  59
BRANCH  46  65
ATOM     65  C   UNL A   1      44.076  32.281  31.995  1.00  0.00    -0.014 A 
ATOM     66  C   UNL A   1      43.862  32.423  33.375  1.00  0.00     0.009 A 
ATOM     67  C   UNL A   1      44.524  33.391  31.262  1.00  0.00     0.009 A 
ATOM     68  C   UNL A   1      44.056  33.658  33.999  1.00  0.00     0.001 A 
ATOM     69  C   UNL A   1      44.748  34.616  31.895  1.00  0.00     0.001 A 
ATOM     70  C   UNL A   1      44.503  34.752  33.260  1.00  0.00     0.000 A 
ENDBRANCH  46  65
BRANCH  58  71
ATOM     71  C   UNL A   1      48.123  26.835  30.449  1.00  0.00    -0.014 A 
ATOM     72  C   UNL A   1      48.620  26.184  31.590  1.00  0.00     0.009 A 
ATOM     73  C   UNL A   1      49.026  27.244  29.454  1.00  0.00     0.009 A 
ATOM     74  C   UNL A   1      49.995  25.993  31.751  1.00  0.00     0.001 A 
ATOM     75  C   UNL A   1      50.395  27.019  29.602  1.00  0.00     0.001 A 
ATOM     76  C   UNL A   1      50.880  26.407  30.755  1.00  0.00     0.000 A 
ENDBRANCH  58  71
ENDBRANCH  32  33
ENDBRANCH  24  27
ENDBRANCH  22  23
ENDBRANCH  21  22
ENDBRANCH   1  21
TORSDOF 15
ENDMDL
