MODEL 1
REMARK VINA RESULT:     -11.9      0.000      0.000
REMARK SMILES Cc1ccc(C(=O)N2CCC3(CCC(=O)N(CC(=O)NCCCCNC(=O)c4ccc(-c5c6nc(c(-c7ccccc7)c7ccc([nH]7)c(-c7ccccc7)c7nc(c(-c8ccccc8)c8ccc5[nH]8)C=C7)C=C6)cc4)C3)CC2)cc1O
REMARK SMILES IDX 22 1 21 2 20 3 18 4 19 5 17 7 16 8 6 9 7 10 8 11 9 12 78 13
REMARK SMILES IDX 10 14 77 15 11 16 12 17 76 18 13 19 14 20 15 21 5 22 1 23
REMARK SMILES IDX 2 24 3 25 80 26 4 27 79 28 81 29 23 31 24 32 25 33 26 34
REMARK SMILES IDX 27 36 28 37 29 38 75 39 30 40 74 41 31 42 32 43 33 44 68 45
REMARK SMILES IDX 34 46 73 47 67 48 69 49 35 50 72 51 66 52 65 53 36 55 58 56
REMARK SMILES IDX 43 57 57 58 44 59 47 60 56 61 70 62 45 63 46 64 55 66 71 67
REMARK SMILES IDX 48 68 37 69 38 70 42 71 39 72 41 73 40 74 59 75 60 76 64 77
REMARK SMILES IDX 61 78 63 79 62 80 49 81 50 82 54 83 51 84 53 85 52 86
REMARK H PARENT 20 6 81 30 25 35 69 54 47 65
REMARK Flexibility Score: inf
ROOT
ATOM      1  C   UNL A   1      34.936  31.022  28.027  1.00  0.00     0.023 C 
ENDROOT
BRANCH   1   2
ATOM      2  C   UNL A   1      34.668  29.752  27.225  1.00  0.00     0.116 C 
BRANCH   2   3
ATOM      3  N   UNL A   1      33.441  29.112  27.628  1.00  0.00    -0.355 N 
ATOM      4  C   UNL A   1      32.225  29.121  27.011  1.00  0.00     0.239 C 
ATOM      5  O   UNL A   1      31.383  28.316  27.421  1.00  0.00    -0.273 OA
ATOM      6  H   UNL A   1      33.488  28.596  28.465  1.00  0.00     0.163 HD
BRANCH   4   7
ATOM      7  C   UNL A   1      31.992  29.937  25.732  1.00  0.00     0.219 C 
BRANCH   7   8
ATOM      8  N   UNL A   1      31.872  29.226  24.453  1.00  0.00    -0.333 N 
ATOM      9  C   UNL A   1      33.292  22.966  24.642  1.00  0.00     0.253 C 
ATOM     10  O   UNL A   1      32.490  22.216  25.198  1.00  0.00    -0.269 OA
ATOM     11  N   UNL A   1      32.876  24.140  24.020  1.00  0.00    -0.339 N 
ATOM     12  C   UNL A   1      31.646  24.758  24.491  1.00  0.00     0.120 C 
ATOM     13  C   UNL A   1      33.422  24.701  22.790  1.00  0.00     0.120 C 
ATOM     14  C   UNL A   1      31.920  26.230  24.773  1.00  0.00     0.030 C 
ATOM     15  C   UNL A   1      33.675  26.205  22.934  1.00  0.00     0.030 C 
ATOM     16  C   UNL A   1      32.472  26.986  23.537  1.00  0.00    -0.008 C 
ATOM     17  C   UNL A   1      31.409  27.228  22.448  1.00  0.00     0.019 C 
ATOM     18  C   UNL A   1      32.956  28.376  23.981  1.00  0.00     0.127 C 
ATOM     19  C   UNL A   1      30.271  28.122  22.919  1.00  0.00     0.101 C 
ATOM     20  C   UNL A   1      30.656  29.300  23.796  1.00  0.00     0.223 C 
ATOM     21  O   UNL A   1      29.844  30.197  24.014  1.00  0.00    -0.275 OA
BRANCH   9  22
ATOM     22  C   UNL A   1      34.748  22.665  24.789  1.00  0.00     0.043 A 
ATOM     23  C   UNL A   1      38.816  21.605  25.828  1.00  0.00     0.048 C 
ATOM     24  C   UNL A   1      37.410  21.949  25.432  1.00  0.00    -0.009 A 
ATOM     25  C   UNL A   1      37.003  23.289  25.452  1.00  0.00     0.008 A 
ATOM     26  C   UNL A   1      36.464  20.977  25.089  1.00  0.00     0.119 A 
ATOM     27  C   UNL A   1      35.682  23.638  25.157  1.00  0.00     0.014 A 
ATOM     28  C   UNL A   1      35.154  21.326  24.757  1.00  0.00     0.060 A 
BRANCH  26  29
ATOM     29  O   UNL A   1      36.747  19.641  25.092  1.00  0.00    -0.508 OA
ATOM     30  H   UNL A   1      36.540  19.117  24.343  1.00  0.00     0.293 HD
ENDBRANCH  26  29
ENDBRANCH   9  22
ENDBRANCH   7   8
ENDBRANCH   4   7
ENDBRANCH   2   3
ENDBRANCH   1   2
BRANCH   1  31
ATOM     31  C   UNL A   1      33.791  32.036  28.013  1.00  0.00     0.023 C 
BRANCH  31  32
ATOM     32  C   UNL A   1      34.214  33.500  28.050  1.00  0.00     0.116 C 
BRANCH  32  33
ATOM     33  N   UNL A   1      33.605  34.245  29.142  1.00  0.00    -0.352 N 
ATOM     34  C   UNL A   1      33.979  34.298  30.463  1.00  0.00     0.251 C 
ATOM     35  H   UNL A   1      32.819  34.785  28.901  1.00  0.00     0.163 HD
ATOM     36  O   UNL A   1      33.279  34.890  31.279  1.00  0.00    -0.269 OA
BRANCH  34  37
ATOM     37  C   UNL A   1      35.208  33.604  30.903  1.00  0.00     0.039 A 
ATOM     38  C   UNL A   1      35.085  32.414  31.626  1.00  0.00     0.014 A 
ATOM     39  C   UNL A   1      36.471  34.106  30.580  1.00  0.00     0.014 A 
ATOM     40  C   UNL A   1      36.230  31.692  31.963  1.00  0.00     0.010 A 
ATOM     41  C   UNL A   1      37.605  33.349  30.853  1.00  0.00     0.010 A 
ATOM     42  C   UNL A   1      37.497  32.133  31.544  1.00  0.00    -0.014 A 
BRANCH  42  43
ATOM     43  C   UNL A   1      38.712  31.321  31.799  1.00  0.00     0.031 A 
ATOM     44  C   UNL A   1      39.604  31.627  32.968  1.00  0.00     0.074 A 
ATOM     45  C   UNL A   1      39.052  30.348  30.930  1.00  0.00     0.049 A 
ATOM     46  N   UNL A   1      40.722  31.048  33.327  1.00  0.00    -0.248 NA
ATOM     47  C   UNL A   1      39.204  32.750  33.831  1.00  0.00     0.031 C 
ATOM     48  C   UNL A   1      38.304  29.990  29.724  1.00  0.00     0.029 A 
ATOM     49  N   UNL A   1      40.122  29.489  30.926  1.00  0.00    -0.354 N 
ATOM     50  C   UNL A   1      41.168  31.746  34.441  1.00  0.00     0.074 A 
ATOM     51  C   UNL A   1      40.227  32.821  34.671  1.00  0.00     0.031 C 
ATOM     52  C   UNL A   1      38.925  28.972  29.109  1.00  0.00     0.029 A 
ATOM     53  C   UNL A   1      40.131  28.628  29.856  1.00  0.00     0.049 A 
ATOM     54  H   UNL A   1      40.817  29.490  31.623  1.00  0.00     0.167 HD
ATOM     55  C   UNL A   1      42.254  31.506  35.214  1.00  0.00     0.031 A 
ATOM     56  C   UNL A   1      41.012  27.671  29.509  1.00  0.00     0.031 A 
ATOM     57  C   UNL A   1      43.186  30.434  34.990  1.00  0.00     0.049 A 
ATOM     58  C   UNL A   1      42.205  27.416  30.386  1.00  0.00     0.074 A 
ATOM     59  C   UNL A   1      44.271  30.059  35.763  1.00  0.00     0.029 A 
ATOM     60  N   UNL A   1      43.150  29.570  33.905  1.00  0.00    -0.354 N 
ATOM     61  N   UNL A   1      42.561  28.023  31.492  1.00  0.00    -0.248 NA
ATOM     62  C   UNL A   1      43.110  26.336  29.973  1.00  0.00     0.031 C 
ATOM     63  C   UNL A   1      44.926  29.006  35.116  1.00  0.00     0.029 A 
ATOM     64  C   UNL A   1      44.214  28.685  33.971  1.00  0.00     0.049 A 
ATOM     65  H   UNL A   1      42.469  29.584  33.195  1.00  0.00     0.167 HD
ATOM     66  C   UNL A   1      43.719  27.387  31.918  1.00  0.00     0.074 A 
ATOM     67  C   UNL A   1      43.993  26.334  30.962  1.00  0.00     0.031 C 
ATOM     68  C   UNL A   1      44.484  27.651  33.005  1.00  0.00     0.031 A 
BRANCH  55  69
ATOM     69  C   UNL A   1      42.499  32.440  36.368  1.00  0.00    -0.014 A 
ATOM     70  C   UNL A   1      41.971  32.180  37.644  1.00  0.00     0.009 A 
ATOM     71  C   UNL A   1      43.287  33.586  36.182  1.00  0.00     0.009 A 
ATOM     72  C   UNL A   1      42.189  33.073  38.696  1.00  0.00     0.001 A 
ATOM     73  C   UNL A   1      43.530  34.461  37.243  1.00  0.00     0.001 A 
ATOM     74  C   UNL A   1      42.972  34.210  38.495  1.00  0.00     0.000 A 
ENDBRANCH  55  69
BRANCH  56  75
ATOM     75  C   UNL A   1      40.784  26.872  28.277  1.00  0.00    -0.014 A 
ATOM     76  C   UNL A   1      41.400  27.230  27.070  1.00  0.00     0.009 A 
ATOM     77  C   UNL A   1      39.964  25.732  28.310  1.00  0.00     0.009 A 
ATOM     78  C   UNL A   1      41.186  26.474  25.915  1.00  0.00     0.001 A 
ATOM     79  C   UNL A   1      39.773  24.963  27.161  1.00  0.00     0.001 A 
ATOM     80  C   UNL A   1      40.378  25.339  25.963  1.00  0.00     0.000 A 
ENDBRANCH  56  75
BRANCH  68  81
ATOM     81  C   UNL A   1      45.684  26.773  33.229  1.00  0.00    -0.014 A 
ATOM     82  C   UNL A   1      45.585  25.574  33.953  1.00  0.00     0.009 A 
ATOM     83  C   UNL A   1      46.921  27.132  32.673  1.00  0.00     0.009 A 
ATOM     84  C   UNL A   1      46.711  24.771  34.144  1.00  0.00     0.001 A 
ATOM     85  C   UNL A   1      48.038  26.312  32.841  1.00  0.00     0.001 A 
ATOM     86  C   UNL A   1      47.935  25.138  33.584  1.00  0.00     0.000 A 
ENDBRANCH  68  81
ENDBRANCH  42  43
ENDBRANCH  34  37
ENDBRANCH  32  33
ENDBRANCH  31  32
ENDBRANCH   1  31
TORSDOF 14
ENDMDL
MODEL 2
REMARK VINA RESULT:     -11.8      3.798      9.304
REMARK SMILES Cc1ccc(C(=O)N2CCC3(CCC(=O)N(CC(=O)NCCCCNC(=O)c4ccc(-c5c6nc(c(-c7ccccc7)c7ccc([nH]7)c(-c7ccccc7)c7nc(c(-c8ccccc8)c8ccc5[nH]8)C=C7)C=C6)cc4)C3)CC2)cc1O
REMARK SMILES IDX 22 1 21 2 20 3 18 4 19 5 17 7 16 8 6 9 7 10 8 11 9 12 78 13
REMARK SMILES IDX 10 14 77 15 11 16 12 17 76 18 13 19 14 20 15 21 5 22 1 23
REMARK SMILES IDX 2 24 3 25 80 26 4 27 79 28 81 29 23 31 24 32 25 33 26 34
REMARK SMILES IDX 27 36 28 37 29 38 75 39 30 40 74 41 31 42 32 43 33 44 68 45
REMARK SMILES IDX 34 46 73 47 67 48 69 49 35 50 72 51 66 52 65 53 36 55 58 56
REMARK SMILES IDX 43 57 57 58 44 59 47 60 56 61 70 62 45 63 46 64 55 66 71 67
REMARK SMILES IDX 48 68 37 69 38 70 42 71 39 72 41 73 40 74 59 75 60 76 64 77
REMARK SMILES IDX 61 78 63 79 62 80 49 81 50 82 54 83 51 84 53 85 52 86
REMARK H PARENT 20 6 81 30 25 35 69 54 47 65
REMARK Flexibility Score: inf
ROOT
ATOM      1  C   UNL A   1      39.669  22.654  26.506  1.00  0.00     0.023 C 
ENDROOT
BRANCH   1   2
ATOM      2  C   UNL A   1      38.266  23.234  26.354  1.00  0.00     0.116 C 
BRANCH   2   3
ATOM      3  N   UNL A   1      37.795  23.151  24.994  1.00  0.00    -0.355 N 
ATOM      4  C   UNL A   1      36.904  22.276  24.446  1.00  0.00     0.239 C 
ATOM      5  O   UNL A   1      36.483  22.540  23.316  1.00  0.00    -0.273 OA
ATOM      6  H   UNL A   1      38.168  23.820  24.376  1.00  0.00     0.163 HD
BRANCH   4   7
ATOM      7  C   UNL A   1      36.293  21.141  25.281  1.00  0.00     0.219 C 
BRANCH   7   8
ATOM      8  N   UNL A   1      34.854  21.173  25.569  1.00  0.00    -0.333 N 
ATOM      9  C   UNL A   1      31.926  26.754  24.338  1.00  0.00     0.253 C 
ATOM     10  O   UNL A   1      31.753  27.060  23.158  1.00  0.00    -0.269 OA
ATOM     11  N   UNL A   1      31.971  25.423  24.743  1.00  0.00    -0.339 N 
ATOM     12  C   UNL A   1      32.373  24.429  23.762  1.00  0.00     0.120 C 
ATOM     13  C   UNL A   1      31.437  24.887  25.991  1.00  0.00     0.120 C 
ATOM     14  C   UNL A   1      33.475  23.569  24.367  1.00  0.00     0.030 C 
ATOM     15  C   UNL A   1      32.443  23.944  26.659  1.00  0.00     0.030 C 
ATOM     16  C   UNL A   1      33.047  22.887  25.692  1.00  0.00    -0.008 C 
ATOM     17  C   UNL A   1      32.043  21.736  25.486  1.00  0.00     0.019 C 
ATOM     18  C   UNL A   1      34.286  22.262  26.352  1.00  0.00     0.127 C 
ATOM     19  C   UNL A   1      32.620  20.583  24.677  1.00  0.00     0.101 C 
ATOM     20  C   UNL A   1      34.063  20.211  24.965  1.00  0.00     0.223 C 
ATOM     21  O   UNL A   1      34.524  19.154  24.540  1.00  0.00    -0.275 OA
BRANCH   9  22
ATOM     22  C   UNL A   1      32.247  27.849  25.303  1.00  0.00     0.043 A 
ATOM     23  C   UNL A   1      33.505  31.297  27.601  1.00  0.00     0.048 C 
ATOM     24  C   UNL A   1      33.029  30.109  26.818  1.00  0.00    -0.009 A 
ATOM     25  C   UNL A   1      33.708  28.891  26.944  1.00  0.00     0.008 A 
ATOM     26  C   UNL A   1      31.957  30.177  25.921  1.00  0.00     0.119 A 
ATOM     27  C   UNL A   1      33.335  27.782  26.177  1.00  0.00     0.014 A 
ATOM     28  C   UNL A   1      31.558  29.062  25.182  1.00  0.00     0.060 A 
BRANCH  26  29
ATOM     29  O   UNL A   1      31.266  31.331  25.686  1.00  0.00    -0.508 OA
ATOM     30  H   UNL A   1      30.433  31.468  26.094  1.00  0.00     0.293 HD
ENDBRANCH  26  29
ENDBRANCH   9  22
ENDBRANCH   7   8
ENDBRANCH   4   7
ENDBRANCH   2   3
ENDBRANCH   1   2
BRANCH   1  31
ATOM     31  C   UNL A   1      39.789  21.175  26.134  1.00  0.00     0.023 C 
BRANCH  31  32
ATOM     32  C   UNL A   1      40.861  20.397  26.888  1.00  0.00     0.116 C 
BRANCH  32  33
ATOM     33  N   UNL A   1      41.912  19.882  26.021  1.00  0.00    -0.352 N 
ATOM     34  C   UNL A   1      43.034  20.523  25.554  1.00  0.00     0.251 C 
ATOM     35  H   UNL A   1      41.804  18.949  25.731  1.00  0.00     0.163 HD
ATOM     36  O   UNL A   1      43.761  19.974  24.732  1.00  0.00    -0.269 OA
BRANCH  34  37
ATOM     37  C   UNL A   1      43.339  21.894  26.016  1.00  0.00     0.039 A 
ATOM     38  C   UNL A   1      43.226  22.949  25.108  1.00  0.00     0.014 A 
ATOM     39  C   UNL A   1      43.704  22.139  27.342  1.00  0.00     0.014 A 
ATOM     40  C   UNL A   1      43.410  24.260  25.549  1.00  0.00     0.010 A 
ATOM     41  C   UNL A   1      43.816  23.449  27.796  1.00  0.00     0.010 A 
ATOM     42  C   UNL A   1      43.667  24.523  26.905  1.00  0.00    -0.014 A 
BRANCH  42  43
ATOM     43  C   UNL A   1      43.758  25.916  27.410  1.00  0.00     0.031 A 
ATOM     44  C   UNL A   1      45.094  26.577  27.593  1.00  0.00     0.074 A 
ATOM     45  C   UNL A   1      42.632  26.562  27.774  1.00  0.00     0.049 A 
ATOM     46  N   UNL A   1      45.367  27.771  28.053  1.00  0.00    -0.248 NA
ATOM     47  C   UNL A   1      46.281  25.782  27.241  1.00  0.00     0.031 C 
ATOM     48  C   UNL A   1      41.278  26.010  27.703  1.00  0.00     0.029 A 
ATOM     49  N   UNL A   1      42.452  27.822  28.286  1.00  0.00    -0.354 N 
ATOM     50  C   UNL A   1      46.753  27.864  28.065  1.00  0.00     0.074 A 
ATOM     51  C   UNL A   1      47.265  26.589  27.612  1.00  0.00     0.031 C 
ATOM     52  C   UNL A   1      40.405  26.935  28.132  1.00  0.00     0.029 A 
ATOM     53  C   UNL A   1      41.138  28.128  28.542  1.00  0.00     0.049 A 
ATOM     54  H   UNL A   1      43.194  28.446  28.455  1.00  0.00     0.167 HD
ATOM     55  C   UNL A   1      47.530  28.919  28.407  1.00  0.00     0.031 A 
ATOM     56  C   UNL A   1      40.582  29.243  29.053  1.00  0.00     0.031 A 
ATOM     57  C   UNL A   1      47.021  30.189  28.851  1.00  0.00     0.049 A 
ATOM     58  C   UNL A   1      41.463  30.404  29.417  1.00  0.00     0.074 A 
ATOM     59  C   UNL A   1      47.724  31.345  29.143  1.00  0.00     0.029 A 
ATOM     60  N   UNL A   1      45.681  30.467  29.079  1.00  0.00    -0.354 N 
ATOM     61  N   UNL A   1      42.766  30.510  29.331  1.00  0.00    -0.248 NA
ATOM     62  C   UNL A   1      40.793  31.604  29.937  1.00  0.00     0.031 C 
ATOM     63  C   UNL A   1      46.815  32.304  29.603  1.00  0.00     0.029 A 
ATOM     64  C   UNL A   1      45.540  31.765  29.540  1.00  0.00     0.049 A 
ATOM     65  H   UNL A   1      44.941  29.834  28.933  1.00  0.00     0.167 HD
ATOM     66  C   UNL A   1      43.072  31.792  29.766  1.00  0.00     0.074 A 
ATOM     67  C   UNL A   1      41.815  32.433  30.095  1.00  0.00     0.031 C 
ATOM     68  C   UNL A   1      44.285  32.386  29.879  1.00  0.00     0.031 A 
BRANCH  55  69
ATOM     69  C   UNL A   1      49.021  28.732  28.329  1.00  0.00    -0.014 A 
ATOM     70  C   UNL A   1      49.733  29.019  27.153  1.00  0.00     0.009 A 
ATOM     71  C   UNL A   1      49.726  28.280  29.454  1.00  0.00     0.009 A 
ATOM     72  C   UNL A   1      51.114  28.814  27.094  1.00  0.00     0.001 A 
ATOM     73  C   UNL A   1      51.110  28.105  29.403  1.00  0.00     0.001 A 
ATOM     74  C   UNL A   1      51.801  28.361  28.220  1.00  0.00     0.000 A 
ENDBRANCH  55  69
BRANCH  56  75
ATOM     75  C   UNL A   1      39.108  29.314  29.234  1.00  0.00    -0.014 A 
ATOM     76  C   UNL A   1      38.528  29.022  30.476  1.00  0.00     0.009 A 
ATOM     77  C   UNL A   1      38.279  29.695  28.167  1.00  0.00     0.009 A 
ATOM     78  C   UNL A   1      37.142  29.094  30.643  1.00  0.00     0.001 A 
ATOM     79  C   UNL A   1      36.897  29.792  28.345  1.00  0.00     0.001 A 
ATOM     80  C   UNL A   1      36.330  29.485  29.580  1.00  0.00     0.000 A 
ENDBRANCH  56  75
BRANCH  68  81
ATOM     81  C   UNL A   1      44.310  33.808  30.364  1.00  0.00    -0.014 A 
ATOM     82  C   UNL A   1      44.456  34.111  31.728  1.00  0.00     0.009 A 
ATOM     83  C   UNL A   1      44.224  34.860  29.439  1.00  0.00     0.009 A 
ATOM     84  C   UNL A   1      44.481  35.440  32.156  1.00  0.00     0.001 A 
ATOM     85  C   UNL A   1      44.280  36.187  29.868  1.00  0.00     0.001 A 
ATOM     86  C   UNL A   1      44.398  36.476  31.226  1.00  0.00     0.000 A 
ENDBRANCH  68  81
ENDBRANCH  42  43
ENDBRANCH  34  37
ENDBRANCH  32  33
ENDBRANCH  31  32
ENDBRANCH   1  31
TORSDOF 14
ENDMDL
MODEL 3
REMARK VINA RESULT:     -11.8      1.548      5.988
REMARK SMILES Cc1ccc(C(=O)N2CCC3(CCC(=O)N(CC(=O)NCCCCNC(=O)c4ccc(-c5c6nc(c(-c7ccccc7)c7ccc([nH]7)c(-c7ccccc7)c7nc(c(-c8ccccc8)c8ccc5[nH]8)C=C7)C=C6)cc4)C3)CC2)cc1O
REMARK SMILES IDX 22 1 21 2 20 3 18 4 19 5 17 7 16 8 6 9 7 10 8 11 9 12 78 13
REMARK SMILES IDX 10 14 77 15 11 16 12 17 76 18 13 19 14 20 15 21 5 22 1 23
REMARK SMILES IDX 2 24 3 25 80 26 4 27 79 28 81 29 23 31 24 32 25 33 26 34
REMARK SMILES IDX 27 36 28 37 29 38 75 39 30 40 74 41 31 42 32 43 33 44 68 45
REMARK SMILES IDX 34 46 73 47 67 48 69 49 35 50 72 51 66 52 65 53 36 55 58 56
REMARK SMILES IDX 43 57 57 58 44 59 47 60 56 61 70 62 45 63 46 64 55 66 71 67
REMARK SMILES IDX 48 68 37 69 38 70 42 71 39 72 41 73 40 74 59 75 60 76 64 77
REMARK SMILES IDX 61 78 63 79 62 80 49 81 50 82 54 83 51 84 53 85 52 86
REMARK H PARENT 20 6 81 30 25 35 69 54 47 65
REMARK Flexibility Score: inf
ROOT
ATOM      1  C   UNL A   1      34.551  31.130  28.017  1.00  0.00     0.023 C 
ENDROOT
BRANCH   1   2
ATOM      2  C   UNL A   1      34.416  29.822  27.244  1.00  0.00     0.116 C 
BRANCH   2   3
ATOM      3  N   UNL A   1      33.238  29.087  27.633  1.00  0.00    -0.355 N 
ATOM      4  C   UNL A   1      32.038  28.989  26.995  1.00  0.00     0.239 C 
ATOM      5  O   UNL A   1      31.257  28.123  27.399  1.00  0.00    -0.273 OA
ATOM      6  H   UNL A   1      33.312  28.586  28.477  1.00  0.00     0.163 HD
BRANCH   4   7
ATOM      7  C   UNL A   1      31.763  29.769  25.701  1.00  0.00     0.219 C 
BRANCH   7   8
ATOM      8  N   UNL A   1      31.778  29.046  24.423  1.00  0.00    -0.333 N 
ATOM      9  C   UNL A   1      33.778  22.952  24.738  1.00  0.00     0.253 C 
ATOM     10  O   UNL A   1      33.024  22.130  25.258  1.00  0.00    -0.269 OA
ATOM     11  N   UNL A   1      33.284  24.078  24.086  1.00  0.00    -0.339 N 
ATOM     12  C   UNL A   1      31.979  24.577  24.488  1.00  0.00     0.120 C 
ATOM     13  C   UNL A   1      33.838  24.684  22.880  1.00  0.00     0.120 C 
ATOM     14  C   UNL A   1      32.096  26.069  24.771  1.00  0.00     0.030 C 
ATOM     15  C   UNL A   1      33.937  26.206  23.025  1.00  0.00     0.030 C 
ATOM     16  C   UNL A   1      32.636  26.870  23.559  1.00  0.00    -0.008 C 
ATOM     17  C   UNL A   1      31.613  27.005  22.415  1.00  0.00     0.019 C 
ATOM     18  C   UNL A   1      32.961  28.302  24.015  1.00  0.00     0.127 C 
ATOM     19  C   UNL A   1      30.372  27.789  22.819  1.00  0.00     0.101 C 
ATOM     20  C   UNL A   1      30.596  29.000  23.705  1.00  0.00     0.223 C 
ATOM     21  O   UNL A   1      29.692  29.816  23.874  1.00  0.00    -0.275 OA
BRANCH   9  22
ATOM     22  C   UNL A   1      35.247  22.792  24.962  1.00  0.00     0.043 A 
ATOM     23  C   UNL A   1      39.334  22.004  26.157  1.00  0.00     0.048 C 
ATOM     24  C   UNL A   1      37.926  22.262  25.704  1.00  0.00    -0.009 A 
ATOM     25  C   UNL A   1      37.349  23.514  25.948  1.00  0.00     0.008 A 
ATOM     26  C   UNL A   1      37.141  21.282  25.088  1.00  0.00     0.119 A 
ATOM     27  C   UNL A   1      36.018  23.766  25.601  1.00  0.00     0.014 A 
ATOM     28  C   UNL A   1      35.824  21.542  24.706  1.00  0.00     0.060 A 
BRANCH  26  29
ATOM     29  O   UNL A   1      37.593  20.014  24.856  1.00  0.00    -0.508 OA
ATOM     30  H   UNL A   1      37.911  19.493  25.567  1.00  0.00     0.293 HD
ENDBRANCH  26  29
ENDBRANCH   9  22
ENDBRANCH   7   8
ENDBRANCH   4   7
ENDBRANCH   2   3
ENDBRANCH   1   2
BRANCH   1  31
ATOM     31  C   UNL A   1      33.979  32.354  27.300  1.00  0.00     0.023 C 
BRANCH  31  32
ATOM     32  C   UNL A   1      32.560  32.741  27.700  1.00  0.00     0.116 C 
BRANCH  32  33
ATOM     33  N   UNL A   1      32.378  34.178  27.846  1.00  0.00    -0.352 N 
ATOM     34  C   UNL A   1      33.079  35.060  28.632  1.00  0.00     0.251 C 
ATOM     35  H   UNL A   1      31.655  34.571  27.308  1.00  0.00     0.163 HD
ATOM     36  O   UNL A   1      32.715  36.228  28.725  1.00  0.00    -0.269 OA
BRANCH  34  37
ATOM     37  C   UNL A   1      34.250  34.584  29.398  1.00  0.00     0.039 A 
ATOM     38  C   UNL A   1      34.038  33.947  30.623  1.00  0.00     0.014 A 
ATOM     39  C   UNL A   1      35.546  34.738  28.898  1.00  0.00     0.014 A 
ATOM     40  C   UNL A   1      35.121  33.401  31.313  1.00  0.00     0.010 A 
ATOM     41  C   UNL A   1      36.614  34.131  29.549  1.00  0.00     0.010 A 
ATOM     42  C   UNL A   1      36.413  33.454  30.761  1.00  0.00    -0.014 A 
BRANCH  42  43
ATOM     43  C   UNL A   1      37.556  32.783  31.429  1.00  0.00     0.031 A 
ATOM     44  C   UNL A   1      38.198  31.573  30.812  1.00  0.00     0.074 A 
ATOM     45  C   UNL A   1      37.971  33.224  32.633  1.00  0.00     0.049 A 
ATOM     46  N   UNL A   1      39.181  30.839  31.267  1.00  0.00    -0.248 NA
ATOM     47  C   UNL A   1      37.643  31.108  29.531  1.00  0.00     0.031 C 
ATOM     48  C   UNL A   1      37.393  34.351  33.367  1.00  0.00     0.029 A 
ATOM     49  N   UNL A   1      38.971  32.768  33.455  1.00  0.00    -0.354 N 
ATOM     50  C   UNL A   1      39.349  29.817  30.342  1.00  0.00     0.074 A 
ATOM     51  C   UNL A   1      38.337  29.998  29.324  1.00  0.00     0.031 C 
ATOM     52  C   UNL A   1      38.063  34.513  34.519  1.00  0.00     0.029 A 
ATOM     53  C   UNL A   1      39.090  33.483  34.622  1.00  0.00     0.049 A 
ATOM     54  H   UNL A   1      39.546  32.002  33.231  1.00  0.00     0.167 HD
ATOM     55  C   UNL A   1      40.273  28.827  30.329  1.00  0.00     0.031 A 
ATOM     56  C   UNL A   1      39.930  33.325  35.662  1.00  0.00     0.031 A 
ATOM     57  C   UNL A   1      41.285  28.651  31.336  1.00  0.00     0.049 A 
ATOM     58  C   UNL A   1      40.953  32.226  35.623  1.00  0.00     0.074 A 
ATOM     59  C   UNL A   1      42.315  27.728  31.371  1.00  0.00     0.029 A 
ATOM     60  N   UNL A   1      41.386  29.408  32.494  1.00  0.00    -0.354 N 
ATOM     61  N   UNL A   1      41.162  31.326  34.693  1.00  0.00    -0.248 NA
ATOM     62  C   UNL A   1      41.863  32.128  36.772  1.00  0.00     0.031 C 
ATOM     63  C   UNL A   1      43.005  27.888  32.578  1.00  0.00     0.029 A 
ATOM     64  C   UNL A   1      42.441  28.950  33.267  1.00  0.00     0.049 A 
ATOM     65  H   UNL A   1      40.796  30.159  32.731  1.00  0.00     0.167 HD
ATOM     66  C   UNL A   1      42.238  30.568  35.134  1.00  0.00     0.074 A 
ATOM     67  C   UNL A   1      42.651  31.128  36.404  1.00  0.00     0.031 C 
ATOM     68  C   UNL A   1      42.833  29.506  34.537  1.00  0.00     0.031 A 
BRANCH  55  69
ATOM     69  C   UNL A   1      40.216  27.844  29.192  1.00  0.00    -0.014 A 
ATOM     70  C   UNL A   1      39.489  26.646  29.297  1.00  0.00     0.009 A 
ATOM     71  C   UNL A   1      40.881  28.128  27.990  1.00  0.00     0.009 A 
ATOM     72  C   UNL A   1      39.470  25.734  28.238  1.00  0.00     0.001 A 
ATOM     73  C   UNL A   1      40.835  27.230  26.922  1.00  0.00     0.001 A 
ATOM     74  C   UNL A   1      40.139  26.029  27.051  1.00  0.00     0.000 A 
ENDBRANCH  55  69
BRANCH  56  75
ATOM     75  C   UNL A   1      39.846  34.250  36.823  1.00  0.00    -0.014 A 
ATOM     76  C   UNL A   1      40.521  35.478  36.806  1.00  0.00     0.009 A 
ATOM     77  C   UNL A   1      39.070  33.915  37.945  1.00  0.00     0.009 A 
ATOM     78  C   UNL A   1      40.436  36.347  37.898  1.00  0.00     0.001 A 
ATOM     79  C   UNL A   1      38.966  34.797  39.022  1.00  0.00     0.001 A 
ATOM     80  C   UNL A   1      39.654  36.008  39.000  1.00  0.00     0.000 A 
ENDBRANCH  56  75
BRANCH  68  81
ATOM     81  C   UNL A   1      44.006  28.889  35.245  1.00  0.00    -0.014 A 
ATOM     82  C   UNL A   1      45.311  29.372  35.051  1.00  0.00     0.009 A 
ATOM     83  C   UNL A   1      43.798  27.836  36.148  1.00  0.00     0.009 A 
ATOM     84  C   UNL A   1      46.387  28.788  35.724  1.00  0.00     0.001 A 
ATOM     85  C   UNL A   1      44.872  27.274  36.842  1.00  0.00     0.001 A 
ATOM     86  C   UNL A   1      46.165  27.743  36.621  1.00  0.00     0.000 A 
ENDBRANCH  68  81
ENDBRANCH  42  43
ENDBRANCH  34  37
ENDBRANCH  32  33
ENDBRANCH  31  32
ENDBRANCH   1  31
TORSDOF 14
ENDMDL
