MODEL 1
REMARK VINA RESULT:     -11.0      0.000      0.000
REMARK SMILES COC(=O)c1ccccc1-c1ccc(/C=C(\C#N)C(=O)NCCCCNC(=O)c2ccc(-c3c4nc(c(-c5ccccc5)c5ccc([nH]5)c(-c5ccccc5)c5nc(c(-c6ccccc6)c6ccc3[nH]6)C=C5)C=C4)cc2)o1
REMARK SMILES IDX 22 1 21 2 19 3 20 4 16 6 15 7 14 8 11 9 12 10 77 11 13 12
REMARK SMILES IDX 10 13 5 14 6 15 7 16 9 17 8 18 3 19 4 20 2 21 1 22 17 23
REMARK SMILES IDX 18 24 23 25 24 26 25 27 26 28 27 29 28 31 29 32 30 33 76 34
REMARK SMILES IDX 31 35 75 36 32 37 33 38 34 39 69 40 35 41 74 42 68 43 70 44
REMARK SMILES IDX 36 45 73 46 67 47 66 48 37 50 59 51 44 52 58 53 45 54 48 55
REMARK SMILES IDX 57 56 71 57 46 58 47 59 56 61 72 62 49 63 38 64 39 65 43 66
REMARK SMILES IDX 40 67 42 68 41 69 60 70 61 71 65 72 62 73 64 74 63 75 50 76
REMARK SMILES IDX 51 77 55 78 52 79 54 80 53 81
REMARK H PARENT 21 5 26 30 70 49 48 60
REMARK Flexibility Score: inf
ROOT
ATOM      1  C   UNL A   1      36.052  21.820  25.655  1.00  0.00     0.116 C 
ENDROOT
BRANCH   1   2
ATOM      2  N   UNL A   1      35.064  20.762  25.759  1.00  0.00    -0.351 N 
ATOM      3  C   UNL A   1      33.709  20.751  25.636  1.00  0.00     0.262 C 
ATOM      4  O   UNL A   1      33.159  19.653  25.778  1.00  0.00    -0.268 OA
ATOM      5  H   UNL A   1      35.449  19.879  25.960  1.00  0.00     0.163 HD
BRANCH   3   6
ATOM      6  C   UNL A   1      32.893  21.968  25.329  1.00  0.00     0.120 C 
ATOM      7  C   UNL A   1      32.433  22.663  26.391  1.00  0.00     0.072 C 
BRANCH   7   8
ATOM      8  C   UNL A   1      31.626  23.834  26.314  1.00  0.00     0.129 A 
ATOM      9  C   UNL A   1      31.060  25.982  26.143  1.00  0.00     0.135 A 
ATOM     10  C   UNL A   1      29.885  25.297  26.346  1.00  0.00     0.051 A 
ATOM     11  O   UNL A   1      32.100  25.107  26.094  1.00  0.00    -0.457 OA
ATOM     12  C   UNL A   1      30.245  23.932  26.455  1.00  0.00     0.051 A 
BRANCH   9  13
ATOM     13  C   UNL A   1      31.407  27.390  26.027  1.00  0.00     0.032 A 
ATOM     14  C   UNL A   1      31.524  28.038  24.783  1.00  0.00     0.071 A 
ATOM     15  C   UNL A   1      31.963  29.369  24.711  1.00  0.00     0.016 A 
ATOM     16  C   UNL A   1      32.258  30.073  25.877  1.00  0.00     0.001 A 
ATOM     17  C   UNL A   1      31.690  28.122  27.191  1.00  0.00     0.013 A 
ATOM     18  C   UNL A   1      32.113  29.453  27.116  1.00  0.00     0.001 A 
BRANCH  14  19
ATOM     19  C   UNL A   1      31.210  27.368  23.503  1.00  0.00     0.338 C 
ATOM     20  O   UNL A   1      30.074  27.233  23.071  1.00  0.00    -0.246 OA
BRANCH  19  21
ATOM     21  O   UNL A   1      32.347  26.894  22.943  1.00  0.00    -0.465 OA
ATOM     22  C   UNL A   1      32.156  26.219  21.700  1.00  0.00     0.282 C 
ENDBRANCH  19  21
ENDBRANCH  14  19
ENDBRANCH   9  13
ENDBRANCH   7   8
BRANCH   6  23
ATOM     23  C   UNL A   1      32.558  22.376  23.903  1.00  0.00     0.105 C 
ATOM     24  N   UNL A   1      32.281  22.714  22.721  1.00  0.00    -0.192 NA
ENDBRANCH   6  23
ENDBRANCH   3   6
ENDBRANCH   1   2
BRANCH   1  25
ATOM     25  C   UNL A   1      37.116  21.485  24.607  1.00  0.00     0.023 C 
BRANCH  25  26
ATOM     26  C   UNL A   1      37.924  20.219  24.921  1.00  0.00     0.023 C 
BRANCH  26  27
ATOM     27  C   UNL A   1      39.055  20.410  25.927  1.00  0.00     0.116 C 
BRANCH  27  28
ATOM     28  N   UNL A   1      40.111  19.416  25.818  1.00  0.00    -0.352 N 
ATOM     29  C   UNL A   1      41.450  19.573  26.086  1.00  0.00     0.251 C 
ATOM     30  H   UNL A   1      39.833  18.521  25.514  1.00  0.00     0.163 HD
ATOM     31  O   UNL A   1      42.249  18.670  25.863  1.00  0.00    -0.269 OA
BRANCH  29  32
ATOM     32  C   UNL A   1      41.926  20.871  26.604  1.00  0.00     0.039 A 
ATOM     33  C   UNL A   1      42.359  21.838  25.694  1.00  0.00     0.014 A 
ATOM     34  C   UNL A   1      41.893  21.147  27.973  1.00  0.00     0.014 A 
ATOM     35  C   UNL A   1      42.692  23.112  26.152  1.00  0.00     0.010 A 
ATOM     36  C   UNL A   1      42.167  22.435  28.421  1.00  0.00     0.010 A 
ATOM     37  C   UNL A   1      42.561  23.431  27.514  1.00  0.00    -0.014 A 
BRANCH  37  38
ATOM     38  C   UNL A   1      42.820  24.805  28.008  1.00  0.00     0.031 A 
ATOM     39  C   UNL A   1      44.209  25.214  28.406  1.00  0.00     0.074 A 
ATOM     40  C   UNL A   1      41.791  25.661  28.162  1.00  0.00     0.049 A 
ATOM     41  N   UNL A   1      44.620  26.346  28.919  1.00  0.00    -0.248 NA
ATOM     42  C   UNL A   1      45.273  24.212  28.227  1.00  0.00     0.031 C 
ATOM     43  C   UNL A   1      40.390  25.370  27.850  1.00  0.00     0.029 A 
ATOM     44  N   UNL A   1      41.767  26.950  28.627  1.00  0.00    -0.354 N 
ATOM     45  C   UNL A   1      45.981  26.186  29.139  1.00  0.00     0.074 A 
ATOM     46  C   UNL A   1      46.319  24.835  28.746  1.00  0.00     0.031 C 
ATOM     47  C   UNL A   1      39.648  26.459  28.109  1.00  0.00     0.029 A 
ATOM     48  C   UNL A   1      40.513  27.510  28.636  1.00  0.00     0.049 A 
ATOM     49  H   UNL A   1      42.573  27.430  28.927  1.00  0.00     0.167 HD
ATOM     50  C   UNL A   1      46.876  27.088  29.608  1.00  0.00     0.031 A 
ATOM     51  C   UNL A   1      40.105  28.731  29.028  1.00  0.00     0.031 A 
ATOM     52  C   UNL A   1      46.545  28.437  29.983  1.00  0.00     0.049 A 
ATOM     53  C   UNL A   1      41.116  29.713  29.546  1.00  0.00     0.074 A 
ATOM     54  C   UNL A   1      47.390  29.443  30.418  1.00  0.00     0.029 A 
ATOM     55  N   UNL A   1      45.265  28.968  29.965  1.00  0.00    -0.354 N 
ATOM     56  N   UNL A   1      42.411  29.566  29.692  1.00  0.00    -0.248 NA
ATOM     57  C   UNL A   1      40.609  31.034  29.946  1.00  0.00     0.031 C 
ATOM     58  C   UNL A   1      46.614  30.573  30.699  1.00  0.00     0.029 A 
ATOM     59  C   UNL A   1      45.294  30.283  30.396  1.00  0.00     0.049 A 
ATOM     60  H   UNL A   1      44.455  28.481  29.686  1.00  0.00     0.167 HD
ATOM     61  C   UNL A   1      42.877  30.782  30.174  1.00  0.00     0.074 A 
ATOM     62  C   UNL A   1      41.729  31.658  30.284  1.00  0.00     0.031 C 
ATOM     63  C   UNL A   1      44.143  31.139  30.498  1.00  0.00     0.031 A 
BRANCH  50  64
ATOM     64  C   UNL A   1      48.302  26.639  29.739  1.00  0.00    -0.014 A 
ATOM     65  C   UNL A   1      49.223  26.842  28.700  1.00  0.00     0.009 A 
ATOM     66  C   UNL A   1      48.739  26.032  30.927  1.00  0.00     0.009 A 
ATOM     67  C   UNL A   1      50.545  26.413  28.833  1.00  0.00     0.001 A 
ATOM     68  C   UNL A   1      50.067  25.629  31.067  1.00  0.00     0.001 A 
ATOM     69  C   UNL A   1      50.967  25.811  30.018  1.00  0.00     0.000 A 
ENDBRANCH  50  64
BRANCH  51  70
ATOM     70  C   UNL A   1      38.672  29.107  28.926  1.00  0.00    -0.014 A 
ATOM     71  C   UNL A   1      38.153  29.598  27.717  1.00  0.00     0.009 A 
ATOM     72  C   UNL A   1      37.820  28.991  30.034  1.00  0.00     0.009 A 
ATOM     73  C   UNL A   1      36.815  29.991  27.630  1.00  0.00     0.001 A 
ATOM     74  C   UNL A   1      36.476  29.361  29.937  1.00  0.00     0.001 A 
ATOM     75  C   UNL A   1      35.978  29.869  28.738  1.00  0.00     0.000 A 
ENDBRANCH  51  70
BRANCH  63  76
ATOM     76  C   UNL A   1      44.356  32.549  30.969  1.00  0.00    -0.014 A 
ATOM     77  C   UNL A   1      44.610  33.587  30.061  1.00  0.00     0.009 A 
ATOM     78  C   UNL A   1      44.263  32.845  32.337  1.00  0.00     0.009 A 
ATOM     79  C   UNL A   1      44.796  34.893  30.518  1.00  0.00     0.001 A 
ATOM     80  C   UNL A   1      44.425  34.155  32.789  1.00  0.00     0.001 A 
ATOM     81  C   UNL A   1      44.699  35.176  31.880  1.00  0.00     0.000 A 
ENDBRANCH  63  76
ENDBRANCH  37  38
ENDBRANCH  29  32
ENDBRANCH  27  28
ENDBRANCH  26  27
ENDBRANCH  25  26
ENDBRANCH   1  25
TORSDOF 16
ENDMDL
MODEL 2
REMARK VINA RESULT:     -10.9      1.423      5.995
REMARK SMILES COC(=O)c1ccccc1-c1ccc(/C=C(\C#N)C(=O)NCCCCNC(=O)c2ccc(-c3c4nc(c(-c5ccccc5)c5ccc([nH]5)c(-c5ccccc5)c5nc(c(-c6ccccc6)c6ccc3[nH]6)C=C5)C=C4)cc2)o1
REMARK SMILES IDX 22 1 21 2 19 3 20 4 16 6 15 7 14 8 11 9 12 10 77 11 13 12
REMARK SMILES IDX 10 13 5 14 6 15 7 16 9 17 8 18 3 19 4 20 2 21 1 22 17 23
REMARK SMILES IDX 18 24 23 25 24 26 25 27 26 28 27 29 28 31 29 32 30 33 76 34
REMARK SMILES IDX 31 35 75 36 32 37 33 38 34 39 69 40 35 41 74 42 68 43 70 44
REMARK SMILES IDX 36 45 73 46 67 47 66 48 37 50 59 51 44 52 58 53 45 54 48 55
REMARK SMILES IDX 57 56 71 57 46 58 47 59 56 61 72 62 49 63 38 64 39 65 43 66
REMARK SMILES IDX 40 67 42 68 41 69 60 70 61 71 65 72 62 73 64 74 63 75 50 76
REMARK SMILES IDX 51 77 55 78 52 79 54 80 53 81
REMARK H PARENT 21 5 26 30 70 49 48 60
REMARK Flexibility Score: inf
ROOT
ATOM      1  C   UNL A   1      35.798  21.392  25.751  1.00  0.00     0.116 C 
ENDROOT
BRANCH   1   2
ATOM      2  N   UNL A   1      34.780  20.488  25.246  1.00  0.00    -0.351 N 
ATOM      3  C   UNL A   1      33.453  20.644  24.991  1.00  0.00     0.262 C 
ATOM      4  O   UNL A   1      32.865  19.652  24.546  1.00  0.00    -0.268 OA
ATOM      5  H   UNL A   1      35.117  19.584  25.048  1.00  0.00     0.163 HD
BRANCH   3   6
ATOM      6  C   UNL A   1      32.711  21.926  25.207  1.00  0.00     0.120 C 
ATOM      7  C   UNL A   1      32.401  22.631  24.099  1.00  0.00     0.072 C 
BRANCH   7   8
ATOM      8  C   UNL A   1      31.718  23.882  24.089  1.00  0.00     0.129 A 
ATOM      9  C   UNL A   1      31.200  25.990  24.588  1.00  0.00     0.135 A 
ATOM     10  C   UNL A   1      30.214  25.550  23.735  1.00  0.00     0.051 A 
ATOM     11  O   UNL A   1      32.116  25.004  24.779  1.00  0.00    -0.457 OA
ATOM     12  C   UNL A   1      30.544  24.210  23.418  1.00  0.00     0.051 A 
BRANCH   9  13
ATOM     13  C   UNL A   1      31.422  27.219  25.333  1.00  0.00     0.032 A 
ATOM     14  C   UNL A   1      31.799  28.422  24.708  1.00  0.00     0.071 A 
ATOM     15  C   UNL A   1      32.106  29.558  25.474  1.00  0.00     0.016 A 
ATOM     16  C   UNL A   1      32.009  29.513  26.863  1.00  0.00     0.001 A 
ATOM     17  C   UNL A   1      31.311  27.199  26.733  1.00  0.00     0.013 A 
ATOM     18  C   UNL A   1      31.604  28.337  27.492  1.00  0.00     0.001 A 
BRANCH  14  19
ATOM     19  C   UNL A   1      31.905  28.557  23.240  1.00  0.00     0.338 C 
ATOM     20  O   UNL A   1      30.943  28.736  22.506  1.00  0.00    -0.246 OA
BRANCH  19  21
ATOM     21  O   UNL A   1      33.193  28.396  22.856  1.00  0.00    -0.465 OA
ATOM     22  C   UNL A   1      33.452  27.180  22.156  1.00  0.00     0.282 C 
ENDBRANCH  19  21
ENDBRANCH  14  19
ENDBRANCH   9  13
ENDBRANCH   7   8
BRANCH   6  23
ATOM     23  C   UNL A   1      32.367  22.435  26.598  1.00  0.00     0.105 C 
ATOM     24  N   UNL A   1      32.083  22.857  27.751  1.00  0.00    -0.192 NA
ENDBRANCH   6  23
ENDBRANCH   3   6
ENDBRANCH   1   2
BRANCH   1  25
ATOM     25  C   UNL A   1      36.990  21.477  24.797  1.00  0.00     0.023 C 
BRANCH  25  26
ATOM     26  C   UNL A   1      37.938  20.274  24.874  1.00  0.00     0.023 C 
BRANCH  26  27
ATOM     27  C   UNL A   1      39.162  20.475  25.762  1.00  0.00     0.116 C 
BRANCH  27  28
ATOM     28  N   UNL A   1      40.067  19.336  25.782  1.00  0.00    -0.352 N 
ATOM     29  C   UNL A   1      41.411  19.330  26.067  1.00  0.00     0.251 C 
ATOM     30  H   UNL A   1      39.668  18.463  25.562  1.00  0.00     0.163 HD
ATOM     31  O   UNL A   1      42.076  18.306  25.957  1.00  0.00    -0.269 OA
BRANCH  29  32
ATOM     32  C   UNL A   1      42.061  20.595  26.464  1.00  0.00     0.039 A 
ATOM     33  C   UNL A   1      42.555  21.437  25.465  1.00  0.00     0.014 A 
ATOM     34  C   UNL A   1      42.133  20.968  27.808  1.00  0.00     0.014 A 
ATOM     35  C   UNL A   1      43.058  22.691  25.810  1.00  0.00     0.010 A 
ATOM     36  C   UNL A   1      42.578  22.242  28.145  1.00  0.00     0.010 A 
ATOM     37  C   UNL A   1      43.037  23.117  27.149  1.00  0.00    -0.014 A 
BRANCH  37  38
ATOM     38  C   UNL A   1      43.479  24.482  27.525  1.00  0.00     0.031 A 
ATOM     39  C   UNL A   1      42.466  25.529  27.891  1.00  0.00     0.074 A 
ATOM     40  C   UNL A   1      44.789  24.795  27.471  1.00  0.00     0.049 A 
ATOM     41  N   UNL A   1      42.654  26.790  28.185  1.00  0.00    -0.248 NA
ATOM     42  C   UNL A   1      41.055  25.110  27.905  1.00  0.00     0.031 C 
ATOM     43  C   UNL A   1      45.867  23.879  27.090  1.00  0.00     0.029 A 
ATOM     44  N   UNL A   1      45.433  25.977  27.731  1.00  0.00    -0.354 N 
ATOM     45  C   UNL A   1      41.388  27.317  28.401  1.00  0.00     0.074 A 
ATOM     46  C   UNL A   1      40.438  26.253  28.161  1.00  0.00     0.031 C 
ATOM     47  C   UNL A   1      47.040  24.528  27.167  1.00  0.00     0.029 A 
ATOM     48  C   UNL A   1      46.795  25.910  27.567  1.00  0.00     0.049 A 
ATOM     49  H   UNL A   1      44.964  26.797  28.008  1.00  0.00     0.167 HD
ATOM     50  C   UNL A   1      41.046  28.570  28.784  1.00  0.00     0.031 A 
ATOM     51  C   UNL A   1      47.740  26.856  27.719  1.00  0.00     0.031 A 
ATOM     52  C   UNL A   1      41.990  29.626  29.039  1.00  0.00     0.049 A 
ATOM     53  C   UNL A   1      47.334  28.239  28.142  1.00  0.00     0.074 A 
ATOM     54  C   UNL A   1      41.745  30.913  29.482  1.00  0.00     0.029 A 
ATOM     55  N   UNL A   1      43.361  29.512  28.874  1.00  0.00    -0.354 N 
ATOM     56  N   UNL A   1      46.137  28.706  28.401  1.00  0.00    -0.248 NA
ATOM     57  C   UNL A   1      48.415  29.224  28.303  1.00  0.00     0.031 C 
ATOM     58  C   UNL A   1      42.967  31.592  29.550  1.00  0.00     0.029 A 
ATOM     59  C   UNL A   1      43.974  30.712  29.191  1.00  0.00     0.049 A 
ATOM     60  H   UNL A   1      43.829  28.699  28.575  1.00  0.00     0.167 HD
ATOM     61  C   UNL A   1      46.321  30.029  28.779  1.00  0.00     0.074 A 
ATOM     62  C   UNL A   1      47.746  30.286  28.730  1.00  0.00     0.031 C 
ATOM     63  C   UNL A   1      45.393  30.949  29.136  1.00  0.00     0.031 A 
BRANCH  50  64
ATOM     64  C   UNL A   1      39.584  28.864  28.949  1.00  0.00    -0.014 A 
ATOM     65  C   UNL A   1      38.938  28.657  30.179  1.00  0.00     0.009 A 
ATOM     66  C   UNL A   1      38.847  29.383  27.873  1.00  0.00     0.009 A 
ATOM     67  C   UNL A   1      37.576  28.928  30.317  1.00  0.00     0.001 A 
ATOM     68  C   UNL A   1      37.491  29.678  28.022  1.00  0.00     0.001 A 
ATOM     69  C   UNL A   1      36.854  29.442  29.240  1.00  0.00     0.000 A 
ENDBRANCH  50  64
BRANCH  51  70
ATOM     70  C   UNL A   1      49.170  26.526  27.491  1.00  0.00    -0.014 A 
ATOM     71  C   UNL A   1      49.737  26.675  26.216  1.00  0.00     0.009 A 
ATOM     72  C   UNL A   1      49.970  26.047  28.540  1.00  0.00     0.009 A 
ATOM     73  C   UNL A   1      51.071  26.327  25.991  1.00  0.00     0.001 A 
ATOM     74  C   UNL A   1      51.310  25.723  28.316  1.00  0.00     0.001 A 
ATOM     75  C   UNL A   1      51.856  25.855  27.040  1.00  0.00     0.000 A 
ENDBRANCH  51  70
BRANCH  63  76
ATOM     76  C   UNL A   1      45.893  32.307  29.533  1.00  0.00    -0.014 A 
ATOM     77  C   UNL A   1      46.014  33.339  28.590  1.00  0.00     0.009 A 
ATOM     78  C   UNL A   1      46.213  32.566  30.874  1.00  0.00     0.009 A 
ATOM     79  C   UNL A   1      46.473  34.599  28.981  1.00  0.00     0.001 A 
ATOM     80  C   UNL A   1      46.648  33.833  31.266  1.00  0.00     0.001 A 
ATOM     81  C   UNL A   1      46.784  34.845  30.318  1.00  0.00     0.000 A 
ENDBRANCH  63  76
ENDBRANCH  37  38
ENDBRANCH  29  32
ENDBRANCH  27  28
ENDBRANCH  26  27
ENDBRANCH  25  26
ENDBRANCH   1  25
TORSDOF 16
ENDMDL
MODEL 3
REMARK VINA RESULT:     -10.8      4.378      9.400
REMARK SMILES COC(=O)c1ccccc1-c1ccc(/C=C(\C#N)C(=O)NCCCCNC(=O)c2ccc(-c3c4nc(c(-c5ccccc5)c5ccc([nH]5)c(-c5ccccc5)c5nc(c(-c6ccccc6)c6ccc3[nH]6)C=C5)C=C4)cc2)o1
REMARK SMILES IDX 22 1 21 2 19 3 20 4 16 6 15 7 14 8 11 9 12 10 77 11 13 12
REMARK SMILES IDX 10 13 5 14 6 15 7 16 9 17 8 18 3 19 4 20 2 21 1 22 17 23
REMARK SMILES IDX 18 24 23 25 24 26 25 27 26 28 27 29 28 31 29 32 30 33 76 34
REMARK SMILES IDX 31 35 75 36 32 37 33 38 34 39 69 40 35 41 74 42 68 43 70 44
REMARK SMILES IDX 36 45 73 46 67 47 66 48 37 50 59 51 44 52 58 53 45 54 48 55
REMARK SMILES IDX 57 56 71 57 46 58 47 59 56 61 72 62 49 63 38 64 39 65 43 66
REMARK SMILES IDX 40 67 42 68 41 69 60 70 61 71 65 72 62 73 64 74 63 75 50 76
REMARK SMILES IDX 51 77 55 78 52 79 54 80 53 81
REMARK H PARENT 21 5 26 30 70 49 48 60
REMARK Flexibility Score: inf
ROOT
ATOM      1  C   UNL A   1      32.259  29.693  25.348  1.00  0.00     0.116 C 
ENDROOT
BRANCH   1   2
ATOM      2  N   UNL A   1      31.078  29.598  24.508  1.00  0.00    -0.351 N 
ATOM      3  C   UNL A   1      30.637  28.646  23.641  1.00  0.00     0.262 C 
ATOM      4  O   UNL A   1      29.560  28.878  23.081  1.00  0.00    -0.268 OA
ATOM      5  H   UNL A   1      30.479  30.375  24.579  1.00  0.00     0.163 HD
BRANCH   3   6
ATOM      6  C   UNL A   1      31.371  27.371  23.365  1.00  0.00     0.120 C 
ATOM      7  C   UNL A   1      30.883  26.260  23.957  1.00  0.00     0.072 C 
BRANCH   7   8
ATOM      8  C   UNL A   1      31.445  24.956  23.838  1.00  0.00     0.129 A 
ATOM      9  C   UNL A   1      32.953  23.316  23.836  1.00  0.00     0.135 A 
ATOM     10  C   UNL A   1      31.774  22.746  23.416  1.00  0.00     0.051 A 
ATOM     11  O   UNL A   1      32.752  24.631  24.117  1.00  0.00    -0.457 OA
ATOM     12  C   UNL A   1      30.815  23.788  23.417  1.00  0.00     0.051 A 
BRANCH   9  13
ATOM     13  C   UNL A   1      34.317  22.834  23.984  1.00  0.00     0.032 A 
ATOM     14  C   UNL A   1      34.691  21.927  24.992  1.00  0.00     0.071 A 
ATOM     15  C   UNL A   1      36.037  21.568  25.166  1.00  0.00     0.016 A 
ATOM     16  C   UNL A   1      37.014  22.085  24.317  1.00  0.00     0.001 A 
ATOM     17  C   UNL A   1      35.313  23.329  23.126  1.00  0.00     0.013 A 
ATOM     18  C   UNL A   1      36.651  22.958  23.293  1.00  0.00     0.001 A 
BRANCH  14  19
ATOM     19  C   UNL A   1      33.713  21.318  25.919  1.00  0.00     0.338 C 
ATOM     20  O   UNL A   1      33.036  20.339  25.640  1.00  0.00    -0.246 OA
BRANCH  19  21
ATOM     21  O   UNL A   1      33.655  22.040  27.063  1.00  0.00    -0.465 OA
ATOM     22  C   UNL A   1      32.426  22.737  27.259  1.00  0.00     0.282 C 
ENDBRANCH  19  21
ENDBRANCH  14  19
ENDBRANCH   9  13
ENDBRANCH   7   8
BRANCH   6  23
ATOM     23  C   UNL A   1      32.626  27.331  22.508  1.00  0.00     0.105 C 
ATOM     24  N   UNL A   1      33.666  27.299  21.796  1.00  0.00    -0.192 NA
ENDBRANCH   6  23
ENDBRANCH   3   6
ENDBRANCH   1   2
BRANCH   1  25
ATOM     25  C   UNL A   1      31.931  30.335  26.696  1.00  0.00     0.023 C 
BRANCH  25  26
ATOM     26  C   UNL A   1      31.748  31.857  26.634  1.00  0.00     0.023 C 
BRANCH  26  27
ATOM     27  C   UNL A   1      32.830  32.665  27.344  1.00  0.00     0.116 C 
BRANCH  27  28
ATOM     28  N   UNL A   1      32.447  34.040  27.624  1.00  0.00    -0.352 N 
ATOM     29  C   UNL A   1      33.009  34.905  28.532  1.00  0.00     0.251 C 
ATOM     30  H   UNL A   1      31.692  34.394  27.100  1.00  0.00     0.163 HD
ATOM     31  O   UNL A   1      32.526  36.014  28.732  1.00  0.00    -0.269 OA
BRANCH  29  32
ATOM     32  C   UNL A   1      34.183  34.460  29.309  1.00  0.00     0.039 A 
ATOM     33  C   UNL A   1      33.979  33.885  30.564  1.00  0.00     0.014 A 
ATOM     34  C   UNL A   1      35.471  34.563  28.774  1.00  0.00     0.014 A 
ATOM     35  C   UNL A   1      35.062  33.344  31.257  1.00  0.00     0.010 A 
ATOM     36  C   UNL A   1      36.539  33.970  29.438  1.00  0.00     0.010 A 
ATOM     37  C   UNL A   1      36.343  33.349  30.681  1.00  0.00    -0.014 A 
BRANCH  37  38
ATOM     38  C   UNL A   1      37.490  32.696  31.358  1.00  0.00     0.031 A 
ATOM     39  C   UNL A   1      38.163  31.511  30.727  1.00  0.00     0.074 A 
ATOM     40  C   UNL A   1      37.879  33.130  32.573  1.00  0.00     0.049 A 
ATOM     41  N   UNL A   1      39.135  30.770  31.195  1.00  0.00    -0.248 NA
ATOM     42  C   UNL A   1      37.662  31.087  29.409  1.00  0.00     0.031 C 
ATOM     43  C   UNL A   1      37.279  34.244  33.310  1.00  0.00     0.029 A 
ATOM     44  N   UNL A   1      38.871  32.676  33.405  1.00  0.00    -0.354 N 
ATOM     45  C   UNL A   1      39.349  29.786  30.240  1.00  0.00     0.074 A 
ATOM     46  C   UNL A   1      38.379  29.996  29.187  1.00  0.00     0.031 C 
ATOM     47  C   UNL A   1      37.933  34.403  34.473  1.00  0.00     0.029 A 
ATOM     48  C   UNL A   1      38.971  33.384  34.578  1.00  0.00     0.049 A 
ATOM     49  H   UNL A   1      39.455  31.916  33.182  1.00  0.00     0.167 HD
ATOM     50  C   UNL A   1      40.284  28.806  30.227  1.00  0.00     0.031 A 
ATOM     51  C   UNL A   1      39.805  33.226  35.623  1.00  0.00     0.031 A 
ATOM     52  C   UNL A   1      41.261  28.605  31.264  1.00  0.00     0.049 A 
ATOM     53  C   UNL A   1      40.831  32.129  35.586  1.00  0.00     0.074 A 
ATOM     54  C   UNL A   1      42.283  27.673  31.317  1.00  0.00     0.029 A 
ATOM     55  N   UNL A   1      41.337  29.351  32.429  1.00  0.00    -0.354 N 
ATOM     56  N   UNL A   1      41.060  31.244  34.647  1.00  0.00    -0.248 NA
ATOM     57  C   UNL A   1      41.720  32.017  36.752  1.00  0.00     0.031 C 
ATOM     58  C   UNL A   1      42.955  27.832  32.534  1.00  0.00     0.029 A 
ATOM     59  C   UNL A   1      42.379  28.891  33.216  1.00  0.00     0.049 A 
ATOM     60  H   UNL A   1      40.739  30.098  32.662  1.00  0.00     0.167 HD
ATOM     61  C   UNL A   1      42.135  30.488  35.096  1.00  0.00     0.074 A 
ATOM     62  C   UNL A   1      42.519  31.026  36.384  1.00  0.00     0.031 C 
ATOM     63  C   UNL A   1      42.747  29.440  34.494  1.00  0.00     0.031 A 
BRANCH  50  64
ATOM     64  C   UNL A   1      40.290  27.875  29.050  1.00  0.00    -0.014 A 
ATOM     65  C   UNL A   1      39.610  26.648  29.093  1.00  0.00     0.009 A 
ATOM     66  C   UNL A   1      40.960  28.240  27.871  1.00  0.00     0.009 A 
ATOM     67  C   UNL A   1      39.630  25.788  27.993  1.00  0.00     0.001 A 
ATOM     68  C   UNL A   1      40.955  27.391  26.764  1.00  0.00     0.001 A 
ATOM     69  C   UNL A   1      40.299  26.163  26.828  1.00  0.00     0.000 A 
ENDBRANCH  50  64
BRANCH  51  70
ATOM     70  C   UNL A   1      39.722  34.143  36.788  1.00  0.00    -0.014 A 
ATOM     71  C   UNL A   1      40.414  35.364  36.779  1.00  0.00     0.009 A 
ATOM     72  C   UNL A   1      38.965  33.799  37.918  1.00  0.00     0.009 A 
ATOM     73  C   UNL A   1      40.371  36.210  37.890  1.00  0.00     0.001 A 
ATOM     74  C   UNL A   1      38.904  34.658  39.017  1.00  0.00     0.001 A 
ATOM     75  C   UNL A   1      39.614  35.858  39.006  1.00  0.00     0.000 A 
ENDBRANCH  51  70
BRANCH  63  76
ATOM     76  C   UNL A   1      43.918  28.830  35.209  1.00  0.00    -0.014 A 
ATOM     77  C   UNL A   1      43.747  27.761  36.101  1.00  0.00     0.009 A 
ATOM     78  C   UNL A   1      45.212  29.309  34.956  1.00  0.00     0.009 A 
ATOM     79  C   UNL A   1      44.850  27.201  36.749  1.00  0.00     0.001 A 
ATOM     80  C   UNL A   1      46.315  28.732  35.586  1.00  0.00     0.001 A 
ATOM     81  C   UNL A   1      46.132  27.684  36.487  1.00  0.00     0.000 A 
ENDBRANCH  63  76
ENDBRANCH  37  38
ENDBRANCH  29  32
ENDBRANCH  27  28
ENDBRANCH  26  27
ENDBRANCH  25  26
ENDBRANCH   1  25
TORSDOF 16
ENDMDL
