MODEL 1
REMARK VINA RESULT:      -9.2      0.000      0.000
REMARK SMILES O=C(NCCCCNC(=O)c1nc(NC[C@H]2c3ccccc3CSc3ccccc32)c2ccccc2n1)c1ccc(-c2c3nc(c(-c4ccccc4)c4ccc([nH]4)c(-c4ccccc4)c4nc(c(-c5ccccc5)c5ccc2[nH]5)C=C4)C=C3)cc1
REMARK SMILES IDX 6 1 5 2 4 3 3 4 1 5 2 6 38 8 39 9 85 10 40 11 84 12 41 13
REMARK SMILES IDX 42 14 43 15 78 16 44 17 83 18 77 19 79 20 45 21 82 22 76 23
REMARK SMILES IDX 75 24 46 26 68 27 53 28 67 29 54 30 57 31 66 32 80 33 55 34
REMARK SMILES IDX 56 35 65 37 81 38 58 39 47 40 48 41 52 42 49 43 51 44 50 45
REMARK SMILES IDX 69 46 70 47 74 48 71 49 73 50 72 51 59 52 60 53 64 54 61 55
REMARK SMILES IDX 63 56 62 57 7 58 8 59 9 60 10 62 11 63 12 64 37 65 13 66
REMARK SMILES IDX 36 67 31 68 35 69 32 70 34 71 33 72 14 73 15 75 16 76 17 77
REMARK SMILES IDX 30 78 18 79 22 80 25 81 29 82 19 83 21 84 23 85 24 86 26 87
REMARK SMILES IDX 28 88 20 89 27 90
REMARK H PARENT 3 7 79 25 57 36 8 61 14 74
REMARK Flexibility Score: inf
ROOT
ATOM      1  C   UNL A   1      45.793  21.309  25.278  1.00  0.00     0.023 C 
ENDROOT
BRANCH   1   2
ATOM      2  C   UNL A   1      44.678  20.484  24.633  1.00  0.00     0.023 C 
BRANCH   2   3
ATOM      3  C   UNL A   1      44.203  19.274  25.434  1.00  0.00     0.116 C 
BRANCH   3   4
ATOM      4  N   UNL A   1      42.770  19.057  25.329  1.00  0.00    -0.352 N 
ATOM      5  O   UNL A   1      40.581  19.352  25.758  1.00  0.00    -0.269 OA
ATOM      6  C   UNL A   1      41.731  19.791  25.839  1.00  0.00     0.251 C 
ATOM      7  H   UNL A   1      42.504  18.261  24.814  1.00  0.00     0.163 HD
BRANCH   6   8
ATOM      8  C   UNL A   1      41.964  21.096  26.495  1.00  0.00     0.039 A 
ATOM      9  C   UNL A   1      42.007  22.248  25.701  1.00  0.00     0.014 A 
ATOM     10  C   UNL A   1      42.202  21.191  27.870  1.00  0.00     0.014 A 
ATOM     11  C   UNL A   1      42.250  23.494  26.285  1.00  0.00     0.010 A 
ATOM     12  C   UNL A   1      42.389  22.440  28.460  1.00  0.00     0.010 A 
ATOM     13  C   UNL A   1      42.431  23.601  27.671  1.00  0.00    -0.014 A 
BRANCH  13  14
ATOM     14  C   UNL A   1      42.702  24.909  28.318  1.00  0.00     0.031 A 
ATOM     15  C   UNL A   1      44.072  25.208  28.859  1.00  0.00     0.074 A 
ATOM     16  C   UNL A   1      41.709  25.803  28.477  1.00  0.00     0.049 A 
ATOM     17  N   UNL A   1      44.481  26.248  29.539  1.00  0.00    -0.248 NA
ATOM     18  C   UNL A   1      45.115  24.197  28.618  1.00  0.00     0.031 C 
ATOM     19  C   UNL A   1      40.335  25.633  28.004  1.00  0.00     0.029 A 
ATOM     20  N   UNL A   1      41.702  27.030  29.093  1.00  0.00    -0.354 N 
ATOM     21  C   UNL A   1      45.816  26.004  29.832  1.00  0.00     0.074 A 
ATOM     22  C   UNL A   1      46.142  24.707  29.283  1.00  0.00     0.031 C 
ATOM     23  C   UNL A   1      39.623  26.723  28.332  1.00  0.00     0.029 A 
ATOM     24  C   UNL A   1      40.476  27.646  29.077  1.00  0.00     0.049 A 
ATOM     25  H   UNL A   1      42.502  27.430  29.506  1.00  0.00     0.167 HD
ATOM     26  C   UNL A   1      46.695  26.797  30.487  1.00  0.00     0.031 A 
ATOM     27  C   UNL A   1      40.073  28.814  29.615  1.00  0.00     0.031 A 
ATOM     28  C   UNL A   1      46.379  28.100  31.006  1.00  0.00     0.049 A 
ATOM     29  C   UNL A   1      41.053  29.659  30.377  1.00  0.00     0.074 A 
ATOM     30  C   UNL A   1      47.231  29.016  31.598  1.00  0.00     0.029 A 
ATOM     31  N   UNL A   1      45.116  28.668  31.002  1.00  0.00    -0.354 N 
ATOM     32  N   UNL A   1      42.327  29.443  30.597  1.00  0.00    -0.248 NA
ATOM     33  C   UNL A   1      40.542  30.904  30.971  1.00  0.00     0.031 C 
ATOM     34  C   UNL A   1      46.471  30.113  32.009  1.00  0.00     0.029 A 
ATOM     35  C   UNL A   1      45.156  29.904  31.625  1.00  0.00     0.049 A 
ATOM     36  H   UNL A   1      44.311  28.255  30.615  1.00  0.00     0.167 HD
ATOM     37  C   UNL A   1      42.773  30.525  31.344  1.00  0.00     0.074 A 
ATOM     38  C   UNL A   1      41.637  31.403  31.533  1.00  0.00     0.031 C 
ATOM     39  C   UNL A   1      44.017  30.762  31.826  1.00  0.00     0.031 A 
BRANCH  26  40
ATOM     40  C   UNL A   1      48.088  26.277  30.697  1.00  0.00    -0.014 A 
ATOM     41  C   UNL A   1      48.954  26.148  29.599  1.00  0.00     0.009 A 
ATOM     42  C   UNL A   1      48.526  25.852  31.961  1.00  0.00     0.009 A 
ATOM     43  C   UNL A   1      50.229  25.605  29.761  1.00  0.00     0.001 A 
ATOM     44  C   UNL A   1      49.813  25.333  32.125  1.00  0.00     0.001 A 
ATOM     45  C   UNL A   1      50.659  25.205  31.025  1.00  0.00     0.000 A 
ENDBRANCH  26  40
BRANCH  27  46
ATOM     46  C   UNL A   1      38.663  29.241  29.431  1.00  0.00    -0.014 A 
ATOM     47  C   UNL A   1      38.262  29.906  28.261  1.00  0.00     0.009 A 
ATOM     48  C   UNL A   1      37.730  29.059  30.464  1.00  0.00     0.009 A 
ATOM     49  C   UNL A   1      36.964  30.406  28.140  1.00  0.00     0.001 A 
ATOM     50  C   UNL A   1      36.428  29.543  30.330  1.00  0.00     0.001 A 
ATOM     51  C   UNL A   1      36.049  30.225  29.175  1.00  0.00     0.000 A 
ENDBRANCH  27  46
BRANCH  39  52
ATOM     52  C   UNL A   1      44.238  32.017  32.621  1.00  0.00    -0.014 A 
ATOM     53  C   UNL A   1      43.955  32.032  33.997  1.00  0.00     0.009 A 
ATOM     54  C   UNL A   1      44.601  33.214  31.987  1.00  0.00     0.009 A 
ATOM     55  C   UNL A   1      44.006  33.227  34.717  1.00  0.00     0.001 A 
ATOM     56  C   UNL A   1      44.673  34.403  32.715  1.00  0.00     0.001 A 
ATOM     57  C   UNL A   1      44.365  34.412  34.074  1.00  0.00     0.000 A 
ENDBRANCH  39  52
ENDBRANCH  13  14
ENDBRANCH   6   8
ENDBRANCH   3   4
ENDBRANCH   2   3
ENDBRANCH   1   2
BRANCH   1  58
ATOM     58  C   UNL A   1      45.588  22.823  25.265  1.00  0.00     0.116 C 
BRANCH  58  59
ATOM     59  N   UNL A   1      46.704  23.533  24.664  1.00  0.00    -0.349 N 
ATOM     60  C   UNL A   1      46.948  24.897  24.653  1.00  0.00     0.289 C 
ATOM     61  H   UNL A   1      47.371  22.974  24.204  1.00  0.00     0.163 HD
ATOM     62  O   UNL A   1      47.909  25.323  24.011  1.00  0.00    -0.266 OA
BRANCH  60  63
ATOM     63  C   UNL A   1      46.023  25.830  25.383  1.00  0.00     0.220 A 
ATOM     64  N   UNL A   1      46.613  26.718  26.194  1.00  0.00    -0.206 NA
ATOM     65  N   UNL A   1      44.734  25.833  25.005  1.00  0.00    -0.224 NA
ATOM     66  C   UNL A   1      45.857  27.728  26.641  1.00  0.00     0.138 A 
ATOM     67  C   UNL A   1      43.984  26.828  25.477  1.00  0.00     0.077 A 
ATOM     68  C   UNL A   1      44.484  27.828  26.327  1.00  0.00     0.043 A 
ATOM     69  C   UNL A   1      42.667  26.904  25.044  1.00  0.00     0.029 A 
ATOM     70  C   UNL A   1      43.615  28.873  26.736  1.00  0.00     0.014 A 
ATOM     71  C   UNL A   1      41.827  27.952  25.424  1.00  0.00     0.002 A 
ATOM     72  C   UNL A   1      42.300  28.937  26.278  1.00  0.00     0.001 A 
BRANCH  66  73
ATOM     73  N   UNL A   1      46.500  28.749  27.340  1.00  0.00    -0.368 N 
ATOM     74  H   UNL A   1      46.482  28.756  28.324  1.00  0.00     0.162 HD
BRANCH  73  75
ATOM     75  C   UNL A   1      47.203  29.814  26.609  1.00  0.00     0.127 C 
BRANCH  75  76
ATOM     76  C   UNL A   1      47.536  31.075  27.500  1.00  0.00     0.070 C 
ATOM     77  C   UNL A   1      46.266  31.857  27.913  1.00  0.00    -0.035 A 
ATOM     78  C   UNL A   1      48.596  30.876  28.610  1.00  0.00    -0.025 A 
ATOM     79  C   UNL A   1      44.998  31.262  28.044  1.00  0.00     0.005 A 
ATOM     80  C   UNL A   1      46.338  33.248  28.132  1.00  0.00    -0.034 A 
ATOM     81  C   UNL A   1      49.033  31.884  29.507  1.00  0.00     0.011 A 
ATOM     82  C   UNL A   1      49.275  29.630  28.691  1.00  0.00     0.005 A 
ATOM     83  C   UNL A   1      43.851  31.997  28.354  1.00  0.00     0.000 A 
ATOM     84  C   UNL A   1      45.180  33.984  28.461  1.00  0.00     0.005 A 
ATOM     85  C   UNL A   1      47.660  33.957  28.110  1.00  0.00     0.110 C 
ATOM     86  S   UNL A   1      48.562  33.616  29.636  1.00  0.00    -0.121 SA
ATOM     87  C   UNL A   1      50.020  31.574  30.476  1.00  0.00     0.015 A 
ATOM     88  C   UNL A   1      50.261  29.353  29.642  1.00  0.00     0.000 A 
ATOM     89  C   UNL A   1      43.940  33.363  28.563  1.00  0.00     0.000 A 
ATOM     90  C   UNL A   1      50.625  30.325  30.549  1.00  0.00     0.001 A 
ENDBRANCH  75  76
ENDBRANCH  73  75
ENDBRANCH  66  73
ENDBRANCH  60  63
ENDBRANCH  58  59
ENDBRANCH   1  58
TORSDOF 14
ENDMDL
MODEL 2
REMARK VINA RESULT:      -9.2      6.031     12.105
REMARK SMILES O=C(NCCCCNC(=O)c1nc(NC[C@H]2c3ccccc3CSc3ccccc32)c2ccccc2n1)c1ccc(-c2c3nc(c(-c4ccccc4)c4ccc([nH]4)c(-c4ccccc4)c4nc(c(-c5ccccc5)c5ccc2[nH]5)C=C4)C=C3)cc1
REMARK SMILES IDX 6 1 5 2 4 3 3 4 1 5 2 6 38 8 39 9 85 10 40 11 84 12 41 13
REMARK SMILES IDX 42 14 43 15 78 16 44 17 83 18 77 19 79 20 45 21 82 22 76 23
REMARK SMILES IDX 75 24 46 26 68 27 53 28 67 29 54 30 57 31 66 32 80 33 55 34
REMARK SMILES IDX 56 35 65 37 81 38 58 39 47 40 48 41 52 42 49 43 51 44 50 45
REMARK SMILES IDX 69 46 70 47 74 48 71 49 73 50 72 51 59 52 60 53 64 54 61 55
REMARK SMILES IDX 63 56 62 57 7 58 8 59 9 60 10 62 11 63 12 64 37 65 13 66
REMARK SMILES IDX 36 67 31 68 35 69 32 70 34 71 33 72 14 73 15 75 16 76 17 77
REMARK SMILES IDX 30 78 18 79 22 80 25 81 29 82 19 83 21 84 23 85 24 86 26 87
REMARK SMILES IDX 28 88 20 89 27 90
REMARK H PARENT 3 7 79 25 57 36 8 61 14 74
REMARK Flexibility Score: inf
ROOT
ATOM      1  C   UNL A   1      33.969  30.729  27.643  1.00  0.00     0.023 C 
ENDROOT
BRANCH   1   2
ATOM      2  C   UNL A   1      32.737  31.635  27.664  1.00  0.00     0.023 C 
BRANCH   2   3
ATOM      3  C   UNL A   1      32.891  32.976  26.951  1.00  0.00     0.116 C 
BRANCH   3   4
ATOM      4  N   UNL A   1      32.572  34.108  27.804  1.00  0.00    -0.352 N 
ATOM      5  O   UNL A   1      32.679  35.459  29.600  1.00  0.00    -0.269 OA
ATOM      6  C   UNL A   1      33.199  34.559  28.935  1.00  0.00     0.251 C 
ATOM      7  H   UNL A   1      31.784  34.630  27.528  1.00  0.00     0.163 HD
BRANCH   6   8
ATOM      8  C   UNL A   1      34.484  33.979  29.383  1.00  0.00     0.039 A 
ATOM      9  C   UNL A   1      35.642  34.269  28.651  1.00  0.00     0.014 A 
ATOM     10  C   UNL A   1      34.552  33.107  30.474  1.00  0.00     0.014 A 
ATOM     11  C   UNL A   1      36.868  33.716  29.030  1.00  0.00     0.010 A 
ATOM     12  C   UNL A   1      35.784  32.600  30.885  1.00  0.00     0.010 A 
ATOM     13  C   UNL A   1      36.950  32.888  30.159  1.00  0.00    -0.014 A 
BRANCH  13  14
ATOM     14  C   UNL A   1      38.237  32.279  30.579  1.00  0.00     0.031 A 
ATOM     15  C   UNL A   1      38.695  30.991  29.954  1.00  0.00     0.074 A 
ATOM     16  C   UNL A   1      38.963  32.843  31.562  1.00  0.00     0.049 A 
ATOM     17  N   UNL A   1      39.735  30.255  30.252  1.00  0.00    -0.248 NA
ATOM     18  C   UNL A   1      37.868  30.451  28.863  1.00  0.00     0.031 C 
ATOM     19  C   UNL A   1      38.626  34.087  32.254  1.00  0.00     0.029 A 
ATOM     20  N   UNL A   1      40.130  32.434  32.157  1.00  0.00    -0.354 N 
ATOM     21  C   UNL A   1      39.671  29.154  29.408  1.00  0.00     0.074 A 
ATOM     22  C   UNL A   1      38.476  29.302  28.607  1.00  0.00     0.031 C 
ATOM     23  C   UNL A   1      39.574  34.348  33.167  1.00  0.00     0.029 A 
ATOM     24  C   UNL A   1      40.559  33.269  33.158  1.00  0.00     0.049 A 
ATOM     25  H   UNL A   1      40.614  31.618  31.890  1.00  0.00     0.167 HD
ATOM     26  C   UNL A   1      40.537  28.120  29.301  1.00  0.00     0.031 A 
ATOM     27  C   UNL A   1      41.616  33.174  33.988  1.00  0.00     0.031 A 
ATOM     28  C   UNL A   1      41.741  27.990  30.075  1.00  0.00     0.049 A 
ATOM     29  C   UNL A   1      42.542  31.996  33.883  1.00  0.00     0.074 A 
ATOM     30  C   UNL A   1      42.729  27.027  29.966  1.00  0.00     0.029 A 
ATOM     31  N   UNL A   1      42.117  28.839  31.103  1.00  0.00    -0.354 N 
ATOM     32  N   UNL A   1      42.500  30.992  33.041  1.00  0.00    -0.248 NA
ATOM     33  C   UNL A   1      43.654  31.932  34.842  1.00  0.00     0.031 C 
ATOM     34  C   UNL A   1      43.672  27.257  30.970  1.00  0.00     0.029 A 
ATOM     35  C   UNL A   1      43.300  28.394  31.669  1.00  0.00     0.049 A 
ATOM     36  H   UNL A   1      41.617  29.637  31.389  1.00  0.00     0.167 HD
ATOM     37  C   UNL A   1      43.581  30.183  33.361  1.00  0.00     0.074 A 
ATOM     38  C   UNL A   1      44.269  30.816  34.467  1.00  0.00     0.031 C 
ATOM     39  C   UNL A   1      43.966  29.019  32.783  1.00  0.00     0.031 A 
BRANCH  26  40
ATOM     40  C   UNL A   1      40.213  27.033  28.316  1.00  0.00    -0.014 A 
ATOM     41  C   UNL A   1      39.432  25.939  28.723  1.00  0.00     0.009 A 
ATOM     42  C   UNL A   1      40.730  27.051  27.012  1.00  0.00     0.009 A 
ATOM     43  C   UNL A   1      39.175  24.886  27.844  1.00  0.00     0.001 A 
ATOM     44  C   UNL A   1      40.449  26.008  26.127  1.00  0.00     0.001 A 
ATOM     45  C   UNL A   1      39.677  24.925  26.545  1.00  0.00     0.000 A 
ENDBRANCH  26  40
BRANCH  27  46
ATOM     46  C   UNL A   1      41.843  34.249  34.987  1.00  0.00    -0.014 A 
ATOM     47  C   UNL A   1      41.138  34.258  36.201  1.00  0.00     0.009 A 
ATOM     48  C   UNL A   1      42.707  35.315  34.694  1.00  0.00     0.009 A 
ATOM     49  C   UNL A   1      41.270  35.329  37.089  1.00  0.00     0.001 A 
ATOM     50  C   UNL A   1      42.852  36.373  35.593  1.00  0.00     0.001 A 
ATOM     51  C   UNL A   1      42.126  36.385  36.783  1.00  0.00     0.000 A 
ENDBRANCH  27  46
BRANCH  39  52
ATOM     52  C   UNL A   1      45.181  28.327  33.328  1.00  0.00    -0.014 A 
ATOM     53  C   UNL A   1      45.055  27.436  34.408  1.00  0.00     0.009 A 
ATOM     54  C   UNL A   1      46.463  28.654  32.862  1.00  0.00     0.009 A 
ATOM     55  C   UNL A   1      46.189  26.907  35.025  1.00  0.00     0.001 A 
ATOM     56  C   UNL A   1      47.595  28.104  33.467  1.00  0.00     0.001 A 
ATOM     57  C   UNL A   1      47.458  27.242  34.554  1.00  0.00     0.000 A 
ENDBRANCH  39  52
ENDBRANCH  13  14
ENDBRANCH   6   8
ENDBRANCH   3   4
ENDBRANCH   2   3
ENDBRANCH   1   2
BRANCH   1  58
ATOM     58  C   UNL A   1      33.837  29.451  26.816  1.00  0.00     0.116 C 
BRANCH  58  59
ATOM     59  N   UNL A   1      33.612  29.718  25.405  1.00  0.00    -0.349 N 
ATOM     60  C   UNL A   1      33.222  28.831  24.415  1.00  0.00     0.289 C 
ATOM     61  H   UNL A   1      33.757  30.648  25.116  1.00  0.00     0.163 HD
ATOM     62  O   UNL A   1      33.168  29.228  23.251  1.00  0.00    -0.266 OA
BRANCH  60  63
ATOM     63  C   UNL A   1      32.912  27.404  24.768  1.00  0.00     0.220 A 
ATOM     64  N   UNL A   1      33.966  26.642  25.090  1.00  0.00    -0.206 NA
ATOM     65  N   UNL A   1      31.618  27.081  24.933  1.00  0.00    -0.224 NA
ATOM     66  C   UNL A   1      33.708  25.462  25.668  1.00  0.00     0.138 A 
ATOM     67  C   UNL A   1      31.373  25.894  25.485  1.00  0.00     0.077 A 
ATOM     68  C   UNL A   1      32.388  25.006  25.877  1.00  0.00     0.043 A 
ATOM     69  C   UNL A   1      30.049  25.562  25.740  1.00  0.00     0.029 A 
ATOM     70  C   UNL A   1      32.023  23.784  26.501  1.00  0.00     0.014 A 
ATOM     71  C   UNL A   1      29.699  24.374  26.383  1.00  0.00     0.002 A 
ATOM     72  C   UNL A   1      30.689  23.478  26.760  1.00  0.00     0.001 A 
BRANCH  66  73
ATOM     73  N   UNL A   1      34.793  24.741  26.165  1.00  0.00    -0.368 N 
ATOM     74  H   UNL A   1      34.974  24.731  27.132  1.00  0.00     0.162 HD
BRANCH  73  75
ATOM     75  C   UNL A   1      35.667  23.997  25.245  1.00  0.00     0.127 C 
BRANCH  75  76
ATOM     76  C   UNL A   1      35.274  22.475  25.097  1.00  0.00     0.070 C 
ATOM     77  C   UNL A   1      34.188  22.249  24.017  1.00  0.00    -0.035 A 
ATOM     78  C   UNL A   1      36.439  21.456  25.105  1.00  0.00    -0.025 A 
ATOM     79  C   UNL A   1      34.010  23.097  22.909  1.00  0.00     0.005 A 
ATOM     80  C   UNL A   1      33.285  21.174  24.144  1.00  0.00    -0.034 A 
ATOM     81  C   UNL A   1      36.291  20.050  24.988  1.00  0.00     0.011 A 
ATOM     82  C   UNL A   1      37.757  21.928  25.351  1.00  0.00     0.005 A 
ATOM     83  C   UNL A   1      32.982  22.913  21.980  1.00  0.00     0.000 A 
ATOM     84  C   UNL A   1      32.258  20.984  23.195  1.00  0.00     0.005 A 
ATOM     85  C   UNL A   1      33.452  20.161  25.238  1.00  0.00     0.110 C 
ATOM     86  S   UNL A   1      34.809  19.042  24.831  1.00  0.00    -0.121 SA
ATOM     87  C   UNL A   1      37.442  19.223  25.018  1.00  0.00     0.015 A 
ATOM     88  C   UNL A   1      38.876  21.091  25.398  1.00  0.00     0.000 A 
ATOM     89  C   UNL A   1      32.102  21.854  22.122  1.00  0.00     0.000 A 
ATOM     90  C   UNL A   1      38.720  19.733  25.215  1.00  0.00     0.001 A 
ENDBRANCH  75  76
ENDBRANCH  73  75
ENDBRANCH  66  73
ENDBRANCH  60  63
ENDBRANCH  58  59
ENDBRANCH   1  58
TORSDOF 14
ENDMDL
MODEL 3
REMARK VINA RESULT:      -9.0      6.005     12.065
REMARK SMILES O=C(NCCCCNC(=O)c1nc(NC[C@H]2c3ccccc3CSc3ccccc32)c2ccccc2n1)c1ccc(-c2c3nc(c(-c4ccccc4)c4ccc([nH]4)c(-c4ccccc4)c4nc(c(-c5ccccc5)c5ccc2[nH]5)C=C4)C=C3)cc1
REMARK SMILES IDX 6 1 5 2 4 3 3 4 1 5 2 6 38 8 39 9 85 10 40 11 84 12 41 13
REMARK SMILES IDX 42 14 43 15 78 16 44 17 83 18 77 19 79 20 45 21 82 22 76 23
REMARK SMILES IDX 75 24 46 26 68 27 53 28 67 29 54 30 57 31 66 32 80 33 55 34
REMARK SMILES IDX 56 35 65 37 81 38 58 39 47 40 48 41 52 42 49 43 51 44 50 45
REMARK SMILES IDX 69 46 70 47 74 48 71 49 73 50 72 51 59 52 60 53 64 54 61 55
REMARK SMILES IDX 63 56 62 57 7 58 8 59 9 60 10 62 11 63 12 64 37 65 13 66
REMARK SMILES IDX 36 67 31 68 35 69 32 70 34 71 33 72 14 73 15 75 16 76 17 77
REMARK SMILES IDX 30 78 18 79 22 80 25 81 29 82 19 83 21 84 23 85 24 86 26 87
REMARK SMILES IDX 28 88 20 89 27 90
REMARK H PARENT 3 7 79 25 57 36 8 61 14 74
REMARK Flexibility Score: inf
ROOT
ATOM      1  C   UNL A   1      33.257  30.282  26.953  1.00  0.00     0.023 C 
ENDROOT
BRANCH   1   2
ATOM      2  C   UNL A   1      32.860  31.553  27.705  1.00  0.00     0.023 C 
BRANCH   2   3
ATOM      3  C   UNL A   1      32.636  32.791  26.839  1.00  0.00     0.116 C 
BRANCH   3   4
ATOM      4  N   UNL A   1      32.431  33.997  27.623  1.00  0.00    -0.352 N 
ATOM      5  O   UNL A   1      32.720  35.463  29.306  1.00  0.00    -0.269 OA
ATOM      6  C   UNL A   1      33.149  34.488  28.682  1.00  0.00     0.251 C 
ATOM      7  H   UNL A   1      31.658  34.544  27.354  1.00  0.00     0.163 HD
BRANCH   6   8
ATOM      8  C   UNL A   1      34.425  33.867  29.098  1.00  0.00     0.039 A 
ATOM      9  C   UNL A   1      35.549  34.029  28.279  1.00  0.00     0.014 A 
ATOM     10  C   UNL A   1      34.513  33.077  30.249  1.00  0.00     0.014 A 
ATOM     11  C   UNL A   1      36.763  33.433  28.629  1.00  0.00     0.010 A 
ATOM     12  C   UNL A   1      35.737  32.529  30.626  1.00  0.00     0.010 A 
ATOM     13  C   UNL A   1      36.870  32.689  29.813  1.00  0.00    -0.014 A 
BRANCH  13  14
ATOM     14  C   UNL A   1      38.143  32.036  30.204  1.00  0.00     0.031 A 
ATOM     15  C   UNL A   1      39.092  32.740  31.134  1.00  0.00     0.074 A 
ATOM     16  C   UNL A   1      38.481  30.844  29.679  1.00  0.00     0.049 A 
ATOM     17  N   UNL A   1      40.290  32.380  31.516  1.00  0.00    -0.248 NA
ATOM     18  C   UNL A   1      38.641  34.024  31.695  1.00  0.00     0.031 C 
ATOM     19  C   UNL A   1      37.654  30.060  28.761  1.00  0.00     0.029 A 
ATOM     20  N   UNL A   1      39.617  30.088  29.835  1.00  0.00    -0.354 N 
ATOM     21  C   UNL A   1      40.746  33.403  32.336  1.00  0.00     0.074 A 
ATOM     22  C   UNL A   1      39.711  34.412  32.373  1.00  0.00     0.031 C 
ATOM     23  C   UNL A   1      38.303  28.927  28.449  1.00  0.00     0.029 A 
ATOM     24  C   UNL A   1      39.608  28.925  29.106  1.00  0.00     0.049 A 
ATOM     25  H   UNL A   1      40.366  30.356  30.416  1.00  0.00     0.167 HD
ATOM     26  C   UNL A   1      41.918  33.488  33.009  1.00  0.00     0.031 A 
ATOM     27  C   UNL A   1      40.547  27.970  28.966  1.00  0.00     0.031 A 
ATOM     28  C   UNL A   1      42.934  32.471  32.996  1.00  0.00     0.049 A 
ATOM     29  C   UNL A   1      41.858  28.104  29.686  1.00  0.00     0.074 A 
ATOM     30  C   UNL A   1      44.110  32.427  33.725  1.00  0.00     0.029 A 
ATOM     31  N   UNL A   1      42.899  31.328  32.215  1.00  0.00    -0.354 N 
ATOM     32  N   UNL A   1      42.253  29.050  30.503  1.00  0.00    -0.248 NA
ATOM     33  C   UNL A   1      42.856  27.047  29.461  1.00  0.00     0.031 C 
ATOM     34  C   UNL A   1      44.818  31.287  33.337  1.00  0.00     0.029 A 
ATOM     35  C   UNL A   1      44.057  30.594  32.408  1.00  0.00     0.049 A 
ATOM     36  H   UNL A   1      42.163  31.077  31.613  1.00  0.00     0.167 HD
ATOM     37  C   UNL A   1      43.537  28.700  30.897  1.00  0.00     0.074 A 
ATOM     38  C   UNL A   1      43.854  27.449  30.240  1.00  0.00     0.031 C 
ATOM     39  C   UNL A   1      44.373  29.361  31.734  1.00  0.00     0.031 A 
BRANCH  26  40
ATOM     40  C   UNL A   1      42.178  34.732  33.810  1.00  0.00    -0.014 A 
ATOM     41  C   UNL A   1      41.801  34.777  35.162  1.00  0.00     0.009 A 
ATOM     42  C   UNL A   1      42.732  35.878  33.221  1.00  0.00     0.009 A 
ATOM     43  C   UNL A   1      41.973  35.945  35.907  1.00  0.00     0.001 A 
ATOM     44  C   UNL A   1      42.928  37.036  33.976  1.00  0.00     0.001 A 
ATOM     45  C   UNL A   1      42.543  37.070  35.316  1.00  0.00     0.000 A 
ENDBRANCH  26  40
BRANCH  27  46
ATOM     46  C   UNL A   1      40.256  26.797  28.103  1.00  0.00    -0.014 A 
ATOM     47  C   UNL A   1      39.523  25.707  28.599  1.00  0.00     0.009 A 
ATOM     48  C   UNL A   1      40.782  26.729  26.804  1.00  0.00     0.009 A 
ATOM     49  C   UNL A   1      39.348  24.559  27.824  1.00  0.00     0.001 A 
ATOM     50  C   UNL A   1      40.587  25.587  26.024  1.00  0.00     0.001 A 
ATOM     51  C   UNL A   1      39.881  24.500  26.537  1.00  0.00     0.000 A 
ENDBRANCH  27  46
BRANCH  39  52
ATOM     52  C   UNL A   1      45.728  28.768  31.993  1.00  0.00    -0.014 A 
ATOM     53  C   UNL A   1      45.922  27.921  33.097  1.00  0.00     0.009 A 
ATOM     54  C   UNL A   1      46.837  29.149  31.224  1.00  0.00     0.009 A 
ATOM     55  C   UNL A   1      47.204  27.488  33.441  1.00  0.00     0.001 A 
ATOM     56  C   UNL A   1      48.115  28.695  31.557  1.00  0.00     0.001 A 
ATOM     57  C   UNL A   1      48.299  27.876  32.670  1.00  0.00     0.000 A 
ENDBRANCH  39  52
ENDBRANCH  13  14
ENDBRANCH   6   8
ENDBRANCH   3   4
ENDBRANCH   2   3
ENDBRANCH   1   2
BRANCH   1  58
ATOM     58  C   UNL A   1      32.287  29.827  25.864  1.00  0.00     0.116 C 
BRANCH  58  59
ATOM     59  N   UNL A   1      32.904  29.777  24.550  1.00  0.00    -0.349 N 
ATOM     60  C   UNL A   1      33.255  28.661  23.807  1.00  0.00     0.289 C 
ATOM     61  H   UNL A   1      33.099  30.648  24.134  1.00  0.00     0.163 HD
ATOM     62  O   UNL A   1      33.853  28.820  22.743  1.00  0.00    -0.266 OA
BRANCH  60  63
ATOM     63  C   UNL A   1      32.938  27.286  24.326  1.00  0.00     0.220 A 
ATOM     64  N   UNL A   1      33.989  26.563  24.738  1.00  0.00    -0.206 NA
ATOM     65  N   UNL A   1      31.643  26.991  24.528  1.00  0.00    -0.224 NA
ATOM     66  C   UNL A   1      33.725  25.462  25.451  1.00  0.00     0.138 A 
ATOM     67  C   UNL A   1      31.392  25.879  25.215  1.00  0.00     0.077 A 
ATOM     68  C   UNL A   1      32.403  25.039  25.711  1.00  0.00     0.043 A 
ATOM     69  C   UNL A   1      30.067  25.586  25.507  1.00  0.00     0.029 A 
ATOM     70  C   UNL A   1      32.033  23.902  26.475  1.00  0.00     0.014 A 
ATOM     71  C   UNL A   1      29.711  24.483  26.286  1.00  0.00     0.002 A 
ATOM     72  C   UNL A   1      30.697  23.634  26.767  1.00  0.00     0.001 A 
BRANCH  66  73
ATOM     73  N   UNL A   1      34.807  24.800  26.031  1.00  0.00    -0.368 N 
ATOM     74  H   UNL A   1      34.960  24.866  27.000  1.00  0.00     0.162 HD
BRANCH  73  75
ATOM     75  C   UNL A   1      35.719  24.004  25.195  1.00  0.00     0.127 C 
BRANCH  75  76
ATOM     76  C   UNL A   1      35.282  22.494  25.049  1.00  0.00     0.070 C 
ATOM     77  C   UNL A   1      34.200  22.296  23.960  1.00  0.00    -0.035 A 
ATOM     78  C   UNL A   1      36.416  21.441  25.071  1.00  0.00    -0.025 A 
ATOM     79  C   UNL A   1      34.056  23.144  22.847  1.00  0.00     0.005 A 
ATOM     80  C   UNL A   1      33.264  21.249  24.083  1.00  0.00    -0.034 A 
ATOM     81  C   UNL A   1      36.227  20.040  24.958  1.00  0.00     0.011 A 
ATOM     82  C   UNL A   1      37.746  21.874  25.327  1.00  0.00     0.005 A 
ATOM     83  C   UNL A   1      33.032  22.987  21.910  1.00  0.00     0.000 A 
ATOM     84  C   UNL A   1      32.241  21.085  23.125  1.00  0.00     0.005 A 
ATOM     85  C   UNL A   1      33.391  20.235  25.182  1.00  0.00     0.110 C 
ATOM     86  S   UNL A   1      34.718  19.075  24.791  1.00  0.00    -0.121 SA
ATOM     87  C   UNL A   1      37.353  19.179  25.002  1.00  0.00     0.015 A 
ATOM     88  C   UNL A   1      38.839  21.005  25.387  1.00  0.00     0.000 A 
ATOM     89  C   UNL A   1      32.120  21.955  22.048  1.00  0.00     0.000 A 
ATOM     90  C   UNL A   1      38.644  19.652  25.209  1.00  0.00     0.001 A 
ENDBRANCH  75  76
ENDBRANCH  73  75
ENDBRANCH  66  73
ENDBRANCH  60  63
ENDBRANCH  58  59
ENDBRANCH   1  58
TORSDOF 14
ENDMDL
