MODEL 1
REMARK VINA RESULT:     -11.7      0.000      0.000
REMARK SMILES COc1ccc(C(=O)Nc2cc(C(=O)NCCCCNC(=O)c3ccc(-c4c5nc(c(-c6ccccc6)c6ccc([nH]6)c(-c6ccccc6)c6nc(c(-c7ccccc7)c7ccc4[nH]7)C=C6)C=C5)cc3)c(Cl)cc2Cl)cc1Cl
REMARK SMILES IDX 17 1 16 2 15 3 13 4 14 5 12 7 10 8 11 9 74 10 73 11 75 12
REMARK SMILES IDX 71 13 72 14 9 15 7 16 8 17 6 19 3 20 4 21 77 22 5 23 76 24
REMARK SMILES IDX 78 25 2 26 1 27 18 28 19 29 20 30 21 31 22 33 23 34 24 35
REMARK SMILES IDX 70 36 25 37 69 38 26 39 27 40 28 41 63 42 29 43 68 44 62 45
REMARK SMILES IDX 64 46 30 47 67 48 61 49 60 50 31 52 53 53 38 54 52 55 39 56
REMARK SMILES IDX 42 57 51 58 65 59 40 60 41 61 50 63 66 64 43 65 32 66 33 67
REMARK SMILES IDX 37 68 34 69 36 70 35 71 54 72 55 73 59 74 56 75 58 76 57 77
REMARK SMILES IDX 44 78 45 79 49 80 46 81 48 82 47 83
REMARK H PARENT 15 6 9 18 20 32 64 51 42 62
REMARK Flexibility Score: inf
ROOT
ATOM      1  C   UNL A   1      31.702  26.670  26.684  1.00  0.00     0.023 C 
ENDROOT
BRANCH   1   2
ATOM      2  C   UNL A   1      30.423  26.205  25.993  1.00  0.00     0.116 C 
BRANCH   2   3
ATOM      3  N   UNL A   1      29.975  24.869  26.340  1.00  0.00    -0.352 N 
ATOM      4  C   UNL A   1      30.656  23.672  26.372  1.00  0.00     0.252 C 
ATOM      5  O   UNL A   1      30.073  22.679  26.806  1.00  0.00    -0.269 OA
ATOM      6  H   UNL A   1      29.025  24.808  26.595  1.00  0.00     0.163 HD
BRANCH   4   7
ATOM      7  C   UNL A   1      32.013  23.484  25.791  1.00  0.00     0.060 A 
ATOM      8  C   UNL A   1      33.365  23.740  23.755  1.00  0.00     0.061 A 
ATOM      9  C   UNL A   1      32.128  23.776  24.411  1.00  0.00     0.043 A 
ATOM     10  C   UNL A   1      34.494  23.336  24.482  1.00  0.00     0.066 A 
ATOM     11  C   UNL A   1      34.384  22.976  25.825  1.00  0.00     0.044 A 
ATOM     12  Cl  UNL A   1      36.064  23.305  23.756  1.00  0.00    -0.082 Cl
ATOM     13  C   UNL A   1      33.141  23.005  26.467  1.00  0.00     0.055 A 
ATOM     14  Cl  UNL A   1      33.086  22.287  28.037  1.00  0.00    -0.083 Cl
BRANCH   8  15
ATOM     15  N   UNL A   1      33.532  24.070  22.393  1.00  0.00    -0.321 N 
ATOM     16  C   UNL A   1      33.020  25.056  21.580  1.00  0.00     0.255 C 
ATOM     17  O   UNL A   1      33.129  24.926  20.361  1.00  0.00    -0.269 OA
ATOM     18  H   UNL A   1      34.149  23.465  21.922  1.00  0.00     0.170 HD
BRANCH  16  19
ATOM     19  C   UNL A   1      32.448  26.326  22.109  1.00  0.00     0.041 A 
ATOM     20  C   UNL A   1      31.272  28.673  23.157  1.00  0.00     0.137 A 
ATOM     21  C   UNL A   1      30.494  27.693  22.523  1.00  0.00     0.049 A 
ATOM     22  C   UNL A   1      32.656  28.480  23.229  1.00  0.00     0.083 A 
ATOM     23  C   UNL A   1      31.068  26.525  22.014  1.00  0.00     0.018 A 
ATOM     24  C   UNL A   1      33.235  27.352  22.635  1.00  0.00     0.038 A 
ATOM     25  Cl  UNL A   1      33.758  29.483  24.105  1.00  0.00    -0.080 Cl
BRANCH  20  26
ATOM     26  O   UNL A   1      30.518  29.693  23.665  1.00  0.00    -0.495 OA
ATOM     27  C   UNL A   1      29.198  29.867  23.174  1.00  0.00     0.278 C 
ENDBRANCH  20  26
ENDBRANCH  16  19
ENDBRANCH   8  15
ENDBRANCH   4   7
ENDBRANCH   2   3
ENDBRANCH   1   2
BRANCH   1  28
ATOM     28  C   UNL A   1      31.852  28.167  26.948  1.00  0.00     0.023 C 
BRANCH  28  29
ATOM     29  C   UNL A   1      33.221  28.662  27.407  1.00  0.00     0.116 C 
BRANCH  29  30
ATOM     30  N   UNL A   1      33.285  30.089  27.680  1.00  0.00    -0.352 N 
ATOM     31  C   UNL A   1      34.338  30.861  28.116  1.00  0.00     0.251 C 
ATOM     32  H   UNL A   1      32.445  30.581  27.527  1.00  0.00     0.163 HD
ATOM     33  O   UNL A   1      34.169  32.058  28.335  1.00  0.00    -0.269 OA
BRANCH  31  34
ATOM     34  C   UNL A   1      35.664  30.253  28.367  1.00  0.00     0.039 A 
ATOM     35  C   UNL A   1      36.619  30.267  27.344  1.00  0.00     0.014 A 
ATOM     36  C   UNL A   1      35.978  29.680  29.601  1.00  0.00     0.014 A 
ATOM     37  C   UNL A   1      37.906  29.779  27.586  1.00  0.00     0.010 A 
ATOM     38  C   UNL A   1      37.286  29.283  29.869  1.00  0.00     0.010 A 
ATOM     39  C   UNL A   1      38.263  29.319  28.863  1.00  0.00    -0.014 A 
BRANCH  39  40
ATOM     40  C   UNL A   1      39.641  28.847  29.157  1.00  0.00     0.031 A 
ATOM     41  C   UNL A   1      40.607  29.744  29.885  1.00  0.00     0.074 A 
ATOM     42  C   UNL A   1      40.046  27.634  28.729  1.00  0.00     0.049 A 
ATOM     43  N   UNL A   1      41.857  29.526  30.208  1.00  0.00    -0.248 NA
ATOM     44  C   UNL A   1      40.112  31.075  30.274  1.00  0.00     0.031 C 
ATOM     45  C   UNL A   1      39.228  26.682  27.976  1.00  0.00     0.029 A 
ATOM     46  N   UNL A   1      41.252  26.995  28.871  1.00  0.00    -0.354 N 
ATOM     47  C   UNL A   1      42.297  30.693  30.821  1.00  0.00     0.074 A 
ATOM     48  C   UNL A   1      41.205  31.639  30.763  1.00  0.00     0.031 C 
ATOM     49  C   UNL A   1      39.941  25.565  27.758  1.00  0.00     0.029 A 
ATOM     50  C   UNL A   1      41.276  25.735  28.320  1.00  0.00     0.049 A 
ATOM     51  H   UNL A   1      42.027  27.400  29.323  1.00  0.00     0.167 HD
ATOM     52  C   UNL A   1      43.492  30.951  31.404  1.00  0.00     0.031 A 
ATOM     53  C   UNL A   1      42.261  24.818  28.279  1.00  0.00     0.031 A 
ATOM     54  C   UNL A   1      44.577  30.011  31.472  1.00  0.00     0.049 A 
ATOM     55  C   UNL A   1      43.584  25.130  28.924  1.00  0.00     0.074 A 
ATOM     56  C   UNL A   1      45.810  30.157  32.083  1.00  0.00     0.029 A 
ATOM     57  N   UNL A   1      44.558  28.746  30.905  1.00  0.00    -0.354 N 
ATOM     58  N   UNL A   1      43.961  26.214  29.559  1.00  0.00    -0.248 NA
ATOM     59  C   UNL A   1      44.612  24.081  28.860  1.00  0.00     0.031 C 
ATOM     60  C   UNL A   1      46.556  28.999  31.842  1.00  0.00     0.029 A 
ATOM     61  C   UNL A   1      45.766  28.107  31.135  1.00  0.00     0.049 A 
ATOM     62  H   UNL A   1      43.800  28.359  30.411  1.00  0.00     0.167 HD
ATOM     63  C   UNL A   1      45.254  25.964  30.001  1.00  0.00     0.074 A 
ATOM     64  C   UNL A   1      45.591  24.622  29.572  1.00  0.00     0.031 C 
ATOM     65  C   UNL A   1      46.086  26.771  30.704  1.00  0.00     0.031 A 
BRANCH  52  66
ATOM     66  C   UNL A   1      43.678  32.316  32.011  1.00  0.00    -0.014 A 
ATOM     67  C   UNL A   1      43.344  32.568  33.354  1.00  0.00     0.009 A 
ATOM     68  C   UNL A   1      44.198  33.363  31.237  1.00  0.00     0.009 A 
ATOM     69  C   UNL A   1      43.480  33.850  33.889  1.00  0.00     0.001 A 
ATOM     70  C   UNL A   1      44.366  34.636  31.784  1.00  0.00     0.001 A 
ATOM     71  C   UNL A   1      43.994  34.881  33.106  1.00  0.00     0.000 A 
ENDBRANCH  52  66
BRANCH  53  72
ATOM     72  C   UNL A   1      42.025  23.497  27.639  1.00  0.00    -0.014 A 
ATOM     73  C   UNL A   1      41.457  22.444  28.372  1.00  0.00     0.009 A 
ATOM     74  C   UNL A   1      42.371  23.278  26.296  1.00  0.00     0.009 A 
ATOM     75  C   UNL A   1      41.264  21.192  27.784  1.00  0.00     0.001 A 
ATOM     76  C   UNL A   1      42.149  22.033  25.702  1.00  0.00     0.001 A 
ATOM     77  C   UNL A   1      41.607  20.989  26.448  1.00  0.00     0.000 A 
ENDBRANCH  53  72
BRANCH  65  78
ATOM     78  C   UNL A   1      47.423  26.206  31.097  1.00  0.00    -0.014 A 
ATOM     79  C   UNL A   1      48.516  26.226  30.218  1.00  0.00     0.009 A 
ATOM     80  C   UNL A   1      47.597  25.679  32.386  1.00  0.00     0.009 A 
ATOM     81  C   UNL A   1      49.746  25.692  30.608  1.00  0.00     0.001 A 
ATOM     82  C   UNL A   1      48.835  25.174  32.785  1.00  0.00     0.001 A 
ATOM     83  C   UNL A   1      49.906  25.172  31.893  1.00  0.00     0.000 A 
ENDBRANCH  65  78
ENDBRANCH  39  40
ENDBRANCH  31  34
ENDBRANCH  29  30
ENDBRANCH  28  29
ENDBRANCH   1  28
TORSDOF 14
ENDMDL
MODEL 2
REMARK VINA RESULT:     -11.5      3.067      5.602
REMARK SMILES COc1ccc(C(=O)Nc2cc(C(=O)NCCCCNC(=O)c3ccc(-c4c5nc(c(-c6ccccc6)c6ccc([nH]6)c(-c6ccccc6)c6nc(c(-c7ccccc7)c7ccc4[nH]7)C=C6)C=C5)cc3)c(Cl)cc2Cl)cc1Cl
REMARK SMILES IDX 17 1 16 2 15 3 13 4 14 5 12 7 10 8 11 9 74 10 73 11 75 12
REMARK SMILES IDX 71 13 72 14 9 15 7 16 8 17 6 19 3 20 4 21 77 22 5 23 76 24
REMARK SMILES IDX 78 25 2 26 1 27 18 28 19 29 20 30 21 31 22 33 23 34 24 35
REMARK SMILES IDX 70 36 25 37 69 38 26 39 27 40 28 41 63 42 29 43 68 44 62 45
REMARK SMILES IDX 64 46 30 47 67 48 61 49 60 50 31 52 53 53 38 54 52 55 39 56
REMARK SMILES IDX 42 57 51 58 65 59 40 60 41 61 50 63 66 64 43 65 32 66 33 67
REMARK SMILES IDX 37 68 34 69 36 70 35 71 54 72 55 73 59 74 56 75 58 76 57 77
REMARK SMILES IDX 44 78 45 79 49 80 46 81 48 82 47 83
REMARK H PARENT 15 6 9 18 20 32 64 51 42 62
REMARK Flexibility Score: inf
ROOT
ATOM      1  C   UNL A   1      31.724  30.717  26.271  1.00  0.00     0.023 C 
ENDROOT
BRANCH   1   2
ATOM      2  C   UNL A   1      32.961  29.961  26.746  1.00  0.00     0.116 C 
BRANCH   2   3
ATOM      3  N   UNL A   1      33.773  29.368  25.700  1.00  0.00    -0.352 N 
ATOM      4  C   UNL A   1      33.419  28.583  24.624  1.00  0.00     0.252 C 
ATOM      5  O   UNL A   1      34.289  28.285  23.807  1.00  0.00    -0.269 OA
ATOM      6  H   UNL A   1      34.737  29.558  25.770  1.00  0.00     0.163 HD
BRANCH   4   7
ATOM      7  C   UNL A   1      32.073  27.968  24.464  1.00  0.00     0.060 A 
ATOM      8  C   UNL A   1      30.485  26.362  25.431  1.00  0.00     0.061 A 
ATOM      9  C   UNL A   1      31.752  26.957  25.401  1.00  0.00     0.043 A 
ATOM     10  C   UNL A   1      29.547  26.741  24.459  1.00  0.00     0.066 A 
ATOM     11  C   UNL A   1      29.872  27.684  23.486  1.00  0.00     0.044 A 
ATOM     12  Cl  UNL A   1      27.947  26.083  24.455  1.00  0.00    -0.082 Cl
ATOM     13  C   UNL A   1      31.146  28.264  23.457  1.00  0.00     0.055 A 
ATOM     14  Cl  UNL A   1      31.515  29.206  22.058  1.00  0.00    -0.083 Cl
BRANCH   8  15
ATOM     15  N   UNL A   1      30.108  25.386  26.378  1.00  0.00    -0.321 N 
ATOM     16  C   UNL A   1      30.384  24.046  26.529  1.00  0.00     0.255 C 
ATOM     17  O   UNL A   1      29.684  23.386  27.299  1.00  0.00    -0.269 OA
ATOM     18  H   UNL A   1      29.521  25.740  27.085  1.00  0.00     0.170 HD
BRANCH  16  19
ATOM     19  C   UNL A   1      31.558  23.384  25.896  1.00  0.00     0.041 A 
ATOM     20  C   UNL A   1      33.823  22.095  24.802  1.00  0.00     0.137 A 
ATOM     21  C   UNL A   1      33.927  22.888  25.954  1.00  0.00     0.049 A 
ATOM     22  C   UNL A   1      32.575  21.983  24.181  1.00  0.00     0.083 A 
ATOM     23  C   UNL A   1      32.807  23.517  26.506  1.00  0.00     0.018 A 
ATOM     24  C   UNL A   1      31.478  22.691  24.686  1.00  0.00     0.038 A 
ATOM     25  Cl  UNL A   1      32.210  20.931  22.857  1.00  0.00    -0.080 Cl
BRANCH  20  26
ATOM     26  O   UNL A   1      35.006  21.494  24.472  1.00  0.00    -0.495 OA
ATOM     27  C   UNL A   1      35.898  21.141  25.517  1.00  0.00     0.278 C 
ENDBRANCH  20  26
ENDBRANCH  16  19
ENDBRANCH   8  15
ENDBRANCH   4   7
ENDBRANCH   2   3
ENDBRANCH   1   2
BRANCH   1  28
ATOM     28  C   UNL A   1      31.460  32.090  26.886  1.00  0.00     0.023 C 
BRANCH  28  29
ATOM     29  C   UNL A   1      32.652  33.033  27.027  1.00  0.00     0.116 C 
BRANCH  29  30
ATOM     30  N   UNL A   1      32.340  34.307  27.656  1.00  0.00    -0.352 N 
ATOM     31  C   UNL A   1      32.992  34.979  28.667  1.00  0.00     0.251 C 
ATOM     32  H   UNL A   1      31.541  34.762  27.304  1.00  0.00     0.163 HD
ATOM     33  O   UNL A   1      32.531  36.034  29.094  1.00  0.00    -0.269 OA
BRANCH  31  34
ATOM     34  C   UNL A   1      34.219  34.418  29.275  1.00  0.00     0.039 A 
ATOM     35  C   UNL A   1      34.108  33.666  30.449  1.00  0.00     0.014 A 
ATOM     36  C   UNL A   1      35.473  34.616  28.695  1.00  0.00     0.014 A 
ATOM     37  C   UNL A   1      35.239  33.052  30.994  1.00  0.00     0.010 A 
ATOM     38  C   UNL A   1      36.581  33.927  29.183  1.00  0.00     0.010 A 
ATOM     39  C   UNL A   1      36.480  33.145  30.343  1.00  0.00    -0.014 A 
BRANCH  39  40
ATOM     40  C   UNL A   1      37.684  32.455  30.873  1.00  0.00     0.031 A 
ATOM     41  C   UNL A   1      38.351  32.957  32.127  1.00  0.00     0.074 A 
ATOM     42  C   UNL A   1      38.214  31.410  30.205  1.00  0.00     0.049 A 
ATOM     43  N   UNL A   1      39.424  32.510  32.730  1.00  0.00    -0.248 NA
ATOM     44  C   UNL A   1      37.749  34.134  32.772  1.00  0.00     0.031 C 
ATOM     45  C   UNL A   1      37.695  30.850  28.957  1.00  0.00     0.029 A 
ATOM     46  N   UNL A   1      39.308  30.631  30.489  1.00  0.00    -0.354 N 
ATOM     47  C   UNL A   1      39.632  33.359  33.809  1.00  0.00     0.074 A 
ATOM     48  C   UNL A   1      38.616  34.386  33.741  1.00  0.00     0.031 C 
ATOM     49  C   UNL A   1      38.445  29.793  28.603  1.00  0.00     0.029 A 
ATOM     50  C   UNL A   1      39.518  29.624  29.578  1.00  0.00     0.049 A 
ATOM     51  H   UNL A   1      39.887  30.780  31.270  1.00  0.00     0.167 HD
ATOM     52  C   UNL A   1      40.565  33.282  34.788  1.00  0.00     0.031 A 
ATOM     53  C   UNL A   1      40.465  28.668  29.535  1.00  0.00     0.031 A 
ATOM     54  C   UNL A   1      41.570  32.258  34.866  1.00  0.00     0.049 A 
ATOM     55  C   UNL A   1      41.499  28.607  30.627  1.00  0.00     0.074 A 
ATOM     56  C   UNL A   1      42.530  32.062  35.842  1.00  0.00     0.029 A 
ATOM     57  N   UNL A   1      41.745  31.255  33.924  1.00  0.00    -0.354 N 
ATOM     58  N   UNL A   1      41.639  29.378  31.678  1.00  0.00    -0.248 NA
ATOM     59  C   UNL A   1      42.494  27.529  30.532  1.00  0.00     0.031 C 
ATOM     60  C   UNL A   1      43.319  30.970  35.466  1.00  0.00     0.029 A 
ATOM     61  C   UNL A   1      42.811  30.448  34.287  1.00  0.00     0.049 A 
ATOM     62  H   UNL A   1      41.195  31.135  33.117  1.00  0.00     0.167 HD
ATOM     63  C   UNL A   1      42.714  28.858  32.389  1.00  0.00     0.074 A 
ATOM     64  C   UNL A   1      43.179  27.699  31.655  1.00  0.00     0.031 C 
ATOM     65  C   UNL A   1      43.262  29.297  33.548  1.00  0.00     0.031 A 
BRANCH  52  66
ATOM     66  C   UNL A   1      40.533  34.346  35.852  1.00  0.00    -0.014 A 
ATOM     67  C   UNL A   1      41.281  35.530  35.721  1.00  0.00     0.009 A 
ATOM     68  C   UNL A   1      39.744  34.170  36.997  1.00  0.00     0.009 A 
ATOM     69  C   UNL A   1      41.277  36.487  36.737  1.00  0.00     0.001 A 
ATOM     70  C   UNL A   1      39.714  35.144  37.997  1.00  0.00     0.001 A 
ATOM     71  C   UNL A   1      40.491  36.295  37.872  1.00  0.00     0.000 A 
ENDBRANCH  52  66
BRANCH  53  72
ATOM     72  C   UNL A   1      40.461  27.660  28.442  1.00  0.00    -0.014 A 
ATOM     73  C   UNL A   1      41.166  27.901  27.252  1.00  0.00     0.009 A 
ATOM     74  C   UNL A   1      39.750  26.457  28.575  1.00  0.00     0.009 A 
ATOM     75  C   UNL A   1      41.138  26.972  26.209  1.00  0.00     0.001 A 
ATOM     76  C   UNL A   1      39.748  25.517  27.542  1.00  0.00     0.001 A 
ATOM     77  C   UNL A   1      40.432  25.780  26.357  1.00  0.00     0.000 A 
ENDBRANCH  53  72
BRANCH  65  78
ATOM     78  C   UNL A   1      44.396  28.493  34.121  1.00  0.00    -0.014 A 
ATOM     79  C   UNL A   1      44.167  27.412  34.986  1.00  0.00     0.009 A 
ATOM     80  C   UNL A   1      45.715  28.805  33.758  1.00  0.00     0.009 A 
ATOM     81  C   UNL A   1      45.240  26.684  35.506  1.00  0.00     0.001 A 
ATOM     82  C   UNL A   1      46.784  28.057  34.253  1.00  0.00     0.001 A 
ATOM     83  C   UNL A   1      46.546  27.004  35.135  1.00  0.00     0.000 A 
ENDBRANCH  65  78
ENDBRANCH  39  40
ENDBRANCH  31  34
ENDBRANCH  29  30
ENDBRANCH  28  29
ENDBRANCH   1  28
TORSDOF 14
ENDMDL
MODEL 3
REMARK VINA RESULT:     -11.5      3.368      8.046
REMARK SMILES COc1ccc(C(=O)Nc2cc(C(=O)NCCCCNC(=O)c3ccc(-c4c5nc(c(-c6ccccc6)c6ccc([nH]6)c(-c6ccccc6)c6nc(c(-c7ccccc7)c7ccc4[nH]7)C=C6)C=C5)cc3)c(Cl)cc2Cl)cc1Cl
REMARK SMILES IDX 17 1 16 2 15 3 13 4 14 5 12 7 10 8 11 9 74 10 73 11 75 12
REMARK SMILES IDX 71 13 72 14 9 15 7 16 8 17 6 19 3 20 4 21 77 22 5 23 76 24
REMARK SMILES IDX 78 25 2 26 1 27 18 28 19 29 20 30 21 31 22 33 23 34 24 35
REMARK SMILES IDX 70 36 25 37 69 38 26 39 27 40 28 41 63 42 29 43 68 44 62 45
REMARK SMILES IDX 64 46 30 47 67 48 61 49 60 50 31 52 53 53 38 54 52 55 39 56
REMARK SMILES IDX 42 57 51 58 65 59 40 60 41 61 50 63 66 64 43 65 32 66 33 67
REMARK SMILES IDX 37 68 34 69 36 70 35 71 54 72 55 73 59 74 56 75 58 76 57 77
REMARK SMILES IDX 44 78 45 79 49 80 46 81 48 82 47 83
REMARK H PARENT 15 6 9 18 20 32 64 51 42 62
REMARK Flexibility Score: inf
ROOT
ATOM      1  C   UNL A   1      31.638  30.768  26.156  1.00  0.00     0.023 C 
ENDROOT
BRANCH   1   2
ATOM      2  C   UNL A   1      32.924  30.079  26.606  1.00  0.00     0.116 C 
BRANCH   2   3
ATOM      3  N   UNL A   1      33.719  29.485  25.548  1.00  0.00    -0.352 N 
ATOM      4  C   UNL A   1      33.351  28.686  24.488  1.00  0.00     0.252 C 
ATOM      5  O   UNL A   1      34.208  28.390  23.655  1.00  0.00    -0.269 OA
ATOM      6  H   UNL A   1      34.682  29.687  25.595  1.00  0.00     0.163 HD
BRANCH   4   7
ATOM      7  C   UNL A   1      32.010  28.055  24.362  1.00  0.00     0.060 A 
ATOM      8  C   UNL A   1      30.467  26.430  25.372  1.00  0.00     0.061 A 
ATOM      9  C   UNL A   1      31.726  27.041  25.308  1.00  0.00     0.043 A 
ATOM     10  C   UNL A   1      29.501  26.796  24.424  1.00  0.00     0.066 A 
ATOM     11  C   UNL A   1      29.789  27.741  23.441  1.00  0.00     0.044 A 
ATOM     12  Cl  UNL A   1      27.908  26.118  24.461  1.00  0.00    -0.082 Cl
ATOM     13  C   UNL A   1      31.054  28.337  23.380  1.00  0.00     0.055 A 
ATOM     14  Cl  UNL A   1      31.375  29.282  21.971  1.00  0.00    -0.083 Cl
BRANCH   8  15
ATOM     15  N   UNL A   1      30.127  25.451  26.329  1.00  0.00    -0.321 N 
ATOM     16  C   UNL A   1      30.433  24.118  26.482  1.00  0.00     0.255 C 
ATOM     17  O   UNL A   1      29.761  23.447  27.266  1.00  0.00    -0.269 OA
ATOM     18  H   UNL A   1      29.544  25.796  27.045  1.00  0.00     0.170 HD
BRANCH  16  19
ATOM     19  C   UNL A   1      31.611  23.478  25.833  1.00  0.00     0.041 A 
ATOM     20  C   UNL A   1      33.890  22.240  24.707  1.00  0.00     0.137 A 
ATOM     21  C   UNL A   1      34.005  23.115  25.798  1.00  0.00     0.049 A 
ATOM     22  C   UNL A   1      32.621  22.019  24.162  1.00  0.00     0.083 A 
ATOM     23  C   UNL A   1      32.879  23.720  26.366  1.00  0.00     0.018 A 
ATOM     24  C   UNL A   1      31.511  22.700  24.677  1.00  0.00     0.038 A 
ATOM     25  Cl  UNL A   1      32.252  20.861  22.932  1.00  0.00    -0.080 Cl
BRANCH  20  26
ATOM     26  O   UNL A   1      35.087  21.682  24.356  1.00  0.00    -0.495 OA
ATOM     27  C   UNL A   1      35.844  21.022  25.358  1.00  0.00     0.278 C 
ENDBRANCH  20  26
ENDBRANCH  16  19
ENDBRANCH   8  15
ENDBRANCH   4   7
ENDBRANCH   2   3
ENDBRANCH   1   2
BRANCH   1  28
ATOM     28  C   UNL A   1      31.430  32.218  26.586  1.00  0.00     0.023 C 
BRANCH  28  29
ATOM     29  C   UNL A   1      32.594  32.913  27.287  1.00  0.00     0.116 C 
BRANCH  29  30
ATOM     30  N   UNL A   1      32.317  34.278  27.705  1.00  0.00    -0.352 N 
ATOM     31  C   UNL A   1      32.970  35.074  28.620  1.00  0.00     0.251 C 
ATOM     32  H   UNL A   1      31.544  34.700  27.265  1.00  0.00     0.163 HD
ATOM     33  O   UNL A   1      32.541  36.198  28.869  1.00  0.00    -0.269 OA
BRANCH  31  34
ATOM     34  C   UNL A   1      34.161  34.571  29.341  1.00  0.00     0.039 A 
ATOM     35  C   UNL A   1      33.996  34.017  30.614  1.00  0.00     0.014 A 
ATOM     36  C   UNL A   1      35.434  34.632  28.771  1.00  0.00     0.014 A 
ATOM     37  C   UNL A   1      35.091  33.456  31.277  1.00  0.00     0.010 A 
ATOM     38  C   UNL A   1      36.504  33.989  29.390  1.00  0.00     0.010 A 
ATOM     39  C   UNL A   1      36.347  33.401  30.654  1.00  0.00    -0.014 A 
BRANCH  39  40
ATOM     40  C   UNL A   1      37.512  32.760  31.317  1.00  0.00     0.031 A 
ATOM     41  C   UNL A   1      38.182  31.570  30.683  1.00  0.00     0.074 A 
ATOM     42  C   UNL A   1      37.941  33.211  32.513  1.00  0.00     0.049 A 
ATOM     43  N   UNL A   1      39.190  30.857  31.119  1.00  0.00    -0.248 NA
ATOM     44  C   UNL A   1      37.626  31.100  29.404  1.00  0.00     0.031 C 
ATOM     45  C   UNL A   1      37.358  34.326  33.260  1.00  0.00     0.029 A 
ATOM     46  N   UNL A   1      38.974  32.783  33.310  1.00  0.00    -0.354 N 
ATOM     47  C   UNL A   1      39.374  29.850  30.178  1.00  0.00     0.074 A 
ATOM     48  C   UNL A   1      38.334  30.003  29.186  1.00  0.00     0.031 C 
ATOM     49  C   UNL A   1      38.065  34.522  34.385  1.00  0.00     0.029 A 
ATOM     50  C   UNL A   1      39.127  33.523  34.459  1.00  0.00     0.049 A 
ATOM     51  H   UNL A   1      39.550  32.019  33.082  1.00  0.00     0.167 HD
ATOM     52  C   UNL A   1      40.337  28.899  30.126  1.00  0.00     0.031 A 
ATOM     53  C   UNL A   1      40.025  33.415  35.455  1.00  0.00     0.031 A 
ATOM     54  C   UNL A   1      41.378  28.750  31.105  1.00  0.00     0.049 A 
ATOM     55  C   UNL A   1      41.079  32.344  35.382  1.00  0.00     0.074 A 
ATOM     56  C   UNL A   1      42.429  27.849  31.118  1.00  0.00     0.029 A 
ATOM     57  N   UNL A   1      41.498  29.522  32.250  1.00  0.00    -0.354 N 
ATOM     58  N   UNL A   1      41.281  31.443  34.451  1.00  0.00    -0.248 NA
ATOM     59  C   UNL A   1      42.041  32.288  36.493  1.00  0.00     0.031 C 
ATOM     60  C   UNL A   1      43.156  28.045  32.297  1.00  0.00     0.029 A 
ATOM     61  C   UNL A   1      42.595  29.107  32.987  1.00  0.00     0.049 A 
ATOM     62  H   UNL A   1      40.893  30.256  32.502  1.00  0.00     0.167 HD
ATOM     63  C   UNL A   1      42.412  30.738  34.844  1.00  0.00     0.074 A 
ATOM     64  C   UNL A   1      42.858  31.324  36.091  1.00  0.00     0.031 C 
ATOM     65  C   UNL A   1      43.029  29.702  34.225  1.00  0.00     0.031 A 
BRANCH  52  66
ATOM     66  C   UNL A   1      40.295  27.944  28.963  1.00  0.00    -0.014 A 
ATOM     67  C   UNL A   1      39.612  26.718  29.050  1.00  0.00     0.009 A 
ATOM     68  C   UNL A   1      40.941  28.274  27.763  1.00  0.00     0.009 A 
ATOM     69  C   UNL A   1      39.622  25.824  27.978  1.00  0.00     0.001 A 
ATOM     70  C   UNL A   1      40.920  27.393  26.679  1.00  0.00     0.001 A 
ATOM     71  C   UNL A   1      40.272  26.163  26.793  1.00  0.00     0.000 A 
ENDBRANCH  52  66
BRANCH  53  72
ATOM     72  C   UNL A   1      39.997  34.371  36.594  1.00  0.00    -0.014 A 
ATOM     73  C   UNL A   1      39.286  34.060  37.764  1.00  0.00     0.009 A 
ATOM     74  C   UNL A   1      40.673  35.599  36.518  1.00  0.00     0.009 A 
ATOM     75  C   UNL A   1      39.230  34.970  38.823  1.00  0.00     0.001 A 
ATOM     76  C   UNL A   1      40.640  36.493  37.591  1.00  0.00     0.001 A 
ATOM     77  C   UNL A   1      39.910  36.183  38.736  1.00  0.00     0.000 A 
ENDBRANCH  53  72
BRANCH  65  78
ATOM     78  C   UNL A   1      44.282  29.168  34.861  1.00  0.00    -0.014 A 
ATOM     79  C   UNL A   1      44.245  28.111  35.784  1.00  0.00     0.009 A 
ATOM     80  C   UNL A   1      45.524  29.711  34.500  1.00  0.00     0.009 A 
ATOM     81  C   UNL A   1      45.425  27.637  36.362  1.00  0.00     0.001 A 
ATOM     82  C   UNL A   1      46.705  29.215  35.054  1.00  0.00     0.001 A 
ATOM     83  C   UNL A   1      46.653  28.186  35.992  1.00  0.00     0.000 A 
ENDBRANCH  65  78
ENDBRANCH  39  40
ENDBRANCH  31  34
ENDBRANCH  29  30
ENDBRANCH  28  29
ENDBRANCH   1  28
TORSDOF 14
ENDMDL
