MODEL 1
REMARK VINA RESULT:     -12.0      0.000      0.000
REMARK SMILES O=C(NCCCCNC(=O)[C@@H]1C=C[C@H](NC(=O)[C@@H]2Cc3ccccc3O2)C1)c1ccc(-c2c3nc(c(-c4ccccc4)c4ccc([nH]4)c(-c4ccccc4)c4nc(c(-c5ccccc5)c5ccc2[nH]5)C=C4)C=C3)cc1
REMARK SMILES IDX 5 1 4 2 3 3 1 4 2 5 28 7 29 8 75 9 30 10 74 11 31 12 32 13
REMARK SMILES IDX 33 14 68 15 34 16 73 17 67 18 69 19 35 20 72 21 66 22 65 23
REMARK SMILES IDX 36 25 58 26 43 27 57 28 44 29 47 30 56 31 70 32 45 33 46 34
REMARK SMILES IDX 55 36 71 37 48 38 37 39 38 40 42 41 39 42 41 43 40 44 59 45
REMARK SMILES IDX 60 46 64 47 61 48 63 49 62 50 49 51 50 52 54 53 51 54 53 55
REMARK SMILES IDX 52 56 6 57 7 58 8 59 9 60 10 62 11 63 12 64 27 65 13 66
REMARK SMILES IDX 14 67 15 68 16 69 17 71 18 72 19 73 26 74 20 75 25 76 21 77
REMARK SMILES IDX 24 78 22 79 23 80
REMARK H PARENT 3 6 69 24 47 35 8 61 15 70
REMARK Flexibility Score: inf
ROOT
ATOM      1  C   UNL A   1      38.170  19.634  24.788  1.00  0.00     0.023 C 
ENDROOT
BRANCH   1   2
ATOM      2  C   UNL A   1      39.246  19.879  25.841  1.00  0.00     0.116 C 
BRANCH   2   3
ATOM      3  N   UNL A   1      40.315  18.893  25.812  1.00  0.00    -0.352 N 
ATOM      4  O   UNL A   1      42.446  18.148  25.861  1.00  0.00    -0.269 OA
ATOM      5  C   UNL A   1      41.660  19.075  26.036  1.00  0.00     0.251 C 
ATOM      6  H   UNL A   1      40.039  17.971  25.604  1.00  0.00     0.163 HD
BRANCH   5   7
ATOM      7  C   UNL A   1      42.162  20.402  26.455  1.00  0.00     0.039 A 
ATOM      8  C   UNL A   1      42.164  20.771  27.802  1.00  0.00     0.014 A 
ATOM      9  C   UNL A   1      42.632  21.291  25.483  1.00  0.00     0.014 A 
ATOM     10  C   UNL A   1      42.498  22.072  28.159  1.00  0.00     0.010 A 
ATOM     11  C   UNL A   1      43.043  22.576  25.854  1.00  0.00     0.010 A 
ATOM     12  C   UNL A   1      42.948  22.987  27.192  1.00  0.00    -0.014 A 
BRANCH  12  13
ATOM     13  C   UNL A   1      43.355  24.347  27.626  1.00  0.00     0.031 A 
ATOM     14  C   UNL A   1      44.790  24.794  27.564  1.00  0.00     0.074 A 
ATOM     15  C   UNL A   1      42.398  25.209  28.024  1.00  0.00     0.049 A 
ATOM     16  N   UNL A   1      45.294  25.973  27.831  1.00  0.00    -0.248 NA
ATOM     17  C   UNL A   1      45.787  23.793  27.156  1.00  0.00     0.031 C 
ATOM     18  C   UNL A   1      40.972  24.890  28.136  1.00  0.00     0.029 A 
ATOM     19  N   UNL A   1      42.473  26.533  28.372  1.00  0.00    -0.354 N 
ATOM     20  C   UNL A   1      46.664  25.855  27.633  1.00  0.00     0.074 A 
ATOM     21  C   UNL A   1      46.917  24.482  27.249  1.00  0.00     0.031 C 
ATOM     22  C   UNL A   1      40.300  26.001  28.471  1.00  0.00     0.029 A 
ATOM     23  C   UNL A   1      41.249  27.094  28.646  1.00  0.00     0.049 A 
ATOM     24  H   UNL A   1      43.319  27.032  28.421  1.00  0.00     0.167 HD
ATOM     25  C   UNL A   1      47.622  26.806  27.749  1.00  0.00     0.031 A 
ATOM     26  C   UNL A   1      40.922  28.349  29.003  1.00  0.00     0.031 A 
ATOM     27  C   UNL A   1      47.374  28.171  28.135  1.00  0.00     0.049 A 
ATOM     28  C   UNL A   1      42.006  29.377  29.134  1.00  0.00     0.074 A 
ATOM     29  C   UNL A   1      48.283  29.207  28.279  1.00  0.00     0.029 A 
ATOM     30  N   UNL A   1      46.126  28.691  28.435  1.00  0.00    -0.354 N 
ATOM     31  N   UNL A   1      43.293  29.250  28.924  1.00  0.00    -0.248 NA
ATOM     32  C   UNL A   1      41.589  30.724  29.549  1.00  0.00     0.031 C 
ATOM     33  C   UNL A   1      47.587  30.345  28.701  1.00  0.00     0.029 A 
ATOM     34  C   UNL A   1      46.241  30.030  28.776  1.00  0.00     0.049 A 
ATOM     35  H   UNL A   1      45.282  28.186  28.410  1.00  0.00     0.167 HD
ATOM     36  C   UNL A   1      43.841  30.500  29.175  1.00  0.00     0.074 A 
ATOM     37  C   UNL A   1      42.741  31.378  29.522  1.00  0.00     0.031 C 
ATOM     38  C   UNL A   1      45.139  30.885  29.131  1.00  0.00     0.031 A 
BRANCH  25  39
ATOM     39  C   UNL A   1      49.042  26.399  27.469  1.00  0.00    -0.014 A 
ATOM     40  C   UNL A   1      49.859  25.875  28.484  1.00  0.00     0.009 A 
ATOM     41  C   UNL A   1      49.551  26.485  26.164  1.00  0.00     0.009 A 
ATOM     42  C   UNL A   1      51.165  25.469  28.202  1.00  0.00     0.001 A 
ATOM     43  C   UNL A   1      50.850  26.058  25.880  1.00  0.00     0.001 A 
ATOM     44  C   UNL A   1      51.658  25.555  26.899  1.00  0.00     0.000 A 
ENDBRANCH  25  39
BRANCH  26  45
ATOM     45  C   UNL A   1      39.504  28.695  29.269  1.00  0.00    -0.014 A 
ATOM     46  C   UNL A   1      38.960  28.552  30.554  1.00  0.00     0.009 A 
ATOM     47  C   UNL A   1      38.689  29.181  28.235  1.00  0.00     0.009 A 
ATOM     48  C   UNL A   1      37.621  28.871  30.791  1.00  0.00     0.001 A 
ATOM     49  C   UNL A   1      37.360  29.527  28.482  1.00  0.00     0.001 A 
ATOM     50  C   UNL A   1      36.825  29.363  29.758  1.00  0.00     0.000 A 
ENDBRANCH  26  45
BRANCH  38  51
ATOM     51  C   UNL A   1      45.428  32.321  29.455  1.00  0.00    -0.014 A 
ATOM     52  C   UNL A   1      45.723  32.720  30.768  1.00  0.00     0.009 A 
ATOM     53  C   UNL A   1      45.415  33.284  28.435  1.00  0.00     0.009 A 
ATOM     54  C   UNL A   1      45.959  34.065  31.059  1.00  0.00     0.001 A 
ATOM     55  C   UNL A   1      45.676  34.623  28.725  1.00  0.00     0.001 A 
ATOM     56  C   UNL A   1      45.938  35.014  30.038  1.00  0.00     0.000 A 
ENDBRANCH  38  51
ENDBRANCH  12  13
ENDBRANCH   5   7
ENDBRANCH   2   3
ENDBRANCH   1   2
BRANCH   1  57
ATOM     57  C   UNL A   1      36.874  20.429  24.975  1.00  0.00     0.023 C 
BRANCH  57  58
ATOM     58  C   UNL A   1      37.053  21.796  25.638  1.00  0.00     0.116 C 
BRANCH  58  59
ATOM     59  N   UNL A   1      35.915  22.139  26.470  1.00  0.00    -0.356 N 
ATOM     60  C   UNL A   1      34.795  22.858  26.153  1.00  0.00     0.227 C 
ATOM     61  H   UNL A   1      35.953  21.806  27.395  1.00  0.00     0.163 HD
ATOM     62  O   UNL A   1      33.981  23.091  27.047  1.00  0.00    -0.274 OA
BRANCH  60  63
ATOM     63  C   UNL A   1      34.587  23.291  24.701  1.00  0.00     0.103 C 
ATOM     64  C   UNL A   1      34.743  24.768  24.513  1.00  0.00    -0.016 C 
ATOM     65  C   UNL A   1      33.137  23.019  24.265  1.00  0.00     0.047 C 
ATOM     66  C   UNL A   1      33.589  25.358  24.190  1.00  0.00    -0.006 C 
ATOM     67  C   UNL A   1      32.455  24.389  24.127  1.00  0.00     0.106 C 
BRANCH  67  68
ATOM     68  N   UNL A   1      31.550  24.698  25.208  1.00  0.00    -0.347 N 
ATOM     69  C   UNL A   1      30.526  25.606  25.224  1.00  0.00     0.261 C 
ATOM     70  H   UNL A   1      31.688  24.192  26.041  1.00  0.00     0.164 HD
ATOM     71  O   UNL A   1      29.939  25.807  26.289  1.00  0.00    -0.271 OA
BRANCH  69  72
ATOM     72  C   UNL A   1      30.138  26.312  23.922  1.00  0.00     0.266 C 
ATOM     73  C   UNL A   1      31.026  27.527  23.622  1.00  0.00     0.095 C 
ATOM     74  O   UNL A   1      28.759  26.756  24.026  1.00  0.00    -0.480 OA
ATOM     75  C   UNL A   1      30.007  28.402  22.999  1.00  0.00    -0.002 A 
ATOM     76  C   UNL A   1      28.743  27.929  23.317  1.00  0.00     0.123 A 
ATOM     77  C   UNL A   1      30.168  29.564  22.265  1.00  0.00     0.008 A 
ATOM     78  C   UNL A   1      27.598  28.603  22.950  1.00  0.00     0.047 A 
ATOM     79  C   UNL A   1      29.021  30.247  21.856  1.00  0.00     0.001 A 
ATOM     80  C   UNL A   1      27.743  29.776  22.204  1.00  0.00     0.004 A 
ENDBRANCH  69  72
ENDBRANCH  67  68
ENDBRANCH  60  63
ENDBRANCH  58  59
ENDBRANCH  57  58
ENDBRANCH   1  57
TORSDOF 13
ENDMDL
MODEL 2
REMARK VINA RESULT:     -12.0      4.969     10.294
REMARK SMILES O=C(NCCCCNC(=O)[C@@H]1C=C[C@H](NC(=O)[C@@H]2Cc3ccccc3O2)C1)c1ccc(-c2c3nc(c(-c4ccccc4)c4ccc([nH]4)c(-c4ccccc4)c4nc(c(-c5ccccc5)c5ccc2[nH]5)C=C4)C=C3)cc1
REMARK SMILES IDX 5 1 4 2 3 3 1 4 2 5 28 7 29 8 75 9 30 10 74 11 31 12 32 13
REMARK SMILES IDX 33 14 68 15 34 16 73 17 67 18 69 19 35 20 72 21 66 22 65 23
REMARK SMILES IDX 36 25 58 26 43 27 57 28 44 29 47 30 56 31 70 32 45 33 46 34
REMARK SMILES IDX 55 36 71 37 48 38 37 39 38 40 42 41 39 42 41 43 40 44 59 45
REMARK SMILES IDX 60 46 64 47 61 48 63 49 62 50 49 51 50 52 54 53 51 54 53 55
REMARK SMILES IDX 52 56 6 57 7 58 8 59 9 60 10 62 11 63 12 64 27 65 13 66
REMARK SMILES IDX 14 67 15 68 16 69 17 71 18 72 19 73 26 74 20 75 25 76 21 77
REMARK SMILES IDX 24 78 22 79 23 80
REMARK H PARENT 3 6 69 24 47 35 8 61 15 70
REMARK Flexibility Score: inf
ROOT
ATOM      1  C   UNL A   1      31.337  32.029  26.806  1.00  0.00     0.023 C 
ENDROOT
BRANCH   1   2
ATOM      2  C   UNL A   1      32.597  32.800  27.185  1.00  0.00     0.116 C 
BRANCH   2   3
ATOM      3  N   UNL A   1      32.330  34.158  27.631  1.00  0.00    -0.352 N 
ATOM      4  O   UNL A   1      32.584  36.007  28.902  1.00  0.00    -0.269 OA
ATOM      5  C   UNL A   1      33.013  34.909  28.559  1.00  0.00     0.251 C 
ATOM      6  H   UNL A   1      31.556  34.600  27.213  1.00  0.00     0.163 HD
BRANCH   5   7
ATOM      7  C   UNL A   1      34.250  34.376  29.170  1.00  0.00     0.039 A 
ATOM      8  C   UNL A   1      35.492  34.588  28.567  1.00  0.00     0.014 A 
ATOM      9  C   UNL A   1      34.164  33.646  30.360  1.00  0.00     0.014 A 
ATOM     10  C   UNL A   1      36.621  33.954  29.073  1.00  0.00     0.010 A 
ATOM     11  C   UNL A   1      35.314  33.074  30.912  1.00  0.00     0.010 A 
ATOM     12  C   UNL A   1      36.548  33.196  30.254  1.00  0.00    -0.014 A 
BRANCH  12  13
ATOM     13  C   UNL A   1      37.789  32.588  30.795  1.00  0.00     0.031 A 
ATOM     14  C   UNL A   1      38.422  33.093  32.062  1.00  0.00     0.074 A 
ATOM     15  C   UNL A   1      38.314  31.522  30.159  1.00  0.00     0.049 A 
ATOM     16  N   UNL A   1      39.461  32.620  32.706  1.00  0.00    -0.248 NA
ATOM     17  C   UNL A   1      37.821  34.281  32.686  1.00  0.00     0.031 C 
ATOM     18  C   UNL A   1      37.796  30.945  28.915  1.00  0.00     0.029 A 
ATOM     19  N   UNL A   1      39.372  30.715  30.486  1.00  0.00    -0.354 N 
ATOM     20  C   UNL A   1      39.642  33.454  33.802  1.00  0.00     0.074 A 
ATOM     21  C   UNL A   1      38.624  34.480  33.722  1.00  0.00     0.031 C 
ATOM     22  C   UNL A   1      38.501  29.845  28.615  1.00  0.00     0.029 A 
ATOM     23  C   UNL A   1      39.550  29.669  29.613  1.00  0.00     0.049 A 
ATOM     24  H   UNL A   1      39.949  30.869  31.268  1.00  0.00     0.167 HD
ATOM     25  C   UNL A   1      40.566  33.366  34.790  1.00  0.00     0.031 A 
ATOM     26  C   UNL A   1      40.457  28.676  29.610  1.00  0.00     0.031 A 
ATOM     27  C   UNL A   1      41.583  32.350  34.868  1.00  0.00     0.049 A 
ATOM     28  C   UNL A   1      41.473  28.611  30.711  1.00  0.00     0.074 A 
ATOM     29  C   UNL A   1      42.562  32.180  35.833  1.00  0.00     0.029 A 
ATOM     30  N   UNL A   1      41.749  31.328  33.947  1.00  0.00    -0.354 N 
ATOM     31  N   UNL A   1      41.617  29.399  31.748  1.00  0.00    -0.248 NA
ATOM     32  C   UNL A   1      42.452  27.517  30.640  1.00  0.00     0.031 C 
ATOM     33  C   UNL A   1      43.343  31.075  35.476  1.00  0.00     0.029 A 
ATOM     34  C   UNL A   1      42.822  30.531  34.314  1.00  0.00     0.049 A 
ATOM     35  H   UNL A   1      41.188  31.188  33.151  1.00  0.00     0.167 HD
ATOM     36  C   UNL A   1      42.696  28.894  32.458  1.00  0.00     0.074 A 
ATOM     37  C   UNL A   1      43.150  27.715  31.749  1.00  0.00     0.031 C 
ATOM     38  C   UNL A   1      43.268  29.370  33.591  1.00  0.00     0.031 A 
BRANCH  25  39
ATOM     39  C   UNL A   1      40.531  34.415  35.867  1.00  0.00    -0.014 A 
ATOM     40  C   UNL A   1      41.280  35.597  35.751  1.00  0.00     0.009 A 
ATOM     41  C   UNL A   1      39.696  34.245  36.982  1.00  0.00     0.009 A 
ATOM     42  C   UNL A   1      41.211  36.577  36.744  1.00  0.00     0.001 A 
ATOM     43  C   UNL A   1      39.613  35.237  37.963  1.00  0.00     0.001 A 
ATOM     44  C   UNL A   1      40.374  36.399  37.846  1.00  0.00     0.000 A 
ENDBRANCH  25  39
BRANCH  26  45
ATOM     45  C   UNL A   1      40.446  27.669  28.520  1.00  0.00    -0.014 A 
ATOM     46  C   UNL A   1      39.742  26.465  28.662  1.00  0.00     0.009 A 
ATOM     47  C   UNL A   1      41.135  27.918  27.322  1.00  0.00     0.009 A 
ATOM     48  C   UNL A   1      39.746  25.520  27.633  1.00  0.00     0.001 A 
ATOM     49  C   UNL A   1      41.113  26.985  26.284  1.00  0.00     0.001 A 
ATOM     50  C   UNL A   1      40.426  25.783  26.444  1.00  0.00     0.000 A 
ENDBRANCH  26  45
BRANCH  38  51
ATOM     51  C   UNL A   1      44.436  28.599  34.132  1.00  0.00    -0.014 A 
ATOM     52  C   UNL A   1      45.749  28.905  33.737  1.00  0.00     0.009 A 
ATOM     53  C   UNL A   1      44.224  27.563  35.053  1.00  0.00     0.009 A 
ATOM     54  C   UNL A   1      46.823  28.159  34.225  1.00  0.00     0.001 A 
ATOM     55  C   UNL A   1      45.302  26.836  35.558  1.00  0.00     0.001 A 
ATOM     56  C   UNL A   1      46.599  27.128  35.136  1.00  0.00     0.000 A 
ENDBRANCH  38  51
ENDBRANCH  12  13
ENDBRANCH   5   7
ENDBRANCH   2   3
ENDBRANCH   1   2
BRANCH   1  57
ATOM     57  C   UNL A   1      31.572  30.691  26.099  1.00  0.00     0.023 C 
BRANCH  57  58
ATOM     58  C   UNL A   1      33.039  30.268  26.003  1.00  0.00     0.116 C 
BRANCH  58  59
ATOM     59  N   UNL A   1      33.336  29.659  24.720  1.00  0.00    -0.356 N 
ATOM     60  C   UNL A   1      33.300  28.341  24.357  1.00  0.00     0.227 C 
ATOM     61  H   UNL A   1      33.600  30.285  24.007  1.00  0.00     0.163 HD
ATOM     62  O   UNL A   1      33.666  28.040  23.220  1.00  0.00    -0.274 OA
BRANCH  60  63
ATOM     63  C   UNL A   1      32.766  27.317  25.359  1.00  0.00     0.103 C 
ATOM     64  C   UNL A   1      33.822  26.366  25.830  1.00  0.00    -0.016 C 
ATOM     65  C   UNL A   1      31.726  26.404  24.687  1.00  0.00     0.047 C 
ATOM     66  C   UNL A   1      33.602  25.120  25.403  1.00  0.00    -0.006 C 
ATOM     67  C   UNL A   1      32.378  25.019  24.555  1.00  0.00     0.106 C 
BRANCH  67  68
ATOM     68  N   UNL A   1      32.798  24.701  23.210  1.00  0.00    -0.347 N 
ATOM     69  C   UNL A   1      32.986  23.468  22.649  1.00  0.00     0.261 C 
ATOM     70  H   UNL A   1      32.971  25.472  22.622  1.00  0.00     0.164 HD
ATOM     71  O   UNL A   1      33.462  23.408  21.514  1.00  0.00    -0.271 OA
BRANCH  69  72
ATOM     72  C   UNL A   1      32.577  22.221  23.439  1.00  0.00     0.266 C 
ATOM     73  C   UNL A   1      33.721  21.666  24.299  1.00  0.00     0.095 C 
ATOM     74  O   UNL A   1      32.156  21.194  22.503  1.00  0.00    -0.480 OA
ATOM     75  C   UNL A   1      33.416  20.223  24.174  1.00  0.00    -0.002 A 
ATOM     76  C   UNL A   1      32.562  20.029  23.099  1.00  0.00     0.123 A 
ATOM     77  C   UNL A   1      33.901  19.150  24.901  1.00  0.00     0.008 A 
ATOM     78  C   UNL A   1      32.184  18.768  22.686  1.00  0.00     0.047 A 
ATOM     79  C   UNL A   1      33.506  17.866  24.519  1.00  0.00     0.001 A 
ATOM     80  C   UNL A   1      32.661  17.674  23.413  1.00  0.00     0.004 A 
ENDBRANCH  69  72
ENDBRANCH  67  68
ENDBRANCH  60  63
ENDBRANCH  58  59
ENDBRANCH  57  58
ENDBRANCH   1  57
TORSDOF 13
ENDMDL
MODEL 3
REMARK VINA RESULT:     -11.9      1.164      5.989
REMARK SMILES O=C(NCCCCNC(=O)[C@@H]1C=C[C@H](NC(=O)[C@@H]2Cc3ccccc3O2)C1)c1ccc(-c2c3nc(c(-c4ccccc4)c4ccc([nH]4)c(-c4ccccc4)c4nc(c(-c5ccccc5)c5ccc2[nH]5)C=C4)C=C3)cc1
REMARK SMILES IDX 5 1 4 2 3 3 1 4 2 5 28 7 29 8 75 9 30 10 74 11 31 12 32 13
REMARK SMILES IDX 33 14 68 15 34 16 73 17 67 18 69 19 35 20 72 21 66 22 65 23
REMARK SMILES IDX 36 25 58 26 43 27 57 28 44 29 47 30 56 31 70 32 45 33 46 34
REMARK SMILES IDX 55 36 71 37 48 38 37 39 38 40 42 41 39 42 41 43 40 44 59 45
REMARK SMILES IDX 60 46 64 47 61 48 63 49 62 50 49 51 50 52 54 53 51 54 53 55
REMARK SMILES IDX 52 56 6 57 7 58 8 59 9 60 10 62 11 63 12 64 27 65 13 66
REMARK SMILES IDX 14 67 15 68 16 69 17 71 18 72 19 73 26 74 20 75 25 76 21 77
REMARK SMILES IDX 24 78 22 79 23 80
REMARK H PARENT 3 6 69 24 47 35 8 61 15 70
REMARK Flexibility Score: inf
ROOT
ATOM      1  C   UNL A   1      37.810  19.712  24.980  1.00  0.00     0.023 C 
ENDROOT
BRANCH   1   2
ATOM      2  C   UNL A   1      39.034  20.241  25.719  1.00  0.00     0.116 C 
BRANCH   2   3
ATOM      3  N   UNL A   1      40.119  19.276  25.801  1.00  0.00    -0.352 N 
ATOM      4  O   UNL A   1      42.250  18.574  26.060  1.00  0.00    -0.269 OA
ATOM      5  C   UNL A   1      41.433  19.486  26.151  1.00  0.00     0.251 C 
ATOM      6  H   UNL A   1      39.882  18.348  25.575  1.00  0.00     0.163 HD
BRANCH   5   7
ATOM      7  C   UNL A   1      41.868  20.825  26.604  1.00  0.00     0.039 A 
ATOM      8  C   UNL A   1      41.817  21.171  27.957  1.00  0.00     0.014 A 
ATOM      9  C   UNL A   1      42.327  21.750  25.660  1.00  0.00     0.014 A 
ATOM     10  C   UNL A   1      42.087  22.478  28.344  1.00  0.00     0.010 A 
ATOM     11  C   UNL A   1      42.673  23.043  26.063  1.00  0.00     0.010 A 
ATOM     12  C   UNL A   1      42.524  23.428  27.404  1.00  0.00    -0.014 A 
BRANCH  12  13
ATOM     13  C   UNL A   1      42.862  24.796  27.871  1.00  0.00     0.031 A 
ATOM     14  C   UNL A   1      41.795  25.826  28.119  1.00  0.00     0.074 A 
ATOM     15  C   UNL A   1      44.152  25.087  28.132  1.00  0.00     0.049 A 
ATOM     16  N   UNL A   1      41.920  27.038  28.601  1.00  0.00    -0.248 NA
ATOM     17  C   UNL A   1      40.413  25.456  27.779  1.00  0.00     0.031 C 
ATOM     18  C   UNL A   1      45.280  24.174  27.922  1.00  0.00     0.029 A 
ATOM     19  N   UNL A   1      44.728  26.212  28.662  1.00  0.00    -0.354 N 
ATOM     20  C   UNL A   1      40.640  27.577  28.616  1.00  0.00     0.074 A 
ATOM     21  C   UNL A   1      39.755  26.571  28.067  1.00  0.00     0.031 C 
ATOM     22  C   UNL A   1      46.402  24.754  28.371  1.00  0.00     0.029 A 
ATOM     23  C   UNL A   1      46.083  26.093  28.851  1.00  0.00     0.049 A 
ATOM     24  H   UNL A   1      44.221  27.025  28.884  1.00  0.00     0.167 HD
ATOM     25  C   UNL A   1      40.238  28.794  29.055  1.00  0.00     0.031 A 
ATOM     26  C   UNL A   1      46.976  26.966  29.353  1.00  0.00     0.031 A 
ATOM     27  C   UNL A   1      41.117  29.797  29.596  1.00  0.00     0.049 A 
ATOM     28  C   UNL A   1      46.503  28.309  29.821  1.00  0.00     0.074 A 
ATOM     29  C   UNL A   1      40.800  31.061  30.069  1.00  0.00     0.029 A 
ATOM     30  N   UNL A   1      42.487  29.650  29.741  1.00  0.00    -0.354 N 
ATOM     31  N   UNL A   1      45.285  28.792  29.842  1.00  0.00    -0.248 NA
ATOM     32  C   UNL A   1      47.529  29.226  30.337  1.00  0.00     0.031 C 
ATOM     33  C   UNL A   1      41.984  31.691  30.466  1.00  0.00     0.029 A 
ATOM     34  C   UNL A   1      43.032  30.804  30.283  1.00  0.00     0.049 A 
ATOM     35  H   UNL A   1      42.999  28.846  29.496  1.00  0.00     0.167 HD
ATOM     36  C   UNL A   1      45.395  30.067  30.379  1.00  0.00     0.074 A 
ATOM     37  C   UNL A   1      46.794  30.268  30.698  1.00  0.00     0.031 C 
ATOM     38  C   UNL A   1      44.426  30.992  30.582  1.00  0.00     0.031 A 
BRANCH  25  39
ATOM     39  C   UNL A   1      38.773  29.119  28.954  1.00  0.00    -0.014 A 
ATOM     40  C   UNL A   1      37.920  28.965  30.058  1.00  0.00     0.009 A 
ATOM     41  C   UNL A   1      38.252  29.639  27.759  1.00  0.00     0.009 A 
ATOM     42  C   UNL A   1      36.568  29.302  29.959  1.00  0.00     0.001 A 
ATOM     43  C   UNL A   1      36.905  29.996  27.669  1.00  0.00     0.001 A 
ATOM     44  C   UNL A   1      36.063  29.823  28.767  1.00  0.00     0.000 A 
ENDBRANCH  25  39
BRANCH  26  45
ATOM     45  C   UNL A   1      48.411  26.592  29.426  1.00  0.00    -0.014 A 
ATOM     46  C   UNL A   1      48.952  26.050  30.601  1.00  0.00     0.009 A 
ATOM     47  C   UNL A   1      49.244  26.767  28.310  1.00  0.00     0.009 A 
ATOM     48  C   UNL A   1      50.305  25.711  30.662  1.00  0.00     0.001 A 
ATOM     49  C   UNL A   1      50.589  26.400  28.365  1.00  0.00     0.001 A 
ATOM     50  C   UNL A   1      51.121  25.881  29.544  1.00  0.00     0.000 A 
ENDBRANCH  26  45
BRANCH  38  51
ATOM     51  C   UNL A   1      44.855  32.296  31.188  1.00  0.00    -0.014 A 
ATOM     52  C   UNL A   1      45.250  33.374  30.379  1.00  0.00     0.009 A 
ATOM     53  C   UNL A   1      44.856  32.452  32.582  1.00  0.00     0.009 A 
ATOM     54  C   UNL A   1      45.675  34.570  30.959  1.00  0.00     0.001 A 
ATOM     55  C   UNL A   1      45.258  33.658  33.157  1.00  0.00     0.001 A 
ATOM     56  C   UNL A   1      45.677  34.712  32.345  1.00  0.00     0.000 A 
ENDBRANCH  38  51
ENDBRANCH  12  13
ENDBRANCH   5   7
ENDBRANCH   2   3
ENDBRANCH   1   2
BRANCH   1  57
ATOM     57  C   UNL A   1      36.610  20.664  24.929  1.00  0.00     0.023 C 
BRANCH  57  58
ATOM     58  C   UNL A   1      35.245  19.975  24.987  1.00  0.00     0.116 C 
BRANCH  58  59
ATOM     59  N   UNL A   1      34.360  20.625  25.936  1.00  0.00    -0.356 N 
ATOM     60  C   UNL A   1      33.407  21.581  25.717  1.00  0.00     0.227 C 
ATOM     61  H   UNL A   1      34.458  20.335  26.871  1.00  0.00     0.163 HD
ATOM     62  O   UNL A   1      32.817  22.048  26.691  1.00  0.00    -0.274 OA
BRANCH  60  63
ATOM     63  C   UNL A   1      33.091  21.987  24.277  1.00  0.00     0.103 C 
ATOM     64  C   UNL A   1      33.642  23.333  23.923  1.00  0.00    -0.016 C 
ATOM     65  C   UNL A   1      31.573  22.154  24.090  1.00  0.00     0.047 C 
ATOM     66  C   UNL A   1      32.676  24.233  23.719  1.00  0.00    -0.006 C 
ATOM     67  C   UNL A   1      31.314  23.659  23.921  1.00  0.00     0.106 C 
BRANCH  67  68
ATOM     68  N   UNL A   1      30.740  24.284  25.089  1.00  0.00    -0.347 N 
ATOM     69  C   UNL A   1      30.116  25.498  25.182  1.00  0.00     0.261 C 
ATOM     70  H   UNL A   1      30.807  23.771  25.927  1.00  0.00     0.164 HD
ATOM     71  O   UNL A   1      29.796  25.908  26.299  1.00  0.00    -0.271 OA
BRANCH  69  72
ATOM     72  C   UNL A   1      29.821  26.282  23.899  1.00  0.00     0.266 C 
ATOM     73  C   UNL A   1      30.776  27.465  23.698  1.00  0.00     0.095 C 
ATOM     74  O   UNL A   1      28.460  26.786  23.965  1.00  0.00    -0.480 OA
ATOM     75  C   UNL A   1      29.829  28.416  23.074  1.00  0.00    -0.002 A 
ATOM     76  C   UNL A   1      28.531  27.990  23.314  1.00  0.00     0.123 A 
ATOM     77  C   UNL A   1      30.076  29.602  22.405  1.00  0.00     0.008 A 
ATOM     78  C   UNL A   1      27.436  28.734  22.930  1.00  0.00     0.047 A 
ATOM     79  C   UNL A   1      28.981  30.357  21.980  1.00  0.00     0.001 A 
ATOM     80  C   UNL A   1      27.668  29.932  22.249  1.00  0.00     0.004 A 
ENDBRANCH  69  72
ENDBRANCH  67  68
ENDBRANCH  60  63
ENDBRANCH  58  59
ENDBRANCH  57  58
ENDBRANCH   1  57
TORSDOF 13
ENDMDL
