MODEL 1
REMARK VINA RESULT:     -11.8      0.000      0.000
REMARK SMILES O=C(NCCCCNC(=O)c1ccc(-c2c3nc(c(-c4ccccc4)c4ccc([nH]4)c(-c4ccccc4)c4nc(c(-c5ccccc5)c5ccc2[nH]5)C=C4)C=C3)cc1)C1=Cc2cc(Cl)c(Cl)c(Cl)c2O[C@@H]1C(F)(F)F
REMARK SMILES IDX 6 1 5 2 4 3 3 4 1 5 2 6 59 8 60 9 71 10 61 11 70 12 62 13
REMARK SMILES IDX 69 14 63 15 67 16 64 17 65 18 68 19 66 20 72 21 73 22 74 23
REMARK SMILES IDX 75 24 7 25 8 26 9 27 10 29 11 30 12 31 58 32 13 33 57 34
REMARK SMILES IDX 14 35 15 36 16 37 51 38 17 39 56 40 50 41 52 42 18 43 55 44
REMARK SMILES IDX 49 45 48 46 19 48 41 49 26 50 40 51 27 52 30 53 39 54 53 55
REMARK SMILES IDX 28 56 29 57 38 59 54 60 31 61 20 62 21 63 25 64 22 65 24 66
REMARK SMILES IDX 23 67 42 68 43 69 47 70 44 71 46 72 45 73 32 74 33 75 37 76
REMARK SMILES IDX 34 77 36 78 35 79
REMARK H PARENT 3 7 8 28 52 47 30 58
REMARK Flexibility Score: inf
ROOT
ATOM      1  C   UNL A   1      32.258  29.373  26.387  1.00  0.00     0.023 C 
ENDROOT
BRANCH   1   2
ATOM      2  C   UNL A   1      31.460  28.233  27.019  1.00  0.00     0.023 C 
BRANCH   2   3
ATOM      3  C   UNL A   1      31.432  26.959  26.172  1.00  0.00     0.116 C 
BRANCH   3   4
ATOM      4  N   UNL A   1      31.177  25.743  26.946  1.00  0.00    -0.352 N 
ATOM      5  O   UNL A   1      31.608  23.633  27.673  1.00  0.00    -0.270 OA
ATOM      6  C   UNL A   1      31.704  24.481  26.796  1.00  0.00     0.251 C 
ATOM      7  H   UNL A   1      30.534  25.843  27.685  1.00  0.00     0.163 HD
BRANCH   6   8
ATOM      8  C   UNL A   1      32.457  24.211  25.556  1.00  0.00     0.067 C 
ATOM      9  C   UNL A   1      33.742  24.585  25.529  1.00  0.00     0.025 C 
ATOM     10  C   UNL A   1      31.879  23.222  24.594  1.00  0.00     0.314 C 
ATOM     11  C   UNL A   1      34.640  23.554  24.996  1.00  0.00     0.020 A 
ATOM     12  O   UNL A   1      32.773  22.100  24.391  1.00  0.00    -0.474 OA
ATOM     13  C   UNL A   1      35.996  23.672  25.313  1.00  0.00     0.034 A 
ATOM     14  C   UNL A   1      34.120  22.305  24.604  1.00  0.00     0.148 A 
ATOM     15  C   UNL A   1      36.805  22.534  25.354  1.00  0.00     0.062 A 
ATOM     16  C   UNL A   1      34.945  21.166  24.609  1.00  0.00     0.103 A 
ATOM     17  Cl  UNL A   1      38.410  22.750  25.964  1.00  0.00    -0.083 Cl
ATOM     18  C   UNL A   1      36.285  21.272  25.021  1.00  0.00     0.082 A 
ATOM     19  Cl  UNL A   1      34.235  19.617  24.259  1.00  0.00    -0.079 Cl
ATOM     20  Cl  UNL A   1      37.263  19.851  25.216  1.00  0.00    -0.081 Cl
BRANCH  10  21
ATOM     21  C   UNL A   1      31.500  23.870  23.252  1.00  0.00     0.429 C 
ATOM     22  F   UNL A   1      32.236  23.353  22.238  1.00  0.00    -0.167 F 
ATOM     23  F   UNL A   1      30.201  23.666  22.938  1.00  0.00    -0.167 F 
ATOM     24  F   UNL A   1      31.709  25.208  23.255  1.00  0.00    -0.167 F 
ENDBRANCH  10  21
ENDBRANCH   6   8
ENDBRANCH   3   4
ENDBRANCH   2   3
ENDBRANCH   1   2
BRANCH   1  25
ATOM     25  C   UNL A   1      33.641  29.635  26.984  1.00  0.00     0.116 C 
BRANCH  25  26
ATOM     26  N   UNL A   1      33.726  30.822  27.822  1.00  0.00    -0.352 N 
ATOM     27  C   UNL A   1      34.776  31.219  28.623  1.00  0.00     0.251 C 
ATOM     28  H   UNL A   1      32.940  31.414  27.816  1.00  0.00     0.163 HD
ATOM     29  O   UNL A   1      34.695  32.227  29.317  1.00  0.00    -0.269 OA
BRANCH  27  30
ATOM     30  C   UNL A   1      35.984  30.369  28.686  1.00  0.00     0.039 A 
ATOM     31  C   UNL A   1      36.865  30.370  27.601  1.00  0.00     0.014 A 
ATOM     32  C   UNL A   1      36.302  29.680  29.858  1.00  0.00     0.014 A 
ATOM     33  C   UNL A   1      38.120  29.771  27.733  1.00  0.00     0.010 A 
ATOM     34  C   UNL A   1      37.578  29.148  30.012  1.00  0.00     0.010 A 
ATOM     35  C   UNL A   1      38.508  29.210  28.960  1.00  0.00    -0.014 A 
BRANCH  35  36
ATOM     36  C   UNL A   1      39.886  28.705  29.186  1.00  0.00     0.031 A 
ATOM     37  C   UNL A   1      40.934  29.623  29.748  1.00  0.00     0.074 A 
ATOM     38  C   UNL A   1      40.220  27.460  28.788  1.00  0.00     0.049 A 
ATOM     39  N   UNL A   1      42.220  29.424  29.884  1.00  0.00    -0.248 NA
ATOM     40  C   UNL A   1      40.480  30.955  30.185  1.00  0.00     0.031 C 
ATOM     41  C   UNL A   1      39.309  26.482  28.188  1.00  0.00     0.029 A 
ATOM     42  N   UNL A   1      41.429  26.809  28.815  1.00  0.00    -0.354 N 
ATOM     43  C   UNL A   1      42.733  30.615  30.385  1.00  0.00     0.074 A 
ATOM     44  C   UNL A   1      41.627  31.539  30.498  1.00  0.00     0.031 C 
ATOM     45  C   UNL A   1      39.986  25.354  27.920  1.00  0.00     0.029 A 
ATOM     46  C   UNL A   1      41.386  25.539  28.290  1.00  0.00     0.049 A 
ATOM     47  H   UNL A   1      42.251  27.213  29.176  1.00  0.00     0.167 HD
ATOM     48  C   UNL A   1      44.007  30.907  30.733  1.00  0.00     0.031 A 
ATOM     49  C   UNL A   1      42.365  24.630  28.115  1.00  0.00     0.031 A 
ATOM     50  C   UNL A   1      45.100  29.977  30.656  1.00  0.00     0.049 A 
ATOM     51  C   UNL A   1      43.767  24.972  28.538  1.00  0.00     0.074 A 
ATOM     52  C   UNL A   1      46.416  30.160  31.042  1.00  0.00     0.029 A 
ATOM     53  N   UNL A   1      45.000  28.683  30.169  1.00  0.00    -0.354 N 
ATOM     54  N   UNL A   1      44.223  26.084  29.061  1.00  0.00    -0.248 NA
ATOM     55  C   UNL A   1      44.788  23.929  28.354  1.00  0.00     0.031 C 
ATOM     56  C   UNL A   1      47.120  28.985  30.761  1.00  0.00     0.029 A 
ATOM     57  C   UNL A   1      46.232  28.059  30.238  1.00  0.00     0.049 A 
ATOM     58  H   UNL A   1      44.175  28.271  29.825  1.00  0.00     0.167 HD
ATOM     59  C   UNL A   1      45.573  25.861  29.302  1.00  0.00     0.074 A 
ATOM     60  C   UNL A   1      45.861  24.509  28.873  1.00  0.00     0.031 C 
ATOM     61  C   UNL A   1      46.492  26.704  29.831  1.00  0.00     0.031 A 
BRANCH  48  62
ATOM     62  C   UNL A   1      44.288  32.295  31.231  1.00  0.00    -0.014 A 
ATOM     63  C   UNL A   1      44.213  32.606  32.597  1.00  0.00     0.009 A 
ATOM     64  C   UNL A   1      44.669  33.297  30.324  1.00  0.00     0.009 A 
ATOM     65  C   UNL A   1      44.481  33.901  33.043  1.00  0.00     0.001 A 
ATOM     66  C   UNL A   1      44.962  34.585  30.776  1.00  0.00     0.001 A 
ATOM     67  C   UNL A   1      44.860  34.888  32.133  1.00  0.00     0.000 A 
ENDBRANCH  48  62
BRANCH  49  68
ATOM     68  C   UNL A   1      42.061  23.300  27.525  1.00  0.00    -0.014 A 
ATOM     69  C   UNL A   1      41.493  22.287  28.313  1.00  0.00     0.009 A 
ATOM     70  C   UNL A   1      42.360  23.026  26.182  1.00  0.00     0.009 A 
ATOM     71  C   UNL A   1      41.262  21.017  27.778  1.00  0.00     0.001 A 
ATOM     72  C   UNL A   1      42.104  21.764  25.642  1.00  0.00     0.001 A 
ATOM     73  C   UNL A   1      41.565  20.757  26.443  1.00  0.00     0.000 A 
ENDBRANCH  49  68
BRANCH  61  74
ATOM     74  C   UNL A   1      47.880  26.172  30.034  1.00  0.00    -0.014 A 
ATOM     75  C   UNL A   1      48.798  26.108  28.976  1.00  0.00     0.009 A 
ATOM     76  C   UNL A   1      48.290  25.789  31.320  1.00  0.00     0.009 A 
ATOM     77  C   UNL A   1      50.097  25.648  29.200  1.00  0.00     0.001 A 
ATOM     78  C   UNL A   1      49.595  25.352  31.545  1.00  0.00     0.001 A 
ATOM     79  C   UNL A   1      50.496  25.277  30.484  1.00  0.00     0.000 A 
ENDBRANCH  61  74
ENDBRANCH  35  36
ENDBRANCH  27  30
ENDBRANCH  25  26
ENDBRANCH   1  25
TORSDOF 12
ENDMDL
MODEL 2
REMARK VINA RESULT:     -11.7      2.762      7.507
REMARK SMILES O=C(NCCCCNC(=O)c1ccc(-c2c3nc(c(-c4ccccc4)c4ccc([nH]4)c(-c4ccccc4)c4nc(c(-c5ccccc5)c5ccc2[nH]5)C=C4)C=C3)cc1)C1=Cc2cc(Cl)c(Cl)c(Cl)c2O[C@@H]1C(F)(F)F
REMARK SMILES IDX 6 1 5 2 4 3 3 4 1 5 2 6 59 8 60 9 71 10 61 11 70 12 62 13
REMARK SMILES IDX 69 14 63 15 67 16 64 17 65 18 68 19 66 20 72 21 73 22 74 23
REMARK SMILES IDX 75 24 7 25 8 26 9 27 10 29 11 30 12 31 58 32 13 33 57 34
REMARK SMILES IDX 14 35 15 36 16 37 51 38 17 39 56 40 50 41 52 42 18 43 55 44
REMARK SMILES IDX 49 45 48 46 19 48 41 49 26 50 40 51 27 52 30 53 39 54 53 55
REMARK SMILES IDX 28 56 29 57 38 59 54 60 31 61 20 62 21 63 25 64 22 65 24 66
REMARK SMILES IDX 23 67 42 68 43 69 47 70 44 71 46 72 45 73 32 74 33 75 37 76
REMARK SMILES IDX 34 77 36 78 35 79
REMARK H PARENT 3 7 8 28 52 47 30 58
REMARK Flexibility Score: inf
ROOT
ATOM      1  C   UNL A   1      37.571  21.086  24.713  1.00  0.00     0.023 C 
ENDROOT
BRANCH   1   2
ATOM      2  C   UNL A   1      36.248  20.452  25.141  1.00  0.00     0.023 C 
BRANCH   2   3
ATOM      3  C   UNL A   1      35.061  21.416  25.093  1.00  0.00     0.116 C 
BRANCH   3   4
ATOM      4  N   UNL A   1      35.017  22.236  23.881  1.00  0.00    -0.352 N 
ATOM      5  O   UNL A   1      34.679  24.143  22.694  1.00  0.00    -0.270 OA
ATOM      6  C   UNL A   1      34.411  23.453  23.667  1.00  0.00     0.251 C 
ATOM      7  H   UNL A   1      35.491  21.861  23.104  1.00  0.00     0.163 HD
BRANCH   6   8
ATOM      8  C   UNL A   1      33.471  23.926  24.701  1.00  0.00     0.067 C 
ATOM      9  C   UNL A   1      33.887  24.923  25.492  1.00  0.00     0.025 C 
ATOM     10  C   UNL A   1      32.030  23.554  24.552  1.00  0.00     0.314 C 
ATOM     11  C   UNL A   1      32.891  25.988  25.662  1.00  0.00     0.020 A 
ATOM     12  O   UNL A   1      31.191  24.730  24.438  1.00  0.00    -0.474 OA
ATOM     13  C   UNL A   1      33.361  27.229  26.098  1.00  0.00     0.034 A 
ATOM     14  C   UNL A   1      31.653  25.905  24.993  1.00  0.00     0.148 A 
ATOM     15  C   UNL A   1      32.666  28.395  25.768  1.00  0.00     0.062 A 
ATOM     16  C   UNL A   1      30.935  27.077  24.695  1.00  0.00     0.103 A 
ATOM     17  Cl  UNL A   1      33.438  29.892  26.165  1.00  0.00    -0.083 Cl
ATOM     18  C   UNL A   1      31.460  28.331  25.051  1.00  0.00     0.082 A 
ATOM     19  Cl  UNL A   1      29.485  26.949  23.742  1.00  0.00    -0.079 Cl
ATOM     20  Cl  UNL A   1      30.684  29.793  24.526  1.00  0.00    -0.081 Cl
BRANCH  10  21
ATOM     21  C   UNL A   1      31.544  22.643  25.692  1.00  0.00     0.429 C 
ATOM     22  F   UNL A   1      31.568  21.341  25.317  1.00  0.00    -0.167 F 
ATOM     23  F   UNL A   1      32.322  22.749  26.793  1.00  0.00    -0.167 F 
ATOM     24  F   UNL A   1      30.274  22.927  26.066  1.00  0.00    -0.167 F 
ENDBRANCH  10  21
ENDBRANCH   6   8
ENDBRANCH   3   4
ENDBRANCH   2   3
ENDBRANCH   1   2
BRANCH   1  25
ATOM     25  C   UNL A   1      38.697  21.053  25.747  1.00  0.00     0.116 C 
BRANCH  25  26
ATOM     26  N   UNL A   1      39.575  19.896  25.653  1.00  0.00    -0.352 N 
ATOM     27  C   UNL A   1      40.902  19.809  26.017  1.00  0.00     0.251 C 
ATOM     28  H   UNL A   1      39.173  19.076  25.287  1.00  0.00     0.163 HD
ATOM     29  O   UNL A   1      41.539  18.776  25.839  1.00  0.00    -0.269 OA
BRANCH  27  30
ATOM     30  C   UNL A   1      41.570  21.008  26.565  1.00  0.00     0.039 A 
ATOM     31  C   UNL A   1      42.154  21.917  25.679  1.00  0.00     0.014 A 
ATOM     32  C   UNL A   1      41.505  21.289  27.931  1.00  0.00     0.014 A 
ATOM     33  C   UNL A   1      42.574  23.163  26.150  1.00  0.00     0.010 A 
ATOM     34  C   UNL A   1      41.857  22.557  28.384  1.00  0.00     0.010 A 
ATOM     35  C   UNL A   1      42.372  23.515  27.495  1.00  0.00    -0.014 A 
BRANCH  35  36
ATOM     36  C   UNL A   1      42.661  24.882  27.996  1.00  0.00     0.031 A 
ATOM     37  C   UNL A   1      44.050  25.232  28.452  1.00  0.00     0.074 A 
ATOM     38  C   UNL A   1      41.658  25.771  28.142  1.00  0.00     0.049 A 
ATOM     39  N   UNL A   1      44.474  26.313  29.054  1.00  0.00    -0.248 NA
ATOM     40  C   UNL A   1      45.093  24.216  28.230  1.00  0.00     0.031 C 
ATOM     41  C   UNL A   1      40.256  25.544  27.779  1.00  0.00     0.029 A 
ATOM     42  N   UNL A   1      41.662  27.046  28.652  1.00  0.00    -0.354 N 
ATOM     43  C   UNL A   1      45.821  26.092  29.315  1.00  0.00     0.074 A 
ATOM     44  C   UNL A   1      46.134  24.764  28.837  1.00  0.00     0.031 C 
ATOM     45  C   UNL A   1      39.543  26.646  28.062  1.00  0.00     0.029 A 
ATOM     46  C   UNL A   1      40.423  27.642  28.663  1.00  0.00     0.049 A 
ATOM     47  H   UNL A   1      42.476  27.493  28.980  1.00  0.00     0.167 HD
ATOM     48  C   UNL A   1      46.719  26.926  29.889  1.00  0.00     0.031 A 
ATOM     49  C   UNL A   1      40.037  28.851  29.117  1.00  0.00     0.031 A 
ATOM     50  C   UNL A   1      46.417  28.260  30.330  1.00  0.00     0.049 A 
ATOM     51  C   UNL A   1      41.063  29.769  29.724  1.00  0.00     0.074 A 
ATOM     52  C   UNL A   1      47.273  29.204  30.869  1.00  0.00     0.029 A 
ATOM     53  N   UNL A   1      45.160  28.843  30.272  1.00  0.00    -0.354 N 
ATOM     54  N   UNL A   1      42.343  29.564  29.913  1.00  0.00    -0.248 NA
ATOM     55  C   UNL A   1      40.590  31.088  30.171  1.00  0.00     0.031 C 
ATOM     56  C   UNL A   1      46.528  30.350  31.165  1.00  0.00     0.029 A 
ATOM     57  C   UNL A   1      45.218  30.131  30.772  1.00  0.00     0.049 A 
ATOM     58  H   UNL A   1      44.350  28.405  29.927  1.00  0.00     0.167 HD
ATOM     59  C   UNL A   1      42.835  30.739  30.467  1.00  0.00     0.074 A 
ATOM     60  C   UNL A   1      41.718  31.653  30.578  1.00  0.00     0.031 C 
ATOM     61  C   UNL A   1      44.100  31.034  30.849  1.00  0.00     0.031 A 
BRANCH  48  62
ATOM     62  C   UNL A   1      48.119  26.416  30.072  1.00  0.00    -0.014 A 
ATOM     63  C   UNL A   1      48.511  25.782  31.262  1.00  0.00     0.009 A 
ATOM     64  C   UNL A   1      49.048  26.537  29.026  1.00  0.00     0.009 A 
ATOM     65  C   UNL A   1      49.816  25.310  31.413  1.00  0.00     0.001 A 
ATOM     66  C   UNL A   1      50.344  26.040  29.171  1.00  0.00     0.001 A 
ATOM     67  C   UNL A   1      50.730  25.435  30.366  1.00  0.00     0.000 A 
ENDBRANCH  48  62
BRANCH  49  68
ATOM     68  C   UNL A   1      38.618  29.278  29.006  1.00  0.00    -0.014 A 
ATOM     69  C   UNL A   1      37.755  29.167  30.106  1.00  0.00     0.009 A 
ATOM     70  C   UNL A   1      38.111  29.774  27.794  1.00  0.00     0.009 A 
ATOM     71  C   UNL A   1      36.406  29.511  29.988  1.00  0.00     0.001 A 
ATOM     72  C   UNL A   1      36.768  30.143  27.687  1.00  0.00     0.001 A 
ATOM     73  C   UNL A   1      35.914  30.001  28.780  1.00  0.00     0.000 A 
ENDBRANCH  49  68
BRANCH  61  74
ATOM     74  C   UNL A   1      44.360  32.419  31.366  1.00  0.00    -0.014 A 
ATOM     75  C   UNL A   1      44.681  33.472  30.499  1.00  0.00     0.009 A 
ATOM     76  C   UNL A   1      44.218  32.679  32.738  1.00  0.00     0.009 A 
ATOM     77  C   UNL A   1      44.878  34.760  31.001  1.00  0.00     0.001 A 
ATOM     78  C   UNL A   1      44.392  33.971  33.233  1.00  0.00     0.001 A 
ATOM     79  C   UNL A   1      44.727  35.010  32.365  1.00  0.00     0.000 A 
ENDBRANCH  61  74
ENDBRANCH  35  36
ENDBRANCH  27  30
ENDBRANCH  25  26
ENDBRANCH   1  25
TORSDOF 12
ENDMDL
MODEL 3
REMARK VINA RESULT:     -11.7      2.803      7.435
REMARK SMILES O=C(NCCCCNC(=O)c1ccc(-c2c3nc(c(-c4ccccc4)c4ccc([nH]4)c(-c4ccccc4)c4nc(c(-c5ccccc5)c5ccc2[nH]5)C=C4)C=C3)cc1)C1=Cc2cc(Cl)c(Cl)c(Cl)c2O[C@@H]1C(F)(F)F
REMARK SMILES IDX 6 1 5 2 4 3 3 4 1 5 2 6 59 8 60 9 71 10 61 11 70 12 62 13
REMARK SMILES IDX 69 14 63 15 67 16 64 17 65 18 68 19 66 20 72 21 73 22 74 23
REMARK SMILES IDX 75 24 7 25 8 26 9 27 10 29 11 30 12 31 58 32 13 33 57 34
REMARK SMILES IDX 14 35 15 36 16 37 51 38 17 39 56 40 50 41 52 42 18 43 55 44
REMARK SMILES IDX 49 45 48 46 19 48 41 49 26 50 40 51 27 52 30 53 39 54 53 55
REMARK SMILES IDX 28 56 29 57 38 59 54 60 31 61 20 62 21 63 25 64 22 65 24 66
REMARK SMILES IDX 23 67 42 68 43 69 47 70 44 71 46 72 45 73 32 74 33 75 37 76
REMARK SMILES IDX 34 77 36 78 35 79
REMARK H PARENT 3 7 8 28 52 47 30 58
REMARK Flexibility Score: inf
ROOT
ATOM      1  C   UNL A   1      37.454  21.473  24.790  1.00  0.00     0.023 C 
ENDROOT
BRANCH   1   2
ATOM      2  C   UNL A   1      36.233  20.638  25.174  1.00  0.00     0.023 C 
BRANCH   2   3
ATOM      3  C   UNL A   1      34.901  21.348  24.926  1.00  0.00     0.116 C 
BRANCH   3   4
ATOM      4  N   UNL A   1      34.915  22.238  23.764  1.00  0.00    -0.352 N 
ATOM      5  O   UNL A   1      34.711  24.230  22.691  1.00  0.00    -0.270 OA
ATOM      6  C   UNL A   1      34.395  23.504  23.623  1.00  0.00     0.251 C 
ATOM      7  H   UNL A   1      35.363  21.878  22.966  1.00  0.00     0.163 HD
BRANCH   6   8
ATOM      8  C   UNL A   1      33.489  23.981  24.686  1.00  0.00     0.067 C 
ATOM      9  C   UNL A   1      33.948  24.947  25.490  1.00  0.00     0.025 C 
ATOM     10  C   UNL A   1      32.035  23.653  24.557  1.00  0.00     0.314 C 
ATOM     11  C   UNL A   1      32.987  26.036  25.703  1.00  0.00     0.020 A 
ATOM     12  O   UNL A   1      31.229  24.854  24.486  1.00  0.00    -0.474 OA
ATOM     13  C   UNL A   1      33.501  27.253  26.156  1.00  0.00     0.034 A 
ATOM     14  C   UNL A   1      31.735  26.003  25.057  1.00  0.00     0.148 A 
ATOM     15  C   UNL A   1      32.833  28.445  25.866  1.00  0.00     0.062 A 
ATOM     16  C   UNL A   1      31.045  27.201  24.800  1.00  0.00     0.103 A 
ATOM     17  Cl  UNL A   1      33.655  29.911  26.280  1.00  0.00    -0.083 Cl
ATOM     18  C   UNL A   1      31.612  28.432  25.172  1.00  0.00     0.082 A 
ATOM     19  Cl  UNL A   1      29.574  27.135  23.873  1.00  0.00    -0.079 Cl
ATOM     20  Cl  UNL A   1      30.868  29.926  24.694  1.00  0.00    -0.081 Cl
BRANCH  10  21
ATOM     21  C   UNL A   1      31.546  22.730  25.687  1.00  0.00     0.429 C 
ATOM     22  F   UNL A   1      30.307  23.088  26.103  1.00  0.00    -0.167 F 
ATOM     23  F   UNL A   1      31.470  21.439  25.291  1.00  0.00    -0.167 F 
ATOM     24  F   UNL A   1      32.359  22.774  26.769  1.00  0.00    -0.167 F 
ENDBRANCH  10  21
ENDBRANCH   6   8
ENDBRANCH   3   4
ENDBRANCH   2   3
ENDBRANCH   1   2
BRANCH   1  25
ATOM     25  C   UNL A   1      38.648  21.392  25.740  1.00  0.00     0.116 C 
BRANCH  25  26
ATOM     26  N   UNL A   1      39.429  20.168  25.634  1.00  0.00    -0.352 N 
ATOM     27  C   UNL A   1      40.742  19.967  26.005  1.00  0.00     0.251 C 
ATOM     28  H   UNL A   1      38.964  19.390  25.252  1.00  0.00     0.163 HD
ATOM     29  O   UNL A   1      41.294  18.888  25.815  1.00  0.00    -0.269 OA
BRANCH  27  30
ATOM     30  C   UNL A   1      41.502  21.099  26.577  1.00  0.00     0.039 A 
ATOM     31  C   UNL A   1      41.983  22.089  25.716  1.00  0.00     0.014 A 
ATOM     32  C   UNL A   1      41.625  21.239  27.960  1.00  0.00     0.014 A 
ATOM     33  C   UNL A   1      42.488  23.277  26.250  1.00  0.00     0.010 A 
ATOM     34  C   UNL A   1      42.060  22.451  28.487  1.00  0.00     0.010 A 
ATOM     35  C   UNL A   1      42.473  23.491  27.637  1.00  0.00    -0.014 A 
BRANCH  35  36
ATOM     36  C   UNL A   1      42.855  24.797  28.230  1.00  0.00     0.031 A 
ATOM     37  C   UNL A   1      41.803  25.844  28.469  1.00  0.00     0.074 A 
ATOM     38  C   UNL A   1      44.155  25.082  28.452  1.00  0.00     0.049 A 
ATOM     39  N   UNL A   1      41.948  27.091  28.838  1.00  0.00    -0.248 NA
ATOM     40  C   UNL A   1      40.407  25.443  28.230  1.00  0.00     0.031 C 
ATOM     41  C   UNL A   1      45.279  24.171  28.221  1.00  0.00     0.029 A 
ATOM     42  N   UNL A   1      44.752  26.231  28.908  1.00  0.00    -0.354 N 
ATOM     43  C   UNL A   1      40.668  27.632  28.838  1.00  0.00     0.074 A 
ATOM     44  C   UNL A   1      39.766  26.589  28.402  1.00  0.00     0.031 C 
ATOM     45  C   UNL A   1      46.424  24.790  28.553  1.00  0.00     0.029 A 
ATOM     46  C   UNL A   1      46.122  26.153  28.979  1.00  0.00     0.049 A 
ATOM     47  H   UNL A   1      44.246  27.038  29.160  1.00  0.00     0.167 HD
ATOM     48  C   UNL A   1      40.277  28.880  29.184  1.00  0.00     0.031 A 
ATOM     49  C   UNL A   1      47.035  27.077  29.338  1.00  0.00     0.031 A 
ATOM     50  C   UNL A   1      41.168  29.905  29.653  1.00  0.00     0.049 A 
ATOM     51  C   UNL A   1      46.570  28.448  29.745  1.00  0.00     0.074 A 
ATOM     52  C   UNL A   1      40.860  31.184  30.085  1.00  0.00     0.029 A 
ATOM     53  N   UNL A   1      42.543  29.764  29.762  1.00  0.00    -0.354 N 
ATOM     54  N   UNL A   1      45.350  28.925  29.792  1.00  0.00    -0.248 NA
ATOM     55  C   UNL A   1      47.607  29.405  30.158  1.00  0.00     0.031 C 
ATOM     56  C   UNL A   1      42.053  31.827  30.428  1.00  0.00     0.029 A 
ATOM     57  C   UNL A   1      43.097  30.935  30.248  1.00  0.00     0.049 A 
ATOM     58  H   UNL A   1      43.048  28.953  29.528  1.00  0.00     0.167 HD
ATOM     59  C   UNL A   1      45.470  30.222  30.273  1.00  0.00     0.074 A 
ATOM     60  C   UNL A   1      46.880  30.456  30.508  1.00  0.00     0.031 C 
ATOM     61  C   UNL A   1      44.499  31.138  30.499  1.00  0.00     0.031 A 
BRANCH  48  62
ATOM     62  C   UNL A   1      38.816  29.206  29.067  1.00  0.00    -0.014 A 
ATOM     63  C   UNL A   1      37.953  29.075  30.166  1.00  0.00     0.009 A 
ATOM     64  C   UNL A   1      38.303  29.685  27.851  1.00  0.00     0.009 A 
ATOM     65  C   UNL A   1      36.597  29.386  30.041  1.00  0.00     0.001 A 
ATOM     66  C   UNL A   1      36.954  30.020  27.736  1.00  0.00     0.001 A 
ATOM     67  C   UNL A   1      36.100  29.862  28.827  1.00  0.00     0.000 A 
ENDBRANCH  48  62
BRANCH  49  68
ATOM     68  C   UNL A   1      48.483  26.742  29.344  1.00  0.00    -0.014 A 
ATOM     69  C   UNL A   1      49.074  26.168  30.480  1.00  0.00     0.009 A 
ATOM     70  C   UNL A   1      49.288  27.018  28.228  1.00  0.00     0.009 A 
ATOM     71  C   UNL A   1      50.446  25.908  30.512  1.00  0.00     0.001 A 
ATOM     72  C   UNL A   1      50.655  26.733  28.252  1.00  0.00     0.001 A 
ATOM     73  C   UNL A   1      51.235  26.188  29.398  1.00  0.00     0.000 A 
ENDBRANCH  49  68
BRANCH  61  74
ATOM     74  C   UNL A   1      44.915  32.456  31.084  1.00  0.00    -0.014 A 
ATOM     75  C   UNL A   1      45.234  33.549  30.266  1.00  0.00     0.009 A 
ATOM     76  C   UNL A   1      44.926  32.618  32.478  1.00  0.00     0.009 A 
ATOM     77  C   UNL A   1      45.578  34.776  30.835  1.00  0.00     0.001 A 
ATOM     78  C   UNL A   1      45.247  33.852  33.043  1.00  0.00     0.001 A 
ATOM     79  C   UNL A   1      45.578  34.928  32.221  1.00  0.00     0.000 A 
ENDBRANCH  61  74
ENDBRANCH  35  36
ENDBRANCH  27  30
ENDBRANCH  25  26
ENDBRANCH   1  25
TORSDOF 12
ENDMDL
