MODEL 1
REMARK VINA RESULT:     -11.4      0.000      0.000
REMARK SMILES O=C(/C=C/c1ccc(NC(=O)CCc2nc(-c3cc(Br)cs3)no2)cc1)NCCCCNC(=O)c1ccc(-c2c3nc(c(-c4ccccc4)c4ccc([nH]4)c(-c4ccccc4)c4nc(c(-c5ccccc5)c5ccc2[nH]5)C=C4)C=C3)cc1
REMARK SMILES IDX 1 1 2 2 27 3 3 5 4 6 5 7 6 8 26 9 7 10 25 11 8 12 9 13 10 14
REMARK SMILES IDX 11 16 12 17 13 18 14 19 15 20 24 21 16 22 23 23 17 24 18 25
REMARK SMILES IDX 22 26 19 27 21 28 20 29 28 30 29 31 30 32 31 33 32 34 33 35
REMARK SMILES IDX 34 37 35 38 36 39 82 40 37 41 81 42 38 43 39 44 40 45 75 46
REMARK SMILES IDX 41 47 80 48 74 49 76 50 42 51 79 52 73 53 72 54 43 56 65 57
REMARK SMILES IDX 50 58 64 59 51 60 54 61 63 62 77 63 52 64 53 65 62 67 78 68
REMARK SMILES IDX 55 69 44 70 45 71 49 72 46 73 48 74 47 75 66 76 67 77 71 78
REMARK SMILES IDX 68 79 70 80 69 81 56 82 57 83 61 84 58 85 60 86 59 87
REMARK H PARENT 27 4 9 15 32 36 76 55 54 66
REMARK Flexibility Score: inf
ROOT
ATOM      1  O   UNL A   1      35.460  23.093  26.522  1.00  0.00    -0.270 OA
ATOM      2  C   UNL A   1      35.884  23.395  25.412  1.00  0.00     0.243 C 
ATOM      3  N   UNL A   1      36.994  22.837  24.837  1.00  0.00    -0.353 N 
ATOM      4  H   UNL A   1      37.325  23.196  23.983  1.00  0.00     0.163 HD
ENDROOT
BRANCH   2   5
ATOM      5  C   UNL A   1      35.157  24.422  24.625  1.00  0.00     0.072 C 
ATOM      6  C   UNL A   1      34.551  25.521  25.098  1.00  0.00     0.014 C 
BRANCH   6   7
ATOM      7  C   UNL A   1      33.932  26.534  24.233  1.00  0.00    -0.025 A 
ATOM      8  C   UNL A   1      33.700  27.807  24.760  1.00  0.00     0.010 A 
ATOM      9  C   UNL A   1      33.516  26.270  22.925  1.00  0.00     0.010 A 
ATOM     10  C   UNL A   1      32.999  28.770  24.027  1.00  0.00     0.027 A 
ATOM     11  C   UNL A   1      32.825  27.241  22.192  1.00  0.00     0.027 A 
ATOM     12  C   UNL A   1      32.480  28.465  22.774  1.00  0.00     0.041 A 
BRANCH  12  13
ATOM     13  N   UNL A   1      31.548  29.246  22.069  1.00  0.00    -0.326 N 
ATOM     14  C   UNL A   1      30.210  29.454  22.230  1.00  0.00     0.224 C 
ATOM     15  H   UNL A   1      31.938  29.738  21.310  1.00  0.00     0.169 HD
ATOM     16  O   UNL A   1      29.625  30.120  21.368  1.00  0.00    -0.275 OA
BRANCH  14  17
ATOM     17  C   UNL A   1      29.417  28.894  23.390  1.00  0.00     0.110 C 
BRANCH  17  18
ATOM     18  C   UNL A   1      29.038  27.415  23.353  1.00  0.00     0.110 C 
BRANCH  18  19
ATOM     19  C   UNL A   1      29.821  26.472  24.185  1.00  0.00     0.227 A 
ATOM     20  N   UNL A   1      30.113  25.209  23.985  1.00  0.00    -0.190 NA
ATOM     21  O   UNL A   1      30.247  26.932  25.399  1.00  0.00    -0.339 OA
ATOM     22  C   UNL A   1      30.808  24.875  25.123  1.00  0.00     0.212 A 
ATOM     23  N   UNL A   1      30.890  25.864  26.027  1.00  0.00    -0.056 NA
BRANCH  22  24
ATOM     24  C   UNL A   1      31.458  23.540  25.313  1.00  0.00     0.076 A 
ATOM     25  C   UNL A   1      31.664  22.614  24.309  1.00  0.00     0.039 A 
ATOM     26  S   UNL A   1      32.016  22.969  26.829  1.00  0.00    -0.139 S 
ATOM     27  C   UNL A   1      32.241  21.423  24.815  1.00  0.00     0.029 A 
ATOM     28  C   UNL A   1      32.442  21.446  26.172  1.00  0.00     0.081 A 
ATOM     29  Br  UNL A   1      32.664  19.966  23.696  1.00  0.00    -0.050 Br
ENDBRANCH  22  24
ENDBRANCH  18  19
ENDBRANCH  17  18
ENDBRANCH  14  17
ENDBRANCH  12  13
ENDBRANCH   6   7
ENDBRANCH   2   5
BRANCH   3  30
ATOM     30  C   UNL A   1      37.693  21.729  25.458  1.00  0.00     0.116 C 
BRANCH  30  31
ATOM     31  C   UNL A   1      37.430  20.413  24.726  1.00  0.00     0.023 C 
BRANCH  31  32
ATOM     32  C   UNL A   1      38.461  19.313  24.992  1.00  0.00     0.023 C 
BRANCH  32  33
ATOM     33  C   UNL A   1      39.437  19.592  26.129  1.00  0.00     0.116 C 
BRANCH  33  34
ATOM     34  N   UNL A   1      40.763  19.045  25.887  1.00  0.00    -0.352 N 
ATOM     35  C   UNL A   1      41.991  19.657  25.966  1.00  0.00     0.251 C 
ATOM     36  H   UNL A   1      40.784  18.095  25.629  1.00  0.00     0.163 HD
ATOM     37  O   UNL A   1      42.997  19.069  25.588  1.00  0.00    -0.269 OA
BRANCH  35  38
ATOM     38  C   UNL A   1      42.100  21.043  26.476  1.00  0.00     0.039 A 
ATOM     39  C   UNL A   1      41.959  21.267  27.849  1.00  0.00     0.014 A 
ATOM     40  C   UNL A   1      42.337  22.117  25.615  1.00  0.00     0.014 A 
ATOM     41  C   UNL A   1      42.129  22.555  28.364  1.00  0.00     0.010 A 
ATOM     42  C   UNL A   1      42.585  23.384  26.137  1.00  0.00     0.010 A 
ATOM     43  C   UNL A   1      42.486  23.617  27.517  1.00  0.00    -0.014 A 
BRANCH  43  44
ATOM     44  C   UNL A   1      42.771  24.971  28.060  1.00  0.00     0.031 A 
ATOM     45  C   UNL A   1      44.163  25.341  28.496  1.00  0.00     0.074 A 
ATOM     46  C   UNL A   1      41.762  25.851  28.221  1.00  0.00     0.049 A 
ATOM     47  N   UNL A   1      44.588  26.452  29.043  1.00  0.00    -0.248 NA
ATOM     48  C   UNL A   1      45.208  24.322  28.315  1.00  0.00     0.031 C 
ATOM     49  C   UNL A   1      40.361  25.608  27.873  1.00  0.00     0.029 A 
ATOM     50  N   UNL A   1      41.762  27.128  28.724  1.00  0.00    -0.354 N 
ATOM     51  C   UNL A   1      45.943  26.261  29.283  1.00  0.00     0.074 A 
ATOM     52  C   UNL A   1      46.256  24.909  28.873  1.00  0.00     0.031 C 
ATOM     53  C   UNL A   1      39.643  26.708  28.145  1.00  0.00     0.029 A 
ATOM     54  C   UNL A   1      40.520  27.717  28.731  1.00  0.00     0.049 A 
ATOM     55  H   UNL A   1      42.574  27.580  29.049  1.00  0.00     0.167 HD
ATOM     56  C   UNL A   1      46.851  27.136  29.778  1.00  0.00     0.031 A 
ATOM     57  C   UNL A   1      40.126  28.929  29.166  1.00  0.00     0.031 A 
ATOM     58  C   UNL A   1      46.541  28.480  30.187  1.00  0.00     0.049 A 
ATOM     59  C   UNL A   1      41.147  29.870  29.744  1.00  0.00     0.074 A 
ATOM     60  C   UNL A   1      47.401  29.458  30.659  1.00  0.00     0.029 A 
ATOM     61  N   UNL A   1      45.271  29.036  30.181  1.00  0.00    -0.354 N 
ATOM     62  N   UNL A   1      42.436  29.696  29.902  1.00  0.00    -0.248 NA
ATOM     63  C   UNL A   1      40.656  31.181  30.194  1.00  0.00     0.031 C 
ATOM     64  C   UNL A   1      46.642  30.582  30.997  1.00  0.00     0.029 A 
ATOM     65  C   UNL A   1      45.319  30.332  30.670  1.00  0.00     0.049 A 
ATOM     66  H   UNL A   1      44.455  28.577  29.877  1.00  0.00     0.167 HD
ATOM     67  C   UNL A   1      42.915  30.885  30.440  1.00  0.00     0.074 A 
ATOM     68  C   UNL A   1      41.781  31.776  30.565  1.00  0.00     0.031 C 
ATOM     69  C   UNL A   1      44.183  31.208  30.795  1.00  0.00     0.031 A 
BRANCH  56  70
ATOM     70  C   UNL A   1      48.270  26.656  29.916  1.00  0.00    -0.014 A 
ATOM     71  C   UNL A   1      48.705  25.987  31.072  1.00  0.00     0.009 A 
ATOM     72  C   UNL A   1      49.178  26.845  28.862  1.00  0.00     0.009 A 
ATOM     73  C   UNL A   1      50.029  25.558  31.188  1.00  0.00     0.001 A 
ATOM     74  C   UNL A   1      50.492  26.384  28.966  1.00  0.00     0.001 A 
ATOM     75  C   UNL A   1      50.920  25.753  30.133  1.00  0.00     0.000 A 
ENDBRANCH  56  70
BRANCH  57  76
ATOM     76  C   UNL A   1      38.696  29.327  29.069  1.00  0.00    -0.014 A 
ATOM     77  C   UNL A   1      37.853  29.239  30.188  1.00  0.00     0.009 A 
ATOM     78  C   UNL A   1      38.165  29.789  27.856  1.00  0.00     0.009 A 
ATOM     79  C   UNL A   1      36.502  29.580  30.086  1.00  0.00     0.001 A 
ATOM     80  C   UNL A   1      36.821  30.160  27.763  1.00  0.00     0.001 A 
ATOM     81  C   UNL A   1      35.989  30.045  28.875  1.00  0.00     0.000 A 
ENDBRANCH  57  76
BRANCH  69  82
ATOM     82  C   UNL A   1      44.420  32.598  31.321  1.00  0.00    -0.014 A 
ATOM     83  C   UNL A   1      44.364  32.882  32.694  1.00  0.00     0.009 A 
ATOM     84  C   UNL A   1      44.740  33.631  30.426  1.00  0.00     0.009 A 
ATOM     85  C   UNL A   1      44.591  34.181  33.156  1.00  0.00     0.001 A 
ATOM     86  C   UNL A   1      45.000  34.920  30.893  1.00  0.00     0.001 A 
ATOM     87  C   UNL A   1      44.915  35.196  32.256  1.00  0.00     0.000 A 
ENDBRANCH  69  82
ENDBRANCH  43  44
ENDBRANCH  35  38
ENDBRANCH  33  34
ENDBRANCH  32  33
ENDBRANCH  31  32
ENDBRANCH  30  31
ENDBRANCH   3  30
TORSDOF 17
ENDMDL
MODEL 2
REMARK VINA RESULT:     -11.3      6.487     13.105
REMARK SMILES O=C(/C=C/c1ccc(NC(=O)CCc2nc(-c3cc(Br)cs3)no2)cc1)NCCCCNC(=O)c1ccc(-c2c3nc(c(-c4ccccc4)c4ccc([nH]4)c(-c4ccccc4)c4nc(c(-c5ccccc5)c5ccc2[nH]5)C=C4)C=C3)cc1
REMARK SMILES IDX 1 1 2 2 27 3 3 5 4 6 5 7 6 8 26 9 7 10 25 11 8 12 9 13 10 14
REMARK SMILES IDX 11 16 12 17 13 18 14 19 15 20 24 21 16 22 23 23 17 24 18 25
REMARK SMILES IDX 22 26 19 27 21 28 20 29 28 30 29 31 30 32 31 33 32 34 33 35
REMARK SMILES IDX 34 37 35 38 36 39 82 40 37 41 81 42 38 43 39 44 40 45 75 46
REMARK SMILES IDX 41 47 80 48 74 49 76 50 42 51 79 52 73 53 72 54 43 56 65 57
REMARK SMILES IDX 50 58 64 59 51 60 54 61 63 62 77 63 52 64 53 65 62 67 78 68
REMARK SMILES IDX 55 69 44 70 45 71 49 72 46 73 48 74 47 75 66 76 67 77 71 78
REMARK SMILES IDX 68 79 70 80 69 81 56 82 57 83 61 84 58 85 60 86 59 87
REMARK H PARENT 27 4 9 15 32 36 76 55 54 66
REMARK Flexibility Score: inf
ROOT
ATOM      1  O   UNL A   1      35.161  36.471  33.089  1.00  0.00    -0.270 OA
ATOM      2  C   UNL A   1      34.787  35.311  33.225  1.00  0.00     0.243 C 
ATOM      3  N   UNL A   1      33.484  34.907  33.113  1.00  0.00    -0.353 N 
ATOM      4  H   UNL A   1      33.249  33.976  33.327  1.00  0.00     0.163 HD
ENDROOT
BRANCH   2   5
ATOM      5  C   UNL A   1      35.797  34.266  33.525  1.00  0.00     0.072 C 
ATOM      6  C   UNL A   1      36.732  34.298  34.485  1.00  0.00     0.014 C 
BRANCH   6   7
ATOM      7  C   UNL A   1      37.634  33.175  34.769  1.00  0.00    -0.025 A 
ATOM      8  C   UNL A   1      37.499  32.006  34.015  1.00  0.00     0.010 A 
ATOM      9  C   UNL A   1      38.585  33.198  35.793  1.00  0.00     0.010 A 
ATOM     10  C   UNL A   1      38.241  30.862  34.326  1.00  0.00     0.027 A 
ATOM     11  C   UNL A   1      39.332  32.054  36.092  1.00  0.00     0.027 A 
ATOM     12  C   UNL A   1      39.097  30.851  35.421  1.00  0.00     0.041 A 
BRANCH  12  13
ATOM     13  N   UNL A   1      39.682  29.702  35.982  1.00  0.00    -0.326 N 
ATOM     14  C   UNL A   1      40.934  29.169  35.897  1.00  0.00     0.224 C 
ATOM     15  H   UNL A   1      39.066  29.181  36.547  1.00  0.00     0.169 HD
ATOM     16  O   UNL A   1      41.125  28.066  36.421  1.00  0.00    -0.275 OA
BRANCH  14  17
ATOM     17  C   UNL A   1      42.078  29.848  35.178  1.00  0.00     0.110 C 
BRANCH  17  18
ATOM     18  C   UNL A   1      43.243  30.372  36.016  1.00  0.00     0.110 C 
BRANCH  18  19
ATOM     19  C   UNL A   1      42.950  31.360  37.080  1.00  0.00     0.227 A 
ATOM     20  N   UNL A   1      42.730  32.651  37.000  1.00  0.00    -0.190 NA
ATOM     21  O   UNL A   1      42.993  30.906  38.368  1.00  0.00    -0.339 OA
ATOM     22  C   UNL A   1      42.577  33.015  38.317  1.00  0.00     0.212 A 
ATOM     23  N   UNL A   1      42.761  32.011  39.189  1.00  0.00    -0.056 NA
BRANCH  22  24
ATOM     24  C   UNL A   1      42.192  34.399  38.736  1.00  0.00     0.076 A 
ATOM     25  C   UNL A   1      40.898  34.880  38.769  1.00  0.00     0.039 A 
ATOM     26  S   UNL A   1      43.326  35.591  39.212  1.00  0.00    -0.139 S 
ATOM     27  C   UNL A   1      40.863  36.246  39.145  1.00  0.00     0.029 A 
ATOM     28  C   UNL A   1      42.106  36.783  39.367  1.00  0.00     0.081 A 
ATOM     29  Br  UNL A   1      39.244  37.198  39.302  1.00  0.00    -0.050 Br
ENDBRANCH  22  24
ENDBRANCH  18  19
ENDBRANCH  17  18
ENDBRANCH  14  17
ENDBRANCH  12  13
ENDBRANCH   6   7
ENDBRANCH   2   5
BRANCH   3  30
ATOM     30  C   UNL A   1      32.441  35.820  32.688  1.00  0.00     0.116 C 
BRANCH  30  31
ATOM     31  C   UNL A   1      32.304  35.850  31.166  1.00  0.00     0.023 C 
BRANCH  31  32
ATOM     32  C   UNL A   1      33.155  36.912  30.464  1.00  0.00     0.023 C 
BRANCH  32  33
ATOM     33  C   UNL A   1      33.464  36.638  28.997  1.00  0.00     0.116 C 
BRANCH  33  34
ATOM     34  N   UNL A   1      32.714  35.514  28.458  1.00  0.00    -0.352 N 
ATOM     35  C   UNL A   1      33.111  34.213  28.255  1.00  0.00     0.251 C 
ATOM     36  H   UNL A   1      31.785  35.714  28.200  1.00  0.00     0.163 HD
ATOM     37  O   UNL A   1      32.379  33.434  27.657  1.00  0.00    -0.269 OA
BRANCH  35  38
ATOM     38  C   UNL A   1      34.438  33.757  28.728  1.00  0.00     0.039 A 
ATOM     39  C   UNL A   1      34.516  33.054  29.933  1.00  0.00     0.014 A 
ATOM     40  C   UNL A   1      35.598  34.019  27.996  1.00  0.00     0.014 A 
ATOM     41  C   UNL A   1      35.746  32.550  30.365  1.00  0.00     0.010 A 
ATOM     42  C   UNL A   1      36.808  33.449  28.386  1.00  0.00     0.010 A 
ATOM     43  C   UNL A   1      36.895  32.707  29.573  1.00  0.00    -0.014 A 
BRANCH  43  44
ATOM     44  C   UNL A   1      38.190  32.091  29.966  1.00  0.00     0.031 A 
ATOM     45  C   UNL A   1      39.152  32.837  30.850  1.00  0.00     0.074 A 
ATOM     46  C   UNL A   1      38.530  30.882  29.477  1.00  0.00     0.049 A 
ATOM     47  N   UNL A   1      40.347  32.484  31.252  1.00  0.00    -0.248 NA
ATOM     48  C   UNL A   1      38.726  34.163  31.325  1.00  0.00     0.031 C 
ATOM     49  C   UNL A   1      37.706  30.067  28.582  1.00  0.00     0.029 A 
ATOM     50  N   UNL A   1      39.664  30.130  29.660  1.00  0.00    -0.354 N 
ATOM     51  C   UNL A   1      40.819  33.546  32.014  1.00  0.00     0.074 A 
ATOM     52  C   UNL A   1      39.804  34.577  31.973  1.00  0.00     0.031 C 
ATOM     53  C   UNL A   1      38.347  28.918  28.318  1.00  0.00     0.029 A 
ATOM     54  C   UNL A   1      39.646  28.933  28.984  1.00  0.00     0.049 A 
ATOM     55  H   UNL A   1      40.418  30.419  30.223  1.00  0.00     0.167 HD
ATOM     56  C   UNL A   1      41.980  33.648  32.705  1.00  0.00     0.031 A 
ATOM     57  C   UNL A   1      40.573  27.959  28.900  1.00  0.00     0.031 A 
ATOM     58  C   UNL A   1      42.991  32.624  32.745  1.00  0.00     0.049 A 
ATOM     59  C   UNL A   1      41.868  28.110  29.648  1.00  0.00     0.074 A 
ATOM     60  C   UNL A   1      44.181  32.615  33.454  1.00  0.00     0.029 A 
ATOM     61  N   UNL A   1      42.935  31.430  32.044  1.00  0.00    -0.354 N 
ATOM     62  N   UNL A   1      42.269  29.093  30.417  1.00  0.00    -0.248 NA
ATOM     63  C   UNL A   1      42.835  27.010  29.523  1.00  0.00     0.031 C 
ATOM     64  C   UNL A   1      44.872  31.444  33.131  1.00  0.00     0.029 A 
ATOM     65  C   UNL A   1      44.084  30.690  32.278  1.00  0.00     0.049 A 
ATOM     66  H   UNL A   1      42.191  31.149  31.464  1.00  0.00     0.167 HD
ATOM     67  C   UNL A   1      43.519  28.716  30.892  1.00  0.00     0.074 A 
ATOM     68  C   UNL A   1      43.802  27.409  30.337  1.00  0.00     0.031 C 
ATOM     69  C   UNL A   1      44.356  29.392  31.716  1.00  0.00     0.031 A 
BRANCH  56  70
ATOM     70  C   UNL A   1      42.223  34.924  33.464  1.00  0.00    -0.014 A 
ATOM     71  C   UNL A   1      42.985  35.967  32.913  1.00  0.00     0.009 A 
ATOM     72  C   UNL A   1      41.657  35.099  34.736  1.00  0.00     0.009 A 
ATOM     73  C   UNL A   1      43.210  37.141  33.637  1.00  0.00     0.001 A 
ATOM     74  C   UNL A   1      41.854  36.286  35.444  1.00  0.00     0.001 A 
ATOM     75  C   UNL A   1      42.640  37.301  34.899  1.00  0.00     0.000 A 
ENDBRANCH  56  70
BRANCH  57  76
ATOM     76  C   UNL A   1      40.307  26.749  28.077  1.00  0.00    -0.014 A 
ATOM     77  C   UNL A   1      39.555  25.684  28.596  1.00  0.00     0.009 A 
ATOM     78  C   UNL A   1      40.811  26.649  26.771  1.00  0.00     0.009 A 
ATOM     79  C   UNL A   1      39.336  24.534  27.834  1.00  0.00     0.001 A 
ATOM     80  C   UNL A   1      40.564  25.511  25.999  1.00  0.00     0.001 A 
ATOM     81  C   UNL A   1      39.836  24.451  26.535  1.00  0.00     0.000 A 
ENDBRANCH  57  76
BRANCH  69  82
ATOM     82  C   UNL A   1      45.645  28.715  32.099  1.00  0.00    -0.014 A 
ATOM     83  C   UNL A   1      45.728  27.880  33.223  1.00  0.00     0.009 A 
ATOM     84  C   UNL A   1      46.782  28.889  31.295  1.00  0.00     0.009 A 
ATOM     85  C   UNL A   1      46.937  27.261  33.554  1.00  0.00     0.001 A 
ATOM     86  C   UNL A   1      47.979  28.243  31.609  1.00  0.00     0.001 A 
ATOM     87  C   UNL A   1      48.058  27.438  32.743  1.00  0.00     0.000 A 
ENDBRANCH  69  82
ENDBRANCH  43  44
ENDBRANCH  35  38
ENDBRANCH  33  34
ENDBRANCH  32  33
ENDBRANCH  31  32
ENDBRANCH  30  31
ENDBRANCH   3  30
TORSDOF 17
ENDMDL
MODEL 3
REMARK VINA RESULT:     -11.0      6.270     12.575
REMARK SMILES O=C(/C=C/c1ccc(NC(=O)CCc2nc(-c3cc(Br)cs3)no2)cc1)NCCCCNC(=O)c1ccc(-c2c3nc(c(-c4ccccc4)c4ccc([nH]4)c(-c4ccccc4)c4nc(c(-c5ccccc5)c5ccc2[nH]5)C=C4)C=C3)cc1
REMARK SMILES IDX 1 1 2 2 27 3 3 5 4 6 5 7 6 8 26 9 7 10 25 11 8 12 9 13 10 14
REMARK SMILES IDX 11 16 12 17 13 18 14 19 15 20 24 21 16 22 23 23 17 24 18 25
REMARK SMILES IDX 22 26 19 27 21 28 20 29 28 30 29 31 30 32 31 33 32 34 33 35
REMARK SMILES IDX 34 37 35 38 36 39 82 40 37 41 81 42 38 43 39 44 40 45 75 46
REMARK SMILES IDX 41 47 80 48 74 49 76 50 42 51 79 52 73 53 72 54 43 56 65 57
REMARK SMILES IDX 50 58 64 59 51 60 54 61 63 62 77 63 52 64 53 65 62 67 78 68
REMARK SMILES IDX 55 69 44 70 45 71 49 72 46 73 48 74 47 75 66 76 67 77 71 78
REMARK SMILES IDX 68 79 70 80 69 81 56 82 57 83 61 84 58 85 60 86 59 87
REMARK H PARENT 27 4 9 15 32 36 76 55 54 66
REMARK Flexibility Score: inf
ROOT
ATOM      1  O   UNL A   1      33.521  33.693  33.155  1.00  0.00    -0.270 OA
ATOM      2  C   UNL A   1      34.659  34.136  33.048  1.00  0.00     0.243 C 
ATOM      3  N   UNL A   1      34.966  35.471  33.055  1.00  0.00    -0.353 N 
ATOM      4  H   UNL A   1      35.891  35.752  32.872  1.00  0.00     0.163 HD
ENDROOT
BRANCH   2   5
ATOM      5  C   UNL A   1      35.787  33.182  32.908  1.00  0.00     0.072 C 
ATOM      6  C   UNL A   1      36.510  32.636  33.896  1.00  0.00     0.014 C 
BRANCH   6   7
ATOM      7  C   UNL A   1      37.552  31.627  33.667  1.00  0.00    -0.025 A 
ATOM      8  C   UNL A   1      37.248  30.526  32.863  1.00  0.00     0.010 A 
ATOM      9  C   UNL A   1      38.817  31.687  34.260  1.00  0.00     0.010 A 
ATOM     10  C   UNL A   1      38.156  29.472  32.716  1.00  0.00     0.027 A 
ATOM     11  C   UNL A   1      39.725  30.635  34.100  1.00  0.00     0.027 A 
ATOM     12  C   UNL A   1      39.364  29.478  33.403  1.00  0.00     0.041 A 
BRANCH  12  13
ATOM     13  N   UNL A   1      40.224  28.375  33.544  1.00  0.00    -0.326 N 
ATOM     14  C   UNL A   1      41.510  28.258  33.981  1.00  0.00     0.224 C 
ATOM     15  H   UNL A   1      39.817  27.520  33.274  1.00  0.00     0.169 HD
ATOM     16  O   UNL A   1      42.051  27.151  33.884  1.00  0.00    -0.275 OA
BRANCH  14  17
ATOM     17  C   UNL A   1      42.302  29.415  34.550  1.00  0.00     0.110 C 
BRANCH  17  18
ATOM     18  C   UNL A   1      42.707  29.353  36.021  1.00  0.00     0.110 C 
BRANCH  18  19
ATOM     19  C   UNL A   1      42.339  30.491  36.896  1.00  0.00     0.227 A 
ATOM     20  N   UNL A   1      41.499  31.478  36.692  1.00  0.00    -0.190 NA
ATOM     21  O   UNL A   1      43.027  30.611  38.070  1.00  0.00    -0.339 OA
ATOM     22  C   UNL A   1      41.635  32.232  37.833  1.00  0.00     0.212 A 
ATOM     23  N   UNL A   1      42.569  31.778  38.684  1.00  0.00    -0.056 NA
BRANCH  22  24
ATOM     24  C   UNL A   1      40.783  33.428  38.121  1.00  0.00     0.076 A 
ATOM     25  C   UNL A   1      41.263  34.659  38.526  1.00  0.00     0.039 A 
ATOM     26  S   UNL A   1      39.074  33.419  38.007  1.00  0.00    -0.139 S 
ATOM     27  C   UNL A   1      40.206  35.568  38.782  1.00  0.00     0.029 A 
ATOM     28  C   UNL A   1      38.961  35.024  38.594  1.00  0.00     0.081 A 
ATOM     29  Br  UNL A   1      40.527  37.340  39.337  1.00  0.00    -0.050 Br
ENDBRANCH  22  24
ENDBRANCH  18  19
ENDBRANCH  17  18
ENDBRANCH  14  17
ENDBRANCH  12  13
ENDBRANCH   6   7
ENDBRANCH   2   5
BRANCH   3  30
ATOM     30  C   UNL A   1      33.959  36.478  33.325  1.00  0.00     0.116 C 
BRANCH  30  31
ATOM     31  C   UNL A   1      33.633  37.299  32.077  1.00  0.00     0.023 C 
BRANCH  31  32
ATOM     32  C   UNL A   1      32.758  36.582  31.047  1.00  0.00     0.023 C 
BRANCH  32  33
ATOM     33  C   UNL A   1      33.443  36.247  29.726  1.00  0.00     0.116 C 
BRANCH  33  34
ATOM     34  N   UNL A   1      32.648  35.370  28.880  1.00  0.00    -0.352 N 
ATOM     35  C   UNL A   1      32.992  34.179  28.285  1.00  0.00     0.251 C 
ATOM     36  H   UNL A   1      31.728  35.674  28.708  1.00  0.00     0.163 HD
ATOM     37  O   UNL A   1      32.230  33.648  27.487  1.00  0.00    -0.269 OA
BRANCH  35  38
ATOM     38  C   UNL A   1      34.300  33.552  28.579  1.00  0.00     0.039 A 
ATOM     39  C   UNL A   1      35.419  33.953  27.844  1.00  0.00     0.014 A 
ATOM     40  C   UNL A   1      34.430  32.575  29.570  1.00  0.00     0.014 A 
ATOM     41  C   UNL A   1      36.677  33.429  28.151  1.00  0.00     0.010 A 
ATOM     42  C   UNL A   1      35.695  32.114  29.929  1.00  0.00     0.010 A 
ATOM     43  C   UNL A   1      36.832  32.537  29.225  1.00  0.00    -0.014 A 
BRANCH  43  44
ATOM     44  C   UNL A   1      38.176  32.049  29.631  1.00  0.00     0.031 A 
ATOM     45  C   UNL A   1      38.663  30.696  29.185  1.00  0.00     0.074 A 
ATOM     46  C   UNL A   1      38.938  32.796  30.455  1.00  0.00     0.049 A 
ATOM     47  N   UNL A   1      39.780  30.082  29.485  1.00  0.00    -0.248 NA
ATOM     48  C   UNL A   1      37.769  29.924  28.310  1.00  0.00     0.031 C 
ATOM     49  C   UNL A   1      38.570  34.110  30.990  1.00  0.00     0.029 A 
ATOM     50  N   UNL A   1      40.178  32.555  30.991  1.00  0.00    -0.354 N 
ATOM     51  C   UNL A   1      39.717  28.850  28.845  1.00  0.00     0.074 A 
ATOM     52  C   UNL A   1      38.429  28.783  28.189  1.00  0.00     0.031 C 
ATOM     53  C   UNL A   1      39.574  34.570  31.752  1.00  0.00     0.029 A 
ATOM     54  C   UNL A   1      40.635  33.568  31.801  1.00  0.00     0.049 A 
ATOM     55  H   UNL A   1      40.693  31.735  30.812  1.00  0.00     0.167 HD
ATOM     56  C   UNL A   1      40.652  27.871  28.789  1.00  0.00     0.031 A 
ATOM     57  C   UNL A   1      41.774  33.677  32.511  1.00  0.00     0.031 A 
ATOM     58  C   UNL A   1      41.933  27.937  29.443  1.00  0.00     0.049 A 
ATOM     59  C   UNL A   1      42.782  32.563  32.460  1.00  0.00     0.074 A 
ATOM     60  C   UNL A   1      42.966  27.015  29.407  1.00  0.00     0.029 A 
ATOM     61  N   UNL A   1      42.354  28.977  30.255  1.00  0.00    -0.354 N 
ATOM     62  N   UNL A   1      42.733  31.433  31.797  1.00  0.00    -0.248 NA
ATOM     63  C   UNL A   1      44.008  32.745  33.250  1.00  0.00     0.031 C 
ATOM     64  C   UNL A   1      43.986  27.470  30.249  1.00  0.00     0.029 A 
ATOM     65  C   UNL A   1      43.619  28.707  30.753  1.00  0.00     0.049 A 
ATOM     66  H   UNL A   1      41.831  29.788  30.452  1.00  0.00     0.167 HD
ATOM     67  C   UNL A   1      43.933  30.785  32.064  1.00  0.00     0.074 A 
ATOM     68  C   UNL A   1      44.694  31.655  32.936  1.00  0.00     0.031 C 
ATOM     69  C   UNL A   1      44.365  29.578  31.623  1.00  0.00     0.031 A 
BRANCH  56  70
ATOM     70  C   UNL A   1      40.314  26.636  28.000  1.00  0.00    -0.014 A 
ATOM     71  C   UNL A   1      40.774  26.461  26.684  1.00  0.00     0.009 A 
ATOM     72  C   UNL A   1      39.550  25.616  28.590  1.00  0.00     0.009 A 
ATOM     73  C   UNL A   1      40.441  25.313  25.963  1.00  0.00     0.001 A 
ATOM     74  C   UNL A   1      39.247  24.454  27.879  1.00  0.00     0.001 A 
ATOM     75  C   UNL A   1      39.682  24.308  26.562  1.00  0.00     0.000 A 
ENDBRANCH  56  70
BRANCH  57  76
ATOM     76  C   UNL A   1      42.026  34.893  33.330  1.00  0.00    -0.014 A 
ATOM     77  C   UNL A   1      41.433  35.038  34.593  1.00  0.00     0.009 A 
ATOM     78  C   UNL A   1      42.857  35.917  32.850  1.00  0.00     0.009 A 
ATOM     79  C   UNL A   1      41.644  36.196  35.346  1.00  0.00     0.001 A 
ATOM     80  C   UNL A   1      43.092  37.060  33.618  1.00  0.00     0.001 A 
ATOM     81  C   UNL A   1      42.478  37.203  34.860  1.00  0.00     0.000 A 
ENDBRANCH  57  76
BRANCH  69  82
ATOM     82  C   UNL A   1      45.741  29.140  32.048  1.00  0.00    -0.014 A 
ATOM     83  C   UNL A   1      45.940  28.359  33.196  1.00  0.00     0.009 A 
ATOM     84  C   UNL A   1      46.850  29.487  31.261  1.00  0.00     0.009 A 
ATOM     85  C   UNL A   1      47.228  27.963  33.566  1.00  0.00     0.001 A 
ATOM     86  C   UNL A   1      48.131  29.061  31.614  1.00  0.00     0.001 A 
ATOM     87  C   UNL A   1      48.321  28.309  32.771  1.00  0.00     0.000 A 
ENDBRANCH  69  82
ENDBRANCH  43  44
ENDBRANCH  35  38
ENDBRANCH  33  34
ENDBRANCH  32  33
ENDBRANCH  31  32
ENDBRANCH  30  31
ENDBRANCH   3  30
TORSDOF 17
ENDMDL
