MODEL 1
REMARK VINA RESULT:     -11.7      0.000      0.000
REMARK SMILES NS(=O)(=O)c1ccc(N2N=C(C(=O)NCCCCNC(=O)c3ccc(-c4c5nc(c(-c6ccccc6)c6ccc([nH]6)c(-c6ccccc6)c6nc(c(-c7ccccc7)c7ccc4[nH]7)C=C6)C=C5)cc3)C[C@H]2c2ccco2)cc1
REMARK SMILES IDX 16 1 15 2 14 3 12 4 13 5 11 7 9 8 10 9 71 10 70 11 8 12 5 13
REMARK SMILES IDX 6 14 78 15 7 16 77 17 2 18 3 19 4 20 1 21 72 24 73 25 76 26
REMARK SMILES IDX 74 27 75 28 17 29 18 30 19 31 20 32 21 34 22 35 23 36 69 37
REMARK SMILES IDX 24 38 68 39 25 40 26 41 27 42 62 43 28 44 67 45 61 46 63 47
REMARK SMILES IDX 29 48 66 49 60 50 59 51 30 53 52 54 37 55 51 56 38 57 41 58
REMARK SMILES IDX 50 59 64 60 39 61 40 62 49 64 65 65 42 66 31 67 32 68 36 69
REMARK SMILES IDX 33 70 35 71 34 72 53 73 54 74 58 75 55 76 57 77 56 78 43 79
REMARK SMILES IDX 44 80 48 81 45 82 47 83 46 84
REMARK H PARENT 14 6 1 22 1 23 19 33 63 52 41 63
REMARK Flexibility Score: inf
ROOT
ATOM      1  C   UNL A   1      32.255  26.630  26.225  1.00  0.00     0.023 C 
ENDROOT
BRANCH   1   2
ATOM      2  C   UNL A   1      30.883  26.140  25.772  1.00  0.00     0.116 C 
BRANCH   2   3
ATOM      3  N   UNL A   1      30.753  26.192  24.329  1.00  0.00    -0.351 N 
ATOM      4  C   UNL A   1      31.413  25.597  23.282  1.00  0.00     0.267 C 
ATOM      5  O   UNL A   1      31.092  25.943  22.147  1.00  0.00    -0.268 OA
ATOM      6  H   UNL A   1      30.029  26.789  24.033  1.00  0.00     0.163 HD
BRANCH   4   7
ATOM      7  C   UNL A   1      32.477  24.519  23.441  1.00  0.00     0.128 C 
ATOM      8  N   UNL A   1      33.340  22.655  24.035  1.00  0.00    -0.254 N 
ATOM      9  N   UNL A   1      32.166  23.320  23.835  1.00  0.00    -0.171 NA
ATOM     10  C   UNL A   1      34.518  23.394  23.570  1.00  0.00     0.180 C 
ATOM     11  C   UNL A   1      33.924  24.747  23.176  1.00  0.00     0.099 C 
BRANCH   8  12
ATOM     12  C   UNL A   1      33.359  21.263  24.108  1.00  0.00     0.060 A 
ATOM     13  C   UNL A   1      33.502  18.455  24.181  1.00  0.00     0.082 A 
ATOM     14  C   UNL A   1      32.485  19.077  23.456  1.00  0.00     0.024 A 
ATOM     15  C   UNL A   1      34.422  19.217  24.901  1.00  0.00     0.024 A 
ATOM     16  C   UNL A   1      32.412  20.476  23.434  1.00  0.00     0.029 A 
ATOM     17  C   UNL A   1      34.345  20.608  24.858  1.00  0.00     0.029 A 
BRANCH  13  18
ATOM     18  S   UNL A   1      33.659  16.698  24.246  1.00  0.00     0.238 S 
ATOM     19  O   UNL A   1      34.038  16.223  22.934  1.00  0.00    -0.207 OA
ATOM     20  O   UNL A   1      32.529  16.171  24.970  1.00  0.00    -0.207 OA
BRANCH  18  21
ATOM     21  N   UNL A   1      34.999  16.418  25.219  1.00  0.00    -0.225 NA
ATOM     22  H   UNL A   1      35.820  16.265  24.633  1.00  0.00     0.137 HD
ATOM     23  H   UNL A   1      34.835  15.592  25.795  1.00  0.00     0.137 HD
ENDBRANCH  18  21
ENDBRANCH  13  18
ENDBRANCH   8  12
BRANCH  10  24
ATOM     24  C   UNL A   1      35.671  23.543  24.517  1.00  0.00     0.128 A 
ATOM     25  C   UNL A   1      35.797  24.152  25.752  1.00  0.00     0.048 A 
ATOM     26  O   UNL A   1      36.866  22.977  24.166  1.00  0.00    -0.467 OA
ATOM     27  C   UNL A   1      37.134  23.950  26.168  1.00  0.00     0.042 A 
ATOM     28  C   UNL A   1      37.739  23.218  25.174  1.00  0.00     0.195 A 
ENDBRANCH  10  24
ENDBRANCH   4   7
ENDBRANCH   2   3
ENDBRANCH   1   2
BRANCH   1  29
ATOM     29  C   UNL A   1      32.244  28.003  26.895  1.00  0.00     0.023 C 
BRANCH  29  30
ATOM     30  C   UNL A   1      33.616  28.553  27.278  1.00  0.00     0.116 C 
BRANCH  30  31
ATOM     31  N   UNL A   1      33.584  29.939  27.723  1.00  0.00    -0.352 N 
ATOM     32  C   UNL A   1      34.584  30.678  28.304  1.00  0.00     0.251 C 
ATOM     33  H   UNL A   1      32.729  30.409  27.588  1.00  0.00     0.163 HD
ATOM     34  O   UNL A   1      34.362  31.814  28.710  1.00  0.00    -0.269 OA
BRANCH  32  35
ATOM     35  C   UNL A   1      35.922  30.078  28.474  1.00  0.00     0.039 A 
ATOM     36  C   UNL A   1      36.824  30.131  27.408  1.00  0.00     0.014 A 
ATOM     37  C   UNL A   1      36.294  29.500  29.690  1.00  0.00     0.014 A 
ATOM     38  C   UNL A   1      38.128  29.666  27.588  1.00  0.00     0.010 A 
ATOM     39  C   UNL A   1      37.612  29.102  29.888  1.00  0.00     0.010 A 
ATOM     40  C   UNL A   1      38.540  29.181  28.839  1.00  0.00    -0.014 A 
BRANCH  40  41
ATOM     41  C   UNL A   1      39.939  28.748  29.074  1.00  0.00     0.031 A 
ATOM     42  C   UNL A   1      40.928  29.701  29.685  1.00  0.00     0.074 A 
ATOM     43  C   UNL A   1      40.337  27.525  28.671  1.00  0.00     0.049 A 
ATOM     44  N   UNL A   1      42.207  29.534  29.904  1.00  0.00    -0.248 NA
ATOM     45  C   UNL A   1      40.417  31.024  30.076  1.00  0.00     0.031 C 
ATOM     46  C   UNL A   1      39.486  26.523  28.026  1.00  0.00     0.029 A 
ATOM     47  N   UNL A   1      41.567  26.921  28.741  1.00  0.00    -0.354 N 
ATOM     48  C   UNL A   1      42.658  30.737  30.432  1.00  0.00     0.074 A 
ATOM     49  C   UNL A   1      41.527  31.638  30.461  1.00  0.00     0.031 C 
ATOM     50  C   UNL A   1      40.212  25.419  27.785  1.00  0.00     0.029 A 
ATOM     51  C   UNL A   1      41.585  25.648  28.223  1.00  0.00     0.049 A 
ATOM     52  H   UNL A   1      42.361  27.359  29.125  1.00  0.00     0.167 HD
ATOM     53  C   UNL A   1      43.897  31.058  30.872  1.00  0.00     0.031 A 
ATOM     54  C   UNL A   1      42.596  24.767  28.114  1.00  0.00     0.031 A 
ATOM     55  C   UNL A   1      45.016  30.156  30.868  1.00  0.00     0.049 A 
ATOM     56  C   UNL A   1      43.960  25.144  28.619  1.00  0.00     0.074 A 
ATOM     57  C   UNL A   1      46.296  30.367  31.350  1.00  0.00     0.029 A 
ATOM     58  N   UNL A   1      44.987  28.869  30.356  1.00  0.00    -0.354 N 
ATOM     59  N   UNL A   1      44.353  26.263  29.177  1.00  0.00    -0.248 NA
ATOM     60  C   UNL A   1      45.015  24.129  28.491  1.00  0.00     0.031 C 
ATOM     61  C   UNL A   1      47.053  29.219  31.094  1.00  0.00     0.029 A 
ATOM     62  C   UNL A   1      46.231  28.278  30.496  1.00  0.00     0.049 A 
ATOM     63  H   UNL A   1      44.199  28.438  29.952  1.00  0.00     0.167 HD
ATOM     64  C   UNL A   1      45.693  26.076  29.494  1.00  0.00     0.074 A 
ATOM     65  C   UNL A   1      46.040  24.733  29.076  1.00  0.00     0.031 C 
ATOM     66  C   UNL A   1      46.557  26.938  30.081  1.00  0.00     0.031 A 
BRANCH  53  67
ATOM     67  C   UNL A   1      44.102  32.451  31.395  1.00  0.00    -0.014 A 
ATOM     68  C   UNL A   1      44.458  33.505  30.536  1.00  0.00     0.009 A 
ATOM     69  C   UNL A   1      43.916  32.720  32.760  1.00  0.00     0.009 A 
ATOM     70  C   UNL A   1      44.659  34.791  31.041  1.00  0.00     0.001 A 
ATOM     71  C   UNL A   1      44.090  34.013  33.256  1.00  0.00     0.001 A 
ATOM     72  C   UNL A   1      44.472  35.044  32.400  1.00  0.00     0.000 A 
ENDBRANCH  53  67
BRANCH  54  73
ATOM     73  C   UNL A   1      42.352  23.423  27.528  1.00  0.00    -0.014 A 
ATOM     74  C   UNL A   1      42.584  23.194  26.163  1.00  0.00     0.009 A 
ATOM     75  C   UNL A   1      41.879  22.369  28.323  1.00  0.00     0.009 A 
ATOM     76  C   UNL A   1      42.320  21.944  25.600  1.00  0.00     0.001 A 
ATOM     77  C   UNL A   1      41.640  21.112  27.762  1.00  0.00     0.001 A 
ATOM     78  C   UNL A   1      41.853  20.903  26.401  1.00  0.00     0.000 A 
ENDBRANCH  54  73
BRANCH  66  79
ATOM     79  C   UNL A   1      47.948  26.441  30.348  1.00  0.00    -0.014 A 
ATOM     80  C   UNL A   1      48.964  26.569  29.388  1.00  0.00     0.009 A 
ATOM     81  C   UNL A   1      48.254  25.872  31.594  1.00  0.00     0.009 A 
ATOM     82  C   UNL A   1      50.252  26.107  29.661  1.00  0.00     0.001 A 
ATOM     83  C   UNL A   1      49.548  25.436  31.874  1.00  0.00     0.001 A 
ATOM     84  C   UNL A   1      50.545  25.546  30.905  1.00  0.00     0.000 A 
ENDBRANCH  66  79
ENDBRANCH  40  41
ENDBRANCH  32  35
ENDBRANCH  30  31
ENDBRANCH  29  30
ENDBRANCH   1  29
TORSDOF 15
ENDMDL
MODEL 2
REMARK VINA RESULT:     -11.5      3.135      8.499
REMARK SMILES NS(=O)(=O)c1ccc(N2N=C(C(=O)NCCCCNC(=O)c3ccc(-c4c5nc(c(-c6ccccc6)c6ccc([nH]6)c(-c6ccccc6)c6nc(c(-c7ccccc7)c7ccc4[nH]7)C=C6)C=C5)cc3)C[C@H]2c2ccco2)cc1
REMARK SMILES IDX 16 1 15 2 14 3 12 4 13 5 11 7 9 8 10 9 71 10 70 11 8 12 5 13
REMARK SMILES IDX 6 14 78 15 7 16 77 17 2 18 3 19 4 20 1 21 72 24 73 25 76 26
REMARK SMILES IDX 74 27 75 28 17 29 18 30 19 31 20 32 21 34 22 35 23 36 69 37
REMARK SMILES IDX 24 38 68 39 25 40 26 41 27 42 62 43 28 44 67 45 61 46 63 47
REMARK SMILES IDX 29 48 66 49 60 50 59 51 30 53 52 54 37 55 51 56 38 57 41 58
REMARK SMILES IDX 50 59 64 60 39 61 40 62 49 64 65 65 42 66 31 67 32 68 36 69
REMARK SMILES IDX 33 70 35 71 34 72 53 73 54 74 58 75 55 76 57 77 56 78 43 79
REMARK SMILES IDX 44 80 48 81 45 82 47 83 46 84
REMARK H PARENT 14 6 1 22 1 23 19 33 63 52 41 63
REMARK Flexibility Score: inf
ROOT
ATOM      1  C   UNL A   1      34.757  23.689  24.207  1.00  0.00     0.023 C 
ENDROOT
BRANCH   1   2
ATOM      2  C   UNL A   1      33.648  23.111  23.333  1.00  0.00     0.116 C 
BRANCH   2   3
ATOM      3  N   UNL A   1      32.573  22.565  24.136  1.00  0.00    -0.351 N 
ATOM      4  C   UNL A   1      31.648  23.102  24.998  1.00  0.00     0.267 C 
ATOM      5  O   UNL A   1      30.916  22.316  25.597  1.00  0.00    -0.268 OA
ATOM      6  H   UNL A   1      32.485  21.589  24.044  1.00  0.00     0.163 HD
BRANCH   4   7
ATOM      7  C   UNL A   1      31.453  24.595  25.224  1.00  0.00     0.128 C 
ATOM      8  N   UNL A   1      31.114  26.648  24.732  1.00  0.00    -0.254 N 
ATOM      9  N   UNL A   1      31.020  25.368  24.272  1.00  0.00    -0.171 NA
ATOM     10  C   UNL A   1      31.460  26.736  26.154  1.00  0.00     0.180 C 
ATOM     11  C   UNL A   1      31.743  25.276  26.515  1.00  0.00     0.099 C 
BRANCH   8  12
ATOM     12  C   UNL A   1      30.406  27.676  24.110  1.00  0.00     0.060 A 
ATOM     13  C   UNL A   1      28.950  29.794  22.970  1.00  0.00     0.082 A 
ATOM     14  C   UNL A   1      28.440  28.497  22.916  1.00  0.00     0.024 A 
ATOM     15  C   UNL A   1      30.195  30.040  23.550  1.00  0.00     0.024 A 
ATOM     16  C   UNL A   1      29.177  27.444  23.474  1.00  0.00     0.029 A 
ATOM     17  C   UNL A   1      30.909  28.984  24.114  1.00  0.00     0.029 A 
BRANCH  13  18
ATOM     18  S   UNL A   1      28.073  31.170  22.295  1.00  0.00     0.238 S 
ATOM     19  O   UNL A   1      27.158  31.668  23.298  1.00  0.00    -0.207 OA
ATOM     20  O   UNL A   1      27.653  30.824  20.960  1.00  0.00    -0.207 OA
BRANCH  18  21
ATOM     21  N   UNL A   1      29.228  32.376  22.115  1.00  0.00    -0.225 NA
ATOM     22  H   UNL A   1      29.734  32.496  22.992  1.00  0.00     0.137 HD
ATOM     23  H   UNL A   1      28.769  33.251  21.864  1.00  0.00     0.137 HD
ENDBRANCH  18  21
ENDBRANCH  13  18
ENDBRANCH   8  12
BRANCH  10  24
ATOM     24  C   UNL A   1      32.590  27.639  26.547  1.00  0.00     0.128 A 
ATOM     25  C   UNL A   1      33.911  27.717  26.145  1.00  0.00     0.048 A 
ATOM     26  O   UNL A   1      32.338  28.616  27.471  1.00  0.00    -0.467 OA
ATOM     27  C   UNL A   1      34.489  28.790  26.863  1.00  0.00     0.042 A 
ATOM     28  C   UNL A   1      33.488  29.313  27.646  1.00  0.00     0.195 A 
ENDBRANCH  10  24
ENDBRANCH   4   7
ENDBRANCH   2   3
ENDBRANCH   1   2
BRANCH   1  29
ATOM     29  C   UNL A   1      35.878  22.705  24.537  1.00  0.00     0.023 C 
BRANCH  29  30
ATOM     30  C   UNL A   1      37.218  23.340  24.900  1.00  0.00     0.116 C 
BRANCH  30  31
ATOM     31  N   UNL A   1      38.200  22.384  25.391  1.00  0.00    -0.352 N 
ATOM     32  C   UNL A   1      39.285  22.607  26.203  1.00  0.00     0.251 C 
ATOM     33  H   UNL A   1      38.069  21.452  25.103  1.00  0.00     0.163 HD
ATOM     34  O   UNL A   1      40.074  21.702  26.449  1.00  0.00    -0.269 OA
BRANCH  32  35
ATOM     35  C   UNL A   1      39.516  23.961  26.747  1.00  0.00     0.039 A 
ATOM     36  C   UNL A   1      39.063  24.255  28.035  1.00  0.00     0.014 A 
ATOM     37  C   UNL A   1      40.207  24.918  26.001  1.00  0.00     0.014 A 
ATOM     38  C   UNL A   1      39.369  25.493  28.605  1.00  0.00     0.010 A 
ATOM     39  C   UNL A   1      40.569  26.122  26.595  1.00  0.00     0.010 A 
ATOM     40  C   UNL A   1      40.153  26.421  27.902  1.00  0.00    -0.014 A 
BRANCH  40  41
ATOM     41  C   UNL A   1      40.549  27.713  28.512  1.00  0.00     0.031 A 
ATOM     42  C   UNL A   1      41.952  27.906  29.015  1.00  0.00     0.074 A 
ATOM     43  C   UNL A   1      39.630  28.683  28.680  1.00  0.00     0.049 A 
ATOM     44  N   UNL A   1      42.470  28.932  29.641  1.00  0.00    -0.248 NA
ATOM     45  C   UNL A   1      42.888  26.789  28.814  1.00  0.00     0.031 C 
ATOM     46  C   UNL A   1      38.225  28.603  28.274  1.00  0.00     0.029 A 
ATOM     47  N   UNL A   1      39.743  29.928  29.245  1.00  0.00    -0.354 N 
ATOM     48  C   UNL A   1      43.781  28.574  29.930  1.00  0.00     0.074 A 
ATOM     49  C   UNL A   1      43.966  27.222  29.451  1.00  0.00     0.031 C 
ATOM     50  C   UNL A   1      37.614  29.760  28.578  1.00  0.00     0.029 A 
ATOM     51  C   UNL A   1      38.571  30.647  29.231  1.00  0.00     0.049 A 
ATOM     52  H   UNL A   1      40.583  30.274  29.624  1.00  0.00     0.167 HD
ATOM     53  C   UNL A   1      44.750  29.310  30.523  1.00  0.00     0.031 A 
ATOM     54  C   UNL A   1      38.301  31.881  29.694  1.00  0.00     0.031 A 
ATOM     55  C   UNL A   1      44.574  30.662  30.978  1.00  0.00     0.049 A 
ATOM     56  C   UNL A   1      39.396  32.681  30.340  1.00  0.00     0.074 A 
ATOM     57  C   UNL A   1      45.512  31.514  31.535  1.00  0.00     0.029 A 
ATOM     58  N   UNL A   1      43.378  31.361  30.925  1.00  0.00    -0.354 N 
ATOM     59  N   UNL A   1      40.648  32.353  30.546  1.00  0.00    -0.248 NA
ATOM     60  C   UNL A   1      39.042  34.030  30.806  1.00  0.00     0.031 C 
ATOM     61  C   UNL A   1      44.874  32.717  31.855  1.00  0.00     0.029 A 
ATOM     62  C   UNL A   1      43.551  32.630  31.454  1.00  0.00     0.049 A 
ATOM     63  H   UNL A   1      42.533  31.009  30.565  1.00  0.00     0.167 HD
ATOM     64  C   UNL A   1      41.239  33.462  31.136  1.00  0.00     0.074 A 
ATOM     65  C   UNL A   1      40.210  34.477  31.244  1.00  0.00     0.031 C 
ATOM     66  C   UNL A   1      42.518  33.628  31.547  1.00  0.00     0.031 A 
BRANCH  53  67
ATOM     67  C   UNL A   1      46.089  28.659  30.714  1.00  0.00    -0.014 A 
ATOM     68  C   UNL A   1      47.091  28.754  29.734  1.00  0.00     0.009 A 
ATOM     69  C   UNL A   1      46.363  27.960  31.900  1.00  0.00     0.009 A 
ATOM     70  C   UNL A   1      48.326  28.131  29.922  1.00  0.00     0.001 A 
ATOM     71  C   UNL A   1      47.609  27.361  32.096  1.00  0.00     0.001 A 
ATOM     72  C   UNL A   1      48.585  27.437  31.104  1.00  0.00     0.000 A 
ENDBRANCH  53  67
BRANCH  54  73
ATOM     73  C   UNL A   1      36.939  32.454  29.538  1.00  0.00    -0.014 A 
ATOM     74  C   UNL A   1      36.599  33.165  28.377  1.00  0.00     0.009 A 
ATOM     75  C   UNL A   1      35.977  32.302  30.548  1.00  0.00     0.009 A 
ATOM     76  C   UNL A   1      35.333  33.737  28.242  1.00  0.00     0.001 A 
ATOM     77  C   UNL A   1      34.702  32.853  30.399  1.00  0.00     0.001 A 
ATOM     78  C   UNL A   1      34.383  33.577  29.251  1.00  0.00     0.000 A 
ENDBRANCH  54  73
BRANCH  66  79
ATOM     79  C   UNL A   1      42.890  34.969  32.112  1.00  0.00    -0.014 A 
ATOM     80  C   UNL A   1      43.487  35.956  31.313  1.00  0.00     0.009 A 
ATOM     81  C   UNL A   1      42.601  35.259  33.454  1.00  0.00     0.009 A 
ATOM     82  C   UNL A   1      43.815  37.198  31.858  1.00  0.00     0.001 A 
ATOM     83  C   UNL A   1      42.906  36.511  33.989  1.00  0.00     0.001 A 
ATOM     84  C   UNL A   1      43.521  37.477  33.193  1.00  0.00     0.000 A 
ENDBRANCH  66  79
ENDBRANCH  40  41
ENDBRANCH  32  35
ENDBRANCH  30  31
ENDBRANCH  29  30
ENDBRANCH   1  29
TORSDOF 15
ENDMDL
MODEL 3
REMARK VINA RESULT:     -11.5      3.209      8.371
REMARK SMILES NS(=O)(=O)c1ccc(N2N=C(C(=O)NCCCCNC(=O)c3ccc(-c4c5nc(c(-c6ccccc6)c6ccc([nH]6)c(-c6ccccc6)c6nc(c(-c7ccccc7)c7ccc4[nH]7)C=C6)C=C5)cc3)C[C@H]2c2ccco2)cc1
REMARK SMILES IDX 16 1 15 2 14 3 12 4 13 5 11 7 9 8 10 9 71 10 70 11 8 12 5 13
REMARK SMILES IDX 6 14 78 15 7 16 77 17 2 18 3 19 4 20 1 21 72 24 73 25 76 26
REMARK SMILES IDX 74 27 75 28 17 29 18 30 19 31 20 32 21 34 22 35 23 36 69 37
REMARK SMILES IDX 24 38 68 39 25 40 26 41 27 42 62 43 28 44 67 45 61 46 63 47
REMARK SMILES IDX 29 48 66 49 60 50 59 51 30 53 52 54 37 55 51 56 38 57 41 58
REMARK SMILES IDX 50 59 64 60 39 61 40 62 49 64 65 65 42 66 31 67 32 68 36 69
REMARK SMILES IDX 33 70 35 71 34 72 53 73 54 74 58 75 55 76 57 77 56 78 43 79
REMARK SMILES IDX 44 80 48 81 45 82 47 83 46 84
REMARK H PARENT 14 6 1 22 1 23 19 33 63 52 41 63
REMARK Flexibility Score: inf
ROOT
ATOM      1  C   UNL A   1      34.865  23.900  24.188  1.00  0.00     0.023 C 
ENDROOT
BRANCH   1   2
ATOM      2  C   UNL A   1      33.852  23.193  23.291  1.00  0.00     0.116 C 
BRANCH   2   3
ATOM      3  N   UNL A   1      32.771  22.619  24.066  1.00  0.00    -0.351 N 
ATOM      4  C   UNL A   1      31.827  23.127  24.925  1.00  0.00     0.267 C 
ATOM      5  O   UNL A   1      31.095  22.321  25.496  1.00  0.00    -0.268 OA
ATOM      6  H   UNL A   1      32.695  21.644  23.952  1.00  0.00     0.163 HD
BRANCH   4   7
ATOM      7  C   UNL A   1      31.611  24.613  25.180  1.00  0.00     0.128 C 
ATOM      8  N   UNL A   1      31.245  26.671  24.727  1.00  0.00    -0.254 N 
ATOM      9  N   UNL A   1      31.169  25.398  24.243  1.00  0.00    -0.171 NA
ATOM     10  C   UNL A   1      31.589  26.735  26.151  1.00  0.00     0.180 C 
ATOM     11  C   UNL A   1      31.892  25.273  26.484  1.00  0.00     0.099 C 
BRANCH   8  12
ATOM     12  C   UNL A   1      30.524  27.700  24.125  1.00  0.00     0.060 A 
ATOM     13  C   UNL A   1      29.036  29.817  23.025  1.00  0.00     0.082 A 
ATOM     14  C   UNL A   1      28.575  28.507  22.894  1.00  0.00     0.024 A 
ATOM     15  C   UNL A   1      30.248  30.079  23.662  1.00  0.00     0.024 A 
ATOM     16  C   UNL A   1      29.329  27.456  23.433  1.00  0.00     0.029 A 
ATOM     17  C   UNL A   1      30.979  29.024  24.207  1.00  0.00     0.029 A 
BRANCH  13  18
ATOM     18  S   UNL A   1      28.135  31.191  22.378  1.00  0.00     0.238 S 
ATOM     19  O   UNL A   1      27.185  31.628  23.377  1.00  0.00    -0.207 OA
ATOM     20  O   UNL A   1      27.753  30.881  21.023  1.00  0.00    -0.207 OA
BRANCH  18  21
ATOM     21  N   UNL A   1      29.259  32.434  22.266  1.00  0.00    -0.225 NA
ATOM     22  H   UNL A   1      28.790  33.291  21.974  1.00  0.00     0.137 HD
ATOM     23  H   UNL A   1      29.973  32.186  21.581  1.00  0.00     0.137 HD
ENDBRANCH  18  21
ENDBRANCH  13  18
ENDBRANCH   8  12
BRANCH  10  24
ATOM     24  C   UNL A   1      32.707  27.646  26.563  1.00  0.00     0.128 A 
ATOM     25  C   UNL A   1      34.006  27.796  26.114  1.00  0.00     0.048 A 
ATOM     26  O   UNL A   1      32.465  28.546  27.564  1.00  0.00    -0.467 OA
ATOM     27  C   UNL A   1      34.582  28.835  26.884  1.00  0.00     0.042 A 
ATOM     28  C   UNL A   1      33.599  29.266  27.743  1.00  0.00     0.195 A 
ENDBRANCH  10  24
ENDBRANCH   4   7
ENDBRANCH   2   3
ENDBRANCH   1   2
BRANCH   1  29
ATOM     29  C   UNL A   1      36.200  23.170  24.327  1.00  0.00     0.023 C 
BRANCH  29  30
ATOM     30  C   UNL A   1      36.890  23.324  25.680  1.00  0.00     0.116 C 
BRANCH  30  31
ATOM     31  N   UNL A   1      38.040  22.448  25.849  1.00  0.00    -0.352 N 
ATOM     32  C   UNL A   1      39.279  22.746  26.362  1.00  0.00     0.251 C 
ATOM     33  H   UNL A   1      37.913  21.517  25.558  1.00  0.00     0.163 HD
ATOM     34  O   UNL A   1      40.176  21.910  26.346  1.00  0.00    -0.269 OA
BRANCH  32  35
ATOM     35  C   UNL A   1      39.535  24.099  26.895  1.00  0.00     0.039 A 
ATOM     36  C   UNL A   1      39.221  24.367  28.229  1.00  0.00     0.014 A 
ATOM     37  C   UNL A   1      40.116  25.083  26.091  1.00  0.00     0.014 A 
ATOM     38  C   UNL A   1      39.557  25.605  28.779  1.00  0.00     0.010 A 
ATOM     39  C   UNL A   1      40.512  26.289  26.658  1.00  0.00     0.010 A 
ATOM     40  C   UNL A   1      40.236  26.561  28.007  1.00  0.00    -0.014 A 
BRANCH  40  41
ATOM     41  C   UNL A   1      40.665  27.856  28.588  1.00  0.00     0.031 A 
ATOM     42  C   UNL A   1      39.662  28.958  28.791  1.00  0.00     0.074 A 
ATOM     43  C   UNL A   1      41.967  28.067  28.866  1.00  0.00     0.049 A 
ATOM     44  N   UNL A   1      39.855  30.180  29.217  1.00  0.00    -0.248 NA
ATOM     45  C   UNL A   1      38.266  28.654  28.442  1.00  0.00     0.031 C 
ATOM     46  C   UNL A   1      43.045  27.094  28.674  1.00  0.00     0.029 A 
ATOM     47  N   UNL A   1      42.604  29.175  29.363  1.00  0.00    -0.354 N 
ATOM     48  C   UNL A   1      38.611  30.796  29.163  1.00  0.00     0.074 A 
ATOM     49  C   UNL A   1      37.681  29.829  28.622  1.00  0.00     0.031 C 
ATOM     50  C   UNL A   1      44.205  27.640  29.076  1.00  0.00     0.029 A 
ATOM     51  C   UNL A   1      43.959  29.008  29.517  1.00  0.00     0.049 A 
ATOM     52  H   UNL A   1      42.134  30.011  29.588  1.00  0.00     0.167 HD
ATOM     53  C   UNL A   1      38.268  32.048  29.547  1.00  0.00     0.031 A 
ATOM     54  C   UNL A   1      44.897  29.864  29.964  1.00  0.00     0.031 A 
ATOM     55  C   UNL A   1      39.185  33.002  30.107  1.00  0.00     0.049 A 
ATOM     56  C   UNL A   1      44.489  31.245  30.392  1.00  0.00     0.074 A 
ATOM     57  C   UNL A   1      38.923  34.275  30.584  1.00  0.00     0.029 A 
ATOM     58  N   UNL A   1      40.545  32.786  30.267  1.00  0.00    -0.354 N 
ATOM     59  N   UNL A   1      43.297  31.790  30.397  1.00  0.00    -0.248 NA
ATOM     60  C   UNL A   1      45.556  32.124  30.891  1.00  0.00     0.031 C 
ATOM     61  C   UNL A   1      40.132  34.844  30.998  1.00  0.00     0.029 A 
ATOM     62  C   UNL A   1      41.138  33.908  30.822  1.00  0.00     0.049 A 
ATOM     63  H   UNL A   1      41.019  31.959  30.023  1.00  0.00     0.167 HD
ATOM     64  C   UNL A   1      43.465  33.063  30.926  1.00  0.00     0.074 A 
ATOM     65  C   UNL A   1      44.872  33.205  31.240  1.00  0.00     0.031 C 
ATOM     66  C   UNL A   1      42.538  34.028  31.135  1.00  0.00     0.031 A 
BRANCH  53  67
ATOM     67  C   UNL A   1      36.833  32.455  29.367  1.00  0.00    -0.014 A 
ATOM     68  C   UNL A   1      35.914  32.365  30.426  1.00  0.00     0.009 A 
ATOM     69  C   UNL A   1      36.398  32.956  28.131  1.00  0.00     0.009 A 
ATOM     70  C   UNL A   1      34.581  32.733  30.239  1.00  0.00     0.001 A 
ATOM     71  C   UNL A   1      35.071  33.350  27.955  1.00  0.00     0.001 A 
ATOM     72  C   UNL A   1      34.161  33.228  29.004  1.00  0.00     0.000 A 
ENDBRANCH  53  67
BRANCH  54  73
ATOM     73  C   UNL A   1      46.315  29.432  30.059  1.00  0.00    -0.014 A 
ATOM     74  C   UNL A   1      46.794  28.833  31.234  1.00  0.00     0.009 A 
ATOM     75  C   UNL A   1      47.197  29.624  28.986  1.00  0.00     0.009 A 
ATOM     76  C   UNL A   1      48.135  28.459  31.342  1.00  0.00     0.001 A 
ATOM     77  C   UNL A   1      48.532  29.225  29.087  1.00  0.00     0.001 A 
ATOM     78  C   UNL A   1      49.002  28.652  30.267  1.00  0.00     0.000 A 
ENDBRANCH  54  73
BRANCH  66  79
ATOM     79  C   UNL A   1      43.006  35.304  31.773  1.00  0.00    -0.014 A 
ATOM     80  C   UNL A   1      42.900  35.507  33.158  1.00  0.00     0.009 A 
ATOM     81  C   UNL A   1      43.597  36.299  30.980  1.00  0.00     0.009 A 
ATOM     82  C   UNL A   1      43.350  36.698  33.730  1.00  0.00     0.001 A 
ATOM     83  C   UNL A   1      44.070  37.477  31.559  1.00  0.00     0.001 A 
ATOM     84  C   UNL A   1      43.938  37.680  32.932  1.00  0.00     0.000 A 
ENDBRANCH  66  79
ENDBRANCH  40  41
ENDBRANCH  32  35
ENDBRANCH  30  31
ENDBRANCH  29  30
ENDBRANCH   1  29
TORSDOF 15
ENDMDL
