MODEL 1
REMARK VINA RESULT:     -11.7      0.000      0.000
REMARK SMILES Cc1ccc(C(=O)NCCCCNC(=O)c2ccc(-c3c4nc(c(-c5ccccc5)c5ccc([nH]5)c(-c5ccccc5)c5nc(c(-c6ccccc6)c6ccc3[nH]6)C=C5)C=C4)cc2)cc1S(=O)(=O)N(CC1CC1)C(C)C
REMARK SMILES IDX 9 1 8 2 6 3 7 4 5 6 1 7 2 8 3 9 65 10 4 11 64 12 66 13 67 14
REMARK SMILES IDX 68 15 69 16 70 17 71 18 72 19 73 20 74 21 75 22 76 23 10 24
REMARK SMILES IDX 11 25 12 26 13 27 14 28 15 30 16 31 17 32 63 33 18 34 62 35
REMARK SMILES IDX 19 36 20 37 21 38 56 39 22 40 61 41 55 42 57 43 23 44 60 45
REMARK SMILES IDX 54 46 53 47 24 49 46 50 31 51 45 52 32 53 35 54 44 55 58 56
REMARK SMILES IDX 33 57 34 58 43 60 59 61 36 62 25 63 26 64 30 65 27 66 29 67
REMARK SMILES IDX 28 68 47 69 48 70 52 71 49 72 51 73 50 74 37 75 38 76 42 77
REMARK SMILES IDX 39 78 41 79 40 80
REMARK H PARENT 8 5 13 29 57 48 35 59
REMARK Flexibility Score: inf
ROOT
ATOM      1  C   UNL A   1      31.222  29.797  25.133  1.00  0.00     0.116 C 
ENDROOT
BRANCH   1   2
ATOM      2  N   UNL A   1      30.827  29.991  23.745  1.00  0.00    -0.352 N 
ATOM      3  C   UNL A   1      30.541  29.127  22.715  1.00  0.00     0.251 C 
ATOM      4  O   UNL A   1      30.182  29.626  21.647  1.00  0.00    -0.269 OA
ATOM      5  H   UNL A   1      30.746  30.939  23.492  1.00  0.00     0.163 HD
BRANCH   3   6
ATOM      6  C   UNL A   1      30.579  27.639  22.835  1.00  0.00     0.041 A 
ATOM      7  C   UNL A   1      30.710  23.443  23.935  1.00  0.00     0.046 C 
ATOM      8  C   UNL A   1      30.698  24.858  23.441  1.00  0.00    -0.031 A 
ATOM      9  C   UNL A   1      29.581  25.641  23.793  1.00  0.00     0.005 A 
ATOM     10  C   UNL A   1      31.704  25.466  22.677  1.00  0.00     0.086 A 
ATOM     11  C   UNL A   1      29.535  27.014  23.521  1.00  0.00     0.014 A 
ATOM     12  C   UNL A   1      31.604  26.835  22.347  1.00  0.00     0.035 A 
BRANCH  10  13
ATOM     13  S   UNL A   1      33.330  24.784  22.335  1.00  0.00     0.243 S 
ATOM     14  O   UNL A   1      33.170  23.765  21.337  1.00  0.00    -0.207 OA
ATOM     15  O   UNL A   1      34.112  25.975  22.017  1.00  0.00    -0.207 OA
BRANCH  13  16
ATOM     16  N   UNL A   1      33.955  24.061  23.729  1.00  0.00    -0.195 NA
BRANCH  16  17
ATOM     17  C   UNL A   1      34.388  22.642  23.729  1.00  0.00     0.106 C 
BRANCH  17  18
ATOM     18  C   UNL A   1      33.585  21.637  24.500  1.00  0.00     0.004 C 
ATOM     19  C   UNL A   1      33.581  20.134  24.334  1.00  0.00     0.005 C 
ATOM     20  C   UNL A   1      34.343  20.743  25.466  1.00  0.00     0.005 C 
ENDBRANCH  17  18
ENDBRANCH  16  17
BRANCH  16  21
ATOM     21  C   UNL A   1      34.694  24.908  24.742  1.00  0.00     0.067 C 
ATOM     22  C   UNL A   1      33.768  25.522  25.785  1.00  0.00     0.025 C 
ATOM     23  C   UNL A   1      35.852  24.202  25.444  1.00  0.00     0.025 C 
ENDBRANCH  16  21
ENDBRANCH  13  16
ENDBRANCH  10  13
ENDBRANCH   3   6
ENDBRANCH   1   2
BRANCH   1  24
ATOM     24  C   UNL A   1      32.752  29.767  25.294  1.00  0.00     0.023 C 
BRANCH  24  25
ATOM     25  C   UNL A   1      33.240  29.240  26.647  1.00  0.00     0.023 C 
BRANCH  25  26
ATOM     26  C   UNL A   1      33.973  30.289  27.471  1.00  0.00     0.116 C 
BRANCH  26  27
ATOM     27  N   UNL A   1      33.389  31.621  27.435  1.00  0.00    -0.352 N 
ATOM     28  C   UNL A   1      33.752  32.768  28.121  1.00  0.00     0.251 C 
ATOM     29  H   UNL A   1      32.619  31.724  26.830  1.00  0.00     0.163 HD
ATOM     30  O   UNL A   1      33.049  33.771  28.034  1.00  0.00    -0.269 OA
BRANCH  28  31
ATOM     31  C   UNL A   1      35.050  32.842  28.842  1.00  0.00     0.039 A 
ATOM     32  C   UNL A   1      36.160  33.342  28.145  1.00  0.00     0.014 A 
ATOM     33  C   UNL A   1      35.234  32.251  30.087  1.00  0.00     0.014 A 
ATOM     34  C   UNL A   1      37.446  33.009  28.565  1.00  0.00     0.010 A 
ATOM     35  C   UNL A   1      36.493  31.815  30.439  1.00  0.00     0.010 A 
ATOM     36  C   UNL A   1      37.592  32.140  29.640  1.00  0.00    -0.014 A 
BRANCH  36  37
ATOM     37  C   UNL A   1      38.821  31.417  29.943  1.00  0.00     0.031 A 
ATOM     38  C   UNL A   1      39.028  30.050  29.431  1.00  0.00     0.074 A 
ATOM     39  C   UNL A   1      39.826  32.078  30.558  1.00  0.00     0.049 A 
ATOM     40  N   UNL A   1      39.962  29.259  29.839  1.00  0.00    -0.248 NA
ATOM     41  C   UNL A   1      38.135  29.423  28.455  1.00  0.00     0.031 C 
ATOM     42  C   UNL A   1      41.240  31.718  30.608  1.00  0.00     0.029 A 
ATOM     43  N   UNL A   1      39.704  33.123  31.478  1.00  0.00    -0.354 N 
ATOM     44  C   UNL A   1      40.006  28.203  28.963  1.00  0.00     0.074 A 
ATOM     45  C   UNL A   1      38.768  28.269  28.230  1.00  0.00     0.031 C 
ATOM     46  C   UNL A   1      41.808  32.329  31.661  1.00  0.00     0.029 A 
ATOM     47  C   UNL A   1      40.736  32.950  32.420  1.00  0.00     0.049 A 
ATOM     48  H   UNL A   1      39.028  33.839  31.469  1.00  0.00     0.167 HD
ATOM     49  C   UNL A   1      41.164  27.502  28.837  1.00  0.00     0.031 A 
ATOM     50  C   UNL A   1      40.453  32.663  33.726  1.00  0.00     0.031 A 
ATOM     51  C   UNL A   1      42.096  27.798  29.925  1.00  0.00     0.049 A 
ATOM     52  C   UNL A   1      41.018  31.341  34.198  1.00  0.00     0.074 A 
ATOM     53  C   UNL A   1      43.279  28.510  29.999  1.00  0.00     0.029 A 
ATOM     54  N   UNL A   1      41.694  27.558  31.237  1.00  0.00    -0.354 N 
ATOM     55  N   UNL A   1      41.386  30.377  33.399  1.00  0.00    -0.248 NA
ATOM     56  C   UNL A   1      41.179  30.988  35.607  1.00  0.00     0.031 C 
ATOM     57  C   UNL A   1      43.523  28.801  31.370  1.00  0.00     0.029 A 
ATOM     58  C   UNL A   1      42.518  28.218  32.124  1.00  0.00     0.049 A 
ATOM     59  H   UNL A   1      40.929  26.996  31.494  1.00  0.00     0.167 HD
ATOM     60  C   UNL A   1      41.820  29.310  34.138  1.00  0.00     0.074 A 
ATOM     61  C   UNL A   1      41.677  29.741  35.517  1.00  0.00     0.031 C 
ATOM     62  C   UNL A   1      42.253  28.154  33.556  1.00  0.00     0.031 A 
BRANCH  49  63
ATOM     63  C   UNL A   1      41.552  26.731  27.593  1.00  0.00    -0.014 A 
ATOM     64  C   UNL A   1      41.777  25.344  27.680  1.00  0.00     0.009 A 
ATOM     65  C   UNL A   1      41.842  27.317  26.345  1.00  0.00     0.009 A 
ATOM     66  C   UNL A   1      42.276  24.602  26.598  1.00  0.00     0.001 A 
ATOM     67  C   UNL A   1      42.313  26.578  25.251  1.00  0.00     0.001 A 
ATOM     68  C   UNL A   1      42.540  25.218  25.382  1.00  0.00     0.000 A 
ENDBRANCH  49  63
BRANCH  50  69
ATOM     69  C   UNL A   1      39.165  33.247  34.197  1.00  0.00    -0.014 A 
ATOM     70  C   UNL A   1      37.964  32.640  33.779  1.00  0.00     0.009 A 
ATOM     71  C   UNL A   1      39.131  34.106  35.305  1.00  0.00     0.009 A 
ATOM     72  C   UNL A   1      36.790  32.788  34.523  1.00  0.00     0.001 A 
ATOM     73  C   UNL A   1      37.946  34.267  36.036  1.00  0.00     0.001 A 
ATOM     74  C   UNL A   1      36.789  33.578  35.669  1.00  0.00     0.000 A 
ENDBRANCH  50  69
BRANCH  62  75
ATOM     75  C   UNL A   1      42.526  26.859  34.279  1.00  0.00    -0.014 A 
ATOM     76  C   UNL A   1      41.588  26.192  35.078  1.00  0.00     0.009 A 
ATOM     77  C   UNL A   1      43.745  26.189  34.036  1.00  0.00     0.009 A 
ATOM     78  C   UNL A   1      41.874  24.943  35.648  1.00  0.00     0.001 A 
ATOM     79  C   UNL A   1      44.017  24.925  34.565  1.00  0.00     0.001 A 
ATOM     80  C   UNL A   1      43.083  24.307  35.385  1.00  0.00     0.000 A 
ENDBRANCH  62  75
ENDBRANCH  36  37
ENDBRANCH  28  31
ENDBRANCH  26  27
ENDBRANCH  25  26
ENDBRANCH  24  25
ENDBRANCH   1  24
TORSDOF 16
ENDMDL
MODEL 2
REMARK VINA RESULT:     -11.3      3.693      9.096
REMARK SMILES Cc1ccc(C(=O)NCCCCNC(=O)c2ccc(-c3c4nc(c(-c5ccccc5)c5ccc([nH]5)c(-c5ccccc5)c5nc(c(-c6ccccc6)c6ccc3[nH]6)C=C5)C=C4)cc2)cc1S(=O)(=O)N(CC1CC1)C(C)C
REMARK SMILES IDX 9 1 8 2 6 3 7 4 5 6 1 7 2 8 3 9 65 10 4 11 64 12 66 13 67 14
REMARK SMILES IDX 68 15 69 16 70 17 71 18 72 19 73 20 74 21 75 22 76 23 10 24
REMARK SMILES IDX 11 25 12 26 13 27 14 28 15 30 16 31 17 32 63 33 18 34 62 35
REMARK SMILES IDX 19 36 20 37 21 38 56 39 22 40 61 41 55 42 57 43 23 44 60 45
REMARK SMILES IDX 54 46 53 47 24 49 46 50 31 51 45 52 32 53 35 54 44 55 58 56
REMARK SMILES IDX 33 57 34 58 43 60 59 61 36 62 25 63 26 64 30 65 27 66 29 67
REMARK SMILES IDX 28 68 47 69 48 70 52 71 49 72 51 73 50 74 37 75 38 76 42 77
REMARK SMILES IDX 39 78 41 79 40 80
REMARK H PARENT 8 5 13 29 57 48 35 59
REMARK Flexibility Score: inf
ROOT
ATOM      1  C   UNL A   1      37.966  23.826  25.940  1.00  0.00     0.116 C 
ENDROOT
BRANCH   1   2
ATOM      2  N   UNL A   1      37.594  23.278  24.643  1.00  0.00    -0.352 N 
ATOM      3  C   UNL A   1      36.440  23.317  23.897  1.00  0.00     0.251 C 
ATOM      4  O   UNL A   1      36.469  22.778  22.790  1.00  0.00    -0.269 OA
ATOM      5  H   UNL A   1      38.321  22.774  24.210  1.00  0.00     0.163 HD
BRANCH   3   6
ATOM      6  C   UNL A   1      35.193  24.021  24.320  1.00  0.00     0.041 A 
ATOM      7  C   UNL A   1      31.249  25.376  25.523  1.00  0.00     0.046 C 
ATOM      8  C   UNL A   1      32.639  25.026  25.081  1.00  0.00    -0.031 A 
ATOM      9  C   UNL A   1      33.368  24.159  25.919  1.00  0.00     0.005 A 
ATOM     10  C   UNL A   1      33.262  25.474  23.909  1.00  0.00     0.086 A 
ATOM     11  C   UNL A   1      34.611  23.642  25.532  1.00  0.00     0.014 A 
ATOM     12  C   UNL A   1      34.549  25.001  23.572  1.00  0.00     0.035 A 
BRANCH  10  13
ATOM     13  S   UNL A   1      32.466  26.349  22.556  1.00  0.00     0.243 S 
ATOM     14  O   UNL A   1      33.497  26.804  21.668  1.00  0.00    -0.207 OA
ATOM     15  O   UNL A   1      31.494  25.370  22.077  1.00  0.00    -0.207 OA
BRANCH  13  16
ATOM     16  N   UNL A   1      31.648  27.704  23.149  1.00  0.00    -0.195 NA
BRANCH  16  17
ATOM     17  C   UNL A   1      32.382  28.828  23.779  1.00  0.00     0.106 C 
BRANCH  17  18
ATOM     18  C   UNL A   1      32.354  28.971  25.272  1.00  0.00     0.004 C 
ATOM     19  C   UNL A   1      33.161  29.923  26.125  1.00  0.00     0.005 C 
ATOM     20  C   UNL A   1      31.729  30.236  25.833  1.00  0.00     0.005 C 
ENDBRANCH  17  18
ENDBRANCH  16  17
BRANCH  16  21
ATOM     21  C   UNL A   1      30.345  28.129  22.509  1.00  0.00     0.067 C 
ATOM     22  C   UNL A   1      29.126  27.749  23.342  1.00  0.00     0.025 C 
ATOM     23  C   UNL A   1      30.266  29.609  22.140  1.00  0.00     0.025 C 
ENDBRANCH  16  21
ENDBRANCH  13  16
ENDBRANCH  10  13
ENDBRANCH   3   6
ENDBRANCH   1   2
BRANCH   1  24
ATOM     24  C   UNL A   1      39.043  22.975  26.635  1.00  0.00     0.023 C 
BRANCH  24  25
ATOM     25  C   UNL A   1      39.307  21.619  25.974  1.00  0.00     0.023 C 
BRANCH  25  26
ATOM     26  C   UNL A   1      40.248  20.732  26.776  1.00  0.00     0.116 C 
BRANCH  26  27
ATOM     27  N   UNL A   1      41.352  20.161  26.018  1.00  0.00    -0.352 N 
ATOM     28  C   UNL A   1      42.661  20.595  25.895  1.00  0.00     0.251 C 
ATOM     29  H   UNL A   1      41.136  19.341  25.518  1.00  0.00     0.163 HD
ATOM     30  O   UNL A   1      43.413  20.029  25.106  1.00  0.00    -0.269 OA
BRANCH  28  31
ATOM     31  C   UNL A   1      43.204  21.640  26.804  1.00  0.00     0.039 A 
ATOM     32  C   UNL A   1      42.683  21.713  28.104  1.00  0.00     0.014 A 
ATOM     33  C   UNL A   1      44.041  22.650  26.344  1.00  0.00     0.014 A 
ATOM     34  C   UNL A   1      42.781  22.904  28.820  1.00  0.00     0.010 A 
ATOM     35  C   UNL A   1      44.035  23.867  26.992  1.00  0.00     0.010 A 
ATOM     36  C   UNL A   1      43.348  24.011  28.200  1.00  0.00    -0.014 A 
BRANCH  36  37
ATOM     37  C   UNL A   1      43.177  25.382  28.662  1.00  0.00     0.031 A 
ATOM     38  C   UNL A   1      42.042  26.194  28.185  1.00  0.00     0.074 A 
ATOM     39  C   UNL A   1      43.976  25.836  29.653  1.00  0.00     0.049 A 
ATOM     40  N   UNL A   1      41.947  27.471  28.352  1.00  0.00    -0.248 NA
ATOM     41  C   UNL A   1      40.941  25.637  27.399  1.00  0.00     0.031 C 
ATOM     42  C   UNL A   1      43.754  26.979  30.534  1.00  0.00     0.029 A 
ATOM     43  N   UNL A   1      45.298  25.459  29.903  1.00  0.00    -0.354 N 
ATOM     44  C   UNL A   1      40.662  27.823  28.022  1.00  0.00     0.074 A 
ATOM     45  C   UNL A   1      40.135  26.697  27.296  1.00  0.00     0.031 C 
ATOM     46  C   UNL A   1      44.934  27.375  31.038  1.00  0.00     0.029 A 
ATOM     47  C   UNL A   1      45.965  26.615  30.353  1.00  0.00     0.049 A 
ATOM     48  H   UNL A   1      45.687  24.563  29.787  1.00  0.00     0.167 HD
ATOM     49  C   UNL A   1      40.134  28.956  28.558  1.00  0.00     0.031 A 
ATOM     50  C   UNL A   1      46.972  27.175  29.617  1.00  0.00     0.031 A 
ATOM     51  C   UNL A   1      41.166  29.802  29.157  1.00  0.00     0.049 A 
ATOM     52  C   UNL A   1      46.690  28.596  29.178  1.00  0.00     0.074 A 
ATOM     53  C   UNL A   1      41.511  30.106  30.462  1.00  0.00     0.029 A 
ATOM     54  N   UNL A   1      42.208  30.260  28.354  1.00  0.00    -0.354 N 
ATOM     55  N   UNL A   1      45.497  29.124  29.131  1.00  0.00    -0.248 NA
ATOM     56  C   UNL A   1      47.726  29.521  28.721  1.00  0.00     0.031 C 
ATOM     57  C   UNL A   1      42.828  30.644  30.446  1.00  0.00     0.029 A 
ATOM     58  C   UNL A   1      43.253  30.715  29.130  1.00  0.00     0.049 A 
ATOM     59  H   UNL A   1      42.199  30.258  27.370  1.00  0.00     0.167 HD
ATOM     60  C   UNL A   1      45.582  30.407  28.663  1.00  0.00     0.074 A 
ATOM     61  C   UNL A   1      46.999  30.614  28.425  1.00  0.00     0.031 C 
ATOM     62  C   UNL A   1      44.478  31.192  28.500  1.00  0.00     0.031 A 
BRANCH  49  63
ATOM     63  C   UNL A   1      38.650  29.182  28.758  1.00  0.00    -0.014 A 
ATOM     64  C   UNL A   1      37.869  29.641  27.681  1.00  0.00     0.009 A 
ATOM     65  C   UNL A   1      37.985  29.095  29.997  1.00  0.00     0.009 A 
ATOM     66  C   UNL A   1      36.523  30.006  27.840  1.00  0.00     0.001 A 
ATOM     67  C   UNL A   1      36.634  29.428  30.158  1.00  0.00     0.001 A 
ATOM     68  C   UNL A   1      35.903  29.895  29.078  1.00  0.00     0.000 A 
ENDBRANCH  49  63
BRANCH  50  69
ATOM     69  C   UNL A   1      47.749  26.184  28.820  1.00  0.00    -0.014 A 
ATOM     70  C   UNL A   1      47.525  26.122  27.429  1.00  0.00     0.009 A 
ATOM     71  C   UNL A   1      48.919  25.609  29.335  1.00  0.00     0.009 A 
ATOM     72  C   UNL A   1      48.501  25.613  26.569  1.00  0.00     0.001 A 
ATOM     73  C   UNL A   1      49.886  25.082  28.470  1.00  0.00     0.001 A 
ATOM     74  C   UNL A   1      49.695  25.120  27.088  1.00  0.00     0.000 A 
ENDBRANCH  50  69
BRANCH  62  75
ATOM     75  C   UNL A   1      44.446  32.517  27.781  1.00  0.00    -0.014 A 
ATOM     76  C   UNL A   1      44.554  33.761  28.418  1.00  0.00     0.009 A 
ATOM     77  C   UNL A   1      44.450  32.525  26.368  1.00  0.00     0.009 A 
ATOM     78  C   UNL A   1      44.611  34.953  27.683  1.00  0.00     0.001 A 
ATOM     79  C   UNL A   1      44.552  33.707  25.631  1.00  0.00     0.001 A 
ATOM     80  C   UNL A   1      44.619  34.926  26.292  1.00  0.00     0.000 A 
ENDBRANCH  62  75
ENDBRANCH  36  37
ENDBRANCH  28  31
ENDBRANCH  26  27
ENDBRANCH  25  26
ENDBRANCH  24  25
ENDBRANCH   1  24
TORSDOF 16
ENDMDL
MODEL 3
REMARK VINA RESULT:     -11.3      1.817      3.312
REMARK SMILES Cc1ccc(C(=O)NCCCCNC(=O)c2ccc(-c3c4nc(c(-c5ccccc5)c5ccc([nH]5)c(-c5ccccc5)c5nc(c(-c6ccccc6)c6ccc3[nH]6)C=C5)C=C4)cc2)cc1S(=O)(=O)N(CC1CC1)C(C)C
REMARK SMILES IDX 9 1 8 2 6 3 7 4 5 6 1 7 2 8 3 9 65 10 4 11 64 12 66 13 67 14
REMARK SMILES IDX 68 15 69 16 70 17 71 18 72 19 73 20 74 21 75 22 76 23 10 24
REMARK SMILES IDX 11 25 12 26 13 27 14 28 15 30 16 31 17 32 63 33 18 34 62 35
REMARK SMILES IDX 19 36 20 37 21 38 56 39 22 40 61 41 55 42 57 43 23 44 60 45
REMARK SMILES IDX 54 46 53 47 24 49 46 50 31 51 45 52 32 53 35 54 44 55 58 56
REMARK SMILES IDX 33 57 34 58 43 60 59 61 36 62 25 63 26 64 30 65 27 66 29 67
REMARK SMILES IDX 28 68 47 69 48 70 52 71 49 72 51 73 50 74 37 75 38 76 42 77
REMARK SMILES IDX 39 78 41 79 40 80
REMARK H PARENT 8 5 13 29 57 48 35 59
REMARK Flexibility Score: inf
ROOT
ATOM      1  C   UNL A   1      31.694  29.703  25.433  1.00  0.00     0.116 C 
ENDROOT
BRANCH   1   2
ATOM      2  N   UNL A   1      30.817  30.092  24.337  1.00  0.00    -0.352 N 
ATOM      3  C   UNL A   1      30.211  29.394  23.320  1.00  0.00     0.251 C 
ATOM      4  O   UNL A   1      29.472  30.029  22.565  1.00  0.00    -0.269 OA
ATOM      5  H   UNL A   1      30.614  31.055  24.323  1.00  0.00     0.163 HD
BRANCH   3   6
ATOM      6  C   UNL A   1      30.347  27.921  23.118  1.00  0.00     0.041 A 
ATOM      7  C   UNL A   1      30.727  23.601  23.292  1.00  0.00     0.046 C 
ATOM      8  C   UNL A   1      30.635  25.086  23.115  1.00  0.00    -0.031 A 
ATOM      9  C   UNL A   1      29.456  25.707  23.575  1.00  0.00     0.005 A 
ATOM     10  C   UNL A   1      31.622  25.906  22.548  1.00  0.00     0.086 A 
ATOM     11  C   UNL A   1      29.326  27.100  23.603  1.00  0.00     0.014 A 
ATOM     12  C   UNL A   1      31.440  27.305  22.517  1.00  0.00     0.035 A 
BRANCH  10  13
ATOM     13  S   UNL A   1      33.301  25.411  22.145  1.00  0.00     0.243 S 
ATOM     14  O   UNL A   1      33.220  24.334  21.200  1.00  0.00    -0.207 OA
ATOM     15  O   UNL A   1      33.911  26.673  21.734  1.00  0.00    -0.207 OA
BRANCH  13  16
ATOM     16  N   UNL A   1      34.081  24.838  23.529  1.00  0.00    -0.195 NA
BRANCH  16  17
ATOM     17  C   UNL A   1      33.950  25.541  24.829  1.00  0.00     0.106 C 
BRANCH  17  18
ATOM     18  C   UNL A   1      32.580  25.795  25.384  1.00  0.00     0.004 C 
ATOM     19  C   UNL A   1      31.903  25.087  26.535  1.00  0.00     0.005 C 
ATOM     20  C   UNL A   1      32.500  26.439  26.757  1.00  0.00     0.005 C 
ENDBRANCH  17  18
ENDBRANCH  16  17
BRANCH  16  21
ATOM     21  C   UNL A   1      34.345  23.356  23.679  1.00  0.00     0.067 C 
ATOM     22  C   UNL A   1      35.764  22.967  23.282  1.00  0.00     0.025 C 
ATOM     23  C   UNL A   1      34.030  22.786  25.060  1.00  0.00     0.025 C 
ENDBRANCH  16  21
ENDBRANCH  13  16
ENDBRANCH  10  13
ENDBRANCH   3   6
ENDBRANCH   1   2
BRANCH   1  24
ATOM     24  C   UNL A   1      33.168  29.647  24.995  1.00  0.00     0.023 C 
BRANCH  24  25
ATOM     25  C   UNL A   1      34.158  29.359  26.127  1.00  0.00     0.023 C 
BRANCH  25  26
ATOM     26  C   UNL A   1      33.840  30.113  27.410  1.00  0.00     0.116 C 
BRANCH  26  27
ATOM     27  N   UNL A   1      34.668  31.284  27.659  1.00  0.00    -0.352 N 
ATOM     28  C   UNL A   1      35.978  31.366  28.100  1.00  0.00     0.251 C 
ATOM     29  H   UNL A   1      34.231  32.149  27.486  1.00  0.00     0.163 HD
ATOM     30  O   UNL A   1      36.459  32.466  28.358  1.00  0.00    -0.269 OA
BRANCH  28  31
ATOM     31  C   UNL A   1      36.847  30.160  28.128  1.00  0.00     0.039 A 
ATOM     32  C   UNL A   1      36.878  29.401  29.307  1.00  0.00     0.014 A 
ATOM     33  C   UNL A   1      37.763  29.891  27.117  1.00  0.00     0.014 A 
ATOM     34  C   UNL A   1      37.972  28.581  29.572  1.00  0.00     0.010 A 
ATOM     35  C   UNL A   1      38.904  29.182  27.424  1.00  0.00     0.010 A 
ATOM     36  C   UNL A   1      39.037  28.581  28.678  1.00  0.00    -0.014 A 
BRANCH  36  37
ATOM     37  C   UNL A   1      40.371  28.091  28.999  1.00  0.00     0.031 A 
ATOM     38  C   UNL A   1      40.808  26.760  28.537  1.00  0.00     0.074 A 
ATOM     39  C   UNL A   1      41.249  28.937  29.581  1.00  0.00     0.049 A 
ATOM     40  N   UNL A   1      41.864  26.157  28.969  1.00  0.00    -0.248 NA
ATOM     41  C   UNL A   1      40.035  25.953  27.592  1.00  0.00     0.031 C 
ATOM     42  C   UNL A   1      42.704  28.825  29.635  1.00  0.00     0.029 A 
ATOM     43  N   UNL A   1      40.951  29.980  30.461  1.00  0.00    -0.354 N 
ATOM     44  C   UNL A   1      42.087  25.090  28.133  1.00  0.00     0.074 A 
ATOM     45  C   UNL A   1      40.856  24.916  27.406  1.00  0.00     0.031 C 
ATOM     46  C   UNL A   1      43.159  29.564  30.659  1.00  0.00     0.029 A 
ATOM     47  C   UNL A   1      41.998  30.022  31.402  1.00  0.00     0.049 A 
ATOM     48  H   UNL A   1      40.162  30.569  30.431  1.00  0.00     0.167 HD
ATOM     49  C   UNL A   1      43.348  24.592  28.026  1.00  0.00     0.031 A 
ATOM     50  C   UNL A   1      41.768  29.742  32.720  1.00  0.00     0.031 A 
ATOM     51  C   UNL A   1      44.216  25.085  29.095  1.00  0.00     0.049 A 
ATOM     52  C   UNL A   1      42.551  28.555  33.238  1.00  0.00     0.074 A 
ATOM     53  C   UNL A   1      45.260  25.991  29.134  1.00  0.00     0.029 A 
ATOM     54  N   UNL A   1      43.862  24.831  30.418  1.00  0.00    -0.354 N 
ATOM     55  N   UNL A   1      43.078  27.637  32.474  1.00  0.00    -0.248 NA
ATOM     56  C   UNL A   1      42.771  28.289  34.658  1.00  0.00     0.031 C 
ATOM     57  C   UNL A   1      45.452  26.372  30.491  1.00  0.00     0.029 A 
ATOM     58  C   UNL A   1      44.561  25.656  31.273  1.00  0.00     0.049 A 
ATOM     59  H   UNL A   1      43.203  24.157  30.702  1.00  0.00     0.167 HD
ATOM     60  C   UNL A   1      43.687  26.689  33.250  1.00  0.00     0.074 A 
ATOM     61  C   UNL A   1      43.474  27.143  34.612  1.00  0.00     0.031 C 
ATOM     62  C   UNL A   1      44.311  25.602  32.708  1.00  0.00     0.031 A 
BRANCH  49  63
ATOM     63  C   UNL A   1      43.861  23.852  26.808  1.00  0.00    -0.014 A 
ATOM     64  C   UNL A   1      45.007  23.044  26.923  1.00  0.00     0.009 A 
ATOM     65  C   UNL A   1      43.354  24.007  25.503  1.00  0.00     0.009 A 
ATOM     66  C   UNL A   1      45.613  22.449  25.805  1.00  0.00     0.001 A 
ATOM     67  C   UNL A   1      43.935  23.393  24.386  1.00  0.00     0.001 A 
ATOM     68  C   UNL A   1      45.074  22.620  24.536  1.00  0.00     0.000 A 
ENDBRANCH  49  63
BRANCH  50  69
ATOM     69  C   UNL A   1      40.400  30.116  33.178  1.00  0.00    -0.014 A 
ATOM     70  C   UNL A   1      40.122  31.479  33.410  1.00  0.00     0.009 A 
ATOM     71  C   UNL A   1      39.324  29.232  33.016  1.00  0.00     0.009 A 
ATOM     72  C   UNL A   1      38.812  31.961  33.357  1.00  0.00     0.001 A 
ATOM     73  C   UNL A   1      38.010  29.718  32.983  1.00  0.00     0.001 A 
ATOM     74  C   UNL A   1      37.758  31.085  33.113  1.00  0.00     0.000 A 
ENDBRANCH  50  69
BRANCH  62  75
ATOM     75  C   UNL A   1      44.801  24.402  33.478  1.00  0.00    -0.014 A 
ATOM     76  C   UNL A   1      46.112  24.253  33.951  1.00  0.00     0.009 A 
ATOM     77  C   UNL A   1      43.865  23.423  33.880  1.00  0.00     0.009 A 
ATOM     78  C   UNL A   1      46.480  23.155  34.742  1.00  0.00     0.001 A 
ATOM     79  C   UNL A   1      44.217  22.352  34.704  1.00  0.00     0.001 A 
ATOM     80  C   UNL A   1      45.532  22.211  35.125  1.00  0.00     0.000 A 
ENDBRANCH  62  75
ENDBRANCH  36  37
ENDBRANCH  28  31
ENDBRANCH  26  27
ENDBRANCH  25  26
ENDBRANCH  24  25
ENDBRANCH   1  24
TORSDOF 16
ENDMDL
