MODEL 1
REMARK VINA RESULT:     -11.7      0.000      0.000
REMARK SMILES O=C(NCCCCNC(=O)c1ccc(-c2c3nc(c(-c4ccccc4)c4ccc([nH]4)c(-c4ccccc4)c4nc(c(-c5ccccc5)c5ccc2[nH]5)C=C4)C=C3)cc1)C1=Cc2c(cc(Cl)c(Cl)c2Cl)O[C@H]1C(F)(F)F
REMARK SMILES IDX 6 1 5 2 4 3 3 4 1 5 2 6 59 8 60 9 71 10 61 11 70 12 62 13
REMARK SMILES IDX 68 14 63 15 66 16 69 17 64 18 67 19 65 20 72 21 73 22 74 23
REMARK SMILES IDX 75 24 7 25 8 26 9 27 10 29 11 30 12 31 58 32 13 33 57 34
REMARK SMILES IDX 14 35 15 36 16 37 51 38 17 39 56 40 50 41 52 42 18 43 55 44
REMARK SMILES IDX 49 45 48 46 19 48 41 49 26 50 40 51 27 52 30 53 39 54 53 55
REMARK SMILES IDX 28 56 29 57 38 59 54 60 31 61 20 62 21 63 25 64 22 65 24 66
REMARK SMILES IDX 23 67 42 68 43 69 47 70 44 71 46 72 45 73 32 74 33 75 37 76
REMARK SMILES IDX 34 77 36 78 35 79
REMARK H PARENT 3 7 8 28 52 47 30 58
REMARK Flexibility Score: inf
ROOT
ATOM      1  C   UNL A   1      32.195  29.445  26.080  1.00  0.00     0.023 C 
ENDROOT
BRANCH   1   2
ATOM      2  C   UNL A   1      32.400  28.890  24.675  1.00  0.00     0.023 C 
BRANCH   2   3
ATOM      3  C   UNL A   1      33.789  28.347  24.366  1.00  0.00     0.116 C 
BRANCH   3   4
ATOM      4  N   UNL A   1      33.859  27.346  23.320  1.00  0.00    -0.352 N 
ATOM      5  O   UNL A   1      33.907  25.265  22.452  1.00  0.00    -0.270 OA
ATOM      6  C   UNL A   1      33.774  25.982  23.437  1.00  0.00     0.251 C 
ATOM      7  H   UNL A   1      33.983  27.690  22.407  1.00  0.00     0.163 HD
BRANCH   6   8
ATOM      8  C   UNL A   1      33.547  25.357  24.768  1.00  0.00     0.067 C 
ATOM      9  C   UNL A   1      34.641  24.927  25.419  1.00  0.00     0.027 C 
ATOM     10  C   UNL A   1      32.203  24.710  24.975  1.00  0.00     0.314 C 
ATOM     11  C   UNL A   1      34.721  23.448  25.460  1.00  0.00     0.037 A 
ATOM     12  O   UNL A   1      32.289  23.286  25.288  1.00  0.00    -0.475 OA
ATOM     13  C   UNL A   1      33.534  22.713  25.331  1.00  0.00     0.131 A 
ATOM     14  C   UNL A   1      35.965  22.785  25.421  1.00  0.00     0.072 A 
ATOM     15  C   UNL A   1      33.581  21.339  25.118  1.00  0.00     0.069 A 
ATOM     16  C   UNL A   1      36.015  21.403  25.166  1.00  0.00     0.079 A 
ATOM     17  Cl  UNL A   1      37.425  23.716  25.588  1.00  0.00    -0.082 Cl
ATOM     18  C   UNL A   1      34.815  20.693  24.999  1.00  0.00     0.064 A 
ATOM     19  Cl  UNL A   1      37.543  20.599  24.982  1.00  0.00    -0.081 Cl
ATOM     20  Cl  UNL A   1      34.780  19.019  24.569  1.00  0.00    -0.083 Cl
BRANCH  10  21
ATOM     21  C   UNL A   1      31.358  25.446  26.037  1.00  0.00     0.429 C 
ATOM     22  F   UNL A   1      30.424  26.263  25.498  1.00  0.00    -0.167 F 
ATOM     23  F   UNL A   1      30.707  24.563  26.832  1.00  0.00    -0.167 F 
ATOM     24  F   UNL A   1      32.125  26.217  26.847  1.00  0.00    -0.167 F 
ENDBRANCH  10  21
ENDBRANCH   6   8
ENDBRANCH   3   4
ENDBRANCH   2   3
ENDBRANCH   1   2
BRANCH   1  25
ATOM     25  C   UNL A   1      33.423  29.487  26.989  1.00  0.00     0.116 C 
BRANCH  25  26
ATOM     26  N   UNL A   1      33.547  30.693  27.795  1.00  0.00    -0.352 N 
ATOM     27  C   UNL A   1      34.615  31.143  28.546  1.00  0.00     0.251 C 
ATOM     28  H   UNL A   1      32.753  31.275  27.806  1.00  0.00     0.163 HD
ATOM     29  O   UNL A   1      34.514  32.177  29.194  1.00  0.00    -0.269 OA
BRANCH  27  30
ATOM     30  C   UNL A   1      35.855  30.335  28.635  1.00  0.00     0.039 A 
ATOM     31  C   UNL A   1      36.715  30.313  27.534  1.00  0.00     0.014 A 
ATOM     32  C   UNL A   1      36.206  29.663  29.808  1.00  0.00     0.014 A 
ATOM     33  C   UNL A   1      37.978  29.728  27.651  1.00  0.00     0.010 A 
ATOM     34  C   UNL A   1      37.495  29.153  29.951  1.00  0.00     0.010 A 
ATOM     35  C   UNL A   1      38.403  29.204  28.881  1.00  0.00    -0.014 A 
BRANCH  35  36
ATOM     36  C   UNL A   1      39.808  28.762  29.082  1.00  0.00     0.031 A 
ATOM     37  C   UNL A   1      40.829  29.692  29.674  1.00  0.00     0.074 A 
ATOM     38  C   UNL A   1      40.183  27.539  28.657  1.00  0.00     0.049 A 
ATOM     39  N   UNL A   1      42.103  29.486  29.892  1.00  0.00    -0.248 NA
ATOM     40  C   UNL A   1      40.364  31.037  30.044  1.00  0.00     0.031 C 
ATOM     41  C   UNL A   1      39.305  26.555  28.017  1.00  0.00     0.029 A 
ATOM     42  N   UNL A   1      41.404  26.912  28.701  1.00  0.00    -0.354 N 
ATOM     43  C   UNL A   1      42.595  30.679  30.405  1.00  0.00     0.074 A 
ATOM     44  C   UNL A   1      41.493  31.617  30.422  1.00  0.00     0.031 C 
ATOM     45  C   UNL A   1      40.005  25.435  27.769  1.00  0.00     0.029 A 
ATOM     46  C   UNL A   1      41.385  25.633  28.196  1.00  0.00     0.049 A 
ATOM     47  H   UNL A   1      42.215  27.337  29.060  1.00  0.00     0.167 HD
ATOM     48  C   UNL A   1      43.846  30.966  30.841  1.00  0.00     0.031 A 
ATOM     49  C   UNL A   1      42.368  24.718  28.094  1.00  0.00     0.031 A 
ATOM     50  C   UNL A   1      44.941  30.034  30.836  1.00  0.00     0.049 A 
ATOM     51  C   UNL A   1      43.746  25.060  28.582  1.00  0.00     0.074 A 
ATOM     52  C   UNL A   1      46.226  30.209  31.318  1.00  0.00     0.029 A 
ATOM     53  N   UNL A   1      44.880  28.749  30.318  1.00  0.00    -0.354 N 
ATOM     54  N   UNL A   1      44.175  26.167  29.138  1.00  0.00    -0.248 NA
ATOM     55  C   UNL A   1      44.774  24.020  28.437  1.00  0.00     0.031 C 
ATOM     56  C   UNL A   1      46.957  29.045  31.051  1.00  0.00     0.029 A 
ATOM     57  C   UNL A   1      46.112  28.129  30.446  1.00  0.00     0.049 A 
ATOM     58  H   UNL A   1      44.079  28.339  29.917  1.00  0.00     0.167 HD
ATOM     59  C   UNL A   1      45.513  25.947  29.435  1.00  0.00     0.074 A 
ATOM     60  C   UNL A   1      45.822  24.597  29.008  1.00  0.00     0.031 C 
ATOM     61  C   UNL A   1      46.405  26.788  30.013  1.00  0.00     0.031 A 
BRANCH  48  62
ATOM     62  C   UNL A   1      44.090  32.359  31.350  1.00  0.00    -0.014 A 
ATOM     63  C   UNL A   1      43.904  32.681  32.705  1.00  0.00     0.009 A 
ATOM     64  C   UNL A   1      44.515  33.362  30.466  1.00  0.00     0.009 A 
ATOM     65  C   UNL A   1      44.095  33.990  33.153  1.00  0.00     0.001 A 
ATOM     66  C   UNL A   1      44.733  34.664  30.924  1.00  0.00     0.001 A 
ATOM     67  C   UNL A   1      44.510  34.979  32.263  1.00  0.00     0.000 A 
ENDBRANCH  48  62
BRANCH  49  68
ATOM     68  C   UNL A   1      42.076  23.370  27.541  1.00  0.00    -0.014 A 
ATOM     69  C   UNL A   1      42.384  23.077  26.203  1.00  0.00     0.009 A 
ATOM     70  C   UNL A   1      41.489  22.376  28.336  1.00  0.00     0.009 A 
ATOM     71  C   UNL A   1      42.091  21.821  25.667  1.00  0.00     0.001 A 
ATOM     72  C   UNL A   1      41.219  21.113  27.805  1.00  0.00     0.001 A 
ATOM     73  C   UNL A   1      41.513  20.839  26.469  1.00  0.00     0.000 A 
ENDBRANCH  49  68
BRANCH  61  74
ATOM     74  C   UNL A   1      47.791  26.256  30.245  1.00  0.00    -0.014 A 
ATOM     75  C   UNL A   1      48.749  26.250  29.220  1.00  0.00     0.009 A 
ATOM     76  C   UNL A   1      48.147  25.779  31.515  1.00  0.00     0.009 A 
ATOM     77  C   UNL A   1      50.030  25.745  29.455  1.00  0.00     0.001 A 
ATOM     78  C   UNL A   1      49.436  25.298  31.754  1.00  0.00     0.001 A 
ATOM     79  C   UNL A   1      50.372  25.273  30.723  1.00  0.00     0.000 A 
ENDBRANCH  61  74
ENDBRANCH  35  36
ENDBRANCH  27  30
ENDBRANCH  25  26
ENDBRANCH   1  25
TORSDOF 12
ENDMDL
MODEL 2
REMARK VINA RESULT:     -11.5      0.477      5.976
REMARK SMILES O=C(NCCCCNC(=O)c1ccc(-c2c3nc(c(-c4ccccc4)c4ccc([nH]4)c(-c4ccccc4)c4nc(c(-c5ccccc5)c5ccc2[nH]5)C=C4)C=C3)cc1)C1=Cc2c(cc(Cl)c(Cl)c2Cl)O[C@H]1C(F)(F)F
REMARK SMILES IDX 6 1 5 2 4 3 3 4 1 5 2 6 59 8 60 9 71 10 61 11 70 12 62 13
REMARK SMILES IDX 68 14 63 15 66 16 69 17 64 18 67 19 65 20 72 21 73 22 74 23
REMARK SMILES IDX 75 24 7 25 8 26 9 27 10 29 11 30 12 31 58 32 13 33 57 34
REMARK SMILES IDX 14 35 15 36 16 37 51 38 17 39 56 40 50 41 52 42 18 43 55 44
REMARK SMILES IDX 49 45 48 46 19 48 41 49 26 50 40 51 27 52 30 53 39 54 53 55
REMARK SMILES IDX 28 56 29 57 38 59 54 60 31 61 20 62 21 63 25 64 22 65 24 66
REMARK SMILES IDX 23 67 42 68 43 69 47 70 44 71 46 72 45 73 32 74 33 75 37 76
REMARK SMILES IDX 34 77 36 78 35 79
REMARK H PARENT 3 7 8 28 52 47 30 58
REMARK Flexibility Score: inf
ROOT
ATOM      1  C   UNL A   1      32.837  29.697  25.809  1.00  0.00     0.023 C 
ENDROOT
BRANCH   1   2
ATOM      2  C   UNL A   1      33.384  28.969  24.586  1.00  0.00     0.023 C 
BRANCH   2   3
ATOM      3  C   UNL A   1      32.458  27.937  23.954  1.00  0.00     0.116 C 
BRANCH   3   4
ATOM      4  N   UNL A   1      33.084  27.002  23.040  1.00  0.00    -0.352 N 
ATOM      5  O   UNL A   1      34.095  25.083  22.418  1.00  0.00    -0.270 OA
ATOM      6  C   UNL A   1      33.535  25.732  23.295  1.00  0.00     0.251 C 
ATOM      7  H   UNL A   1      33.200  27.319  22.116  1.00  0.00     0.163 HD
BRANCH   6   8
ATOM      8  C   UNL A   1      33.375  25.137  24.650  1.00  0.00     0.067 C 
ATOM      9  C   UNL A   1      34.507  24.808  25.294  1.00  0.00     0.027 C 
ATOM     10  C   UNL A   1      32.084  24.405  24.903  1.00  0.00     0.314 C 
ATOM     11  C   UNL A   1      34.693  23.340  25.382  1.00  0.00     0.037 A 
ATOM     12  O   UNL A   1      32.277  23.001  25.260  1.00  0.00    -0.475 OA
ATOM     13  C   UNL A   1      33.559  22.520  25.300  1.00  0.00     0.131 A 
ATOM     14  C   UNL A   1      35.980  22.765  25.342  1.00  0.00     0.072 A 
ATOM     15  C   UNL A   1      33.700  21.146  25.131  1.00  0.00     0.069 A 
ATOM     16  C   UNL A   1      36.124  21.383  25.132  1.00  0.00     0.079 A 
ATOM     17  Cl  UNL A   1      37.373  23.803  25.451  1.00  0.00    -0.082 Cl
ATOM     18  C   UNL A   1      34.975  20.585  25.010  1.00  0.00     0.064 A 
ATOM     19  Cl  UNL A   1      37.702  20.683  24.945  1.00  0.00    -0.081 Cl
ATOM     20  Cl  UNL A   1      35.052  18.899  24.635  1.00  0.00    -0.083 Cl
BRANCH  10  21
ATOM     21  C   UNL A   1      31.206  25.115  25.956  1.00  0.00     0.429 C 
ATOM     22  F   UNL A   1      31.889  26.019  26.693  1.00  0.00    -0.167 F 
ATOM     23  F   UNL A   1      30.180  25.772  25.364  1.00  0.00    -0.167 F 
ATOM     24  F   UNL A   1      30.659  24.235  26.831  1.00  0.00    -0.167 F 
ENDBRANCH  10  21
ENDBRANCH   6   8
ENDBRANCH   3   4
ENDBRANCH   2   3
ENDBRANCH   1   2
BRANCH   1  25
ATOM     25  C   UNL A   1      33.553  29.448  27.135  1.00  0.00     0.116 C 
BRANCH  25  26
ATOM     26  N   UNL A   1      33.682  30.619  27.991  1.00  0.00    -0.352 N 
ATOM     27  C   UNL A   1      34.763  31.053  28.732  1.00  0.00     0.251 C 
ATOM     28  H   UNL A   1      32.879  31.186  28.051  1.00  0.00     0.163 HD
ATOM     29  O   UNL A   1      34.665  32.054  29.428  1.00  0.00    -0.269 OA
BRANCH  27  30
ATOM     30  C   UNL A   1      36.018  30.263  28.750  1.00  0.00     0.039 A 
ATOM     31  C   UNL A   1      36.816  30.256  27.603  1.00  0.00     0.014 A 
ATOM     32  C   UNL A   1      36.443  29.593  29.900  1.00  0.00     0.014 A 
ATOM     33  C   UNL A   1      38.092  29.689  27.648  1.00  0.00     0.010 A 
ATOM     34  C   UNL A   1      37.745  29.103  29.969  1.00  0.00     0.010 A 
ATOM     35  C   UNL A   1      38.592  29.168  28.852  1.00  0.00    -0.014 A 
BRANCH  35  36
ATOM     36  C   UNL A   1      40.012  28.747  28.973  1.00  0.00     0.031 A 
ATOM     37  C   UNL A   1      40.439  27.362  28.580  1.00  0.00     0.074 A 
ATOM     38  C   UNL A   1      40.908  29.596  29.515  1.00  0.00     0.049 A 
ATOM     39  N   UNL A   1      41.626  26.814  28.648  1.00  0.00    -0.248 NA
ATOM     40  C   UNL A   1      39.391  26.466  28.068  1.00  0.00     0.031 C 
ATOM     41  C   UNL A   1      40.617  30.952  29.987  1.00  0.00     0.029 A 
ATOM     42  N   UNL A   1      42.251  29.444  29.757  1.00  0.00    -0.354 N 
ATOM     43  C   UNL A   1      41.465  25.507  28.208  1.00  0.00     0.074 A 
ATOM     44  C   UNL A   1      40.058  25.330  27.920  1.00  0.00     0.031 C 
ATOM     45  C   UNL A   1      41.754  31.522  30.421  1.00  0.00     0.029 A 
ATOM     46  C   UNL A   1      42.845  30.562  30.293  1.00  0.00     0.049 A 
ATOM     47  H   UNL A   1      42.743  28.614  29.564  1.00  0.00     0.167 HD
ATOM     48  C   UNL A   1      42.403  24.545  28.040  1.00  0.00     0.031 A 
ATOM     49  C   UNL A   1      44.126  30.793  30.638  1.00  0.00     0.031 A 
ATOM     50  C   UNL A   1      43.804  24.719  28.314  1.00  0.00     0.049 A 
ATOM     51  C   UNL A   1      45.147  29.710  30.444  1.00  0.00     0.074 A 
ATOM     52  C   UNL A   1      44.841  23.826  28.113  1.00  0.00     0.029 A 
ATOM     53  N   UNL A   1      44.364  25.867  28.855  1.00  0.00    -0.354 N 
ATOM     54  N   UNL A   1      44.990  28.505  29.952  1.00  0.00    -0.248 NA
ATOM     55  C   UNL A   1      46.526  30.024  30.845  1.00  0.00     0.031 C 
ATOM     56  C   UNL A   1      46.024  24.417  28.573  1.00  0.00     0.029 A 
ATOM     57  C   UNL A   1      45.729  25.695  29.017  1.00  0.00     0.049 A 
ATOM     58  H   UNL A   1      43.865  26.682  29.089  1.00  0.00     0.167 HD
ATOM     59  C   UNL A   1      46.253  27.928  29.957  1.00  0.00     0.074 A 
ATOM     60  C   UNL A   1      47.166  28.919  30.490  1.00  0.00     0.031 C 
ATOM     61  C   UNL A   1      46.623  26.688  29.552  1.00  0.00     0.031 A 
BRANCH  48  62
ATOM     62  C   UNL A   1      41.929  23.207  27.543  1.00  0.00    -0.014 A 
ATOM     63  C   UNL A   1      41.834  22.934  26.168  1.00  0.00     0.009 A 
ATOM     64  C   UNL A   1      41.579  22.205  28.460  1.00  0.00     0.009 A 
ATOM     65  C   UNL A   1      41.352  21.701  25.724  1.00  0.00     0.001 A 
ATOM     66  C   UNL A   1      41.124  20.963  28.011  1.00  0.00     0.001 A 
ATOM     67  C   UNL A   1      40.999  20.716  26.646  1.00  0.00     0.000 A 
ENDBRANCH  48  62
BRANCH  49  68
ATOM     68  C   UNL A   1      44.527  32.123  31.165  1.00  0.00    -0.014 A 
ATOM     69  C   UNL A   1      44.496  32.370  32.547  1.00  0.00     0.009 A 
ATOM     70  C   UNL A   1      44.937  33.148  30.301  1.00  0.00     0.009 A 
ATOM     71  C   UNL A   1      44.848  33.624  33.051  1.00  0.00     0.001 A 
ATOM     72  C   UNL A   1      45.312  34.394  30.809  1.00  0.00     0.001 A 
ATOM     73  C   UNL A   1      45.259  34.634  32.182  1.00  0.00     0.000 A 
ENDBRANCH  49  68
BRANCH  61  74
ATOM     74  C   UNL A   1      48.084  26.350  29.643  1.00  0.00    -0.014 A 
ATOM     75  C   UNL A   1      48.640  25.835  30.825  1.00  0.00     0.009 A 
ATOM     76  C   UNL A   1      48.907  26.524  28.521  1.00  0.00     0.009 A 
ATOM     77  C   UNL A   1      50.002  25.534  30.889  1.00  0.00     0.001 A 
ATOM     78  C   UNL A   1      50.263  26.198  28.580  1.00  0.00     0.001 A 
ATOM     79  C   UNL A   1      50.811  25.712  29.766  1.00  0.00     0.000 A 
ENDBRANCH  61  74
ENDBRANCH  35  36
ENDBRANCH  27  30
ENDBRANCH  25  26
ENDBRANCH   1  25
TORSDOF 12
ENDMDL
MODEL 3
REMARK VINA RESULT:     -11.4      3.502      7.762
REMARK SMILES O=C(NCCCCNC(=O)c1ccc(-c2c3nc(c(-c4ccccc4)c4ccc([nH]4)c(-c4ccccc4)c4nc(c(-c5ccccc5)c5ccc2[nH]5)C=C4)C=C3)cc1)C1=Cc2c(cc(Cl)c(Cl)c2Cl)O[C@H]1C(F)(F)F
REMARK SMILES IDX 6 1 5 2 4 3 3 4 1 5 2 6 59 8 60 9 71 10 61 11 70 12 62 13
REMARK SMILES IDX 68 14 63 15 66 16 69 17 64 18 67 19 65 20 72 21 73 22 74 23
REMARK SMILES IDX 75 24 7 25 8 26 9 27 10 29 11 30 12 31 58 32 13 33 57 34
REMARK SMILES IDX 14 35 15 36 16 37 51 38 17 39 56 40 50 41 52 42 18 43 55 44
REMARK SMILES IDX 49 45 48 46 19 48 41 49 26 50 40 51 27 52 30 53 39 54 53 55
REMARK SMILES IDX 28 56 29 57 38 59 54 60 31 61 20 62 21 63 25 64 22 65 24 66
REMARK SMILES IDX 23 67 42 68 43 69 47 70 44 71 46 72 45 73 32 74 33 75 37 76
REMARK SMILES IDX 34 77 36 78 35 79
REMARK H PARENT 3 7 8 28 52 47 30 58
REMARK Flexibility Score: inf
ROOT
ATOM      1  C   UNL A   1      35.743  21.200  25.324  1.00  0.00     0.023 C 
ENDROOT
BRANCH   1   2
ATOM      2  C   UNL A   1      35.039  21.758  26.556  1.00  0.00     0.023 C 
BRANCH   2   3
ATOM      3  C   UNL A   1      33.693  21.130  26.898  1.00  0.00     0.116 C 
BRANCH   3   4
ATOM      4  N   UNL A   1      32.690  22.034  27.424  1.00  0.00    -0.352 N 
ATOM      5  O   UNL A   1      31.289  23.801  27.408  1.00  0.00    -0.270 OA
ATOM      6  C   UNL A   1      32.088  23.097  26.801  1.00  0.00     0.251 C 
ATOM      7  H   UNL A   1      32.402  21.861  28.349  1.00  0.00     0.163 HD
BRANCH   6   8
ATOM      8  C   UNL A   1      32.420  23.424  25.388  1.00  0.00     0.067 C 
ATOM      9  C   UNL A   1      33.060  24.586  25.180  1.00  0.00     0.027 C 
ATOM     10  C   UNL A   1      31.522  22.822  24.341  1.00  0.00     0.314 C 
ATOM     11  C   UNL A   1      32.190  25.594  24.527  1.00  0.00     0.037 A 
ATOM     12  O   UNL A   1      30.859  23.819  23.505  1.00  0.00    -0.475 OA
ATOM     13  C   UNL A   1      31.100  25.142  23.772  1.00  0.00     0.131 A 
ATOM     14  C   UNL A   1      32.322  26.967  24.819  1.00  0.00     0.072 A 
ATOM     15  C   UNL A   1      30.122  26.038  23.350  1.00  0.00     0.069 A 
ATOM     16  C   UNL A   1      31.316  27.866  24.427  1.00  0.00     0.079 A 
ATOM     17  Cl  UNL A   1      33.688  27.505  25.754  1.00  0.00    -0.082 Cl
ATOM     18  C   UNL A   1      30.211  27.386  23.707  1.00  0.00     0.064 A 
ATOM     19  Cl  UNL A   1      31.400  29.536  24.896  1.00  0.00    -0.081 Cl
ATOM     20  Cl  UNL A   1      28.871  28.394  23.283  1.00  0.00    -0.083 Cl
BRANCH  10  21
ATOM     21  C   UNL A   1      32.257  21.786  23.464  1.00  0.00     0.429 C 
ATOM     22  F   UNL A   1      31.632  21.547  22.289  1.00  0.00    -0.167 F 
ATOM     23  F   UNL A   1      33.512  22.205  23.173  1.00  0.00    -0.167 F 
ATOM     24  F   UNL A   1      32.375  20.588  24.090  1.00  0.00    -0.167 F 
ENDBRANCH  10  21
ENDBRANCH   6   8
ENDBRANCH   3   4
ENDBRANCH   2   3
ENDBRANCH   1   2
BRANCH   1  25
ATOM     25  C   UNL A   1      37.155  21.713  25.046  1.00  0.00     0.116 C 
BRANCH  25  26
ATOM     26  N   UNL A   1      38.221  20.771  25.358  1.00  0.00    -0.352 N 
ATOM     27  C   UNL A   1      39.380  20.963  26.083  1.00  0.00     0.251 C 
ATOM     28  H   UNL A   1      38.097  19.863  24.999  1.00  0.00     0.163 HD
ATOM     29  O   UNL A   1      40.183  20.048  26.206  1.00  0.00    -0.269 OA
BRANCH  27  30
ATOM     30  C   UNL A   1      39.694  22.300  26.644  1.00  0.00     0.039 A 
ATOM     31  C   UNL A   1      40.709  22.397  27.600  1.00  0.00     0.014 A 
ATOM     32  C   UNL A   1      39.051  23.452  26.188  1.00  0.00     0.014 A 
ATOM     33  C   UNL A   1      41.164  23.655  28.003  1.00  0.00     0.010 A 
ATOM     34  C   UNL A   1      39.560  24.704  26.527  1.00  0.00     0.010 A 
ATOM     35  C   UNL A   1      40.638  24.818  27.418  1.00  0.00    -0.014 A 
BRANCH  35  36
ATOM     36  C   UNL A   1      41.244  26.149  27.681  1.00  0.00     0.031 A 
ATOM     37  C   UNL A   1      42.578  26.516  27.094  1.00  0.00     0.074 A 
ATOM     38  C   UNL A   1      40.622  27.005  28.517  1.00  0.00     0.049 A 
ATOM     39  N   UNL A   1      43.269  27.618  27.243  1.00  0.00    -0.248 NA
ATOM     40  C   UNL A   1      43.233  25.504  26.253  1.00  0.00     0.031 C 
ATOM     41  C   UNL A   1      39.348  26.754  29.197  1.00  0.00     0.029 A 
ATOM     42  N   UNL A   1      40.978  28.262  28.938  1.00  0.00    -0.354 N 
ATOM     43  C   UNL A   1      44.446  27.424  26.532  1.00  0.00     0.074 A 
ATOM     44  C   UNL A   1      44.395  26.082  25.992  1.00  0.00     0.031 C 
ATOM     45  C   UNL A   1      39.009  27.839  29.913  1.00  0.00     0.029 A 
ATOM     46  C   UNL A   1      40.055  28.845  29.774  1.00  0.00     0.049 A 
ATOM     47  H   UNL A   1      41.813  28.705  28.666  1.00  0.00     0.167 HD
ATOM     48  C   UNL A   1      45.469  28.288  26.330  1.00  0.00     0.031 A 
ATOM     49  C   UNL A   1      40.048  30.058  30.360  1.00  0.00     0.031 A 
ATOM     50  C   UNL A   1      45.519  29.626  26.855  1.00  0.00     0.049 A 
ATOM     51  C   UNL A   1      41.195  30.997  30.122  1.00  0.00     0.074 A 
ATOM     52  C   UNL A   1      46.481  30.599  26.650  1.00  0.00     0.029 A 
ATOM     53  N   UNL A   1      44.565  30.178  27.696  1.00  0.00    -0.354 N 
ATOM     54  N   UNL A   1      42.263  30.826  29.381  1.00  0.00    -0.248 NA
ATOM     55  C   UNL A   1      41.129  32.303  30.794  1.00  0.00     0.031 C 
ATOM     56  C   UNL A   1      46.131  31.727  27.404  1.00  0.00     0.029 A 
ATOM     57  C   UNL A   1      44.927  31.470  28.039  1.00  0.00     0.049 A 
ATOM     58  H   UNL A   1      43.750  29.719  28.005  1.00  0.00     0.167 HD
ATOM     59  C   UNL A   1      42.981  32.010  29.476  1.00  0.00     0.074 A 
ATOM     60  C   UNL A   1      42.221  32.896  30.335  1.00  0.00     0.031 C 
ATOM     61  C   UNL A   1      44.163  32.337  28.898  1.00  0.00     0.031 A 
BRANCH  48  62
ATOM     62  C   UNL A   1      46.628  27.796  25.507  1.00  0.00    -0.014 A 
ATOM     63  C   UNL A   1      46.682  28.018  24.121  1.00  0.00     0.009 A 
ATOM     64  C   UNL A   1      47.680  27.105  26.126  1.00  0.00     0.009 A 
ATOM     65  C   UNL A   1      47.745  27.518  23.366  1.00  0.00     0.001 A 
ATOM     66  C   UNL A   1      48.756  26.630  25.371  1.00  0.00     0.001 A 
ATOM     67  C   UNL A   1      48.781  26.826  23.992  1.00  0.00     0.000 A 
ENDBRANCH  48  62
BRANCH  49  68
ATOM     68  C   UNL A   1      38.894  30.473  31.198  1.00  0.00    -0.014 A 
ATOM     69  C   UNL A   1      38.898  30.215  32.578  1.00  0.00     0.009 A 
ATOM     70  C   UNL A   1      37.787  31.121  30.632  1.00  0.00     0.009 A 
ATOM     71  C   UNL A   1      37.808  30.579  33.371  1.00  0.00     0.001 A 
ATOM     72  C   UNL A   1      36.708  31.506  31.431  1.00  0.00     0.001 A 
ATOM     73  C   UNL A   1      36.715  31.228  32.798  1.00  0.00     0.000 A 
ENDBRANCH  49  68
BRANCH  61  74
ATOM     74  C   UNL A   1      44.688  33.721  29.154  1.00  0.00    -0.014 A 
ATOM     75  C   UNL A   1      45.557  33.984  30.225  1.00  0.00     0.009 A 
ATOM     76  C   UNL A   1      44.327  34.769  28.295  1.00  0.00     0.009 A 
ATOM     77  C   UNL A   1      46.027  35.279  30.448  1.00  0.00     0.001 A 
ATOM     78  C   UNL A   1      44.819  36.058  28.506  1.00  0.00     0.001 A 
ATOM     79  C   UNL A   1      45.660  36.314  29.587  1.00  0.00     0.000 A 
ENDBRANCH  61  74
ENDBRANCH  35  36
ENDBRANCH  27  30
ENDBRANCH  25  26
ENDBRANCH   1  25
TORSDOF 12
ENDMDL
