MODEL 1
REMARK VINA RESULT:     -10.1      0.000      0.000
REMARK SMILES CC[C@]1(C(=O)NCCCCNC(=O)c2ccc(-c3c4nc(c(-c5ccccc5)c5ccc([nH]5)c(-c5ccccc5)c5nc(c(-c6ccccc6)c6ccc3[nH]6)C=C5)C=C4)cc2)CCCN(S(=O)(=O)CCOC(C)C)C1
REMARK SMILES IDX 7 1 6 2 4 3 5 4 3 6 62 7 75 8 63 9 65 10 64 11 2 12 1 13
REMARK SMILES IDX 66 14 67 15 68 16 69 17 70 18 71 19 72 20 73 21 74 22 8 23
REMARK SMILES IDX 9 24 10 25 11 26 12 27 13 29 14 30 15 31 61 32 16 33 60 34
REMARK SMILES IDX 17 35 18 36 19 37 54 38 20 39 59 40 53 41 55 42 21 43 58 44
REMARK SMILES IDX 52 45 51 46 22 48 44 49 29 50 43 51 30 52 33 53 42 54 56 55
REMARK SMILES IDX 31 56 32 57 41 59 57 60 34 61 23 62 24 63 28 64 25 65 27 66
REMARK SMILES IDX 26 67 45 68 46 69 50 70 47 71 49 72 48 73 35 74 36 75 40 76
REMARK SMILES IDX 37 77 39 78 38 79
REMARK H PARENT 6 5 11 28 55 47 33 58
REMARK Flexibility Score: inf
ROOT
ATOM      1  C   UNL A   1      33.182  29.430  25.918  1.00  0.00     0.116 C 
ENDROOT
BRANCH   1   2
ATOM      2  N   UNL A   1      32.106  29.898  25.074  1.00  0.00    -0.356 N 
ATOM      3  C   UNL A   1      31.089  29.263  24.430  1.00  0.00     0.227 C 
ATOM      4  O   UNL A   1      30.204  30.025  24.025  1.00  0.00    -0.274 OA
ATOM      5  H   UNL A   1      32.109  30.872  24.938  1.00  0.00     0.163 HD
BRANCH   3   6
ATOM      6  C   UNL A   1      31.024  27.716  24.193  1.00  0.00     0.063 C 
ATOM      7  C   UNL A   1      32.285  27.300  23.356  1.00  0.00     0.019 C 
ATOM      8  C   UNL A   1      30.954  26.973  25.550  1.00  0.00     0.119 C 
ATOM      9  C   UNL A   1      33.384  26.442  24.026  1.00  0.00     0.018 C 
ATOM     10  N   UNL A   1      31.552  25.605  25.391  1.00  0.00    -0.201 NA
ATOM     11  C   UNL A   1      33.018  25.740  25.328  1.00  0.00     0.102 C 
BRANCH   6  12
ATOM     12  C   UNL A   1      29.728  27.450  23.287  1.00  0.00     0.015 C 
ATOM     13  C   UNL A   1      28.557  26.646  23.851  1.00  0.00     0.005 C 
ENDBRANCH   6  12
BRANCH  10  14
ATOM     14  S   UNL A   1      30.942  24.367  26.378  1.00  0.00     0.216 S 
ATOM     15  O   UNL A   1      31.903  24.194  27.443  1.00  0.00    -0.212 OA
ATOM     16  O   UNL A   1      29.562  24.690  26.688  1.00  0.00    -0.212 OA
BRANCH  14  17
ATOM     17  C   UNL A   1      30.973  22.884  25.338  1.00  0.00     0.182 C 
BRANCH  17  18
ATOM     18  C   UNL A   1      31.934  21.788  25.795  1.00  0.00     0.178 C 
BRANCH  18  19
ATOM     19  O   UNL A   1      31.737  20.537  25.112  1.00  0.00    -0.378 OA
BRANCH  19  20
ATOM     20  C   UNL A   1      32.891  19.852  24.615  1.00  0.00     0.112 C 
ATOM     21  C   UNL A   1      34.217  20.525  24.954  1.00  0.00     0.038 C 
ATOM     22  C   UNL A   1      32.897  18.414  25.048  1.00  0.00     0.038 C 
ENDBRANCH  19  20
ENDBRANCH  18  19
ENDBRANCH  17  18
ENDBRANCH  14  17
ENDBRANCH  10  14
ENDBRANCH   3   6
ENDBRANCH   1   2
BRANCH   1  23
ATOM     23  C   UNL A   1      33.449  30.301  27.148  1.00  0.00     0.023 C 
BRANCH  23  24
ATOM     24  C   UNL A   1      32.496  31.464  27.378  1.00  0.00     0.023 C 
BRANCH  24  25
ATOM     25  C   UNL A   1      33.017  32.811  26.922  1.00  0.00     0.116 C 
BRANCH  25  26
ATOM     26  N   UNL A   1      32.582  33.913  27.765  1.00  0.00    -0.352 N 
ATOM     27  C   UNL A   1      33.191  34.441  28.875  1.00  0.00     0.251 C 
ATOM     28  H   UNL A   1      31.734  34.339  27.504  1.00  0.00     0.163 HD
ATOM     29  O   UNL A   1      32.630  35.310  29.534  1.00  0.00    -0.269 OA
BRANCH  27  30
ATOM     30  C   UNL A   1      34.508  33.922  29.289  1.00  0.00     0.039 A 
ATOM     31  C   UNL A   1      34.567  32.997  30.331  1.00  0.00     0.014 A 
ATOM     32  C   UNL A   1      35.673  34.317  28.624  1.00  0.00     0.014 A 
ATOM     33  C   UNL A   1      35.792  32.431  30.673  1.00  0.00     0.010 A 
ATOM     34  C   UNL A   1      36.872  33.674  28.894  1.00  0.00     0.010 A 
ATOM     35  C   UNL A   1      36.947  32.740  29.937  1.00  0.00    -0.014 A 
BRANCH  35  36
ATOM     36  C   UNL A   1      38.248  32.115  30.267  1.00  0.00     0.031 A 
ATOM     37  C   UNL A   1      39.185  32.791  31.229  1.00  0.00     0.074 A 
ATOM     38  C   UNL A   1      38.595  30.955  29.677  1.00  0.00     0.049 A 
ATOM     39  N   UNL A   1      40.353  32.388  31.662  1.00  0.00    -0.248 NA
ATOM     40  C   UNL A   1      38.773  34.103  31.755  1.00  0.00     0.031 C 
ATOM     41  C   UNL A   1      37.792  30.234  28.686  1.00  0.00     0.029 A 
ATOM     42  N   UNL A   1      39.709  30.172  29.835  1.00  0.00    -0.354 N 
ATOM     43  C   UNL A   1      40.812  33.398  32.498  1.00  0.00     0.074 A 
ATOM     44  C   UNL A   1      39.836  34.462  32.457  1.00  0.00     0.031 C 
ATOM     45  C   UNL A   1      38.415  29.089  28.365  1.00  0.00     0.029 A 
ATOM     46  C   UNL A   1      39.678  29.016  29.093  1.00  0.00     0.049 A 
ATOM     47  H   UNL A   1      40.460  30.415  30.423  1.00  0.00     0.167 HD
ATOM     48  C   UNL A   1      41.933  33.426  33.254  1.00  0.00     0.031 A 
ATOM     49  C   UNL A   1      40.564  28.007  29.018  1.00  0.00     0.031 A 
ATOM     50  C   UNL A   1      42.901  32.363  33.294  1.00  0.00     0.049 A 
ATOM     51  C   UNL A   1      41.806  28.065  29.863  1.00  0.00     0.074 A 
ATOM     52  C   UNL A   1      44.047  32.268  34.063  1.00  0.00     0.029 A 
ATOM     53  N   UNL A   1      42.835  31.211  32.527  1.00  0.00    -0.354 N 
ATOM     54  N   UNL A   1      42.188  28.991  30.709  1.00  0.00    -0.248 NA
ATOM     55  C   UNL A   1      42.728  26.926  29.757  1.00  0.00     0.031 C 
ATOM     56  C   UNL A   1      44.704  31.084  33.718  1.00  0.00     0.029 A 
ATOM     57  C   UNL A   1      43.932  30.407  32.786  1.00  0.00     0.049 A 
ATOM     58  H   UNL A   1      42.114  30.995  31.891  1.00  0.00     0.167 HD
ATOM     59  C   UNL A   1      43.377  28.531  31.262  1.00  0.00     0.074 A 
ATOM     60  C   UNL A   1      43.640  27.236  30.666  1.00  0.00     0.031 C 
ATOM     61  C   UNL A   1      44.177  29.123  32.182  1.00  0.00     0.031 A 
BRANCH  48  62
ATOM     62  C   UNL A   1      42.170  34.652  34.095  1.00  0.00    -0.014 A 
ATOM     63  C   UNL A   1      41.740  34.715  35.431  1.00  0.00     0.009 A 
ATOM     64  C   UNL A   1      42.851  35.751  33.552  1.00  0.00     0.009 A 
ATOM     65  C   UNL A   1      41.949  35.868  36.191  1.00  0.00     0.001 A 
ATOM     66  C   UNL A   1      43.090  36.890  34.325  1.00  0.00     0.001 A 
ATOM     67  C   UNL A   1      42.630  36.952  35.638  1.00  0.00     0.000 A 
ENDBRANCH  48  62
BRANCH  49  68
ATOM     68  C   UNL A   1      40.293  26.840  28.136  1.00  0.00    -0.014 A 
ATOM     69  C   UNL A   1      39.527  25.758  28.599  1.00  0.00     0.009 A 
ATOM     70  C   UNL A   1      40.803  26.798  26.829  1.00  0.00     0.009 A 
ATOM     71  C   UNL A   1      39.306  24.646  27.783  1.00  0.00     0.001 A 
ATOM     72  C   UNL A   1      40.553  25.700  26.004  1.00  0.00     0.001 A 
ATOM     73  C   UNL A   1      39.815  24.620  26.486  1.00  0.00     0.000 A 
ENDBRANCH  49  68
BRANCH  61  74
ATOM     74  C   UNL A   1      45.385  28.353  32.637  1.00  0.00    -0.014 A 
ATOM     75  C   UNL A   1      46.649  28.560  32.064  1.00  0.00     0.009 A 
ATOM     76  C   UNL A   1      45.256  27.423  33.681  1.00  0.00     0.009 A 
ATOM     77  C   UNL A   1      47.750  27.818  32.496  1.00  0.00     0.001 A 
ATOM     78  C   UNL A   1      46.365  26.710  34.137  1.00  0.00     0.001 A 
ATOM     79  C   UNL A   1      47.608  26.899  33.535  1.00  0.00     0.000 A 
ENDBRANCH  61  74
ENDBRANCH  35  36
ENDBRANCH  27  30
ENDBRANCH  25  26
ENDBRANCH  24  25
ENDBRANCH  23  24
ENDBRANCH   1  23
TORSDOF 17
ENDMDL
MODEL 2
REMARK VINA RESULT:     -10.1      3.619      9.137
REMARK SMILES CC[C@]1(C(=O)NCCCCNC(=O)c2ccc(-c3c4nc(c(-c5ccccc5)c5ccc([nH]5)c(-c5ccccc5)c5nc(c(-c6ccccc6)c6ccc3[nH]6)C=C5)C=C4)cc2)CCCN(S(=O)(=O)CCOC(C)C)C1
REMARK SMILES IDX 7 1 6 2 4 3 5 4 3 6 62 7 75 8 63 9 65 10 64 11 2 12 1 13
REMARK SMILES IDX 66 14 67 15 68 16 69 17 70 18 71 19 72 20 73 21 74 22 8 23
REMARK SMILES IDX 9 24 10 25 11 26 12 27 13 29 14 30 15 31 61 32 16 33 60 34
REMARK SMILES IDX 17 35 18 36 19 37 54 38 20 39 59 40 53 41 55 42 21 43 58 44
REMARK SMILES IDX 52 45 51 46 22 48 44 49 29 50 43 51 30 52 33 53 42 54 56 55
REMARK SMILES IDX 31 56 32 57 41 59 57 60 34 61 23 62 24 63 28 64 25 65 27 66
REMARK SMILES IDX 26 67 45 68 46 69 50 70 47 71 49 72 48 73 35 74 36 75 40 76
REMARK SMILES IDX 37 77 39 78 38 79
REMARK H PARENT 6 5 11 28 55 47 33 58
REMARK Flexibility Score: inf
ROOT
ATOM      1  C   UNL A   1      35.916  21.407  24.571  1.00  0.00     0.116 C 
ENDROOT
BRANCH   1   2
ATOM      2  N   UNL A   1      35.233  21.306  25.840  1.00  0.00    -0.356 N 
ATOM      3  C   UNL A   1      33.970  21.617  26.242  1.00  0.00     0.227 C 
ATOM      4  O   UNL A   1      33.664  21.137  27.339  1.00  0.00    -0.274 OA
ATOM      5  H   UNL A   1      35.793  20.938  26.560  1.00  0.00     0.163 HD
BRANCH   3   6
ATOM      6  C   UNL A   1      32.978  22.509  25.421  1.00  0.00     0.063 C 
ATOM      7  C   UNL A   1      31.835  22.981  26.389  1.00  0.00     0.019 C 
ATOM      8  C   UNL A   1      33.735  23.703  24.789  1.00  0.00     0.119 C 
ATOM      9  C   UNL A   1      31.749  24.474  26.782  1.00  0.00     0.018 C 
ATOM     10  N   UNL A   1      32.781  24.850  24.611  1.00  0.00    -0.201 NA
ATOM     11  C   UNL A   1      32.535  25.462  25.928  1.00  0.00     0.102 C 
BRANCH   6  12
ATOM     12  C   UNL A   1      32.317  21.554  24.316  1.00  0.00     0.015 C 
ATOM     13  C   UNL A   1      32.537  21.843  22.832  1.00  0.00     0.005 C 
ENDBRANCH   6  12
BRANCH  10  14
ATOM     14  S   UNL A   1      33.069  25.910  23.319  1.00  0.00     0.216 S 
ATOM     15  O   UNL A   1      33.700  27.077  23.892  1.00  0.00    -0.212 OA
ATOM     16  O   UNL A   1      33.740  25.160  22.274  1.00  0.00    -0.212 OA
BRANCH  14  17
ATOM     17  C   UNL A   1      31.423  26.385  22.729  1.00  0.00     0.182 C 
BRANCH  17  18
ATOM     18  C   UNL A   1      31.170  27.889  22.646  1.00  0.00     0.178 C 
BRANCH  18  19
ATOM     19  O   UNL A   1      29.929  28.222  21.999  1.00  0.00    -0.378 OA
BRANCH  19  20
ATOM     20  C   UNL A   1      29.168  29.314  22.523  1.00  0.00     0.112 C 
ATOM     21  C   UNL A   1      29.126  30.543  21.621  1.00  0.00     0.038 C 
ATOM     22  C   UNL A   1      27.780  28.879  22.897  1.00  0.00     0.038 C 
ENDBRANCH  19  20
ENDBRANCH  18  19
ENDBRANCH  17  18
ENDBRANCH  14  17
ENDBRANCH  10  14
ENDBRANCH   3   6
ENDBRANCH   1   2
BRANCH   1  23
ATOM     23  C   UNL A   1      37.443  21.411  24.670  1.00  0.00     0.023 C 
BRANCH  23  24
ATOM     24  C   UNL A   1      38.109  20.076  24.969  1.00  0.00     0.023 C 
BRANCH  24  25
ATOM     25  C   UNL A   1      39.115  20.108  26.102  1.00  0.00     0.116 C 
BRANCH  25  26
ATOM     26  N   UNL A   1      40.250  19.224  25.890  1.00  0.00    -0.352 N 
ATOM     27  C   UNL A   1      41.588  19.487  26.041  1.00  0.00     0.251 C 
ATOM     28  H   UNL A   1      40.028  18.310  25.599  1.00  0.00     0.163 HD
ATOM     29  O   UNL A   1      42.423  18.651  25.718  1.00  0.00    -0.269 OA
BRANCH  27  30
ATOM     30  C   UNL A   1      42.008  20.803  26.557  1.00  0.00     0.039 A 
ATOM     31  C   UNL A   1      42.313  21.815  25.646  1.00  0.00     0.014 A 
ATOM     32  C   UNL A   1      42.061  21.049  27.932  1.00  0.00     0.014 A 
ATOM     33  C   UNL A   1      42.624  23.088  26.117  1.00  0.00     0.010 A 
ATOM     34  C   UNL A   1      42.266  22.340  28.395  1.00  0.00     0.010 A 
ATOM     35  C   UNL A   1      42.571  23.368  27.492  1.00  0.00    -0.014 A 
BRANCH  35  36
ATOM     36  C   UNL A   1      42.863  24.727  28.001  1.00  0.00     0.031 A 
ATOM     37  C   UNL A   1      44.284  25.146  28.257  1.00  0.00     0.074 A 
ATOM     38  C   UNL A   1      41.845  25.571  28.260  1.00  0.00     0.049 A 
ATOM     39  N   UNL A   1      44.740  26.299  28.676  1.00  0.00    -0.248 NA
ATOM     40  C   UNL A   1      45.331  24.132  28.040  1.00  0.00     0.031 C 
ATOM     41  C   UNL A   1      40.423  25.257  28.102  1.00  0.00     0.029 A 
ATOM     42  N   UNL A   1      41.853  26.869  28.699  1.00  0.00    -0.354 N 
ATOM     43  C   UNL A   1      46.116  26.142  28.781  1.00  0.00     0.074 A 
ATOM     44  C   UNL A   1      46.416  24.768  28.452  1.00  0.00     0.031 C 
ATOM     45  C   UNL A   1      39.698  26.350  28.390  1.00  0.00     0.029 A 
ATOM     46  C   UNL A   1      40.600  27.425  28.790  1.00  0.00     0.049 A 
ATOM     47  H   UNL A   1      42.678  27.356  28.927  1.00  0.00     0.167 HD
ATOM     48  C   UNL A   1      47.053  27.067  29.096  1.00  0.00     0.031 A 
ATOM     49  C   UNL A   1      40.223  28.667  29.147  1.00  0.00     0.031 A 
ATOM     50  C   UNL A   1      46.750  28.435  29.419  1.00  0.00     0.049 A 
ATOM     51  C   UNL A   1      41.282  29.674  29.499  1.00  0.00     0.074 A 
ATOM     52  C   UNL A   1      47.625  29.468  29.705  1.00  0.00     0.029 A 
ATOM     53  N   UNL A   1      45.470  28.959  29.504  1.00  0.00    -0.354 N 
ATOM     54  N   UNL A   1      42.585  29.534  29.516  1.00  0.00    -0.248 NA
ATOM     55  C   UNL A   1      40.815  31.020  29.860  1.00  0.00     0.031 C 
ATOM     56  C   UNL A   1      46.871  30.602  30.019  1.00  0.00     0.029 A 
ATOM     57  C   UNL A   1      45.529  30.296  29.859  1.00  0.00     0.049 A 
ATOM     58  H   UNL A   1      44.640  28.456  29.335  1.00  0.00     0.167 HD
ATOM     59  C   UNL A   1      43.096  30.780  29.856  1.00  0.00     0.074 A 
ATOM     60  C   UNL A   1      41.960  31.666  30.018  1.00  0.00     0.031 C 
ATOM     61  C   UNL A   1      44.387  31.160  30.017  1.00  0.00     0.031 A 
BRANCH  48  62
ATOM     62  C   UNL A   1      48.490  26.622  29.108  1.00  0.00    -0.014 A 
ATOM     63  C   UNL A   1      49.073  26.067  30.260  1.00  0.00     0.009 A 
ATOM     64  C   UNL A   1      49.268  26.739  27.947  1.00  0.00     0.009 A 
ATOM     65  C   UNL A   1      50.414  25.679  30.260  1.00  0.00     0.001 A 
ATOM     66  C   UNL A   1      50.600  26.318  27.939  1.00  0.00     0.001 A 
ATOM     67  C   UNL A   1      51.174  25.799  29.097  1.00  0.00     0.000 A 
ENDBRANCH  48  62
BRANCH  49  68
ATOM     68  C   UNL A   1      38.783  29.035  29.155  1.00  0.00    -0.014 A 
ATOM     69  C   UNL A   1      38.149  29.465  27.978  1.00  0.00     0.009 A 
ATOM     70  C   UNL A   1      38.034  28.967  30.340  1.00  0.00     0.009 A 
ATOM     71  C   UNL A   1      36.805  29.848  27.996  1.00  0.00     0.001 A 
ATOM     72  C   UNL A   1      36.683  29.319  30.348  1.00  0.00     0.001 A 
ATOM     73  C   UNL A   1      36.074  29.771  29.179  1.00  0.00     0.000 A 
ENDBRANCH  49  68
BRANCH  61  74
ATOM     74  C   UNL A   1      44.642  32.607  30.336  1.00  0.00    -0.014 A 
ATOM     75  C   UNL A   1      44.792  33.568  29.325  1.00  0.00     0.009 A 
ATOM     76  C   UNL A   1      44.702  33.016  31.678  1.00  0.00     0.009 A 
ATOM     77  C   UNL A   1      45.044  34.902  29.652  1.00  0.00     0.001 A 
ATOM     78  C   UNL A   1      44.917  34.356  32.001  1.00  0.00     0.001 A 
ATOM     79  C   UNL A   1      45.100  35.295  30.988  1.00  0.00     0.000 A 
ENDBRANCH  61  74
ENDBRANCH  35  36
ENDBRANCH  27  30
ENDBRANCH  25  26
ENDBRANCH  24  25
ENDBRANCH  23  24
ENDBRANCH   1  23
TORSDOF 17
ENDMDL
MODEL 3
REMARK VINA RESULT:     -10.1      3.662      8.915
REMARK SMILES CC[C@]1(C(=O)NCCCCNC(=O)c2ccc(-c3c4nc(c(-c5ccccc5)c5ccc([nH]5)c(-c5ccccc5)c5nc(c(-c6ccccc6)c6ccc3[nH]6)C=C5)C=C4)cc2)CCCN(S(=O)(=O)CCOC(C)C)C1
REMARK SMILES IDX 7 1 6 2 4 3 5 4 3 6 62 7 75 8 63 9 65 10 64 11 2 12 1 13
REMARK SMILES IDX 66 14 67 15 68 16 69 17 70 18 71 19 72 20 73 21 74 22 8 23
REMARK SMILES IDX 9 24 10 25 11 26 12 27 13 29 14 30 15 31 61 32 16 33 60 34
REMARK SMILES IDX 17 35 18 36 19 37 54 38 20 39 59 40 53 41 55 42 21 43 58 44
REMARK SMILES IDX 52 45 51 46 22 48 44 49 29 50 43 51 30 52 33 53 42 54 56 55
REMARK SMILES IDX 31 56 32 57 41 59 57 60 34 61 23 62 24 63 28 64 25 65 27 66
REMARK SMILES IDX 26 67 45 68 46 69 50 70 47 71 49 72 48 73 35 74 36 75 40 76
REMARK SMILES IDX 37 77 39 78 38 79
REMARK H PARENT 6 5 11 28 55 47 33 58
REMARK Flexibility Score: inf
ROOT
ATOM      1  C   UNL A   1      35.641  21.210  24.649  1.00  0.00     0.116 C 
ENDROOT
BRANCH   1   2
ATOM      2  N   UNL A   1      35.043  21.026  25.951  1.00  0.00    -0.356 N 
ATOM      3  C   UNL A   1      34.022  21.649  26.601  1.00  0.00     0.227 C 
ATOM      4  O   UNL A   1      33.616  21.037  27.594  1.00  0.00    -0.274 OA
ATOM      5  H   UNL A   1      35.457  20.303  26.475  1.00  0.00     0.163 HD
BRANCH   3   6
ATOM      6  C   UNL A   1      33.407  23.022  26.165  1.00  0.00     0.063 C 
ATOM      7  C   UNL A   1      34.518  24.121  26.315  1.00  0.00     0.019 C 
ATOM      8  C   UNL A   1      32.873  22.929  24.713  1.00  0.00     0.119 C 
ATOM      9  C   UNL A   1      35.105  24.779  25.045  1.00  0.00     0.018 C 
ATOM     10  N   UNL A   1      32.923  24.292  24.084  1.00  0.00    -0.201 NA
ATOM     11  C   UNL A   1      34.324  24.602  23.748  1.00  0.00     0.102 C 
BRANCH   6  12
ATOM     12  C   UNL A   1      32.246  23.355  27.219  1.00  0.00     0.015 C 
ATOM     13  C   UNL A   1      30.781  23.234  26.800  1.00  0.00     0.005 C 
ENDBRANCH   6  12
BRANCH  10  14
ATOM     14  S   UNL A   1      31.759  24.649  22.903  1.00  0.00     0.216 S 
ATOM     15  O   UNL A   1      32.479  24.776  21.657  1.00  0.00    -0.212 OA
ATOM     16  O   UNL A   1      30.690  23.675  23.030  1.00  0.00    -0.212 OA
BRANCH  14  17
ATOM     17  C   UNL A   1      31.116  26.280  23.359  1.00  0.00     0.182 C 
BRANCH  17  18
ATOM     18  C   UNL A   1      32.151  27.403  23.386  1.00  0.00     0.178 C 
BRANCH  18  19
ATOM     19  O   UNL A   1      32.188  28.115  24.635  1.00  0.00    -0.378 OA
BRANCH  19  20
ATOM     20  C   UNL A   1      32.764  27.458  25.768  1.00  0.00     0.112 C 
ATOM     21  C   UNL A   1      33.974  28.172  26.361  1.00  0.00     0.038 C 
ATOM     22  C   UNL A   1      31.731  27.192  26.825  1.00  0.00     0.038 C 
ENDBRANCH  19  20
ENDBRANCH  18  19
ENDBRANCH  17  18
ENDBRANCH  14  17
ENDBRANCH  10  14
ENDBRANCH   3   6
ENDBRANCH   1   2
BRANCH   1  23
ATOM     23  C   UNL A   1      37.137  21.535  24.677  1.00  0.00     0.023 C 
BRANCH  23  24
ATOM     24  C   UNL A   1      38.088  20.353  24.783  1.00  0.00     0.023 C 
BRANCH  24  25
ATOM     25  C   UNL A   1      39.039  20.408  25.962  1.00  0.00     0.116 C 
BRANCH  25  26
ATOM     26  N   UNL A   1      40.081  19.394  25.909  1.00  0.00    -0.352 N 
ATOM     27  C   UNL A   1      41.427  19.529  26.134  1.00  0.00     0.251 C 
ATOM     28  H   UNL A   1      39.778  18.486  25.681  1.00  0.00     0.163 HD
ATOM     29  O   UNL A   1      42.184  18.584  25.944  1.00  0.00    -0.269 OA
BRANCH  27  30
ATOM     30  C   UNL A   1      41.957  20.837  26.565  1.00  0.00     0.039 A 
ATOM     31  C   UNL A   1      42.335  21.761  25.591  1.00  0.00     0.014 A 
ATOM     32  C   UNL A   1      42.041  21.161  27.922  1.00  0.00     0.014 A 
ATOM     33  C   UNL A   1      42.752  23.031  25.981  1.00  0.00     0.010 A 
ATOM     34  C   UNL A   1      42.353  22.458  28.303  1.00  0.00     0.010 A 
ATOM     35  C   UNL A   1      42.734  23.399  27.337  1.00  0.00    -0.014 A 
BRANCH  35  36
ATOM     36  C   UNL A   1      43.139  24.760  27.759  1.00  0.00     0.031 A 
ATOM     37  C   UNL A   1      42.094  25.805  28.033  1.00  0.00     0.074 A 
ATOM     38  C   UNL A   1      44.448  25.058  27.865  1.00  0.00     0.049 A 
ATOM     39  N   UNL A   1      42.251  27.040  28.436  1.00  0.00    -0.248 NA
ATOM     40  C   UNL A   1      40.690  25.426  27.800  1.00  0.00     0.031 C 
ATOM     41  C   UNL A   1      45.554  24.142  27.572  1.00  0.00     0.029 A 
ATOM     42  N   UNL A   1      45.070  26.214  28.260  1.00  0.00    -0.354 N 
ATOM     43  C   UNL A   1      40.973  27.581  28.494  1.00  0.00     0.074 A 
ATOM     44  C   UNL A   1      40.059  26.568  28.018  1.00  0.00     0.031 C 
ATOM     45  C   UNL A   1      46.716  24.755  27.847  1.00  0.00     0.029 A 
ATOM     46  C   UNL A   1      46.440  26.116  28.296  1.00  0.00     0.049 A 
ATOM     47  H   UNL A   1      44.582  27.036  28.495  1.00  0.00     0.167 HD
ATOM     48  C   UNL A   1      40.590  28.803  28.930  1.00  0.00     0.031 A 
ATOM     49  C   UNL A   1      47.368  27.020  28.659  1.00  0.00     0.031 A 
ATOM     50  C   UNL A   1      41.503  29.807  29.406  1.00  0.00     0.049 A 
ATOM     51  C   UNL A   1      46.917  28.373  29.134  1.00  0.00     0.074 A 
ATOM     52  C   UNL A   1      41.217  31.060  29.917  1.00  0.00     0.029 A 
ATOM     53  N   UNL A   1      42.882  29.671  29.423  1.00  0.00    -0.354 N 
ATOM     54  N   UNL A   1      45.700  28.843  29.258  1.00  0.00    -0.248 NA
ATOM     55  C   UNL A   1      47.971  29.313  29.539  1.00  0.00     0.031 C 
ATOM     56  C   UNL A   1      42.427  31.705  30.190  1.00  0.00     0.029 A 
ATOM     57  C   UNL A   1      43.464  30.826  29.916  1.00  0.00     0.049 A 
ATOM     58  H   UNL A   1      43.375  28.871  29.130  1.00  0.00     0.167 HD
ATOM     59  C   UNL A   1      45.838  30.120  29.788  1.00  0.00     0.074 A 
ATOM     60  C   UNL A   1      47.258  30.340  29.976  1.00  0.00     0.031 C 
ATOM     61  C   UNL A   1      44.879  31.027  30.095  1.00  0.00     0.031 A 
BRANCH  48  62
ATOM     62  C   UNL A   1      39.118  29.117  28.906  1.00  0.00    -0.014 A 
ATOM     63  C   UNL A   1      38.498  29.621  27.751  1.00  0.00     0.009 A 
ATOM     64  C   UNL A   1      38.336  28.887  30.048  1.00  0.00     0.009 A 
ATOM     65  C   UNL A   1      37.135  29.927  27.753  1.00  0.00     0.001 A 
ATOM     66  C   UNL A   1      36.966  29.162  30.036  1.00  0.00     0.001 A 
ATOM     67  C   UNL A   1      36.370  29.691  28.894  1.00  0.00     0.000 A 
ENDBRANCH  48  62
BRANCH  49  68
ATOM     68  C   UNL A   1      48.811  26.664  28.622  1.00  0.00    -0.014 A 
ATOM     69  C   UNL A   1      49.446  26.136  29.758  1.00  0.00     0.009 A 
ATOM     70  C   UNL A   1      49.565  26.856  27.454  1.00  0.00     0.009 A 
ATOM     71  C   UNL A   1      50.811  25.838  29.733  1.00  0.00     0.001 A 
ATOM     72  C   UNL A   1      50.921  26.527  27.422  1.00  0.00     0.001 A 
ATOM     73  C   UNL A   1      51.545  26.030  28.565  1.00  0.00     0.000 A 
ENDBRANCH  49  68
BRANCH  61  74
ATOM     74  C   UNL A   1      45.332  32.321  30.713  1.00  0.00    -0.014 A 
ATOM     75  C   UNL A   1      45.626  33.447  29.930  1.00  0.00     0.009 A 
ATOM     76  C   UNL A   1      45.436  32.418  32.110  1.00  0.00     0.009 A 
ATOM     77  C   UNL A   1      46.059  34.631  30.531  1.00  0.00     0.001 A 
ATOM     78  C   UNL A   1      45.833  33.613  32.710  1.00  0.00     0.001 A 
ATOM     79  C   UNL A   1      46.157  34.714  31.919  1.00  0.00     0.000 A 
ENDBRANCH  61  74
ENDBRANCH  35  36
ENDBRANCH  27  30
ENDBRANCH  25  26
ENDBRANCH  24  25
ENDBRANCH  23  24
ENDBRANCH   1  23
TORSDOF 17
ENDMDL
