MODEL 1
REMARK VINA RESULT:     -11.7      0.000      0.000
REMARK SMILES Cc1cc(-n2nc(C)c(C(=O)NCCCCNC(=O)c3ccc(-c4c5nc(c(-c6ccccc6)c6ccc([nH]6)c(-c6ccccc6)c6nc(c(-c7ccccc7)c7ccc4[nH]7)C=C6)C=C5)cc3)c2Cl)nc(C)n1
REMARK SMILES IDX 15 1 14 2 13 3 12 4 10 5 11 6 9 8 5 9 6 10 68 11 7 12 69 13
REMARK SMILES IDX 8 14 4 15 1 16 2 17 3 18 73 19 71 20 70 21 72 22 16 23 17 24
REMARK SMILES IDX 18 25 19 27 20 28 21 29 67 30 22 31 66 32 23 33 24 34 25 35
REMARK SMILES IDX 60 36 26 37 65 38 59 39 61 40 27 41 64 42 58 43 57 44 28 46
REMARK SMILES IDX 50 47 35 48 49 49 36 50 39 51 48 52 62 53 37 54 38 55 47 57
REMARK SMILES IDX 63 58 40 59 29 60 30 61 34 62 31 63 33 64 32 65 51 66 52 67
REMARK SMILES IDX 56 68 53 69 55 70 54 71 41 72 42 73 46 74 43 75 45 76 44 77
REMARK H PARENT 12 7 17 26 61 45 39 56
REMARK Flexibility Score: inf
ROOT
ATOM      1  C   UNL A   1      37.294  19.635  24.964  1.00  0.00     0.023 C 
ENDROOT
BRANCH   1   2
ATOM      2  C   UNL A   1      36.168  20.673  24.882  1.00  0.00     0.023 C 
BRANCH   2   3
ATOM      3  C   UNL A   1      36.321  21.875  25.825  1.00  0.00     0.116 C 
BRANCH   3   4
ATOM      4  N   UNL A   1      35.279  21.890  26.826  1.00  0.00    -0.352 N 
ATOM      5  C   UNL A   1      33.984  22.331  26.871  1.00  0.00     0.256 C 
ATOM      6  O   UNL A   1      33.441  22.131  27.961  1.00  0.00    -0.269 OA
ATOM      7  H   UNL A   1      35.569  21.487  27.677  1.00  0.00     0.163 HD
BRANCH   5   8
ATOM      8  C   UNL A   1      33.239  22.946  25.772  1.00  0.00     0.100 A 
ATOM      9  N   UNL A   1      32.298  24.244  24.215  1.00  0.00    -0.203 N 
ATOM     10  N   UNL A   1      31.914  23.006  23.849  1.00  0.00    -0.170 NA
ATOM     11  C   UNL A   1      32.893  24.244  25.457  1.00  0.00     0.147 A 
ATOM     12  C   UNL A   1      32.557  22.209  24.722  1.00  0.00     0.074 A 
ATOM     13  Cl  UNL A   1      32.874  25.742  26.286  1.00  0.00    -0.061 Cl
ATOM     14  C   UNL A   1      32.427  20.736  24.514  1.00  0.00     0.070 C 
BRANCH   9  15
ATOM     15  C   UNL A   1      32.008  25.393  23.437  1.00  0.00     0.159 A 
ATOM     16  C   UNL A   1      29.221  27.849  23.223  1.00  0.00     0.067 C 
ATOM     17  C   UNL A   1      30.543  27.161  23.062  1.00  0.00     0.043 A 
ATOM     18  C   UNL A   1      30.704  25.842  23.429  1.00  0.00     0.072 A 
ATOM     19  N   UNL A   1      31.565  27.924  22.612  1.00  0.00    -0.238 NA
ATOM     20  C   UNL A   1      32.790  27.372  22.594  1.00  0.00     0.128 A 
ATOM     21  N   UNL A   1      33.067  26.140  23.037  1.00  0.00    -0.214 NA
ATOM     22  C   UNL A   1      33.943  28.207  22.136  1.00  0.00     0.090 C 
ENDBRANCH   9  15
ENDBRANCH   5   8
ENDBRANCH   3   4
ENDBRANCH   2   3
ENDBRANCH   1   2
BRANCH   1  23
ATOM     23  C   UNL A   1      38.641  20.220  25.374  1.00  0.00     0.116 C 
BRANCH  23  24
ATOM     24  N   UNL A   1      39.653  19.194  25.612  1.00  0.00    -0.352 N 
ATOM     25  C   UNL A   1      40.981  19.379  25.934  1.00  0.00     0.251 C 
ATOM     26  H   UNL A   1      39.351  18.261  25.532  1.00  0.00     0.163 HD
ATOM     27  O   UNL A   1      41.812  18.501  25.758  1.00  0.00    -0.269 OA
BRANCH  25  28
ATOM     28  C   UNL A   1      41.373  20.662  26.533  1.00  0.00     0.039 A 
ATOM     29  C   UNL A   1      42.065  21.624  25.792  1.00  0.00     0.014 A 
ATOM     30  C   UNL A   1      41.028  20.879  27.867  1.00  0.00     0.014 A 
ATOM     31  C   UNL A   1      42.371  22.838  26.396  1.00  0.00     0.010 A 
ATOM     32  C   UNL A   1      41.226  22.115  28.425  1.00  0.00     0.010 A 
ATOM     33  C   UNL A   1      41.947  23.070  27.711  1.00  0.00    -0.014 A 
BRANCH  33  34
ATOM     34  C   UNL A   1      42.228  24.330  28.375  1.00  0.00     0.031 A 
ATOM     35  C   UNL A   1      41.244  25.424  28.149  1.00  0.00     0.074 A 
ATOM     36  C   UNL A   1      43.178  24.407  29.329  1.00  0.00     0.049 A 
ATOM     37  N   UNL A   1      41.449  26.584  27.620  1.00  0.00    -0.248 NA
ATOM     38  C   UNL A   1      39.835  25.164  28.490  1.00  0.00     0.031 C 
ATOM     39  C   UNL A   1      43.979  23.324  29.917  1.00  0.00     0.029 A 
ATOM     40  N   UNL A   1      43.533  25.481  30.075  1.00  0.00    -0.354 N 
ATOM     41  C   UNL A   1      40.233  27.260  27.674  1.00  0.00     0.074 A 
ATOM     42  C   UNL A   1      39.249  26.298  28.103  1.00  0.00     0.031 C 
ATOM     43  C   UNL A   1      44.540  23.755  31.069  1.00  0.00     0.029 A 
ATOM     44  C   UNL A   1      44.280  25.176  31.205  1.00  0.00     0.049 A 
ATOM     45  H   UNL A   1      43.284  26.402  29.834  1.00  0.00     0.167 HD
ATOM     46  C   UNL A   1      40.139  28.612  27.533  1.00  0.00     0.031 A 
ATOM     47  C   UNL A   1      44.598  26.042  32.198  1.00  0.00     0.031 A 
ATOM     48  C   UNL A   1      41.352  29.189  27.027  1.00  0.00     0.049 A 
ATOM     49  C   UNL A   1      44.440  27.407  31.639  1.00  0.00     0.074 A 
ATOM     50  C   UNL A   1      42.046  29.094  25.838  1.00  0.00     0.029 A 
ATOM     51  N   UNL A   1      42.247  29.681  27.949  1.00  0.00    -0.354 N 
ATOM     52  N   UNL A   1      45.170  27.880  30.670  1.00  0.00    -0.248 NA
ATOM     53  C   UNL A   1      43.175  28.090  31.860  1.00  0.00     0.031 C 
ATOM     54  C   UNL A   1      43.420  29.055  26.221  1.00  0.00     0.029 A 
ATOM     55  C   UNL A   1      43.485  29.195  27.610  1.00  0.00     0.049 A 
ATOM     56  H   UNL A   1      42.038  30.270  28.709  1.00  0.00     0.167 HD
ATOM     57  C   UNL A   1      44.296  28.634  29.902  1.00  0.00     0.074 A 
ATOM     58  C   UNL A   1      43.108  28.805  30.734  1.00  0.00     0.031 C 
ATOM     59  C   UNL A   1      44.502  28.808  28.563  1.00  0.00     0.031 A 
BRANCH  46  60
ATOM     60  C   UNL A   1      39.048  29.445  28.143  1.00  0.00    -0.014 A 
ATOM     61  C   UNL A   1      39.112  29.789  29.505  1.00  0.00     0.009 A 
ATOM     62  C   UNL A   1      37.835  29.705  27.476  1.00  0.00     0.009 A 
ATOM     63  C   UNL A   1      38.010  30.351  30.164  1.00  0.00     0.001 A 
ATOM     64  C   UNL A   1      36.749  30.301  28.121  1.00  0.00     0.001 A 
ATOM     65  C   UNL A   1      36.830  30.609  29.471  1.00  0.00     0.000 A 
ENDBRANCH  46  60
BRANCH  47  66
ATOM     66  C   UNL A   1      44.648  25.798  33.659  1.00  0.00    -0.014 A 
ATOM     67  C   UNL A   1      45.764  26.223  34.399  1.00  0.00     0.009 A 
ATOM     68  C   UNL A   1      43.488  25.446  34.373  1.00  0.00     0.009 A 
ATOM     69  C   UNL A   1      45.696  26.371  35.790  1.00  0.00     0.001 A 
ATOM     70  C   UNL A   1      43.422  25.584  35.765  1.00  0.00     0.001 A 
ATOM     71  C   UNL A   1      44.519  26.072  36.469  1.00  0.00     0.000 A 
ENDBRANCH  47  66
BRANCH  59  72
ATOM     72  C   UNL A   1      45.800  28.307  27.975  1.00  0.00    -0.014 A 
ATOM     73  C   UNL A   1      46.952  29.110  27.878  1.00  0.00     0.009 A 
ATOM     74  C   UNL A   1      45.921  26.937  27.705  1.00  0.00     0.009 A 
ATOM     75  C   UNL A   1      48.186  28.555  27.522  1.00  0.00     0.001 A 
ATOM     76  C   UNL A   1      47.157  26.381  27.365  1.00  0.00     0.001 A 
ATOM     77  C   UNL A   1      48.290  27.188  27.276  1.00  0.00     0.000 A 
ENDBRANCH  59  72
ENDBRANCH  33  34
ENDBRANCH  25  28
ENDBRANCH  23  24
ENDBRANCH   1  23
TORSDOF 12
ENDMDL
MODEL 2
REMARK VINA RESULT:     -11.6      2.556      7.615
REMARK SMILES Cc1cc(-n2nc(C)c(C(=O)NCCCCNC(=O)c3ccc(-c4c5nc(c(-c6ccccc6)c6ccc([nH]6)c(-c6ccccc6)c6nc(c(-c7ccccc7)c7ccc4[nH]7)C=C6)C=C5)cc3)c2Cl)nc(C)n1
REMARK SMILES IDX 15 1 14 2 13 3 12 4 10 5 11 6 9 8 5 9 6 10 68 11 7 12 69 13
REMARK SMILES IDX 8 14 4 15 1 16 2 17 3 18 73 19 71 20 70 21 72 22 16 23 17 24
REMARK SMILES IDX 18 25 19 27 20 28 21 29 67 30 22 31 66 32 23 33 24 34 25 35
REMARK SMILES IDX 60 36 26 37 65 38 59 39 61 40 27 41 64 42 58 43 57 44 28 46
REMARK SMILES IDX 50 47 35 48 49 49 36 50 39 51 48 52 62 53 37 54 38 55 47 57
REMARK SMILES IDX 63 58 40 59 29 60 30 61 34 62 31 63 33 64 32 65 51 66 52 67
REMARK SMILES IDX 56 68 53 69 55 70 54 71 41 72 42 73 46 74 43 75 45 76 44 77
REMARK H PARENT 12 7 17 26 61 45 39 56
REMARK Flexibility Score: inf
ROOT
ATOM      1  C   UNL A   1      33.662  30.710  27.236  1.00  0.00     0.023 C 
ENDROOT
BRANCH   1   2
ATOM      2  C   UNL A   1      33.899  29.204  27.403  1.00  0.00     0.023 C 
BRANCH   2   3
ATOM      3  C   UNL A   1      34.030  28.418  26.090  1.00  0.00     0.116 C 
BRANCH   3   4
ATOM      4  N   UNL A   1      32.732  28.065  25.561  1.00  0.00    -0.352 N 
ATOM      5  C   UNL A   1      32.248  27.056  24.772  1.00  0.00     0.256 C 
ATOM      6  O   UNL A   1      31.034  27.143  24.565  1.00  0.00    -0.269 OA
ATOM      7  H   UNL A   1      32.031  28.702  25.830  1.00  0.00     0.163 HD
BRANCH   5   8
ATOM      8  C   UNL A   1      33.016  25.935  24.231  1.00  0.00     0.100 A 
ATOM      9  N   UNL A   1      34.099  24.034  23.777  1.00  0.00    -0.203 N 
ATOM     10  N   UNL A   1      34.125  24.686  22.599  1.00  0.00    -0.170 NA
ATOM     11  C   UNL A   1      33.643  24.842  24.794  1.00  0.00     0.147 A 
ATOM     12  C   UNL A   1      33.390  25.786  22.834  1.00  0.00     0.074 A 
ATOM     13  Cl  UNL A   1      34.114  24.380  26.373  1.00  0.00    -0.061 Cl
ATOM     14  C   UNL A   1      33.127  26.686  21.671  1.00  0.00     0.070 C 
BRANCH   9  15
ATOM     15  C   UNL A   1      34.592  22.713  23.928  1.00  0.00     0.159 A 
ATOM     16  C   UNL A   1      37.768  21.155  25.081  1.00  0.00     0.067 C 
ATOM     17  C   UNL A   1      36.348  21.370  24.656  1.00  0.00     0.043 A 
ATOM     18  C   UNL A   1      35.955  22.557  24.073  1.00  0.00     0.072 A 
ATOM     19  N   UNL A   1      35.478  20.375  24.943  1.00  0.00    -0.238 NA
ATOM     20  C   UNL A   1      34.175  20.600  24.703  1.00  0.00     0.128 A 
ATOM     21  N   UNL A   1      33.684  21.758  24.246  1.00  0.00    -0.214 NA
ATOM     22  C   UNL A   1      33.190  19.528  25.047  1.00  0.00     0.090 C 
ENDBRANCH   9  15
ENDBRANCH   5   8
ENDBRANCH   3   4
ENDBRANCH   2   3
ENDBRANCH   1   2
BRANCH   1  23
ATOM     23  C   UNL A   1      34.861  31.568  27.623  1.00  0.00     0.116 C 
BRANCH  23  24
ATOM     24  N   UNL A   1      34.699  32.212  28.924  1.00  0.00    -0.352 N 
ATOM     25  C   UNL A   1      35.313  31.878  30.112  1.00  0.00     0.251 C 
ATOM     26  H   UNL A   1      34.076  32.974  28.956  1.00  0.00     0.163 HD
ATOM     27  O   UNL A   1      34.855  32.224  31.191  1.00  0.00    -0.269 OA
BRANCH  25  28
ATOM     28  C   UNL A   1      36.567  31.115  30.050  1.00  0.00     0.039 A 
ATOM     29  C   UNL A   1      37.796  31.759  29.880  1.00  0.00     0.014 A 
ATOM     30  C   UNL A   1      36.481  29.728  30.166  1.00  0.00     0.014 A 
ATOM     31  C   UNL A   1      38.956  30.992  29.873  1.00  0.00     0.010 A 
ATOM     32  C   UNL A   1      37.627  28.985  30.275  1.00  0.00     0.010 A 
ATOM     33  C   UNL A   1      38.857  29.608  30.071  1.00  0.00    -0.014 A 
BRANCH  33  34
ATOM     34  C   UNL A   1      40.042  28.771  30.090  1.00  0.00     0.031 A 
ATOM     35  C   UNL A   1      40.671  28.554  31.422  1.00  0.00     0.074 A 
ATOM     36  C   UNL A   1      40.385  28.040  29.010  1.00  0.00     0.049 A 
ATOM     37  N   UNL A   1      41.868  28.862  31.798  1.00  0.00    -0.248 NA
ATOM     38  C   UNL A   1      39.835  27.989  32.495  1.00  0.00     0.031 C 
ATOM     39  C   UNL A   1      39.653  27.870  27.747  1.00  0.00     0.029 A 
ATOM     40  N   UNL A   1      41.421  27.178  28.873  1.00  0.00    -0.354 N 
ATOM     41  C   UNL A   1      41.993  28.417  33.111  1.00  0.00     0.074 A 
ATOM     42  C   UNL A   1      40.677  28.002  33.529  1.00  0.00     0.031 C 
ATOM     43  C   UNL A   1      40.141  26.795  27.086  1.00  0.00     0.029 A 
ATOM     44  C   UNL A   1      41.316  26.316  27.790  1.00  0.00     0.049 A 
ATOM     45  H   UNL A   1      42.187  27.165  29.492  1.00  0.00     0.167 HD
ATOM     46  C   UNL A   1      43.202  28.251  33.718  1.00  0.00     0.031 A 
ATOM     47  C   UNL A   1      42.121  25.253  27.545  1.00  0.00     0.031 A 
ATOM     48  C   UNL A   1      44.267  28.867  32.978  1.00  0.00     0.049 A 
ATOM     49  C   UNL A   1      43.363  25.471  28.327  1.00  0.00     0.074 A 
ATOM     50  C   UNL A   1      44.589  30.168  32.648  1.00  0.00     0.029 A 
ATOM     51  N   UNL A   1      44.968  28.070  32.104  1.00  0.00    -0.354 N 
ATOM     52  N   UNL A   1      44.192  26.450  28.108  1.00  0.00    -0.248 NA
ATOM     53  C   UNL A   1      43.456  24.855  29.641  1.00  0.00     0.031 C 
ATOM     54  C   UNL A   1      45.058  30.096  31.302  1.00  0.00     0.029 A 
ATOM     55  C   UNL A   1      45.057  28.752  30.917  1.00  0.00     0.049 A 
ATOM     56  H   UNL A   1      45.337  27.178  32.295  1.00  0.00     0.167 HD
ATOM     57  C   UNL A   1      44.615  26.847  29.367  1.00  0.00     0.074 A 
ATOM     58  C   UNL A   1      44.205  25.769  30.264  1.00  0.00     0.031 C 
ATOM     59  C   UNL A   1      45.004  28.133  29.611  1.00  0.00     0.031 A 
BRANCH  46  60
ATOM     60  C   UNL A   1      43.457  27.268  34.824  1.00  0.00    -0.014 A 
ATOM     61  C   UNL A   1      43.606  27.727  36.145  1.00  0.00     0.009 A 
ATOM     62  C   UNL A   1      43.794  25.923  34.575  1.00  0.00     0.009 A 
ATOM     63  C   UNL A   1      44.081  26.883  37.158  1.00  0.00     0.001 A 
ATOM     64  C   UNL A   1      44.230  25.069  35.591  1.00  0.00     0.001 A 
ATOM     65  C   UNL A   1      44.390  25.554  36.881  1.00  0.00     0.000 A 
ENDBRANCH  46  60
BRANCH  47  66
ATOM     66  C   UNL A   1      41.756  23.918  27.016  1.00  0.00    -0.014 A 
ATOM     67  C   UNL A   1      42.586  23.293  26.070  1.00  0.00     0.009 A 
ATOM     68  C   UNL A   1      40.788  23.125  27.659  1.00  0.00     0.009 A 
ATOM     69  C   UNL A   1      42.507  21.913  25.839  1.00  0.00     0.001 A 
ATOM     70  C   UNL A   1      40.702  21.748  27.421  1.00  0.00     0.001 A 
ATOM     71  C   UNL A   1      41.580  21.139  26.530  1.00  0.00     0.000 A 
ENDBRANCH  47  66
BRANCH  59  72
ATOM     72  C   UNL A   1      45.131  29.069  28.431  1.00  0.00    -0.014 A 
ATOM     73  C   UNL A   1      44.050  29.825  27.940  1.00  0.00     0.009 A 
ATOM     74  C   UNL A   1      46.413  29.346  27.938  1.00  0.00     0.009 A 
ATOM     75  C   UNL A   1      44.250  30.828  26.985  1.00  0.00     0.001 A 
ATOM     76  C   UNL A   1      46.615  30.359  26.997  1.00  0.00     0.001 A 
ATOM     77  C   UNL A   1      45.535  31.102  26.522  1.00  0.00     0.000 A 
ENDBRANCH  59  72
ENDBRANCH  33  34
ENDBRANCH  25  28
ENDBRANCH  23  24
ENDBRANCH   1  23
TORSDOF 12
ENDMDL
MODEL 3
REMARK VINA RESULT:     -11.3      2.909      7.609
REMARK SMILES Cc1cc(-n2nc(C)c(C(=O)NCCCCNC(=O)c3ccc(-c4c5nc(c(-c6ccccc6)c6ccc([nH]6)c(-c6ccccc6)c6nc(c(-c7ccccc7)c7ccc4[nH]7)C=C6)C=C5)cc3)c2Cl)nc(C)n1
REMARK SMILES IDX 15 1 14 2 13 3 12 4 10 5 11 6 9 8 5 9 6 10 68 11 7 12 69 13
REMARK SMILES IDX 8 14 4 15 1 16 2 17 3 18 73 19 71 20 70 21 72 22 16 23 17 24
REMARK SMILES IDX 18 25 19 27 20 28 21 29 67 30 22 31 66 32 23 33 24 34 25 35
REMARK SMILES IDX 60 36 26 37 65 38 59 39 61 40 27 41 64 42 58 43 57 44 28 46
REMARK SMILES IDX 50 47 35 48 49 49 36 50 39 51 48 52 62 53 37 54 38 55 47 57
REMARK SMILES IDX 63 58 40 59 29 60 30 61 34 62 31 63 33 64 32 65 51 66 52 67
REMARK SMILES IDX 56 68 53 69 55 70 54 71 41 72 42 73 46 74 43 75 45 76 44 77
REMARK H PARENT 12 7 17 26 61 45 39 56
REMARK Flexibility Score: inf
ROOT
ATOM      1  C   UNL A   1      32.543  29.937  26.683  1.00  0.00     0.023 C 
ENDROOT
BRANCH   1   2
ATOM      2  C   UNL A   1      32.179  28.560  27.252  1.00  0.00     0.023 C 
BRANCH   2   3
ATOM      3  C   UNL A   1      32.001  27.450  26.206  1.00  0.00     0.116 C 
BRANCH   3   4
ATOM      4  N   UNL A   1      30.835  26.645  26.492  1.00  0.00    -0.352 N 
ATOM      5  C   UNL A   1      30.478  25.343  26.270  1.00  0.00     0.256 C 
ATOM      6  O   UNL A   1      29.354  25.068  26.699  1.00  0.00    -0.269 OA
ATOM      7  H   UNL A   1      30.131  27.154  26.955  1.00  0.00     0.163 HD
BRANCH   5   8
ATOM      8  C   UNL A   1      31.303  24.313  25.636  1.00  0.00     0.100 A 
ATOM      9  N   UNL A   1      32.543  22.550  25.050  1.00  0.00    -0.203 N 
ATOM     10  N   UNL A   1      32.346  23.184  23.878  1.00  0.00    -0.170 NA
ATOM     11  C   UNL A   1      32.122  23.311  26.116  1.00  0.00     0.147 A 
ATOM     12  C   UNL A   1      31.518  24.192  24.204  1.00  0.00     0.074 A 
ATOM     13  Cl  UNL A   1      32.834  22.931  27.625  1.00  0.00    -0.061 Cl
ATOM     14  C   UNL A   1      31.009  25.038  23.083  1.00  0.00     0.070 C 
BRANCH   9  15
ATOM     15  C   UNL A   1      33.206  21.299  25.138  1.00  0.00     0.159 A 
ATOM     16  C   UNL A   1      32.546  17.831  23.962  1.00  0.00     0.067 C 
ATOM     17  C   UNL A   1      33.209  19.059  24.509  1.00  0.00     0.043 A 
ATOM     18  C   UNL A   1      32.467  20.169  24.856  1.00  0.00     0.072 A 
ATOM     19  N   UNL A   1      34.560  19.035  24.571  1.00  0.00    -0.238 NA
ATOM     20  C   UNL A   1      35.185  20.171  24.922  1.00  0.00     0.128 A 
ATOM     21  N   UNL A   1      34.561  21.330  25.165  1.00  0.00    -0.214 NA
ATOM     22  C   UNL A   1      36.681  20.180  24.960  1.00  0.00     0.090 C 
ENDBRANCH   9  15
ENDBRANCH   5   8
ENDBRANCH   3   4
ENDBRANCH   2   3
ENDBRANCH   1   2
BRANCH   1  23
ATOM     23  C   UNL A   1      33.947  30.403  27.049  1.00  0.00     0.116 C 
BRANCH  23  24
ATOM     24  N   UNL A   1      33.951  31.676  27.764  1.00  0.00    -0.352 N 
ATOM     25  C   UNL A   1      34.713  32.025  28.859  1.00  0.00     0.251 C 
ATOM     26  H   UNL A   1      33.337  32.366  27.424  1.00  0.00     0.163 HD
ATOM     27  O   UNL A   1      34.395  32.949  29.593  1.00  0.00    -0.269 OA
BRANCH  25  28
ATOM     28  C   UNL A   1      35.950  31.272  29.107  1.00  0.00     0.039 A 
ATOM     29  C   UNL A   1      35.932  29.883  29.256  1.00  0.00     0.014 A 
ATOM     30  C   UNL A   1      37.138  31.998  29.189  1.00  0.00     0.014 A 
ATOM     31  C   UNL A   1      37.137  29.216  29.443  1.00  0.00     0.010 A 
ATOM     32  C   UNL A   1      38.334  31.333  29.258  1.00  0.00     0.010 A 
ATOM     33  C   UNL A   1      38.329  29.952  29.443  1.00  0.00    -0.014 A 
BRANCH  33  34
ATOM     34  C   UNL A   1      39.612  29.296  29.618  1.00  0.00     0.031 A 
ATOM     35  C   UNL A   1      39.940  28.856  31.002  1.00  0.00     0.074 A 
ATOM     36  C   UNL A   1      40.329  28.892  28.550  1.00  0.00     0.049 A 
ATOM     37  N   UNL A   1      40.936  29.221  31.739  1.00  0.00    -0.248 NA
ATOM     38  C   UNL A   1      38.997  27.950  31.679  1.00  0.00     0.031 C 
ATOM     39  C   UNL A   1      39.958  28.930  27.129  1.00  0.00     0.029 A 
ATOM     40  N   UNL A   1      41.510  28.230  28.534  1.00  0.00    -0.354 N 
ATOM     41  C   UNL A   1      40.830  28.499  32.926  1.00  0.00     0.074 A 
ATOM     42  C   UNL A   1      39.555  27.829  32.884  1.00  0.00     0.031 C 
ATOM     43  C   UNL A   1      40.780  28.114  26.429  1.00  0.00     0.029 A 
ATOM     44  C   UNL A   1      41.826  27.641  27.317  1.00  0.00     0.049 A 
ATOM     45  H   UNL A   1      42.098  28.172  29.321  1.00  0.00     0.167 HD
ATOM     46  C   UNL A   1      41.872  28.355  33.792  1.00  0.00     0.031 A 
ATOM     47  C   UNL A   1      42.849  26.780  27.097  1.00  0.00     0.031 A 
ATOM     48  C   UNL A   1      42.947  29.262  33.501  1.00  0.00     0.049 A 
ATOM     49  C   UNL A   1      43.810  26.969  28.212  1.00  0.00     0.074 A 
ATOM     50  C   UNL A   1      43.088  30.635  33.529  1.00  0.00     0.029 A 
ATOM     51  N   UNL A   1      43.970  28.792  32.711  1.00  0.00    -0.354 N 
ATOM     52  N   UNL A   1      44.469  28.072  28.419  1.00  0.00    -0.248 NA
ATOM     53  C   UNL A   1      43.706  26.078  29.356  1.00  0.00     0.031 C 
ATOM     54  C   UNL A   1      43.865  30.944  32.372  1.00  0.00     0.029 A 
ATOM     55  C   UNL A   1      44.205  29.741  31.748  1.00  0.00     0.049 A 
ATOM     56  H   UNL A   1      44.443  27.936  32.817  1.00  0.00     0.167 HD
ATOM     57  C   UNL A   1      44.503  28.213  29.798  1.00  0.00     0.074 A 
ATOM     58  C   UNL A   1      44.103  26.910  30.323  1.00  0.00     0.031 C 
ATOM     59  C   UNL A   1      44.577  29.445  30.382  1.00  0.00     0.031 A 
BRANCH  46  60
ATOM     60  C   UNL A   1      42.041  27.181  34.714  1.00  0.00    -0.014 A 
ATOM     61  C   UNL A   1      41.743  27.320  36.080  1.00  0.00     0.009 A 
ATOM     62  C   UNL A   1      42.711  26.006  34.323  1.00  0.00     0.009 A 
ATOM     63  C   UNL A   1      42.112  26.335  37.007  1.00  0.00     0.001 A 
ATOM     64  C   UNL A   1      43.045  25.005  35.239  1.00  0.00     0.001 A 
ATOM     65  C   UNL A   1      42.760  25.177  36.585  1.00  0.00     0.000 A 
ENDBRANCH  46  60
BRANCH  47  66
ATOM     66  C   UNL A   1      42.875  25.571  26.240  1.00  0.00    -0.014 A 
ATOM     67  C   UNL A   1      43.937  25.378  25.341  1.00  0.00     0.009 A 
ATOM     68  C   UNL A   1      42.050  24.468  26.523  1.00  0.00     0.009 A 
ATOM     69  C   UNL A   1      44.213  24.110  24.810  1.00  0.00     0.001 A 
ATOM     70  C   UNL A   1      42.319  23.204  25.985  1.00  0.00     0.001 A 
ATOM     71  C   UNL A   1      43.417  23.021  25.150  1.00  0.00     0.000 A 
ENDBRANCH  47  66
BRANCH  59  72
ATOM     72  C   UNL A   1      44.799  30.641  29.485  1.00  0.00    -0.014 A 
ATOM     73  C   UNL A   1      46.079  31.160  29.212  1.00  0.00     0.009 A 
ATOM     74  C   UNL A   1      43.714  31.122  28.740  1.00  0.00     0.009 A 
ATOM     75  C   UNL A   1      46.263  32.132  28.221  1.00  0.00     0.001 A 
ATOM     76  C   UNL A   1      43.901  32.080  27.740  1.00  0.00     0.001 A 
ATOM     77  C   UNL A   1      45.175  32.583  27.479  1.00  0.00     0.000 A 
ENDBRANCH  59  72
ENDBRANCH  33  34
ENDBRANCH  25  28
ENDBRANCH  23  24
ENDBRANCH   1  23
TORSDOF 12
ENDMDL
