MODEL 1
REMARK VINA RESULT:     -10.5      0.000      0.000
REMARK SMILES CN1N=C(CC(=O)NCCCCNC(=O)c2ccc(-c3c4nc(c(-c5ccccc5)c5ccc([nH]5)c(-c5ccccc5)c5nc(c(-c6ccccc6)c6ccc3[nH]6)C=C5)C=C4)cc2)CC1=O
REMARK SMILES IDX 11 1 10 2 9 3 8 4 6 5 7 6 5 8 4 9 1 10 2 11 3 12 65 13 64 14
REMARK SMILES IDX 66 15 12 16 13 17 14 18 15 20 16 21 17 22 63 23 18 24 62 25
REMARK SMILES IDX 19 26 20 27 21 28 56 29 22 30 61 31 55 32 57 33 23 34 60 35
REMARK SMILES IDX 54 36 53 37 24 39 46 40 31 41 45 42 32 43 35 44 44 45 58 46
REMARK SMILES IDX 33 47 34 48 43 50 59 51 36 52 25 53 26 54 30 55 27 56 29 57
REMARK SMILES IDX 28 58 47 59 48 60 52 61 49 62 51 63 50 64 37 65 38 66 42 67
REMARK SMILES IDX 39 68 41 69 40 70
REMARK H PARENT 8 7 13 19 57 38 35 49
REMARK Flexibility Score: inf
ROOT
ATOM      1  C   UNL A   1      37.324  20.526  24.936  1.00  0.00     0.023 C 
ENDROOT
BRANCH   1   2
ATOM      2  C   UNL A   1      36.039  21.075  25.561  1.00  0.00     0.023 C 
BRANCH   2   3
ATOM      3  C   UNL A   1      34.959  21.449  24.548  1.00  0.00     0.116 C 
BRANCH   3   4
ATOM      4  N   UNL A   1      33.636  21.412  25.136  1.00  0.00    -0.356 N 
ATOM      5  C   UNL A   1      32.580  20.607  24.822  1.00  0.00     0.225 C 
ATOM      6  O   UNL A   1      31.525  20.754  25.439  1.00  0.00    -0.275 OA
ATOM      7  H   UNL A   1      33.476  22.057  25.862  1.00  0.00     0.163 HD
BRANCH   5   8
ATOM      8  C   UNL A   1      32.755  19.506  23.807  1.00  0.00     0.153 C 
BRANCH   8   9
ATOM      9  C   UNL A   1      33.057  18.162  24.374  1.00  0.00     0.057 C 
ATOM     10  C   UNL A   1      32.188  15.169  25.980  1.00  0.00     0.177 C 
ATOM     11  N   UNL A   1      32.872  16.264  25.341  1.00  0.00    -0.237 N 
ATOM     12  N   UNL A   1      32.184  17.387  24.942  1.00  0.00    -0.179 NA
ATOM     13  C   UNL A   1      34.229  16.282  25.037  1.00  0.00     0.248 C 
ATOM     14  C   UNL A   1      34.450  17.599  24.363  1.00  0.00     0.156 C 
ATOM     15  O   UNL A   1      35.075  15.427  25.244  1.00  0.00    -0.273 OA
ENDBRANCH   8   9
ENDBRANCH   5   8
ENDBRANCH   3   4
ENDBRANCH   2   3
ENDBRANCH   1   2
BRANCH   1  16
ATOM     16  C   UNL A   1      38.605  20.880  25.683  1.00  0.00     0.116 C 
BRANCH  16  17
ATOM     17  N   UNL A   1      39.588  19.806  25.667  1.00  0.00    -0.352 N 
ATOM     18  C   UNL A   1      40.916  19.851  26.012  1.00  0.00     0.251 C 
ATOM     19  H   UNL A   1      39.254  18.929  25.370  1.00  0.00     0.163 HD
ATOM     20  O   UNL A   1      41.639  18.880  25.814  1.00  0.00    -0.269 OA
BRANCH  18  21
ATOM     21  C   UNL A   1      41.478  21.089  26.591  1.00  0.00     0.039 A 
ATOM     22  C   UNL A   1      42.001  22.057  25.730  1.00  0.00     0.014 A 
ATOM     23  C   UNL A   1      41.466  21.304  27.972  1.00  0.00     0.014 A 
ATOM     24  C   UNL A   1      42.450  23.271  26.251  1.00  0.00     0.010 A 
ATOM     25  C   UNL A   1      41.837  22.545  28.479  1.00  0.00     0.010 A 
ATOM     26  C   UNL A   1      42.335  23.540  27.626  1.00  0.00    -0.014 A 
BRANCH  26  27
ATOM     27  C   UNL A   1      42.722  24.862  28.183  1.00  0.00     0.031 A 
ATOM     28  C   UNL A   1      41.684  25.929  28.398  1.00  0.00     0.074 A 
ATOM     29  C   UNL A   1      44.018  25.119  28.446  1.00  0.00     0.049 A 
ATOM     30  N   UNL A   1      41.838  27.152  28.842  1.00  0.00    -0.248 NA
ATOM     31  C   UNL A   1      40.297  25.587  28.050  1.00  0.00     0.031 C 
ATOM     32  C   UNL A   1      45.128  24.185  28.245  1.00  0.00     0.029 A 
ATOM     33  N   UNL A   1      44.623  26.249  28.938  1.00  0.00    -0.354 N 
ATOM     34  C   UNL A   1      40.573  27.724  28.813  1.00  0.00     0.074 A 
ATOM     35  C   UNL A   1      39.674  26.739  28.256  1.00  0.00     0.031 C 
ATOM     36  C   UNL A   1      46.270  24.765  28.644  1.00  0.00     0.029 A 
ATOM     37  C   UNL A   1      45.984  26.127  29.084  1.00  0.00     0.049 A 
ATOM     38  H   UNL A   1      44.129  27.069  29.166  1.00  0.00     0.167 HD
ATOM     39  C   UNL A   1      40.188  28.953  29.234  1.00  0.00     0.031 A 
ATOM     40  C   UNL A   1      46.901  27.012  29.517  1.00  0.00     0.031 A 
ATOM     41  C   UNL A   1      41.083  29.935  29.787  1.00  0.00     0.049 A 
ATOM     42  C   UNL A   1      46.452  28.382  29.945  1.00  0.00     0.074 A 
ATOM     43  C   UNL A   1      40.781  31.192  30.285  1.00  0.00     0.029 A 
ATOM     44  N   UNL A   1      42.455  29.776  29.907  1.00  0.00    -0.354 N 
ATOM     45  N   UNL A   1      45.241  28.883  29.979  1.00  0.00    -0.248 NA
ATOM     46  C   UNL A   1      47.499  29.304  30.407  1.00  0.00     0.031 C 
ATOM     47  C   UNL A   1      41.979  31.816  30.648  1.00  0.00     0.029 A 
ATOM     48  C   UNL A   1      43.017  30.922  30.443  1.00  0.00     0.049 A 
ATOM     49  H   UNL A   1      42.954  28.968  29.650  1.00  0.00     0.167 HD
ATOM     50  C   UNL A   1      45.377  30.167  30.494  1.00  0.00     0.074 A 
ATOM     51  C   UNL A   1      46.785  30.358  30.776  1.00  0.00     0.031 C 
ATOM     52  C   UNL A   1      44.420  31.102  30.716  1.00  0.00     0.031 A 
BRANCH  39  53
ATOM     53  C   UNL A   1      38.732  29.305  29.100  1.00  0.00    -0.014 A 
ATOM     54  C   UNL A   1      37.840  29.143  30.174  1.00  0.00     0.009 A 
ATOM     55  C   UNL A   1      38.250  29.842  27.896  1.00  0.00     0.009 A 
ATOM     56  C   UNL A   1      36.490  29.471  30.030  1.00  0.00     0.001 A 
ATOM     57  C   UNL A   1      36.906  30.201  27.766  1.00  0.00     0.001 A 
ATOM     58  C   UNL A   1      36.026  30.005  28.829  1.00  0.00     0.000 A 
ENDBRANCH  39  53
BRANCH  40  59
ATOM     59  C   UNL A   1      48.337  26.631  29.581  1.00  0.00    -0.014 A 
ATOM     60  C   UNL A   1      49.196  26.898  28.504  1.00  0.00     0.009 A 
ATOM     61  C   UNL A   1      48.856  25.987  30.716  1.00  0.00     0.009 A 
ATOM     62  C   UNL A   1      50.533  26.500  28.547  1.00  0.00     0.001 A 
ATOM     63  C   UNL A   1      50.203  25.621  30.771  1.00  0.00     0.001 A 
ATOM     64  C   UNL A   1      51.037  25.866  29.682  1.00  0.00     0.000 A 
ENDBRANCH  40  59
BRANCH  52  65
ATOM     65  C   UNL A   1      44.860  32.403  31.330  1.00  0.00    -0.014 A 
ATOM     66  C   UNL A   1      45.226  33.502  30.537  1.00  0.00     0.009 A 
ATOM     67  C   UNL A   1      44.871  32.540  32.728  1.00  0.00     0.009 A 
ATOM     68  C   UNL A   1      45.634  34.698  31.133  1.00  0.00     0.001 A 
ATOM     69  C   UNL A   1      45.245  33.747  33.319  1.00  0.00     0.001 A 
ATOM     70  C   UNL A   1      45.636  34.821  32.523  1.00  0.00     0.000 A 
ENDBRANCH  52  65
ENDBRANCH  26  27
ENDBRANCH  18  21
ENDBRANCH  16  17
ENDBRANCH   1  16
TORSDOF 12
ENDMDL
MODEL 2
REMARK VINA RESULT:     -10.3      0.416      6.272
REMARK SMILES CN1N=C(CC(=O)NCCCCNC(=O)c2ccc(-c3c4nc(c(-c5ccccc5)c5ccc([nH]5)c(-c5ccccc5)c5nc(c(-c6ccccc6)c6ccc3[nH]6)C=C5)C=C4)cc2)CC1=O
REMARK SMILES IDX 11 1 10 2 9 3 8 4 6 5 7 6 5 8 4 9 1 10 2 11 3 12 65 13 64 14
REMARK SMILES IDX 66 15 12 16 13 17 14 18 15 20 16 21 17 22 63 23 18 24 62 25
REMARK SMILES IDX 19 26 20 27 21 28 56 29 22 30 61 31 55 32 57 33 23 34 60 35
REMARK SMILES IDX 54 36 53 37 24 39 46 40 31 41 45 42 32 43 35 44 44 45 58 46
REMARK SMILES IDX 33 47 34 48 43 50 59 51 36 52 25 53 26 54 30 55 27 56 29 57
REMARK SMILES IDX 28 58 47 59 48 60 52 61 49 62 51 63 50 64 37 65 38 66 42 67
REMARK SMILES IDX 39 68 41 69 40 70
REMARK H PARENT 8 7 13 19 57 38 35 49
REMARK Flexibility Score: inf
ROOT
ATOM      1  C   UNL A   1      37.285  20.739  24.655  1.00  0.00     0.023 C 
ENDROOT
BRANCH   1   2
ATOM      2  C   UNL A   1      35.883  20.685  25.268  1.00  0.00     0.023 C 
BRANCH   2   3
ATOM      3  C   UNL A   1      34.863  21.593  24.584  1.00  0.00     0.116 C 
BRANCH   3   4
ATOM      4  N   UNL A   1      33.545  21.455  25.168  1.00  0.00    -0.356 N 
ATOM      5  C   UNL A   1      32.549  20.580  24.843  1.00  0.00     0.225 C 
ATOM      6  O   UNL A   1      31.486  20.644  25.459  1.00  0.00    -0.275 OA
ATOM      7  H   UNL A   1      33.338  22.079  25.900  1.00  0.00     0.163 HD
BRANCH   5   8
ATOM      8  C   UNL A   1      32.805  19.505  23.816  1.00  0.00     0.153 C 
BRANCH   8   9
ATOM      9  C   UNL A   1      33.094  18.153  24.372  1.00  0.00     0.057 C 
ATOM     10  C   UNL A   1      32.214  15.184  26.016  1.00  0.00     0.177 C 
ATOM     11  N   UNL A   1      32.899  16.261  25.348  1.00  0.00    -0.237 N 
ATOM     12  N   UNL A   1      32.225  17.402  24.977  1.00  0.00    -0.179 NA
ATOM     13  C   UNL A   1      34.243  16.242  24.987  1.00  0.00     0.248 C 
ATOM     14  C   UNL A   1      34.470  17.552  24.302  1.00  0.00     0.156 C 
ATOM     15  O   UNL A   1      35.073  15.365  25.158  1.00  0.00    -0.273 OA
ENDBRANCH   8   9
ENDBRANCH   5   8
ENDBRANCH   3   4
ENDBRANCH   2   3
ENDBRANCH   1   2
BRANCH   1  16
ATOM     16  C   UNL A   1      38.414  20.977  25.651  1.00  0.00     0.116 C 
BRANCH  16  17
ATOM     17  N   UNL A   1      39.411  19.917  25.645  1.00  0.00    -0.352 N 
ATOM     18  C   UNL A   1      40.731  19.976  26.018  1.00  0.00     0.251 C 
ATOM     19  H   UNL A   1      39.096  19.039  25.330  1.00  0.00     0.163 HD
ATOM     20  O   UNL A   1      41.472  19.017  25.825  1.00  0.00    -0.269 OA
BRANCH  18  21
ATOM     21  C   UNL A   1      41.264  21.215  26.622  1.00  0.00     0.039 A 
ATOM     22  C   UNL A   1      41.814  22.188  25.785  1.00  0.00     0.014 A 
ATOM     23  C   UNL A   1      41.198  21.425  28.002  1.00  0.00     0.014 A 
ATOM     24  C   UNL A   1      42.236  23.403  26.327  1.00  0.00     0.010 A 
ATOM     25  C   UNL A   1      41.543  22.666  28.527  1.00  0.00     0.010 A 
ATOM     26  C   UNL A   1      42.067  23.667  27.697  1.00  0.00    -0.014 A 
BRANCH  26  27
ATOM     27  C   UNL A   1      42.425  24.988  28.273  1.00  0.00     0.031 A 
ATOM     28  C   UNL A   1      43.841  25.276  28.692  1.00  0.00     0.074 A 
ATOM     29  C   UNL A   1      41.463  25.912  28.469  1.00  0.00     0.049 A 
ATOM     30  N   UNL A   1      44.335  26.356  29.245  1.00  0.00    -0.248 NA
ATOM     31  C   UNL A   1      44.826  24.204  28.485  1.00  0.00     0.031 C 
ATOM     32  C   UNL A   1      40.046  25.745  28.142  1.00  0.00     0.029 A 
ATOM     33  N   UNL A   1      41.535  27.179  28.993  1.00  0.00    -0.354 N 
ATOM     34  C   UNL A   1      45.680  26.088  29.460  1.00  0.00     0.074 A 
ATOM     35  C   UNL A   1      45.913  24.726  29.034  1.00  0.00     0.031 C 
ATOM     36  C   UNL A   1      39.389  26.877  28.439  1.00  0.00     0.029 A 
ATOM     37  C   UNL A   1      40.326  27.832  29.020  1.00  0.00     0.049 A 
ATOM     38  H   UNL A   1      42.372  27.581  29.319  1.00  0.00     0.167 HD
ATOM     39  C   UNL A   1      46.642  26.908  29.947  1.00  0.00     0.031 A 
ATOM     40  C   UNL A   1      40.006  29.061  29.467  1.00  0.00     0.031 A 
ATOM     41  C   UNL A   1      46.410  28.262  30.373  1.00  0.00     0.049 A 
ATOM     42  C   UNL A   1      41.086  29.939  30.036  1.00  0.00     0.074 A 
ATOM     43  C   UNL A   1      47.328  29.188  30.838  1.00  0.00     0.029 A 
ATOM     44  N   UNL A   1      45.170  28.882  30.394  1.00  0.00    -0.354 N 
ATOM     45  N   UNL A   1      42.368  29.695  30.167  1.00  0.00    -0.248 NA
ATOM     46  C   UNL A   1      40.674  31.268  30.509  1.00  0.00     0.031 C 
ATOM     47  C   UNL A   1      46.634  30.348  31.199  1.00  0.00     0.029 A 
ATOM     48  C   UNL A   1      45.295  30.169  30.892  1.00  0.00     0.049 A 
ATOM     49  H   UNL A   1      44.327  28.470  30.099  1.00  0.00     0.167 HD
ATOM     50  C   UNL A   1      42.919  30.850  30.708  1.00  0.00     0.074 A 
ATOM     51  C   UNL A   1      41.836  31.800  30.862  1.00  0.00     0.031 C 
ATOM     52  C   UNL A   1      44.208  31.103  31.044  1.00  0.00     0.031 A 
BRANCH  39  53
ATOM     53  C   UNL A   1      48.036  26.352  30.055  1.00  0.00    -0.014 A 
ATOM     54  C   UNL A   1      48.488  25.741  31.237  1.00  0.00     0.009 A 
ATOM     55  C   UNL A   1      48.898  26.405  28.949  1.00  0.00     0.009 A 
ATOM     56  C   UNL A   1      49.787  25.235  31.321  1.00  0.00     0.001 A 
ATOM     57  C   UNL A   1      50.185  25.868  29.025  1.00  0.00     0.001 A 
ATOM     58  C   UNL A   1      50.632  25.293  30.214  1.00  0.00     0.000 A 
ENDBRANCH  39  53
BRANCH  40  59
ATOM     59  C   UNL A   1      38.601  29.545  29.386  1.00  0.00    -0.014 A 
ATOM     60  C   UNL A   1      38.154  30.254  28.261  1.00  0.00     0.009 A 
ATOM     61  C   UNL A   1      37.703  29.309  30.439  1.00  0.00     0.009 A 
ATOM     62  C   UNL A   1      36.848  30.747  28.206  1.00  0.00     0.001 A 
ATOM     63  C   UNL A   1      36.387  29.772  30.366  1.00  0.00     0.001 A 
ATOM     64  C   UNL A   1      35.965  30.501  29.256  1.00  0.00     0.000 A 
ENDBRANCH  40  59
BRANCH  52  65
ATOM     65  C   UNL A   1      44.525  32.475  31.574  1.00  0.00    -0.014 A 
ATOM     66  C   UNL A   1      44.892  33.526  30.719  1.00  0.00     0.009 A 
ATOM     67  C   UNL A   1      44.420  32.725  32.952  1.00  0.00     0.009 A 
ATOM     68  C   UNL A   1      45.184  34.789  31.239  1.00  0.00     0.001 A 
ATOM     69  C   UNL A   1      44.679  33.997  33.464  1.00  0.00     0.001 A 
ATOM     70  C   UNL A   1      45.071  35.025  32.609  1.00  0.00     0.000 A 
ENDBRANCH  52  65
ENDBRANCH  26  27
ENDBRANCH  18  21
ENDBRANCH  16  17
ENDBRANCH   1  16
TORSDOF 12
ENDMDL
MODEL 3
REMARK VINA RESULT:     -10.3      5.263     10.838
REMARK SMILES CN1N=C(CC(=O)NCCCCNC(=O)c2ccc(-c3c4nc(c(-c5ccccc5)c5ccc([nH]5)c(-c5ccccc5)c5nc(c(-c6ccccc6)c6ccc3[nH]6)C=C5)C=C4)cc2)CC1=O
REMARK SMILES IDX 11 1 10 2 9 3 8 4 6 5 7 6 5 8 4 9 1 10 2 11 3 12 65 13 64 14
REMARK SMILES IDX 66 15 12 16 13 17 14 18 15 20 16 21 17 22 63 23 18 24 62 25
REMARK SMILES IDX 19 26 20 27 21 28 56 29 22 30 61 31 55 32 57 33 23 34 60 35
REMARK SMILES IDX 54 36 53 37 24 39 46 40 31 41 45 42 32 43 35 44 44 45 58 46
REMARK SMILES IDX 33 47 34 48 43 50 59 51 36 52 25 53 26 54 30 55 27 56 29 57
REMARK SMILES IDX 28 58 47 59 48 60 52 61 49 62 51 63 50 64 37 65 38 66 42 67
REMARK SMILES IDX 39 68 41 69 40 70
REMARK H PARENT 8 7 13 19 57 38 35 49
REMARK Flexibility Score: inf
ROOT
ATOM      1  C   UNL A   1      35.441  34.146  29.032  1.00  0.00     0.023 C 
ENDROOT
BRANCH   1   2
ATOM      2  C   UNL A   1      34.393  35.143  28.529  1.00  0.00     0.023 C 
BRANCH   2   3
ATOM      3  C   UNL A   1      33.182  35.297  29.446  1.00  0.00     0.116 C 
BRANCH   3   4
ATOM      4  N   UNL A   1      33.221  36.543  30.182  1.00  0.00    -0.356 N 
ATOM      5  C   UNL A   1      33.059  36.755  31.521  1.00  0.00     0.225 C 
ATOM      6  O   UNL A   1      33.111  37.910  31.943  1.00  0.00    -0.275 OA
ATOM      7  H   UNL A   1      33.387  37.350  29.643  1.00  0.00     0.163 HD
BRANCH   5   8
ATOM      8  C   UNL A   1      32.918  35.578  32.451  1.00  0.00     0.153 C 
BRANCH   8   9
ATOM      9  C   UNL A   1      34.187  34.864  32.769  1.00  0.00     0.057 C 
ATOM     10  C   UNL A   1      37.679  34.551  32.824  1.00  0.00     0.177 C 
ATOM     11  N   UNL A   1      36.256  34.352  32.934  1.00  0.00    -0.237 N 
ATOM     12  N   UNL A   1      35.375  35.316  32.503  1.00  0.00    -0.179 NA
ATOM     13  C   UNL A   1      35.654  33.233  33.500  1.00  0.00     0.248 C 
ATOM     14  C   UNL A   1      34.186  33.506  33.411  1.00  0.00     0.156 C 
ATOM     15  O   UNL A   1      36.174  32.242  33.986  1.00  0.00    -0.273 OA
ENDBRANCH   8   9
ENDBRANCH   5   8
ENDBRANCH   3   4
ENDBRANCH   2   3
ENDBRANCH   1   2
BRANCH   1  16
ATOM     16  C   UNL A   1      34.875  32.894  29.691  1.00  0.00     0.116 C 
BRANCH  16  17
ATOM     17  N   UNL A   1      34.072  32.087  28.785  1.00  0.00    -0.352 N 
ATOM     18  C   UNL A   1      34.419  30.937  28.120  1.00  0.00     0.251 C 
ATOM     19  H   UNL A   1      33.154  32.410  28.627  1.00  0.00     0.163 HD
ATOM     20  O   UNL A   1      33.662  30.453  27.285  1.00  0.00    -0.269 OA
BRANCH  18  21
ATOM     21  C   UNL A   1      35.728  30.306  28.389  1.00  0.00     0.039 A 
ATOM     22  C   UNL A   1      36.730  30.395  27.420  1.00  0.00     0.014 A 
ATOM     23  C   UNL A   1      35.972  29.653  29.600  1.00  0.00     0.014 A 
ATOM     24  C   UNL A   1      38.000  29.888  27.695  1.00  0.00     0.010 A 
ATOM     25  C   UNL A   1      37.260  29.222  29.903  1.00  0.00     0.010 A 
ATOM     26  C   UNL A   1      38.286  29.332  28.954  1.00  0.00    -0.014 A 
BRANCH  26  27
ATOM     27  C   UNL A   1      39.657  28.871  29.295  1.00  0.00     0.031 A 
ATOM     28  C   UNL A   1      40.586  29.762  30.072  1.00  0.00     0.074 A 
ATOM     29  C   UNL A   1      40.083  27.670  28.857  1.00  0.00     0.049 A 
ATOM     30  N   UNL A   1      41.827  29.546  30.432  1.00  0.00    -0.248 NA
ATOM     31  C   UNL A   1      40.063  31.075  30.480  1.00  0.00     0.031 C 
ATOM     32  C   UNL A   1      39.295  26.727  28.061  1.00  0.00     0.029 A 
ATOM     33  N   UNL A   1      41.290  27.037  29.020  1.00  0.00    -0.354 N 
ATOM     34  C   UNL A   1      42.232  30.697  31.095  1.00  0.00     0.074 A 
ATOM     35  C   UNL A   1      41.129  31.630  31.038  1.00  0.00     0.031 C 
ATOM     36  C   UNL A   1      40.024  25.623  27.836  1.00  0.00     0.029 A 
ATOM     37  C   UNL A   1      41.346  25.797  28.430  1.00  0.00     0.049 A 
ATOM     38  H   UNL A   1      42.044  27.433  29.513  1.00  0.00     0.167 HD
ATOM     39  C   UNL A   1      43.409  30.948  31.717  1.00  0.00     0.031 A 
ATOM     40  C   UNL A   1      42.349  24.902  28.367  1.00  0.00     0.031 A 
ATOM     41  C   UNL A   1      44.509  30.022  31.772  1.00  0.00     0.049 A 
ATOM     42  C   UNL A   1      43.658  25.220  29.035  1.00  0.00     0.074 A 
ATOM     43  C   UNL A   1      45.725  30.166  32.418  1.00  0.00     0.029 A 
ATOM     44  N   UNL A   1      44.528  28.781  31.153  1.00  0.00    -0.354 N 
ATOM     45  N   UNL A   1      44.001  26.285  29.719  1.00  0.00    -0.248 NA
ATOM     46  C   UNL A   1      44.716  24.205  28.931  1.00  0.00     0.031 C 
ATOM     47  C   UNL A   1      46.505  29.039  32.136  1.00  0.00     0.029 A 
ATOM     48  C   UNL A   1      45.747  28.163  31.376  1.00  0.00     0.049 A 
ATOM     49  H   UNL A   1      43.787  28.398  30.633  1.00  0.00     0.167 HD
ATOM     50  C   UNL A   1      45.301  26.054  30.153  1.00  0.00     0.074 A 
ATOM     51  C   UNL A   1      45.677  24.741  29.670  1.00  0.00     0.031 C 
ATOM     52  C   UNL A   1      46.110  26.857  30.887  1.00  0.00     0.031 A 
BRANCH  39  53
ATOM     53  C   UNL A   1      43.570  32.290  32.378  1.00  0.00    -0.014 A 
ATOM     54  C   UNL A   1      43.218  32.487  33.724  1.00  0.00     0.009 A 
ATOM     55  C   UNL A   1      44.114  33.365  31.658  1.00  0.00     0.009 A 
ATOM     56  C   UNL A   1      43.369  33.741  34.321  1.00  0.00     0.001 A 
ATOM     57  C   UNL A   1      44.296  34.608  32.267  1.00  0.00     0.001 A 
ATOM     58  C   UNL A   1      43.914  34.798  33.594  1.00  0.00     0.000 A 
ENDBRANCH  39  53
BRANCH  40  59
ATOM     59  C   UNL A   1      42.157  23.610  27.655  1.00  0.00    -0.014 A 
ATOM     60  C   UNL A   1      41.612  22.502  28.321  1.00  0.00     0.009 A 
ATOM     61  C   UNL A   1      42.529  23.475  26.308  1.00  0.00     0.009 A 
ATOM     62  C   UNL A   1      41.474  21.277  27.664  1.00  0.00     0.001 A 
ATOM     63  C   UNL A   1      42.358  22.258  25.643  1.00  0.00     0.001 A 
ATOM     64  C   UNL A   1      41.842  21.158  26.324  1.00  0.00     0.000 A 
ENDBRANCH  40  59
BRANCH  52  65
ATOM     65  C   UNL A   1      47.469  26.320  31.248  1.00  0.00    -0.014 A 
ATOM     66  C   UNL A   1      47.701  25.675  32.473  1.00  0.00     0.009 A 
ATOM     67  C   UNL A   1      48.524  26.433  30.328  1.00  0.00     0.009 A 
ATOM     68  C   UNL A   1      48.973  25.189  32.784  1.00  0.00     0.001 A 
ATOM     69  C   UNL A   1      49.784  25.916  30.629  1.00  0.00     0.001 A 
ATOM     70  C   UNL A   1      50.011  25.304  31.860  1.00  0.00     0.000 A 
ENDBRANCH  52  65
ENDBRANCH  26  27
ENDBRANCH  18  21
ENDBRANCH  16  17
ENDBRANCH   1  16
TORSDOF 12
ENDMDL
