MODEL 1
REMARK VINA RESULT:     -10.9      0.000      0.000
REMARK SMILES CCc1cc(OC(F)(F)F)cc2c1O[C@@H](C(F)(F)F)C(C(=O)NCCCCNC(=O)c1ccc(-c3c4nc(c(-c5ccccc5)c5ccc([nH]5)c(-c5ccccc5)c5nc(c(-c6ccccc6)c6ccc3[nH]6)C=C5)C=C4)cc1)=C2
REMARK SMILES IDX 25 1 24 2 23 3 21 4 22 5 20 7 3 8 4 9 13 10 5 11 12 12 14 13
REMARK SMILES IDX 11 14 79 15 15 16 2 17 1 18 6 19 7 20 8 21 9 22 10 23 16 24
REMARK SMILES IDX 17 25 18 26 19 27 26 28 27 29 28 30 29 31 30 33 31 34 32 35
REMARK SMILES IDX 78 36 33 37 77 38 34 39 35 40 36 41 71 42 37 43 76 44 70 45
REMARK SMILES IDX 72 46 38 47 75 48 69 49 68 50 39 52 61 53 46 54 60 55 47 56
REMARK SMILES IDX 50 57 59 58 73 59 48 60 49 61 58 63 74 64 51 65 40 66 41 67
REMARK SMILES IDX 45 68 42 69 44 70 43 71 62 72 63 73 67 74 64 75 66 76 65 77
REMARK SMILES IDX 52 78 53 79 57 80 54 81 56 82 55 83
REMARK H PARENT 23 6 28 32 72 51 50 62
REMARK Flexibility Score: inf
ROOT
ATOM      1  C   UNL A   1      33.106  29.375  24.762  1.00  0.00     0.023 C 
ENDROOT
BRANCH   1   2
ATOM      2  C   UNL A   1      33.449  29.197  23.278  1.00  0.00     0.116 C 
BRANCH   2   3
ATOM      3  N   UNL A   1      32.314  28.644  22.560  1.00  0.00    -0.352 N 
ATOM      4  C   UNL A   1      31.817  27.382  22.463  1.00  0.00     0.251 C 
ATOM      5  O   UNL A   1      30.913  27.178  21.658  1.00  0.00    -0.270 OA
ATOM      6  H   UNL A   1      31.806  29.312  22.043  1.00  0.00     0.163 HD
BRANCH   4   7
ATOM      7  C   UNL A   1      32.275  26.264  23.332  1.00  0.00     0.067 C 
ATOM      8  C   UNL A   1      33.371  23.201  26.017  1.00  0.00    -0.002 A 
ATOM      9  C   UNL A   1      34.687  22.695  25.953  1.00  0.00     0.054 A 
ATOM     10  C   UNL A   1      32.988  24.204  25.108  1.00  0.00     0.131 A 
ATOM     11  C   UNL A   1      35.611  23.204  25.039  1.00  0.00     0.130 A 
ATOM     12  C   UNL A   1      33.903  24.701  24.183  1.00  0.00     0.021 A 
ATOM     13  O   UNL A   1      31.720  24.698  25.205  1.00  0.00    -0.475 OA
ATOM     14  C   UNL A   1      35.209  24.203  24.154  1.00  0.00     0.058 A 
ATOM     15  C   UNL A   1      33.524  25.783  23.294  1.00  0.00     0.025 C 
ATOM     16  C   UNL A   1      31.200  25.571  24.161  1.00  0.00     0.314 C 
BRANCH   8  17
ATOM     17  C   UNL A   1      32.361  22.631  26.995  1.00  0.00     0.036 C 
ATOM     18  C   UNL A   1      32.940  22.052  28.280  1.00  0.00     0.009 C 
ENDBRANCH   8  17
BRANCH  11  19
ATOM     19  O   UNL A   1      36.918  22.832  24.901  1.00  0.00    -0.406 OA
BRANCH  19  20
ATOM     20  C   UNL A   1      37.857  23.342  25.831  1.00  0.00     0.573 C 
ATOM     21  F   UNL A   1      37.240  23.898  26.895  1.00  0.00    -0.132 F 
ATOM     22  F   UNL A   1      38.696  22.371  26.250  1.00  0.00    -0.132 F 
ATOM     23  F   UNL A   1      38.591  24.300  25.222  1.00  0.00    -0.132 F 
ENDBRANCH  19  20
ENDBRANCH  11  19
BRANCH  16  24
ATOM     24  C   UNL A   1      30.159  26.502  24.825  1.00  0.00     0.429 C 
ATOM     25  F   UNL A   1      29.572  25.945  25.907  1.00  0.00    -0.167 F 
ATOM     26  F   UNL A   1      30.743  27.644  25.276  1.00  0.00    -0.167 F 
ATOM     27  F   UNL A   1      29.183  26.877  23.966  1.00  0.00    -0.167 F 
ENDBRANCH  16  24
ENDBRANCH   4   7
ENDBRANCH   2   3
ENDBRANCH   1   2
BRANCH   1  28
ATOM     28  C   UNL A   1      34.000  28.580  25.717  1.00  0.00     0.023 C 
BRANCH  28  29
ATOM     29  C   UNL A   1      33.652  28.749  27.189  1.00  0.00     0.116 C 
BRANCH  29  30
ATOM     30  N   UNL A   1      33.625  30.140  27.616  1.00  0.00    -0.352 N 
ATOM     31  C   UNL A   1      34.634  30.857  28.220  1.00  0.00     0.251 C 
ATOM     32  H   UNL A   1      32.785  30.626  27.455  1.00  0.00     0.163 HD
ATOM     33  O   UNL A   1      34.448  31.994  28.616  1.00  0.00    -0.269 OA
BRANCH  31  34
ATOM     34  C   UNL A   1      35.940  30.194  28.421  1.00  0.00     0.039 A 
ATOM     35  C   UNL A   1      36.895  30.267  27.404  1.00  0.00     0.014 A 
ATOM     36  C   UNL A   1      36.230  29.564  29.632  1.00  0.00     0.014 A 
ATOM     37  C   UNL A   1      38.176  29.764  27.630  1.00  0.00     0.010 A 
ATOM     38  C   UNL A   1      37.524  29.120  29.878  1.00  0.00     0.010 A 
ATOM     39  C   UNL A   1      38.509  29.220  28.881  1.00  0.00    -0.014 A 
BRANCH  39  40
ATOM     40  C   UNL A   1      39.874  28.729  29.182  1.00  0.00     0.031 A 
ATOM     41  C   UNL A   1      40.871  29.658  29.813  1.00  0.00     0.074 A 
ATOM     42  C   UNL A   1      40.245  27.493  28.799  1.00  0.00     0.049 A 
ATOM     43  N   UNL A   1      42.152  29.483  30.013  1.00  0.00    -0.248 NA
ATOM     44  C   UNL A   1      40.365  30.970  30.248  1.00  0.00     0.031 C 
ATOM     45  C   UNL A   1      39.379  26.506  28.151  1.00  0.00     0.029 A 
ATOM     46  N   UNL A   1      41.461  26.864  28.881  1.00  0.00    -0.354 N 
ATOM     47  C   UNL A   1      42.610  30.674  30.563  1.00  0.00     0.074 A 
ATOM     48  C   UNL A   1      41.478  31.573  30.634  1.00  0.00     0.031 C 
ATOM     49  C   UNL A   1      40.088  25.391  27.907  1.00  0.00     0.029 A 
ATOM     50  C   UNL A   1      41.465  25.600  28.342  1.00  0.00     0.049 A 
ATOM     51  H   UNL A   1      42.255  27.279  29.289  1.00  0.00     0.167 HD
ATOM     52  C   UNL A   1      43.859  30.987  30.980  1.00  0.00     0.031 A 
ATOM     53  C   UNL A   1      42.471  24.717  28.202  1.00  0.00     0.031 A 
ATOM     54  C   UNL A   1      44.976  30.085  30.933  1.00  0.00     0.049 A 
ATOM     55  C   UNL A   1      43.847  25.084  28.684  1.00  0.00     0.074 A 
ATOM     56  C   UNL A   1      46.270  30.290  31.380  1.00  0.00     0.029 A 
ATOM     57  N   UNL A   1      44.928  28.800  30.415  1.00  0.00    -0.354 N 
ATOM     58  N   UNL A   1      44.257  26.199  29.236  1.00  0.00    -0.248 NA
ATOM     59  C   UNL A   1      44.895  24.066  28.528  1.00  0.00     0.031 C 
ATOM     60  C   UNL A   1      47.014  29.138  31.103  1.00  0.00     0.029 A 
ATOM     61  C   UNL A   1      46.172  28.202  30.522  1.00  0.00     0.049 A 
ATOM     62  H   UNL A   1      44.129  28.376  30.028  1.00  0.00     0.167 HD
ATOM     63  C   UNL A   1      45.601  26.007  29.523  1.00  0.00     0.074 A 
ATOM     64  C   UNL A   1      45.936  24.666  29.089  1.00  0.00     0.031 C 
ATOM     65  C   UNL A   1      46.480  26.863  30.098  1.00  0.00     0.031 A 
BRANCH  52  66
ATOM     66  C   UNL A   1      44.076  32.373  31.516  1.00  0.00    -0.014 A 
ATOM     67  C   UNL A   1      44.442  33.431  30.669  1.00  0.00     0.009 A 
ATOM     68  C   UNL A   1      43.896  32.626  32.884  1.00  0.00     0.009 A 
ATOM     69  C   UNL A   1      44.662  34.707  31.189  1.00  0.00     0.001 A 
ATOM     70  C   UNL A   1      44.091  33.911  33.397  1.00  0.00     0.001 A 
ATOM     71  C   UNL A   1      44.484  34.947  32.551  1.00  0.00     0.000 A 
ENDBRANCH  52  66
BRANCH  53  72
ATOM     72  C   UNL A   1      42.213  23.388  27.591  1.00  0.00    -0.014 A 
ATOM     73  C   UNL A   1      42.543  23.151  26.248  1.00  0.00     0.009 A 
ATOM     74  C   UNL A   1      41.634  22.354  28.342  1.00  0.00     0.009 A 
ATOM     75  C   UNL A   1      42.276  21.913  25.662  1.00  0.00     0.001 A 
ATOM     76  C   UNL A   1      41.390  21.108  27.759  1.00  0.00     0.001 A 
ATOM     77  C   UNL A   1      41.703  20.891  26.418  1.00  0.00     0.000 A 
ENDBRANCH  53  72
BRANCH  65  78
ATOM     78  C   UNL A   1      47.873  26.359  30.337  1.00  0.00    -0.014 A 
ATOM     79  C   UNL A   1      48.248  25.813  31.573  1.00  0.00     0.009 A 
ATOM     80  C   UNL A   1      48.806  26.384  29.289  1.00  0.00     0.009 A 
ATOM     81  C   UNL A   1      49.541  25.322  31.762  1.00  0.00     0.001 A 
ATOM     82  C   UNL A   1      50.091  25.873  29.474  1.00  0.00     0.001 A 
ATOM     83  C   UNL A   1      50.459  25.348  30.711  1.00  0.00     0.000 A 
ENDBRANCH  65  78
ENDBRANCH  39  40
ENDBRANCH  31  34
ENDBRANCH  29  30
ENDBRANCH  28  29
ENDBRANCH   1  28
TORSDOF 15
ENDMDL
MODEL 2
REMARK VINA RESULT:     -10.8      2.326      7.593
REMARK SMILES CCc1cc(OC(F)(F)F)cc2c1O[C@@H](C(F)(F)F)C(C(=O)NCCCCNC(=O)c1ccc(-c3c4nc(c(-c5ccccc5)c5ccc([nH]5)c(-c5ccccc5)c5nc(c(-c6ccccc6)c6ccc3[nH]6)C=C5)C=C4)cc1)=C2
REMARK SMILES IDX 25 1 24 2 23 3 21 4 22 5 20 7 3 8 4 9 13 10 5 11 12 12 14 13
REMARK SMILES IDX 11 14 79 15 15 16 2 17 1 18 6 19 7 20 8 21 9 22 10 23 16 24
REMARK SMILES IDX 17 25 18 26 19 27 26 28 27 29 28 30 29 31 30 33 31 34 32 35
REMARK SMILES IDX 78 36 33 37 77 38 34 39 35 40 36 41 71 42 37 43 76 44 70 45
REMARK SMILES IDX 72 46 38 47 75 48 69 49 68 50 39 52 61 53 46 54 60 55 47 56
REMARK SMILES IDX 50 57 59 58 73 59 48 60 49 61 58 63 74 64 51 65 40 66 41 67
REMARK SMILES IDX 45 68 42 69 44 70 43 71 62 72 63 73 67 74 64 75 66 76 65 77
REMARK SMILES IDX 52 78 53 79 57 80 54 81 56 82 55 83
REMARK H PARENT 23 6 28 32 72 51 50 62
REMARK Flexibility Score: inf
ROOT
ATOM      1  C   UNL A   1      36.976  21.219  24.441  1.00  0.00     0.023 C 
ENDROOT
BRANCH   1   2
ATOM      2  C   UNL A   1      36.512  22.185  25.538  1.00  0.00     0.116 C 
BRANCH   2   3
ATOM      3  N   UNL A   1      35.508  21.554  26.375  1.00  0.00    -0.352 N 
ATOM      4  C   UNL A   1      34.268  21.947  26.773  1.00  0.00     0.251 C 
ATOM      5  O   UNL A   1      33.686  21.263  27.611  1.00  0.00    -0.270 OA
ATOM      6  H   UNL A   1      35.776  20.672  26.723  1.00  0.00     0.163 HD
BRANCH   4   7
ATOM      7  C   UNL A   1      33.567  23.123  26.190  1.00  0.00     0.067 C 
ATOM      8  C   UNL A   1      31.538  26.285  24.273  1.00  0.00    -0.002 A 
ATOM      9  C   UNL A   1      31.884  27.609  24.620  1.00  0.00     0.054 A 
ATOM     10  C   UNL A   1      32.190  25.224  24.926  1.00  0.00     0.131 A 
ATOM     11  C   UNL A   1      32.883  27.871  25.558  1.00  0.00     0.130 A 
ATOM     12  C   UNL A   1      33.175  25.483  25.876  1.00  0.00     0.021 A 
ATOM     13  O   UNL A   1      31.859  23.953  24.557  1.00  0.00    -0.475 OA
ATOM     14  C   UNL A   1      33.520  26.802  26.185  1.00  0.00     0.058 A 
ATOM     15  C   UNL A   1      33.893  24.385  26.496  1.00  0.00     0.025 C 
ATOM     16  C   UNL A   1      32.335  22.822  25.344  1.00  0.00     0.314 C 
BRANCH   8  17
ATOM     17  C   UNL A   1      30.435  26.002  23.271  1.00  0.00     0.036 C 
ATOM     18  C   UNL A   1      29.020  26.326  23.736  1.00  0.00     0.009 C 
ENDBRANCH   8  17
BRANCH  11  19
ATOM     19  O   UNL A   1      33.338  29.097  25.951  1.00  0.00    -0.406 OA
BRANCH  19  20
ATOM     20  C   UNL A   1      32.500  29.884  26.778  1.00  0.00     0.573 C 
ATOM     21  F   UNL A   1      31.730  29.111  27.572  1.00  0.00    -0.132 F 
ATOM     22  F   UNL A   1      33.228  30.731  27.537  1.00  0.00    -0.132 F 
ATOM     23  F   UNL A   1      31.684  30.620  25.990  1.00  0.00    -0.132 F 
ENDBRANCH  19  20
ENDBRANCH  11  19
BRANCH  16  24
ATOM     24  C   UNL A   1      32.458  21.620  24.380  1.00  0.00     0.429 C 
ATOM     25  F   UNL A   1      31.672  21.739  23.288  1.00  0.00    -0.167 F 
ATOM     26  F   UNL A   1      33.727  21.504  23.905  1.00  0.00    -0.167 F 
ATOM     27  F   UNL A   1      32.161  20.445  24.984  1.00  0.00    -0.167 F 
ENDBRANCH  16  24
ENDBRANCH   4   7
ENDBRANCH   2   3
ENDBRANCH   1   2
BRANCH   1  28
ATOM     28  C   UNL A   1      37.813  20.042  24.947  1.00  0.00     0.023 C 
BRANCH  28  29
ATOM     29  C   UNL A   1      39.057  20.445  25.725  1.00  0.00     0.116 C 
BRANCH  29  30
ATOM     30  N   UNL A   1      40.072  19.403  25.766  1.00  0.00    -0.352 N 
ATOM     31  C   UNL A   1      41.394  19.526  26.130  1.00  0.00     0.251 C 
ATOM     32  H   UNL A   1      39.778  18.502  25.500  1.00  0.00     0.163 HD
ATOM     33  O   UNL A   1      42.165  18.588  26.027  1.00  0.00    -0.269 OA
BRANCH  31  34
ATOM     34  C   UNL A   1      41.869  20.842  26.604  1.00  0.00     0.039 A 
ATOM     35  C   UNL A   1      42.333  21.768  25.667  1.00  0.00     0.014 A 
ATOM     36  C   UNL A   1      41.794  21.172  27.959  1.00  0.00     0.014 A 
ATOM     37  C   UNL A   1      42.657  23.061  26.082  1.00  0.00     0.010 A 
ATOM     38  C   UNL A   1      42.057  22.476  28.359  1.00  0.00     0.010 A 
ATOM     39  C   UNL A   1      42.487  23.432  27.425  1.00  0.00    -0.014 A 
BRANCH  39  40
ATOM     40  C   UNL A   1      42.763  24.810  27.895  1.00  0.00     0.031 A 
ATOM     41  C   UNL A   1      44.158  25.185  28.306  1.00  0.00     0.074 A 
ATOM     42  C   UNL A   1      41.751  25.684  28.047  1.00  0.00     0.049 A 
ATOM     43  N   UNL A   1      44.582  26.277  28.890  1.00  0.00    -0.248 NA
ATOM     44  C   UNL A   1      45.210  24.186  28.055  1.00  0.00     0.031 C 
ATOM     45  C   UNL A   1      40.348  25.432  27.712  1.00  0.00     0.029 A 
ATOM     46  N   UNL A   1      41.748  26.962  28.547  1.00  0.00    -0.354 N 
ATOM     47  C   UNL A   1      45.939  26.080  29.107  1.00  0.00     0.074 A 
ATOM     48  C   UNL A   1      46.261  24.755  28.624  1.00  0.00     0.031 C 
ATOM     49  C   UNL A   1      39.623  26.524  28.003  1.00  0.00     0.029 A 
ATOM     50  C   UNL A   1      40.500  27.536  28.583  1.00  0.00     0.049 A 
ATOM     51  H   UNL A   1      42.563  27.424  28.851  1.00  0.00     0.167 HD
ATOM     52  C   UNL A   1      46.840  26.931  29.653  1.00  0.00     0.031 A 
ATOM     53  C   UNL A   1      40.108  28.737  29.046  1.00  0.00     0.031 A 
ATOM     54  C   UNL A   1      46.526  28.256  30.109  1.00  0.00     0.049 A 
ATOM     55  C   UNL A   1      41.129  29.669  29.636  1.00  0.00     0.074 A 
ATOM     56  C   UNL A   1      47.378  29.216  30.628  1.00  0.00     0.029 A 
ATOM     57  N   UNL A   1      45.256  28.813  30.091  1.00  0.00    -0.354 N 
ATOM     58  N   UNL A   1      42.416  29.485  29.800  1.00  0.00    -0.248 NA
ATOM     59  C   UNL A   1      40.642  30.977  30.097  1.00  0.00     0.031 C 
ATOM     60  C   UNL A   1      46.617  30.344  30.954  1.00  0.00     0.029 A 
ATOM     61  C   UNL A   1      45.300  30.101  30.598  1.00  0.00     0.049 A 
ATOM     62  H   UNL A   1      44.445  28.361  29.766  1.00  0.00     0.167 HD
ATOM     63  C   UNL A   1      42.898  30.663  30.354  1.00  0.00     0.074 A 
ATOM     64  C   UNL A   1      41.767  31.557  30.492  1.00  0.00     0.031 C 
ATOM     65  C   UNL A   1      44.166  30.978  30.713  1.00  0.00     0.031 A 
BRANCH  52  66
ATOM     66  C   UNL A   1      48.253  26.439  29.789  1.00  0.00    -0.014 A 
ATOM     67  C   UNL A   1      49.199  26.659  28.776  1.00  0.00     0.009 A 
ATOM     68  C   UNL A   1      48.645  25.761  30.953  1.00  0.00     0.009 A 
ATOM     69  C   UNL A   1      50.501  26.174  28.910  1.00  0.00     0.001 A 
ATOM     70  C   UNL A   1      49.956  25.301  31.095  1.00  0.00     0.001 A 
ATOM     71  C   UNL A   1      50.879  25.498  30.070  1.00  0.00     0.000 A 
ENDBRANCH  52  66
BRANCH  53  72
ATOM     72  C   UNL A   1      38.681  29.139  28.956  1.00  0.00    -0.014 A 
ATOM     73  C   UNL A   1      37.836  29.000  30.067  1.00  0.00     0.009 A 
ATOM     74  C   UNL A   1      38.155  29.656  27.762  1.00  0.00     0.009 A 
ATOM     75  C   UNL A   1      36.487  29.348  29.978  1.00  0.00     0.001 A 
ATOM     76  C   UNL A   1      36.811  30.026  27.683  1.00  0.00     0.001 A 
ATOM     77  C   UNL A   1      35.976  29.865  28.788  1.00  0.00     0.000 A 
ENDBRANCH  53  72
BRANCH  65  78
ATOM     78  C   UNL A   1      44.407  32.362  31.242  1.00  0.00    -0.014 A 
ATOM     79  C   UNL A   1      44.358  32.636  32.616  1.00  0.00     0.009 A 
ATOM     80  C   UNL A   1      44.742  33.393  30.350  1.00  0.00     0.009 A 
ATOM     81  C   UNL A   1      44.615  33.925  33.086  1.00  0.00     0.001 A 
ATOM     82  C   UNL A   1      45.021  34.675  30.824  1.00  0.00     0.001 A 
ATOM     83  C   UNL A   1      44.952  34.941  32.191  1.00  0.00     0.000 A 
ENDBRANCH  65  78
ENDBRANCH  39  40
ENDBRANCH  31  34
ENDBRANCH  29  30
ENDBRANCH  28  29
ENDBRANCH   1  28
TORSDOF 15
ENDMDL
MODEL 3
REMARK VINA RESULT:     -10.8      2.255      7.414
REMARK SMILES CCc1cc(OC(F)(F)F)cc2c1O[C@@H](C(F)(F)F)C(C(=O)NCCCCNC(=O)c1ccc(-c3c4nc(c(-c5ccccc5)c5ccc([nH]5)c(-c5ccccc5)c5nc(c(-c6ccccc6)c6ccc3[nH]6)C=C5)C=C4)cc1)=C2
REMARK SMILES IDX 25 1 24 2 23 3 21 4 22 5 20 7 3 8 4 9 13 10 5 11 12 12 14 13
REMARK SMILES IDX 11 14 79 15 15 16 2 17 1 18 6 19 7 20 8 21 9 22 10 23 16 24
REMARK SMILES IDX 17 25 18 26 19 27 26 28 27 29 28 30 29 31 30 33 31 34 32 35
REMARK SMILES IDX 78 36 33 37 77 38 34 39 35 40 36 41 71 42 37 43 76 44 70 45
REMARK SMILES IDX 72 46 38 47 75 48 69 49 68 50 39 52 61 53 46 54 60 55 47 56
REMARK SMILES IDX 50 57 59 58 73 59 48 60 49 61 58 63 74 64 51 65 40 66 41 67
REMARK SMILES IDX 45 68 42 69 44 70 43 71 62 72 63 73 67 74 64 75 66 76 65 77
REMARK SMILES IDX 52 78 53 79 57 80 54 81 56 82 55 83
REMARK H PARENT 23 6 28 32 72 51 50 62
REMARK Flexibility Score: inf
ROOT
ATOM      1  C   UNL A   1      36.988  22.083  24.127  1.00  0.00     0.023 C 
ENDROOT
BRANCH   1   2
ATOM      2  C   UNL A   1      36.371  23.146  25.045  1.00  0.00     0.116 C 
BRANCH   2   3
ATOM      3  N   UNL A   1      35.462  22.528  25.994  1.00  0.00    -0.352 N 
ATOM      4  C   UNL A   1      34.257  22.914  26.492  1.00  0.00     0.251 C 
ATOM      5  O   UNL A   1      33.770  22.251  27.404  1.00  0.00    -0.270 OA
ATOM      6  H   UNL A   1      35.778  21.664  26.344  1.00  0.00     0.163 HD
BRANCH   4   7
ATOM      7  C   UNL A   1      33.483  24.059  25.940  1.00  0.00     0.067 C 
ATOM      8  C   UNL A   1      31.239  27.126  24.111  1.00  0.00    -0.002 A 
ATOM      9  C   UNL A   1      31.545  28.465  24.438  1.00  0.00     0.054 A 
ATOM     10  C   UNL A   1      31.963  26.096  24.736  1.00  0.00     0.131 A 
ATOM     11  C   UNL A   1      32.575  28.772  25.329  1.00  0.00     0.130 A 
ATOM     12  C   UNL A   1      32.979  26.398  25.638  1.00  0.00     0.021 A 
ATOM     13  O   UNL A   1      31.669  24.810  24.385  1.00  0.00    -0.475 OA
ATOM     14  C   UNL A   1      33.283  27.732  25.929  1.00  0.00     0.058 A 
ATOM     15  C   UNL A   1      33.769  25.334  26.228  1.00  0.00     0.025 C 
ATOM     16  C   UNL A   1      32.227  23.704  25.152  1.00  0.00     0.314 C 
BRANCH   8  17
ATOM     17  C   UNL A   1      30.104  26.794  23.160  1.00  0.00     0.036 C 
ATOM     18  C   UNL A   1      28.737  26.601  23.806  1.00  0.00     0.009 C 
ENDBRANCH   8  17
BRANCH  11  19
ATOM     19  O   UNL A   1      32.996  30.017  25.698  1.00  0.00    -0.406 OA
BRANCH  19  20
ATOM     20  C   UNL A   1      32.346  30.643  26.790  1.00  0.00     0.573 C 
ATOM     21  F   UNL A   1      33.234  31.049  27.722  1.00  0.00    -0.132 F 
ATOM     22  F   UNL A   1      31.611  31.697  26.374  1.00  0.00    -0.132 F 
ATOM     23  F   UNL A   1      31.512  29.748  27.366  1.00  0.00    -0.132 F 
ENDBRANCH  19  20
ENDBRANCH  11  19
BRANCH  16  24
ATOM     24  C   UNL A   1      32.355  22.503  24.186  1.00  0.00     0.429 C 
ATOM     25  F   UNL A   1      31.397  22.490  23.234  1.00  0.00    -0.167 F 
ATOM     26  F   UNL A   1      33.536  22.543  23.514  1.00  0.00    -0.167 F 
ATOM     27  F   UNL A   1      32.317  21.315  24.835  1.00  0.00    -0.167 F 
ENDBRANCH  16  24
ENDBRANCH   4   7
ENDBRANCH   2   3
ENDBRANCH   1   2
BRANCH   1  28
ATOM     28  C   UNL A   1      37.461  20.820  24.851  1.00  0.00     0.023 C 
BRANCH  28  29
ATOM     29  C   UNL A   1      38.711  21.012  25.697  1.00  0.00     0.116 C 
BRANCH  29  30
ATOM     30  N   UNL A   1      39.635  19.890  25.620  1.00  0.00    -0.352 N 
ATOM     31  C   UNL A   1      40.965  19.866  25.976  1.00  0.00     0.251 C 
ATOM     32  H   UNL A   1      39.265  19.048  25.271  1.00  0.00     0.163 HD
ATOM     33  O   UNL A   1      41.653  18.882  25.771  1.00  0.00    -0.269 OA
BRANCH  31  34
ATOM     34  C   UNL A   1      41.552  21.084  26.572  1.00  0.00     0.039 A 
ATOM     35  C   UNL A   1      42.061  22.070  25.724  1.00  0.00     0.014 A 
ATOM     36  C   UNL A   1      41.536  21.269  27.956  1.00  0.00     0.014 A 
ATOM     37  C   UNL A   1      42.494  23.282  26.264  1.00  0.00     0.010 A 
ATOM     38  C   UNL A   1      41.909  22.499  28.485  1.00  0.00     0.010 A 
ATOM     39  C   UNL A   1      42.388  23.517  27.644  1.00  0.00    -0.014 A 
BRANCH  39  40
ATOM     40  C   UNL A   1      42.781  24.811  28.249  1.00  0.00     0.031 A 
ATOM     41  C   UNL A   1      41.737  25.866  28.480  1.00  0.00     0.074 A 
ATOM     42  C   UNL A   1      44.079  25.072  28.494  1.00  0.00     0.049 A 
ATOM     43  N   UNL A   1      41.891  27.112  28.847  1.00  0.00    -0.248 NA
ATOM     44  C   UNL A   1      40.340  25.475  28.235  1.00  0.00     0.031 C 
ATOM     45  C   UNL A   1      45.190  24.142  28.286  1.00  0.00     0.029 A 
ATOM     46  N   UNL A   1      44.683  26.214  28.954  1.00  0.00    -0.354 N 
ATOM     47  C   UNL A   1      40.615  27.662  28.841  1.00  0.00     0.074 A 
ATOM     48  C   UNL A   1      39.706  26.624  28.405  1.00  0.00     0.031 C 
ATOM     49  C   UNL A   1      46.339  24.746  28.629  1.00  0.00     0.029 A 
ATOM     50  C   UNL A   1      46.050  26.116  29.041  1.00  0.00     0.049 A 
ATOM     51  H   UNL A   1      44.184  27.027  29.200  1.00  0.00     0.167 HD
ATOM     52  C   UNL A   1      40.233  28.916  29.180  1.00  0.00     0.031 A 
ATOM     53  C   UNL A   1      46.968  27.034  29.399  1.00  0.00     0.031 A 
ATOM     54  C   UNL A   1      41.132  29.938  29.639  1.00  0.00     0.049 A 
ATOM     55  C   UNL A   1      46.518  28.416  29.782  1.00  0.00     0.074 A 
ATOM     56  C   UNL A   1      40.837  31.224  30.056  1.00  0.00     0.029 A 
ATOM     57  N   UNL A   1      42.505  29.784  29.749  1.00  0.00    -0.354 N 
ATOM     58  N   UNL A   1      45.305  28.910  29.809  1.00  0.00    -0.248 NA
ATOM     59  C   UNL A   1      47.566  29.362  30.190  1.00  0.00     0.031 C 
ATOM     60  C   UNL A   1      42.037  31.860  30.390  1.00  0.00     0.029 A 
ATOM     61  C   UNL A   1      43.073  30.956  30.220  1.00  0.00     0.049 A 
ATOM     62  H   UNL A   1      43.003  28.965  29.526  1.00  0.00     0.167 HD
ATOM     63  C   UNL A   1      45.438  30.214  30.266  1.00  0.00     0.074 A 
ATOM     64  C   UNL A   1      46.849  30.432  30.510  1.00  0.00     0.031 C 
ATOM     65  C   UNL A   1      44.477  31.147  30.469  1.00  0.00     0.031 A 
BRANCH  52  66
ATOM     66  C   UNL A   1      38.773  29.246  29.054  1.00  0.00    -0.014 A 
ATOM     67  C   UNL A   1      38.232  29.695  27.840  1.00  0.00     0.009 A 
ATOM     68  C   UNL A   1      37.927  29.090  30.162  1.00  0.00     0.009 A 
ATOM     69  C   UNL A   1      36.877  30.019  27.748  1.00  0.00     0.001 A 
ATOM     70  C   UNL A   1      36.567  29.391  30.060  1.00  0.00     0.001 A 
ATOM     71  C   UNL A   1      36.045  29.864  28.857  1.00  0.00     0.000 A 
ENDBRANCH  52  66
BRANCH  53  72
ATOM     72  C   UNL A   1      48.408  26.672  29.429  1.00  0.00    -0.014 A 
ATOM     73  C   UNL A   1      49.210  26.866  28.294  1.00  0.00     0.009 A 
ATOM     74  C   UNL A   1      48.987  26.128  30.586  1.00  0.00     0.009 A 
ATOM     75  C   UNL A   1      50.557  26.501  28.308  1.00  0.00     0.001 A 
ATOM     76  C   UNL A   1      50.341  25.785  30.604  1.00  0.00     0.001 A 
ATOM     77  C   UNL A   1      51.123  25.965  29.464  1.00  0.00     0.000 A 
ENDBRANCH  53  72
BRANCH  65  78
ATOM     78  C   UNL A   1      44.912  32.470  31.028  1.00  0.00    -0.014 A 
ATOM     79  C   UNL A   1      45.248  33.541  30.188  1.00  0.00     0.009 A 
ATOM     80  C   UNL A   1      44.930  32.660  32.419  1.00  0.00     0.009 A 
ATOM     81  C   UNL A   1      45.620  34.772  30.732  1.00  0.00     0.001 A 
ATOM     82  C   UNL A   1      45.280  33.897  32.959  1.00  0.00     0.001 A 
ATOM     83  C   UNL A   1      45.630  34.950  32.115  1.00  0.00     0.000 A 
ENDBRANCH  65  78
ENDBRANCH  39  40
ENDBRANCH  31  34
ENDBRANCH  29  30
ENDBRANCH  28  29
ENDBRANCH   1  28
TORSDOF 15
ENDMDL
