MODEL 1
REMARK VINA RESULT:      -8.3      0.000      0.000
REMARK SMILES CCCCCCCCNC(=O)Oc1cccc(-c2ccc([C@@H](C)C(=O)NCCCCNC(=O)c3ccc(-c4c5nc(c(-c6ccccc6)c6ccc([nH]6)c(-c6ccccc6)c6nc(c(-c7ccccc7)c7ccc4[nH]7)C=C6)C=C5)cc3)cc2F)c1
REMARK SMILES IDX 18 1 19 2 20 3 21 4 82 5 83 6 84 7 17 8 13 9 14 10 85 11
REMARK SMILES IDX 15 12 16 13 12 14 10 15 9 16 11 18 8 19 7 20 6 21 5 22 4 23
REMARK SMILES IDX 3 24 2 25 1 26 22 27 23 28 24 29 25 30 26 31 27 33 28 34
REMARK SMILES IDX 29 35 30 36 31 37 32 38 33 40 34 41 35 42 81 43 36 44 80 45
REMARK SMILES IDX 37 46 38 47 39 48 74 49 40 50 79 51 73 52 75 53 41 54 78 55
REMARK SMILES IDX 72 56 71 57 42 59 64 60 49 61 63 62 50 63 53 64 62 65 76 66
REMARK SMILES IDX 51 67 52 68 61 70 77 71 54 72 43 73 44 74 48 75 45 76 47 77
REMARK SMILES IDX 46 78 65 79 66 80 70 81 67 82 69 83 68 84 55 85 56 86 60 87
REMARK SMILES IDX 57 88 59 89 58 90
REMARK H PARENT 9 17 26 32 31 39 75 58 53 69
REMARK Flexibility Score: inf
ROOT
ATOM      1  C   UNL A   1      39.323  29.275  29.437  1.00  0.00     0.018 A 
ATOM      2  C   UNL A   1      39.488  29.141  28.049  1.00  0.00     0.012 A 
ATOM      3  C   UNL A   1      40.008  27.974  27.474  1.00  0.00     0.005 A 
ATOM      4  C   UNL A   1      40.465  26.921  28.270  1.00  0.00    -0.033 A 
ATOM      5  C   UNL A   1      40.271  27.025  29.654  1.00  0.00     0.044 A 
ATOM      6  C   UNL A   1      39.693  28.168  30.216  1.00  0.00     0.131 A 
ATOM      7  F   UNL A   1      39.503  28.171  31.545  1.00  0.00    -0.206 F 
ENDROOT
BRANCH   1   8
ATOM      8  C   UNL A   1      38.819  30.541  30.020  1.00  0.00    -0.012 A 
ATOM      9  C   UNL A   1      37.242  31.766  31.413  1.00  0.00     0.133 A 
ATOM     10  C   UNL A   1      37.911  32.962  31.190  1.00  0.00     0.047 A 
ATOM     11  C   UNL A   1      37.678  30.569  30.839  1.00  0.00     0.056 A 
ATOM     12  C   UNL A   1      39.043  32.961  30.385  1.00  0.00     0.004 A 
ATOM     13  C   UNL A   1      39.483  31.767  29.802  1.00  0.00     0.009 A 
BRANCH   9  14
ATOM     14  O   UNL A   1      36.036  31.833  32.121  1.00  0.00    -0.410 OA
BRANCH  14  15
ATOM     15  C   UNL A   1      36.074  32.279  33.432  1.00  0.00     0.412 C 
ATOM     16  N   UNL A   1      35.065  33.160  33.717  1.00  0.00    -0.321 N 
ATOM     17  H   UNL A   1      35.050  33.538  34.625  1.00  0.00     0.167 HD
ATOM     18  O   UNL A   1      36.901  31.968  34.280  1.00  0.00    -0.224 OA
BRANCH  16  19
ATOM     19  C   UNL A   1      34.019  33.589  32.811  1.00  0.00     0.119 C 
BRANCH  19  20
ATOM     20  C   UNL A   1      34.368  34.907  32.121  1.00  0.00     0.021 C 
BRANCH  20  21
ATOM     21  C   UNL A   1      33.883  35.020  30.671  1.00  0.00     0.002 C 
BRANCH  21  22
ATOM     22  C   UNL A   1      34.271  33.848  29.761  1.00  0.00     0.000 C 
BRANCH  22  23
ATOM     23  C   UNL A   1      35.550  34.061  28.945  1.00  0.00    -0.000 C 
BRANCH  23  24
ATOM     24  C   UNL A   1      35.873  32.945  27.945  1.00  0.00    -0.000 C 
BRANCH  24  25
ATOM     25  C   UNL A   1      35.238  31.587  28.255  1.00  0.00    -0.003 C 
ATOM     26  C   UNL A   1      35.985  30.416  27.634  1.00  0.00     0.004 C 
ENDBRANCH  24  25
ENDBRANCH  23  24
ENDBRANCH  22  23
ENDBRANCH  21  22
ENDBRANCH  20  21
ENDBRANCH  19  20
ENDBRANCH  16  19
ENDBRANCH  14  15
ENDBRANCH   9  14
ENDBRANCH   1   8
BRANCH   4  27
ATOM     27  C   UNL A   1      41.192  25.710  27.707  1.00  0.00     0.105 C 
ATOM     28  C   UNL A   1      42.288  25.117  28.590  1.00  0.00     0.023 C 
BRANCH  27  29
ATOM     29  C   UNL A   1      40.249  24.659  27.096  1.00  0.00     0.227 C 
ATOM     30  O   UNL A   1      39.041  24.904  26.990  1.00  0.00    -0.274 OA
ATOM     31  N   UNL A   1      40.660  23.446  26.636  1.00  0.00    -0.356 N 
ATOM     32  H   UNL A   1      39.950  22.914  26.210  1.00  0.00     0.163 HD
BRANCH  31  33
ATOM     33  C   UNL A   1      41.955  22.799  26.661  1.00  0.00     0.116 C 
BRANCH  33  34
ATOM     34  C   UNL A   1      42.645  22.841  25.296  1.00  0.00     0.023 C 
BRANCH  34  35
ATOM     35  C   UNL A   1      43.344  24.158  24.967  1.00  0.00     0.023 C 
BRANCH  35  36
ATOM     36  C   UNL A   1      44.666  24.389  25.690  1.00  0.00     0.116 C 
BRANCH  36  37
ATOM     37  N   UNL A   1      45.694  25.015  24.869  1.00  0.00    -0.352 N 
ATOM     38  C   UNL A   1      46.173  26.303  24.949  1.00  0.00     0.251 C 
ATOM     39  H   UNL A   1      46.094  24.447  24.172  1.00  0.00     0.163 HD
ATOM     40  O   UNL A   1      46.995  26.719  24.140  1.00  0.00    -0.269 OA
BRANCH  38  41
ATOM     41  C   UNL A   1      45.641  27.196  25.998  1.00  0.00     0.039 A 
ATOM     42  C   UNL A   1      44.303  27.591  25.934  1.00  0.00     0.014 A 
ATOM     43  C   UNL A   1      46.441  27.571  27.080  1.00  0.00     0.014 A 
ATOM     44  C   UNL A   1      43.744  28.296  27.002  1.00  0.00     0.010 A 
ATOM     45  C   UNL A   1      45.863  28.200  28.174  1.00  0.00     0.010 A 
ATOM     46  C   UNL A   1      44.508  28.566  28.149  1.00  0.00    -0.014 A 
BRANCH  46  47
ATOM     47  C   UNL A   1      43.912  29.225  29.337  1.00  0.00     0.031 A 
ATOM     48  C   UNL A   1      43.632  30.703  29.315  1.00  0.00     0.074 A 
ATOM     49  C   UNL A   1      43.696  28.513  30.460  1.00  0.00     0.049 A 
ATOM     50  N   UNL A   1      43.182  31.472  30.273  1.00  0.00    -0.248 NA
ATOM     51  C   UNL A   1      43.923  31.414  28.059  1.00  0.00     0.031 C 
ATOM     52  C   UNL A   1      43.973  27.085  30.629  1.00  0.00     0.029 A 
ATOM     53  N   UNL A   1      43.199  28.899  31.680  1.00  0.00    -0.354 N 
ATOM     54  C   UNL A   1      43.159  32.755  29.743  1.00  0.00     0.074 A 
ATOM     55  C   UNL A   1      43.689  32.671  28.401  1.00  0.00     0.031 C 
ATOM     56  C   UNL A   1      43.614  26.710  31.867  1.00  0.00     0.029 A 
ATOM     57  C   UNL A   1      43.120  27.876  32.592  1.00  0.00     0.049 A 
ATOM     58  H   UNL A   1      42.925  29.823  31.881  1.00  0.00     0.167 HD
ATOM     59  C   UNL A   1      42.716  33.900  30.315  1.00  0.00     0.031 A 
ATOM     60  C   UNL A   1      42.697  27.876  33.870  1.00  0.00     0.031 A 
ATOM     61  C   UNL A   1      42.171  33.982  31.643  1.00  0.00     0.049 A 
ATOM     62  C   UNL A   1      42.208  29.160  34.481  1.00  0.00     0.074 A 
ATOM     63  C   UNL A   1      41.638  35.083  32.289  1.00  0.00     0.029 A 
ATOM     64  N   UNL A   1      42.090  32.918  32.527  1.00  0.00    -0.354 N 
ATOM     65  N   UNL A   1      42.126  30.352  33.943  1.00  0.00    -0.248 NA
ATOM     66  C   UNL A   1      41.742  29.093  35.874  1.00  0.00     0.031 C 
ATOM     67  C   UNL A   1      41.274  34.695  33.582  1.00  0.00     0.029 A 
ATOM     68  C   UNL A   1      41.533  33.340  33.722  1.00  0.00     0.049 A 
ATOM     69  H   UNL A   1      42.385  31.999  32.334  1.00  0.00     0.167 HD
ATOM     70  C   UNL A   1      41.574  31.171  34.920  1.00  0.00     0.074 A 
ATOM     71  C   UNL A   1      41.327  30.336  36.078  1.00  0.00     0.031 C 
ATOM     72  C   UNL A   1      41.294  32.496  34.863  1.00  0.00     0.031 A 
BRANCH  59  73
ATOM     73  C   UNL A   1      42.807  35.159  29.498  1.00  0.00    -0.014 A 
ATOM     74  C   UNL A   1      43.935  35.993  29.573  1.00  0.00     0.009 A 
ATOM     75  C   UNL A   1      41.765  35.503  28.625  1.00  0.00     0.009 A 
ATOM     76  C   UNL A   1      43.997  37.168  28.820  1.00  0.00     0.001 A 
ATOM     77  C   UNL A   1      41.843  36.663  27.852  1.00  0.00     0.001 A 
ATOM     78  C   UNL A   1      42.953  37.500  27.958  1.00  0.00     0.000 A 
ENDBRANCH  59  73
BRANCH  60  79
ATOM     79  C   UNL A   1      42.694  26.614  34.656  1.00  0.00    -0.014 A 
ATOM     80  C   UNL A   1      43.903  26.043  35.085  1.00  0.00     0.009 A 
ATOM     81  C   UNL A   1      41.489  25.971  34.976  1.00  0.00     0.009 A 
ATOM     82  C   UNL A   1      43.905  24.840  35.794  1.00  0.00     0.001 A 
ATOM     83  C   UNL A   1      41.493  24.782  35.708  1.00  0.00     0.001 A 
ATOM     84  C   UNL A   1      42.702  24.212  36.108  1.00  0.00     0.000 A 
ENDBRANCH  60  79
BRANCH  72  85
ATOM     85  C   UNL A   1      40.658  33.116  36.073  1.00  0.00    -0.014 A 
ATOM     86  C   UNL A   1      39.263  33.181  36.212  1.00  0.00     0.009 A 
ATOM     87  C   UNL A   1      41.470  33.604  37.110  1.00  0.00     0.009 A 
ATOM     88  C   UNL A   1      38.695  33.751  37.353  1.00  0.00     0.001 A 
ATOM     89  C   UNL A   1      40.899  34.148  38.260  1.00  0.00     0.001 A 
ATOM     90  C   UNL A   1      39.512  34.229  38.376  1.00  0.00     0.000 A 
ENDBRANCH  72  85
ENDBRANCH  46  47
ENDBRANCH  38  41
ENDBRANCH  36  37
ENDBRANCH  35  36
ENDBRANCH  34  35
ENDBRANCH  33  34
ENDBRANCH  31  33
ENDBRANCH  27  29
ENDBRANCH   4  27
TORSDOF 22
ENDMDL
MODEL 2
REMARK VINA RESULT:      -8.3      2.095     10.965
REMARK SMILES CCCCCCCCNC(=O)Oc1cccc(-c2ccc([C@@H](C)C(=O)NCCCCNC(=O)c3ccc(-c4c5nc(c(-c6ccccc6)c6ccc([nH]6)c(-c6ccccc6)c6nc(c(-c7ccccc7)c7ccc4[nH]7)C=C6)C=C5)cc3)cc2F)c1
REMARK SMILES IDX 18 1 19 2 20 3 21 4 82 5 83 6 84 7 17 8 13 9 14 10 85 11
REMARK SMILES IDX 15 12 16 13 12 14 10 15 9 16 11 18 8 19 7 20 6 21 5 22 4 23
REMARK SMILES IDX 3 24 2 25 1 26 22 27 23 28 24 29 25 30 26 31 27 33 28 34
REMARK SMILES IDX 29 35 30 36 31 37 32 38 33 40 34 41 35 42 81 43 36 44 80 45
REMARK SMILES IDX 37 46 38 47 39 48 74 49 40 50 79 51 73 52 75 53 41 54 78 55
REMARK SMILES IDX 72 56 71 57 42 59 64 60 49 61 63 62 50 63 53 64 62 65 76 66
REMARK SMILES IDX 51 67 52 68 61 70 77 71 54 72 43 73 44 74 48 75 45 76 47 77
REMARK SMILES IDX 46 78 65 79 66 80 70 81 67 82 69 83 68 84 55 85 56 86 60 87
REMARK SMILES IDX 57 88 59 89 58 90
REMARK H PARENT 9 17 26 32 31 39 75 58 53 69
REMARK Flexibility Score: inf
ROOT
ATOM      1  C   UNL A   1      38.881  28.993  28.367  1.00  0.00     0.018 A 
ATOM      2  C   UNL A   1      37.678  29.517  27.864  1.00  0.00     0.012 A 
ATOM      3  C   UNL A   1      37.133  30.714  28.344  1.00  0.00     0.005 A 
ATOM      4  C   UNL A   1      37.724  31.399  29.408  1.00  0.00    -0.033 A 
ATOM      5  C   UNL A   1      38.944  30.909  29.894  1.00  0.00     0.044 A 
ATOM      6  C   UNL A   1      39.515  29.747  29.367  1.00  0.00     0.131 A 
ATOM      7  F   UNL A   1      40.705  29.368  29.858  1.00  0.00    -0.206 F 
ENDROOT
BRANCH   1   8
ATOM      8  C   UNL A   1      39.406  27.697  27.875  1.00  0.00    -0.012 A 
ATOM      9  C   UNL A   1      40.857  26.406  26.409  1.00  0.00     0.133 A 
ATOM     10  C   UNL A   1      40.459  25.212  26.997  1.00  0.00     0.047 A 
ATOM     11  C   UNL A   1      40.343  27.634  26.831  1.00  0.00     0.056 A 
ATOM     12  C   UNL A   1      39.535  25.248  28.034  1.00  0.00     0.004 A 
ATOM     13  C   UNL A   1      39.010  26.474  28.458  1.00  0.00     0.009 A 
BRANCH   9  14
ATOM     14  O   UNL A   1      41.689  26.315  25.286  1.00  0.00    -0.410 OA
BRANCH  14  15
ATOM     15  C   UNL A   1      42.667  27.282  25.119  1.00  0.00     0.412 C 
ATOM     16  N   UNL A   1      43.851  26.939  25.713  1.00  0.00    -0.321 N 
ATOM     17  H   UNL A   1      44.582  27.595  25.656  1.00  0.00     0.167 HD
ATOM     18  O   UNL A   1      42.538  28.348  24.530  1.00  0.00    -0.224 OA
BRANCH  16  19
ATOM     19  C   UNL A   1      44.134  25.704  26.417  1.00  0.00     0.119 C 
BRANCH  19  20
ATOM     20  C   UNL A   1      44.953  24.737  25.564  1.00  0.00     0.021 C 
BRANCH  20  21
ATOM     21  C   UNL A   1      44.127  23.855  24.621  1.00  0.00     0.002 C 
BRANCH  21  22
ATOM     22  C   UNL A   1      43.030  23.026  25.299  1.00  0.00     0.000 C 
BRANCH  22  23
ATOM     23  C   UNL A   1      43.524  22.072  26.392  1.00  0.00    -0.000 C 
BRANCH  23  24
ATOM     24  C   UNL A   1      42.458  21.641  27.405  1.00  0.00    -0.000 C 
BRANCH  24  25
ATOM     25  C   UNL A   1      42.241  22.604  28.576  1.00  0.00    -0.003 C 
ATOM     26  C   UNL A   1      43.536  23.051  29.238  1.00  0.00     0.004 C 
ENDBRANCH  24  25
ENDBRANCH  23  24
ENDBRANCH  22  23
ENDBRANCH  21  22
ENDBRANCH  20  21
ENDBRANCH  19  20
ENDBRANCH  16  19
ENDBRANCH  14  15
ENDBRANCH   9  14
ENDBRANCH   1   8
BRANCH   4  27
ATOM     27  C   UNL A   1      37.084  32.604  30.078  1.00  0.00     0.105 C 
ATOM     28  C   UNL A   1      36.576  33.699  29.142  1.00  0.00     0.023 C 
BRANCH  27  29
ATOM     29  C   UNL A   1      36.091  32.229  31.193  1.00  0.00     0.227 C 
ATOM     30  O   UNL A   1      35.669  31.069  31.276  1.00  0.00    -0.274 OA
ATOM     31  N   UNL A   1      35.639  33.103  32.133  1.00  0.00    -0.356 N 
ATOM     32  H   UNL A   1      35.065  32.696  32.820  1.00  0.00     0.163 HD
BRANCH  31  33
ATOM     33  C   UNL A   1      35.855  34.525  32.304  1.00  0.00     0.116 C 
BRANCH  33  34
ATOM     34  C   UNL A   1      36.568  34.845  33.619  1.00  0.00     0.023 C 
BRANCH  34  35
ATOM     35  C   UNL A   1      36.414  33.789  34.710  1.00  0.00     0.023 C 
BRANCH  35  36
ATOM     36  C   UNL A   1      37.511  33.783  35.768  1.00  0.00     0.116 C 
BRANCH  36  37
ATOM     37  N   UNL A   1      37.490  32.620  36.644  1.00  0.00    -0.352 N 
ATOM     38  C   UNL A   1      38.220  31.459  36.529  1.00  0.00     0.251 C 
ATOM     39  H   UNL A   1      36.877  32.671  37.413  1.00  0.00     0.163 HD
ATOM     40  O   UNL A   1      38.047  30.527  37.306  1.00  0.00    -0.269 OA
BRANCH  38  41
ATOM     41  C   UNL A   1      39.185  31.335  35.418  1.00  0.00     0.039 A 
ATOM     42  C   UNL A   1      40.517  31.691  35.637  1.00  0.00     0.014 A 
ATOM     43  C   UNL A   1      38.788  30.792  34.194  1.00  0.00     0.014 A 
ATOM     44  C   UNL A   1      41.470  31.424  34.653  1.00  0.00     0.010 A 
ATOM     45  C   UNL A   1      39.749  30.454  33.250  1.00  0.00     0.010 A 
ATOM     46  C   UNL A   1      41.100  30.762  33.471  1.00  0.00    -0.014 A 
BRANCH  46  47
ATOM     47  C   UNL A   1      42.108  30.377  32.452  1.00  0.00     0.031 A 
ATOM     48  C   UNL A   1      42.787  29.038  32.535  1.00  0.00     0.074 A 
ATOM     49  C   UNL A   1      42.469  31.260  31.501  1.00  0.00     0.049 A 
ATOM     50  N   UNL A   1      43.742  28.549  31.786  1.00  0.00    -0.248 NA
ATOM     51  C   UNL A   1      42.357  28.143  33.622  1.00  0.00     0.031 C 
ATOM     52  C   UNL A   1      41.924  32.611  31.342  1.00  0.00     0.029 A 
ATOM     53  N   UNL A   1      43.391  31.155  30.489  1.00  0.00    -0.354 N 
ATOM     54  C   UNL A   1      44.039  27.304  32.325  1.00  0.00     0.074 A 
ATOM     55  C   UNL A   1      43.204  27.134  33.492  1.00  0.00     0.031 C 
ATOM     56  C   UNL A   1      42.499  33.194  30.278  1.00  0.00     0.029 A 
ATOM     57  C   UNL A   1      43.479  32.279  29.704  1.00  0.00     0.049 A 
ATOM     58  H   UNL A   1      43.937  30.349  30.340  1.00  0.00     0.167 HD
ATOM     59  C   UNL A   1      44.914  26.373  31.875  1.00  0.00     0.031 A 
ATOM     60  C   UNL A   1      44.263  32.542  28.642  1.00  0.00     0.031 A 
ATOM     61  C   UNL A   1      45.732  26.533  30.703  1.00  0.00     0.049 A 
ATOM     62  C   UNL A   1      45.225  31.492  28.161  1.00  0.00     0.074 A 
ATOM     63  C   UNL A   1      46.603  25.623  30.130  1.00  0.00     0.029 A 
ATOM     64  N   UNL A   1      45.777  27.678  29.925  1.00  0.00    -0.354 N 
ATOM     65  N   UNL A   1      45.443  30.291  28.638  1.00  0.00    -0.248 NA
ATOM     66  C   UNL A   1      46.040  31.832  26.986  1.00  0.00     0.031 C 
ATOM     67  C   UNL A   1      47.209  26.236  29.028  1.00  0.00     0.029 A 
ATOM     68  C   UNL A   1      46.676  27.507  28.886  1.00  0.00     0.049 A 
ATOM     69  H   UNL A   1      45.247  28.493  30.086  1.00  0.00     0.167 HD
ATOM     70  C   UNL A   1      46.399  29.721  27.807  1.00  0.00     0.074 A 
ATOM     71  C   UNL A   1      46.706  30.703  26.786  1.00  0.00     0.031 C 
ATOM     72  C   UNL A   1      46.969  28.494  27.880  1.00  0.00     0.031 A 
BRANCH  59  73
ATOM     73  C   UNL A   1      45.029  25.098  32.662  1.00  0.00    -0.014 A 
ATOM     74  C   UNL A   1      46.013  24.942  33.653  1.00  0.00     0.009 A 
ATOM     75  C   UNL A   1      44.130  24.047  32.427  1.00  0.00     0.009 A 
ATOM     76  C   UNL A   1      46.118  23.745  34.364  1.00  0.00     0.001 A 
ATOM     77  C   UNL A   1      44.219  22.862  33.159  1.00  0.00     0.001 A 
ATOM     78  C   UNL A   1      45.219  22.708  34.119  1.00  0.00     0.000 A 
ENDBRANCH  59  73
BRANCH  60  79
ATOM     79  C   UNL A   1      44.158  33.850  27.942  1.00  0.00    -0.014 A 
ATOM     80  C   UNL A   1      44.861  34.968  28.419  1.00  0.00     0.009 A 
ATOM     81  C   UNL A   1      43.351  33.991  26.803  1.00  0.00     0.009 A 
ATOM     82  C   UNL A   1      44.736  36.205  27.785  1.00  0.00     0.001 A 
ATOM     83  C   UNL A   1      43.250  35.224  26.155  1.00  0.00     0.001 A 
ATOM     84  C   UNL A   1      43.935  36.332  26.651  1.00  0.00     0.000 A 
ENDBRANCH  60  79
BRANCH  72  85
ATOM     85  C   UNL A   1      47.957  28.131  26.809  1.00  0.00    -0.014 A 
ATOM     86  C   UNL A   1      49.334  28.342  26.985  1.00  0.00     0.009 A 
ATOM     87  C   UNL A   1      47.506  27.531  25.623  1.00  0.00     0.009 A 
ATOM     88  C   UNL A   1      50.235  27.985  25.981  1.00  0.00     0.001 A 
ATOM     89  C   UNL A   1      48.412  27.151  24.633  1.00  0.00     0.001 A 
ATOM     90  C   UNL A   1      49.774  27.386  24.810  1.00  0.00     0.000 A 
ENDBRANCH  72  85
ENDBRANCH  46  47
ENDBRANCH  38  41
ENDBRANCH  36  37
ENDBRANCH  35  36
ENDBRANCH  34  35
ENDBRANCH  33  34
ENDBRANCH  31  33
ENDBRANCH  27  29
ENDBRANCH   4  27
TORSDOF 22
ENDMDL
MODEL 3
REMARK VINA RESULT:      -8.0      2.310      9.295
REMARK SMILES CCCCCCCCNC(=O)Oc1cccc(-c2ccc([C@@H](C)C(=O)NCCCCNC(=O)c3ccc(-c4c5nc(c(-c6ccccc6)c6ccc([nH]6)c(-c6ccccc6)c6nc(c(-c7ccccc7)c7ccc4[nH]7)C=C6)C=C5)cc3)cc2F)c1
REMARK SMILES IDX 18 1 19 2 20 3 21 4 82 5 83 6 84 7 17 8 13 9 14 10 85 11
REMARK SMILES IDX 15 12 16 13 12 14 10 15 9 16 11 18 8 19 7 20 6 21 5 22 4 23
REMARK SMILES IDX 3 24 2 25 1 26 22 27 23 28 24 29 25 30 26 31 27 33 28 34
REMARK SMILES IDX 29 35 30 36 31 37 32 38 33 40 34 41 35 42 81 43 36 44 80 45
REMARK SMILES IDX 37 46 38 47 39 48 74 49 40 50 79 51 73 52 75 53 41 54 78 55
REMARK SMILES IDX 72 56 71 57 42 59 64 60 49 61 63 62 50 63 53 64 62 65 76 66
REMARK SMILES IDX 51 67 52 68 61 70 77 71 54 72 43 73 44 74 48 75 45 76 47 77
REMARK SMILES IDX 46 78 65 79 66 80 70 81 67 82 69 83 68 84 55 85 56 86 60 87
REMARK SMILES IDX 57 88 59 89 58 90
REMARK H PARENT 9 17 26 32 31 39 75 58 53 69
REMARK Flexibility Score: inf
ROOT
ATOM      1  C   UNL A   1      40.312  26.709  28.768  1.00  0.00     0.018 A 
ATOM      2  C   UNL A   1      39.536  26.919  29.920  1.00  0.00     0.012 A 
ATOM      3  C   UNL A   1      38.564  27.926  29.985  1.00  0.00     0.005 A 
ATOM      4  C   UNL A   1      38.383  28.822  28.929  1.00  0.00    -0.033 A 
ATOM      5  C   UNL A   1      39.123  28.600  27.760  1.00  0.00     0.044 A 
ATOM      6  C   UNL A   1      40.047  27.554  27.679  1.00  0.00     0.131 A 
ATOM      7  F   UNL A   1      40.683  27.383  26.510  1.00  0.00    -0.206 F 
ENDROOT
BRANCH   1   8
ATOM      8  C   UNL A   1      41.368  25.669  28.746  1.00  0.00    -0.012 A 
ATOM      9  C   UNL A   1      42.192  23.483  28.064  1.00  0.00     0.133 A 
ATOM     10  C   UNL A   1      43.428  23.720  28.649  1.00  0.00     0.047 A 
ATOM     11  C   UNL A   1      41.169  24.434  28.108  1.00  0.00     0.056 A 
ATOM     12  C   UNL A   1      43.651  24.934  29.284  1.00  0.00     0.004 A 
ATOM     13  C   UNL A   1      42.630  25.890  29.339  1.00  0.00     0.009 A 
BRANCH   9  14
ATOM     14  O   UNL A   1      41.966  22.200  27.549  1.00  0.00    -0.410 OA
BRANCH  14  15
ATOM     15  C   UNL A   1      41.321  22.092  26.328  1.00  0.00     0.412 C 
ATOM     16  N   UNL A   1      42.192  22.068  25.273  1.00  0.00    -0.321 N 
ATOM     17  H   UNL A   1      41.798  22.020  24.373  1.00  0.00     0.167 HD
ATOM     18  O   UNL A   1      40.110  22.035  26.151  1.00  0.00    -0.224 OA
BRANCH  16  19
ATOM     19  C   UNL A   1      43.639  22.107  25.353  1.00  0.00     0.119 C 
BRANCH  19  20
ATOM     20  C   UNL A   1      44.235  23.129  24.386  1.00  0.00     0.021 C 
BRANCH  20  21
ATOM     21  C   UNL A   1      44.742  24.416  25.046  1.00  0.00     0.002 C 
BRANCH  21  22
ATOM     22  C   UNL A   1      43.763  25.595  25.010  1.00  0.00     0.000 C 
BRANCH  22  23
ATOM     23  C   UNL A   1      43.952  26.625  26.129  1.00  0.00    -0.000 C 
BRANCH  23  24
ATOM     24  C   UNL A   1      45.302  27.351  26.120  1.00  0.00    -0.000 C 
BRANCH  24  25
ATOM     25  C   UNL A   1      45.833  27.725  24.734  1.00  0.00    -0.003 C 
ATOM     26  C   UNL A   1      47.340  27.562  24.600  1.00  0.00     0.004 C 
ENDBRANCH  24  25
ENDBRANCH  23  24
ENDBRANCH  22  23
ENDBRANCH  21  22
ENDBRANCH  20  21
ENDBRANCH  19  20
ENDBRANCH  16  19
ENDBRANCH  14  15
ENDBRANCH   9  14
ENDBRANCH   1   8
BRANCH   4  27
ATOM     27  C   UNL A   1      37.468  30.032  29.015  1.00  0.00     0.105 C 
ATOM     28  C   UNL A   1      36.295  29.917  29.987  1.00  0.00     0.023 C 
BRANCH  27  29
ATOM     29  C   UNL A   1      38.226  31.368  29.111  1.00  0.00     0.227 C 
ATOM     30  O   UNL A   1      39.422  31.375  29.429  1.00  0.00    -0.274 OA
ATOM     31  N   UNL A   1      37.665  32.580  28.850  1.00  0.00    -0.356 N 
ATOM     32  H   UNL A   1      38.297  33.334  28.886  1.00  0.00     0.163 HD
BRANCH  31  33
ATOM     33  C   UNL A   1      36.305  32.959  28.527  1.00  0.00     0.116 C 
BRANCH  33  34
ATOM     34  C   UNL A   1      35.704  33.894  29.578  1.00  0.00     0.023 C 
BRANCH  34  35
ATOM     35  C   UNL A   1      35.635  33.319  30.990  1.00  0.00     0.023 C 
BRANCH  35  36
ATOM     36  C   UNL A   1      36.748  33.769  31.929  1.00  0.00     0.116 C 
BRANCH  36  37
ATOM     37  N   UNL A   1      36.420  33.652  33.343  1.00  0.00    -0.352 N 
ATOM     38  C   UNL A   1      37.079  32.923  34.307  1.00  0.00     0.251 C 
ATOM     39  H   UNL A   1      35.630  34.155  33.646  1.00  0.00     0.163 HD
ATOM     40  O   UNL A   1      36.646  32.858  35.453  1.00  0.00    -0.269 OA
BRANCH  38  41
ATOM     41  C   UNL A   1      38.294  32.175  33.926  1.00  0.00     0.039 A 
ATOM     42  C   UNL A   1      38.171  31.072  33.080  1.00  0.00     0.014 A 
ATOM     43  C   UNL A   1      39.554  32.615  34.341  1.00  0.00     0.014 A 
ATOM     44  C   UNL A   1      39.321  30.459  32.579  1.00  0.00     0.010 A 
ATOM     45  C   UNL A   1      40.694  32.055  33.779  1.00  0.00     0.010 A 
ATOM     46  C   UNL A   1      40.590  30.975  32.890  1.00  0.00    -0.014 A 
BRANCH  46  47
ATOM     47  C   UNL A   1      41.823  30.404  32.294  1.00  0.00     0.031 A 
ATOM     48  C   UNL A   1      42.499  31.107  31.150  1.00  0.00     0.074 A 
ATOM     49  C   UNL A   1      42.289  29.217  32.728  1.00  0.00     0.049 A 
ATOM     50  N   UNL A   1      43.540  30.733  30.450  1.00  0.00    -0.248 NA
ATOM     51  C   UNL A   1      41.910  32.384  30.715  1.00  0.00     0.031 C 
ATOM     52  C   UNL A   1      41.696  28.408  33.796  1.00  0.00     0.029 A 
ATOM     53  N   UNL A   1      43.370  28.477  32.316  1.00  0.00    -0.354 N 
ATOM     54  C   UNL A   1      43.714  31.715  29.483  1.00  0.00     0.074 A 
ATOM     55  C   UNL A   1      42.643  32.671  29.651  1.00  0.00     0.031 C 
ATOM     56  C   UNL A   1      42.437  27.303  33.974  1.00  0.00     0.029 A 
ATOM     57  C   UNL A   1      43.532  27.303  33.010  1.00  0.00     0.049 A 
ATOM     58  H   UNL A   1      43.972  28.762  31.590  1.00  0.00     0.167 HD
ATOM     59  C   UNL A   1      44.691  31.823  28.552  1.00  0.00     0.031 A 
ATOM     60  C   UNL A   1      44.458  26.335  32.882  1.00  0.00     0.031 A 
ATOM     61  C   UNL A   1      45.767  30.882  28.396  1.00  0.00     0.049 A 
ATOM     62  C   UNL A   1      45.533  26.480  31.842  1.00  0.00     0.074 A 
ATOM     63  C   UNL A   1      46.840  30.937  27.525  1.00  0.00     0.029 A 
ATOM     64  N   UNL A   1      45.906  29.717  29.132  1.00  0.00    -0.354 N 
ATOM     65  N   UNL A   1      45.726  27.450  30.983  1.00  0.00    -0.248 NA
ATOM     66  C   UNL A   1      46.527  25.399  31.764  1.00  0.00     0.031 C 
ATOM     67  C   UNL A   1      47.605  29.780  27.703  1.00  0.00     0.029 A 
ATOM     68  C   UNL A   1      47.037  29.032  28.722  1.00  0.00     0.049 A 
ATOM     69  H   UNL A   1      45.291  29.420  29.843  1.00  0.00     0.167 HD
ATOM     70  C   UNL A   1      46.876  27.112  30.281  1.00  0.00     0.074 A 
ATOM     71  C   UNL A   1      47.346  25.855  30.826  1.00  0.00     0.031 C 
ATOM     72  C   UNL A   1      47.490  27.783  29.276  1.00  0.00     0.031 A 
BRANCH  59  73
ATOM     73  C   UNL A   1      44.633  33.007  27.627  1.00  0.00    -0.014 A 
ATOM     74  C   UNL A   1      45.117  34.264  28.024  1.00  0.00     0.009 A 
ATOM     75  C   UNL A   1      44.108  32.859  26.334  1.00  0.00     0.009 A 
ATOM     76  C   UNL A   1      45.040  35.358  27.160  1.00  0.00     0.001 A 
ATOM     77  C   UNL A   1      44.060  33.948  25.461  1.00  0.00     0.001 A 
ATOM     78  C   UNL A   1      44.516  35.197  25.878  1.00  0.00     0.000 A 
ENDBRANCH  59  73
BRANCH  60  79
ATOM     79  C   UNL A   1      44.427  25.149  33.779  1.00  0.00    -0.014 A 
ATOM     80  C   UNL A   1      43.851  23.945  33.343  1.00  0.00     0.009 A 
ATOM     81  C   UNL A   1      44.963  25.214  35.074  1.00  0.00     0.009 A 
ATOM     82  C   UNL A   1      43.788  22.841  34.195  1.00  0.00     0.001 A 
ATOM     83  C   UNL A   1      44.924  24.099  35.914  1.00  0.00     0.001 A 
ATOM     84  C   UNL A   1      44.328  22.917  35.477  1.00  0.00     0.000 A 
ENDBRANCH  60  79
BRANCH  72  85
ATOM     85  C   UNL A   1      48.754  27.189  28.726  1.00  0.00    -0.014 A 
ATOM     86  C   UNL A   1      48.727  26.267  27.668  1.00  0.00     0.009 A 
ATOM     87  C   UNL A   1      49.994  27.593  29.247  1.00  0.00     0.009 A 
ATOM     88  C   UNL A   1      49.916  25.738  27.164  1.00  0.00     0.001 A 
ATOM     89  C   UNL A   1      51.181  27.083  28.722  1.00  0.00     0.001 A 
ATOM     90  C   UNL A   1      51.141  26.150  27.687  1.00  0.00     0.000 A 
ENDBRANCH  72  85
ENDBRANCH  46  47
ENDBRANCH  38  41
ENDBRANCH  36  37
ENDBRANCH  35  36
ENDBRANCH  34  35
ENDBRANCH  33  34
ENDBRANCH  31  33
ENDBRANCH  27  29
ENDBRANCH   4  27
TORSDOF 22
ENDMDL
