MODEL 1
REMARK VINA RESULT:     -11.9      0.000      0.000
REMARK SMILES C[C@H]1CCCCN1c1nc2nc(CC(=O)NCCCCNC(=O)c3ccc(-c4c5nc(c(-c6ccccc6)c6ccc([nH]6)c(-c6ccccc6)c6nc(c(-c7ccccc7)c7ccc4[nH]7)C=C6)C=C5)cc3)cc(O)n2n1
REMARK SMILES IDX 18 1 17 2 16 3 14 4 15 5 13 7 12 8 8 9 9 10 76 11 10 12
REMARK SMILES IDX 75 13 11 14 73 15 72 16 7 17 1 18 2 19 3 20 4 21 6 22 5 23
REMARK SMILES IDX 74 24 19 26 20 27 21 28 22 29 23 31 24 32 25 33 71 34 26 35
REMARK SMILES IDX 70 36 27 37 28 38 29 39 64 40 30 41 69 42 63 43 65 44 31 45
REMARK SMILES IDX 68 46 62 47 61 48 32 50 54 51 39 52 53 53 40 54 43 55 52 56
REMARK SMILES IDX 66 57 41 58 42 59 51 61 67 62 44 63 33 64 34 65 38 66 35 67
REMARK SMILES IDX 37 68 36 69 55 70 56 71 60 72 57 73 59 74 58 75 45 76 46 77
REMARK SMILES IDX 50 78 47 79 49 80 48 81
REMARK H PARENT 16 6 74 25 21 30 65 49 43 60
REMARK Flexibility Score: inf
ROOT
ATOM      1  C   UNL A   1      32.728  29.866  25.550  1.00  0.00     0.023 C 
ENDROOT
BRANCH   1   2
ATOM      2  C   UNL A   1      31.304  29.467  25.150  1.00  0.00     0.116 C 
BRANCH   2   3
ATOM      3  N   UNL A   1      30.986  29.822  23.781  1.00  0.00    -0.356 N 
ATOM      4  C   UNL A   1      30.471  29.064  22.771  1.00  0.00     0.226 C 
ATOM      5  O   UNL A   1      30.230  29.619  21.698  1.00  0.00    -0.275 OA
ATOM      6  H   UNL A   1      31.173  30.760  23.543  1.00  0.00     0.163 HD
BRANCH   4   7
ATOM      7  C   UNL A   1      30.094  27.620  23.009  1.00  0.00     0.156 C 
BRANCH   7   8
ATOM      8  C   UNL A   1      31.244  26.642  22.936  1.00  0.00     0.059 A 
ATOM      9  C   UNL A   1      34.309  23.866  24.192  1.00  0.00     0.247 A 
ATOM     10  N   UNL A   1      33.388  24.609  24.873  1.00  0.00    -0.173 NA
ATOM     11  N   UNL A   1      34.211  23.936  22.867  1.00  0.00    -0.123 NA
ATOM     12  C   UNL A   1      32.742  25.255  23.930  1.00  0.00     0.257 A 
ATOM     13  N   UNL A   1      33.220  24.832  22.689  1.00  0.00    -0.161 N 
ATOM     14  N   UNL A   1      31.737  26.173  24.043  1.00  0.00    -0.215 NA
ATOM     15  C   UNL A   1      32.679  25.336  21.495  1.00  0.00     0.217 A 
ATOM     16  C   UNL A   1      31.720  26.271  21.560  1.00  0.00     0.092 A 
BRANCH   9  17
ATOM     17  N   UNL A   1      35.220  23.166  24.895  1.00  0.00    -0.337 N 
ATOM     18  C   UNL A   1      33.955  20.995  24.537  1.00  0.00     0.031 C 
ATOM     19  C   UNL A   1      35.084  21.747  25.247  1.00  0.00     0.082 C 
ATOM     20  C   UNL A   1      36.416  21.048  24.900  1.00  0.00     0.025 C 
ATOM     21  C   UNL A   1      37.605  21.726  25.576  1.00  0.00     0.004 C 
ATOM     22  C   UNL A   1      36.313  23.889  25.541  1.00  0.00     0.120 C 
ATOM     23  C   UNL A   1      37.647  23.214  25.240  1.00  0.00     0.022 C 
ENDBRANCH   9  17
BRANCH  15  24
ATOM     24  O   UNL A   1      33.148  24.852  20.285  1.00  0.00    -0.493 OA
ATOM     25  H   UNL A   1      33.019  25.348  19.500  1.00  0.00     0.295 HD
ENDBRANCH  15  24
ENDBRANCH   7   8
ENDBRANCH   4   7
ENDBRANCH   2   3
ENDBRANCH   1   2
BRANCH   1  26
ATOM     26  C   UNL A   1      32.878  30.492  26.943  1.00  0.00     0.023 C 
BRANCH  26  27
ATOM     27  C   UNL A   1      34.317  30.709  27.386  1.00  0.00     0.116 C 
BRANCH  27  28
ATOM     28  N   UNL A   1      34.481  31.912  28.195  1.00  0.00    -0.352 N 
ATOM     29  C   UNL A   1      35.261  32.079  29.321  1.00  0.00     0.251 C 
ATOM     30  H   UNL A   1      33.972  32.702  27.901  1.00  0.00     0.163 HD
ATOM     31  O   UNL A   1      35.027  32.978  30.116  1.00  0.00    -0.269 OA
BRANCH  29  32
ATOM     32  C   UNL A   1      36.396  31.168  29.549  1.00  0.00     0.039 A 
ATOM     33  C   UNL A   1      36.190  29.890  30.075  1.00  0.00     0.014 A 
ATOM     34  C   UNL A   1      37.685  31.619  29.261  1.00  0.00     0.014 A 
ATOM     35  C   UNL A   1      37.286  29.052  30.256  1.00  0.00     0.010 A 
ATOM     36  C   UNL A   1      38.752  30.755  29.326  1.00  0.00     0.010 A 
ATOM     37  C   UNL A   1      38.563  29.491  29.870  1.00  0.00    -0.014 A 
BRANCH  37  38
ATOM     38  C   UNL A   1      39.707  28.599  29.964  1.00  0.00     0.031 A 
ATOM     39  C   UNL A   1      40.272  28.440  31.327  1.00  0.00     0.074 A 
ATOM     40  C   UNL A   1      40.149  27.843  28.939  1.00  0.00     0.049 A 
ATOM     41  N   UNL A   1      41.395  28.908  31.755  1.00  0.00    -0.248 NA
ATOM     42  C   UNL A   1      39.460  27.785  32.362  1.00  0.00     0.031 C 
ATOM     43  C   UNL A   1      39.556  27.642  27.613  1.00  0.00     0.029 A 
ATOM     44  N   UNL A   1      41.219  27.007  28.920  1.00  0.00    -0.354 N 
ATOM     45  C   UNL A   1      41.525  28.471  33.068  1.00  0.00     0.074 A 
ATOM     46  C   UNL A   1      40.250  27.902  33.432  1.00  0.00     0.031 C 
ATOM     47  C   UNL A   1      40.148  26.583  27.010  1.00  0.00     0.029 A 
ATOM     48  C   UNL A   1      41.267  26.152  27.828  1.00  0.00     0.049 A 
ATOM     49  H   UNL A   1      41.908  27.008  29.625  1.00  0.00     0.167 HD
ATOM     50  C   UNL A   1      42.738  28.428  33.683  1.00  0.00     0.031 A 
ATOM     51  C   UNL A   1      42.162  25.153  27.634  1.00  0.00     0.031 A 
ATOM     52  C   UNL A   1      43.741  29.143  32.940  1.00  0.00     0.049 A 
ATOM     53  C   UNL A   1      43.354  25.483  28.450  1.00  0.00     0.074 A 
ATOM     54  C   UNL A   1      43.907  30.454  32.543  1.00  0.00     0.029 A 
ATOM     55  N   UNL A   1      44.572  28.395  32.138  1.00  0.00    -0.354 N 
ATOM     56  N   UNL A   1      44.121  26.509  28.210  1.00  0.00    -0.248 NA
ATOM     57  C   UNL A   1      43.441  24.936  29.795  1.00  0.00     0.031 C 
ATOM     58  C   UNL A   1      44.434  30.369  31.222  1.00  0.00     0.029 A 
ATOM     59  C   UNL A   1      44.623  29.018  30.919  1.00  0.00     0.049 A 
ATOM     60  H   UNL A   1      45.042  27.568  32.392  1.00  0.00     0.167 HD
ATOM     61  C   UNL A   1      44.449  27.003  29.464  1.00  0.00     0.074 A 
ATOM     62  C   UNL A   1      44.086  25.939  30.399  1.00  0.00     0.031 C 
ATOM     63  C   UNL A   1      44.718  28.327  29.653  1.00  0.00     0.031 A 
BRANCH  50  64
ATOM     64  C   UNL A   1      43.111  27.431  34.744  1.00  0.00    -0.014 A 
ATOM     65  C   UNL A   1      43.306  26.088  34.374  1.00  0.00     0.009 A 
ATOM     66  C   UNL A   1      42.998  27.706  36.118  1.00  0.00     0.009 A 
ATOM     67  C   UNL A   1      43.326  25.068  35.330  1.00  0.00     0.001 A 
ATOM     68  C   UNL A   1      43.055  26.694  37.079  1.00  0.00     0.001 A 
ATOM     69  C   UNL A   1      43.193  25.371  36.682  1.00  0.00     0.000 A 
ENDBRANCH  50  64
BRANCH  51  70
ATOM     70  C   UNL A   1      41.948  23.809  27.051  1.00  0.00    -0.014 A 
ATOM     71  C   UNL A   1      42.938  23.220  26.247  1.00  0.00     0.009 A 
ATOM     72  C   UNL A   1      40.914  22.981  27.523  1.00  0.00     0.009 A 
ATOM     73  C   UNL A   1      42.930  21.844  25.982  1.00  0.00     0.001 A 
ATOM     74  C   UNL A   1      40.902  21.607  27.253  1.00  0.00     0.001 A 
ATOM     75  C   UNL A   1      41.923  21.035  26.500  1.00  0.00     0.000 A 
ENDBRANCH  51  70
BRANCH  63  76
ATOM     76  C   UNL A   1      44.859  29.210  28.439  1.00  0.00    -0.014 A 
ATOM     77  C   UNL A   1      43.768  29.883  27.859  1.00  0.00     0.009 A 
ATOM     78  C   UNL A   1      46.153  29.550  28.019  1.00  0.00     0.009 A 
ATOM     79  C   UNL A   1      43.973  30.874  26.893  1.00  0.00     0.001 A 
ATOM     80  C   UNL A   1      46.357  30.550  27.067  1.00  0.00     0.001 A 
ATOM     81  C   UNL A   1      45.268  31.215  26.508  1.00  0.00     0.000 A 
ENDBRANCH  63  76
ENDBRANCH  37  38
ENDBRANCH  29  32
ENDBRANCH  27  28
ENDBRANCH  26  27
ENDBRANCH   1  26
TORSDOF 14
ENDMDL
MODEL 2
REMARK VINA RESULT:     -11.8      2.765      8.484
REMARK SMILES C[C@H]1CCCCN1c1nc2nc(CC(=O)NCCCCNC(=O)c3ccc(-c4c5nc(c(-c6ccccc6)c6ccc([nH]6)c(-c6ccccc6)c6nc(c(-c7ccccc7)c7ccc4[nH]7)C=C6)C=C5)cc3)cc(O)n2n1
REMARK SMILES IDX 18 1 17 2 16 3 14 4 15 5 13 7 12 8 8 9 9 10 76 11 10 12
REMARK SMILES IDX 75 13 11 14 73 15 72 16 7 17 1 18 2 19 3 20 4 21 6 22 5 23
REMARK SMILES IDX 74 24 19 26 20 27 21 28 22 29 23 31 24 32 25 33 71 34 26 35
REMARK SMILES IDX 70 36 27 37 28 38 29 39 64 40 30 41 69 42 63 43 65 44 31 45
REMARK SMILES IDX 68 46 62 47 61 48 32 50 54 51 39 52 53 53 40 54 43 55 52 56
REMARK SMILES IDX 66 57 41 58 42 59 51 61 67 62 44 63 33 64 34 65 38 66 35 67
REMARK SMILES IDX 37 68 36 69 55 70 56 71 60 72 57 73 59 74 58 75 45 76 46 77
REMARK SMILES IDX 50 78 47 79 49 80 48 81
REMARK H PARENT 16 6 74 25 21 30 65 49 43 60
REMARK Flexibility Score: inf
ROOT
ATOM      1  C   UNL A   1      40.973  21.029  27.527  1.00  0.00     0.023 C 
ENDROOT
BRANCH   1   2
ATOM      2  C   UNL A   1      39.876  21.266  26.485  1.00  0.00     0.116 C 
BRANCH   2   3
ATOM      3  N   UNL A   1      39.463  22.654  26.412  1.00  0.00    -0.356 N 
ATOM      4  C   UNL A   1      38.258  23.198  26.076  1.00  0.00     0.226 C 
ATOM      5  O   UNL A   1      38.137  24.422  26.148  1.00  0.00    -0.275 OA
ATOM      6  H   UNL A   1      40.164  23.307  26.640  1.00  0.00     0.163 HD
BRANCH   4   7
ATOM      7  C   UNL A   1      37.079  22.312  25.748  1.00  0.00     0.156 C 
BRANCH   7   8
ATOM      8  C   UNL A   1      35.725  22.946  25.971  1.00  0.00     0.059 A 
ATOM      9  C   UNL A   1      32.320  25.556  25.454  1.00  0.00     0.247 A 
ATOM     10  N   UNL A   1      33.520  25.452  24.812  1.00  0.00    -0.173 NA
ATOM     11  N   UNL A   1      32.100  24.626  26.378  1.00  0.00    -0.123 NA
ATOM     12  C   UNL A   1      34.126  24.466  25.433  1.00  0.00     0.257 A 
ATOM     13  N   UNL A   1      33.255  23.931  26.382  1.00  0.00    -0.161 N 
ATOM     14  N   UNL A   1      35.377  23.956  25.232  1.00  0.00    -0.215 NA
ATOM     15  C   UNL A   1      33.632  22.834  27.173  1.00  0.00     0.217 A 
ATOM     16  C   UNL A   1      34.867  22.329  27.039  1.00  0.00     0.092 A 
BRANCH   9  17
ATOM     17  N   UNL A   1      31.498  26.570  25.121  1.00  0.00    -0.337 N 
ATOM     18  C   UNL A   1      32.498  28.079  26.901  1.00  0.00     0.031 C 
ATOM     19  C   UNL A   1      31.403  27.837  25.859  1.00  0.00     0.082 C 
ATOM     20  C   UNL A   1      31.461  28.985  24.828  1.00  0.00     0.025 C 
ATOM     21  C   UNL A   1      30.391  28.833  23.749  1.00  0.00     0.004 C 
ATOM     22  C   UNL A   1      30.477  26.340  24.101  1.00  0.00     0.120 C 
ATOM     23  C   UNL A   1      30.488  27.467  23.075  1.00  0.00     0.022 C 
ENDBRANCH   9  17
BRANCH  15  24
ATOM     24  O   UNL A   1      32.718  22.302  28.069  1.00  0.00    -0.493 OA
ATOM     25  H   UNL A   1      31.888  21.993  27.762  1.00  0.00     0.295 HD
ENDBRANCH  15  24
ENDBRANCH   7   8
ENDBRANCH   4   7
ENDBRANCH   2   3
ENDBRANCH   1   2
BRANCH   1  26
ATOM     26  C   UNL A   1      41.950  19.887  27.217  1.00  0.00     0.023 C 
BRANCH  26  27
ATOM     27  C   UNL A   1      42.091  19.562  25.737  1.00  0.00     0.116 C 
BRANCH  27  28
ATOM     28  N   UNL A   1      43.484  19.444  25.318  1.00  0.00    -0.352 N 
ATOM     29  C   UNL A   1      44.365  20.457  24.998  1.00  0.00     0.251 C 
ATOM     30  H   UNL A   1      43.838  18.527  25.255  1.00  0.00     0.163 HD
ATOM     31  O   UNL A   1      45.349  20.235  24.308  1.00  0.00    -0.269 OA
BRANCH  29  32
ATOM     32  C   UNL A   1      44.115  21.814  25.516  1.00  0.00     0.039 A 
ATOM     33  C   UNL A   1      43.216  22.668  24.871  1.00  0.00     0.014 A 
ATOM     34  C   UNL A   1      44.819  22.242  26.642  1.00  0.00     0.014 A 
ATOM     35  C   UNL A   1      42.992  23.934  25.403  1.00  0.00     0.010 A 
ATOM     36  C   UNL A   1      44.513  23.442  27.235  1.00  0.00     0.010 A 
ATOM     37  C   UNL A   1      43.639  24.309  26.591  1.00  0.00    -0.014 A 
BRANCH  37  38
ATOM     38  C   UNL A   1      43.349  25.591  27.213  1.00  0.00     0.031 A 
ATOM     39  C   UNL A   1      44.276  26.692  26.851  1.00  0.00     0.074 A 
ATOM     40  C   UNL A   1      42.244  25.830  27.947  1.00  0.00     0.049 A 
ATOM     41  N   UNL A   1      45.166  27.231  27.612  1.00  0.00    -0.248 NA
ATOM     42  C   UNL A   1      44.297  27.177  25.463  1.00  0.00     0.031 C 
ATOM     43  C   UNL A   1      41.079  24.968  28.177  1.00  0.00     0.029 A 
ATOM     44  N   UNL A   1      41.901  26.977  28.589  1.00  0.00    -0.354 N 
ATOM     45  C   UNL A   1      45.756  28.244  26.865  1.00  0.00     0.074 A 
ATOM     46  C   UNL A   1      45.281  28.077  25.513  1.00  0.00     0.031 C 
ATOM     47  C   UNL A   1      40.076  25.702  28.714  1.00  0.00     0.029 A 
ATOM     48  C   UNL A   1      40.585  27.025  29.026  1.00  0.00     0.049 A 
ATOM     49  H   UNL A   1      42.536  27.716  28.735  1.00  0.00     0.167 HD
ATOM     50  C   UNL A   1      46.430  29.264  27.462  1.00  0.00     0.031 A 
ATOM     51  C   UNL A   1      39.968  28.093  29.587  1.00  0.00     0.031 A 
ATOM     52  C   UNL A   1      46.692  28.993  28.851  1.00  0.00     0.049 A 
ATOM     53  C   UNL A   1      41.034  28.955  30.149  1.00  0.00     0.074 A 
ATOM     54  C   UNL A   1      47.400  28.026  29.535  1.00  0.00     0.029 A 
ATOM     55  N   UNL A   1      45.835  29.558  29.767  1.00  0.00    -0.354 N 
ATOM     56  N   UNL A   1      41.791  28.595  31.147  1.00  0.00    -0.248 NA
ATOM     57  C   UNL A   1      41.556  30.032  29.322  1.00  0.00     0.031 C 
ATOM     58  C   UNL A   1      46.596  27.725  30.673  1.00  0.00     0.029 A 
ATOM     59  C   UNL A   1      45.484  28.572  30.651  1.00  0.00     0.049 A 
ATOM     60  H   UNL A   1      45.532  30.494  29.786  1.00  0.00     0.167 HD
ATOM     61  C   UNL A   1      43.050  29.077  30.824  1.00  0.00     0.074 A 
ATOM     62  C   UNL A   1      42.825  30.036  29.743  1.00  0.00     0.031 C 
ATOM     63  C   UNL A   1      44.180  28.452  31.264  1.00  0.00     0.031 A 
BRANCH  50  64
ATOM     64  C   UNL A   1      46.516  30.658  26.908  1.00  0.00    -0.014 A 
ATOM     65  C   UNL A   1      47.744  31.340  26.975  1.00  0.00     0.009 A 
ATOM     66  C   UNL A   1      45.378  31.419  26.587  1.00  0.00     0.009 A 
ATOM     67  C   UNL A   1      47.816  32.725  26.790  1.00  0.00     0.001 A 
ATOM     68  C   UNL A   1      45.452  32.796  26.364  1.00  0.00     0.001 A 
ATOM     69  C   UNL A   1      46.668  33.453  26.491  1.00  0.00     0.000 A 
ENDBRANCH  50  64
BRANCH  51  70
ATOM     70  C   UNL A   1      38.577  28.567  29.408  1.00  0.00    -0.014 A 
ATOM     71  C   UNL A   1      37.762  28.812  30.526  1.00  0.00     0.009 A 
ATOM     72  C   UNL A   1      38.146  29.067  28.166  1.00  0.00     0.009 A 
ATOM     73  C   UNL A   1      36.597  29.584  30.416  1.00  0.00     0.001 A 
ATOM     74  C   UNL A   1      36.979  29.833  28.055  1.00  0.00     0.001 A 
ATOM     75  C   UNL A   1      36.216  30.109  29.185  1.00  0.00     0.000 A 
ENDBRANCH  51  70
BRANCH  63  76
ATOM     76  C   UNL A   1      44.038  27.347  32.281  1.00  0.00    -0.014 A 
ATOM     77  C   UNL A   1      44.064  25.985  31.931  1.00  0.00     0.009 A 
ATOM     78  C   UNL A   1      44.115  27.690  33.639  1.00  0.00     0.009 A 
ATOM     79  C   UNL A   1      44.173  24.998  32.916  1.00  0.00     0.001 A 
ATOM     80  C   UNL A   1      44.239  26.705  34.619  1.00  0.00     0.001 A 
ATOM     81  C   UNL A   1      44.273  25.360  34.258  1.00  0.00     0.000 A 
ENDBRANCH  63  76
ENDBRANCH  37  38
ENDBRANCH  29  32
ENDBRANCH  27  28
ENDBRANCH  26  27
ENDBRANCH   1  26
TORSDOF 14
ENDMDL
MODEL 3
REMARK VINA RESULT:     -11.7      1.301      1.924
REMARK SMILES C[C@H]1CCCCN1c1nc2nc(CC(=O)NCCCCNC(=O)c3ccc(-c4c5nc(c(-c6ccccc6)c6ccc([nH]6)c(-c6ccccc6)c6nc(c(-c7ccccc7)c7ccc4[nH]7)C=C6)C=C5)cc3)cc(O)n2n1
REMARK SMILES IDX 18 1 17 2 16 3 14 4 15 5 13 7 12 8 8 9 9 10 76 11 10 12
REMARK SMILES IDX 75 13 11 14 73 15 72 16 7 17 1 18 2 19 3 20 4 21 6 22 5 23
REMARK SMILES IDX 74 24 19 26 20 27 21 28 22 29 23 31 24 32 25 33 71 34 26 35
REMARK SMILES IDX 70 36 27 37 28 38 29 39 64 40 30 41 69 42 63 43 65 44 31 45
REMARK SMILES IDX 68 46 62 47 61 48 32 50 54 51 39 52 53 53 40 54 43 55 52 56
REMARK SMILES IDX 66 57 41 58 42 59 51 61 67 62 44 63 33 64 34 65 38 66 35 67
REMARK SMILES IDX 37 68 36 69 55 70 56 71 60 72 57 73 59 74 58 75 45 76 46 77
REMARK SMILES IDX 50 78 47 79 49 80 48 81
REMARK H PARENT 16 6 74 25 21 30 65 49 43 60
REMARK Flexibility Score: inf
ROOT
ATOM      1  C   UNL A   1      35.202  30.441  27.664  1.00  0.00     0.023 C 
ENDROOT
BRANCH   1   2
ATOM      2  C   UNL A   1      34.438  29.320  26.953  1.00  0.00     0.116 C 
BRANCH   2   3
ATOM      3  N   UNL A   1      33.234  28.927  27.659  1.00  0.00    -0.356 N 
ATOM      4  C   UNL A   1      31.991  28.628  27.182  1.00  0.00     0.226 C 
ATOM      5  O   UNL A   1      31.137  28.257  27.989  1.00  0.00    -0.275 OA
ATOM      6  H   UNL A   1      33.329  28.868  28.637  1.00  0.00     0.163 HD
BRANCH   4   7
ATOM      7  C   UNL A   1      31.715  28.634  25.697  1.00  0.00     0.156 C 
BRANCH   7   8
ATOM      8  C   UNL A   1      32.402  27.537  24.917  1.00  0.00     0.059 A 
ATOM      9  C   UNL A   1      34.125  23.691  23.961  1.00  0.00     0.247 A 
ATOM     10  N   UNL A   1      33.540  24.197  25.085  1.00  0.00    -0.173 NA
ATOM     11  N   UNL A   1      34.102  24.503  22.908  1.00  0.00    -0.123 NA
ATOM     12  C   UNL A   1      33.221  25.426  24.751  1.00  0.00     0.257 A 
ATOM     13  N   UNL A   1      33.538  25.621  23.406  1.00  0.00    -0.161 N 
ATOM     14  N   UNL A   1      32.643  26.405  25.507  1.00  0.00    -0.215 NA
ATOM     15  C   UNL A   1      33.268  26.843  22.770  1.00  0.00     0.217 A 
ATOM     16  C   UNL A   1      32.741  27.847  23.486  1.00  0.00     0.092 A 
BRANCH   9  17
ATOM     17  N   UNL A   1      34.675  22.462  24.017  1.00  0.00    -0.337 N 
ATOM     18  C   UNL A   1      36.989  23.424  24.421  1.00  0.00     0.031 C 
ATOM     19  C   UNL A   1      36.118  22.204  24.112  1.00  0.00     0.082 C 
ATOM     20  C   UNL A   1      36.335  21.165  25.233  1.00  0.00     0.025 C 
ATOM     21  C   UNL A   1      35.508  19.901  25.003  1.00  0.00     0.004 C 
ATOM     22  C   UNL A   1      33.828  21.302  23.754  1.00  0.00     0.120 C 
ATOM     23  C   UNL A   1      34.031  20.241  24.829  1.00  0.00     0.022 C 
ENDBRANCH   9  17
BRANCH  15  24
ATOM     24  O   UNL A   1      33.552  26.978  21.420  1.00  0.00    -0.493 OA
ATOM     25  H   UNL A   1      33.232  26.343  20.809  1.00  0.00     0.295 HD
ENDBRANCH  15  24
ENDBRANCH   7   8
ENDBRANCH   4   7
ENDBRANCH   2   3
ENDBRANCH   1   2
BRANCH   1  26
ATOM     26  C   UNL A   1      34.355  31.633  28.131  1.00  0.00     0.023 C 
BRANCH  26  27
ATOM     27  C   UNL A   1      35.162  32.830  28.611  1.00  0.00     0.116 C 
BRANCH  27  28
ATOM     28  N   UNL A   1      35.009  33.074  30.042  1.00  0.00    -0.352 N 
ATOM     29  C   UNL A   1      35.490  32.315  31.089  1.00  0.00     0.251 C 
ATOM     30  H   UNL A   1      34.499  33.879  30.290  1.00  0.00     0.163 HD
ATOM     31  O   UNL A   1      34.988  32.394  32.201  1.00  0.00    -0.269 OA
BRANCH  29  32
ATOM     32  C   UNL A   1      36.635  31.416  30.857  1.00  0.00     0.039 A 
ATOM     33  C   UNL A   1      37.898  31.934  30.559  1.00  0.00     0.014 A 
ATOM     34  C   UNL A   1      36.426  30.038  30.906  1.00  0.00     0.014 A 
ATOM     35  C   UNL A   1      38.958  31.054  30.368  1.00  0.00     0.010 A 
ATOM     36  C   UNL A   1      37.490  29.172  30.836  1.00  0.00     0.010 A 
ATOM     37  C   UNL A   1      38.746  29.674  30.517  1.00  0.00    -0.014 A 
BRANCH  37  38
ATOM     38  C   UNL A   1      39.858  28.743  30.412  1.00  0.00     0.031 A 
ATOM     39  C   UNL A   1      40.580  28.477  31.680  1.00  0.00     0.074 A 
ATOM     40  C   UNL A   1      40.141  28.044  29.294  1.00  0.00     0.049 A 
ATOM     41  N   UNL A   1      41.764  28.881  31.992  1.00  0.00    -0.248 NA
ATOM     42  C   UNL A   1      39.877  27.779  32.766  1.00  0.00     0.031 C 
ATOM     43  C   UNL A   1      39.383  27.950  28.042  1.00  0.00     0.029 A 
ATOM     44  N   UNL A   1      41.169  27.179  29.089  1.00  0.00    -0.354 N 
ATOM     45  C   UNL A   1      42.037  28.354  33.249  1.00  0.00     0.074 A 
ATOM     46  C   UNL A   1      40.796  27.801  33.734  1.00  0.00     0.031 C 
ATOM     47  C   UNL A   1      39.856  26.916  27.306  1.00  0.00     0.029 A 
ATOM     48  C   UNL A   1      41.050  26.398  27.948  1.00  0.00     0.049 A 
ATOM     49  H   UNL A   1      41.938  27.112  29.701  1.00  0.00     0.167 HD
ATOM     50  C   UNL A   1      43.314  28.234  33.704  1.00  0.00     0.031 A 
ATOM     51  C   UNL A   1      41.875  25.387  27.582  1.00  0.00     0.031 A 
ATOM     52  C   UNL A   1      44.245  28.966  32.887  1.00  0.00     0.049 A 
ATOM     53  C   UNL A   1      43.170  25.626  28.262  1.00  0.00     0.074 A 
ATOM     54  C   UNL A   1      44.410  30.295  32.555  1.00  0.00     0.029 A 
ATOM     55  N   UNL A   1      44.942  28.248  31.942  1.00  0.00    -0.354 N 
ATOM     56  N   UNL A   1      43.940  26.643  27.992  1.00  0.00    -0.248 NA
ATOM     57  C   UNL A   1      43.400  24.989  29.549  1.00  0.00     0.031 C 
ATOM     58  C   UNL A   1      44.768  30.283  31.175  1.00  0.00     0.029 A 
ATOM     59  C   UNL A   1      44.867  28.949  30.768  1.00  0.00     0.049 A 
ATOM     60  H   UNL A   1      45.408  27.393  32.083  1.00  0.00     0.167 HD
ATOM     61  C   UNL A   1      44.438  27.042  29.223  1.00  0.00     0.074 A 
ATOM     62  C   UNL A   1      44.152  25.929  30.128  1.00  0.00     0.031 C 
ATOM     63  C   UNL A   1      44.779  28.342  29.459  1.00  0.00     0.031 A 
BRANCH  50  64
ATOM     64  C   UNL A   1      43.777  27.158  34.645  1.00  0.00    -0.014 A 
ATOM     65  C   UNL A   1      43.892  25.841  34.166  1.00  0.00     0.009 A 
ATOM     66  C   UNL A   1      43.827  27.338  36.039  1.00  0.00     0.009 A 
ATOM     67  C   UNL A   1      43.990  24.755  35.043  1.00  0.00     0.001 A 
ATOM     68  C   UNL A   1      43.963  26.260  36.916  1.00  0.00     0.001 A 
ATOM     69  C   UNL A   1      44.019  24.965  36.418  1.00  0.00     0.000 A 
ENDBRANCH  50  64
BRANCH  51  70
ATOM     70  C   UNL A   1      41.540  24.092  26.948  1.00  0.00    -0.014 A 
ATOM     71  C   UNL A   1      42.502  23.405  26.190  1.00  0.00     0.009 A 
ATOM     72  C   UNL A   1      40.385  23.386  27.330  1.00  0.00     0.009 A 
ATOM     73  C   UNL A   1      42.346  22.046  25.885  1.00  0.00     0.001 A 
ATOM     74  C   UNL A   1      40.226  22.030  27.020  1.00  0.00     0.001 A 
ATOM     75  C   UNL A   1      41.218  21.354  26.316  1.00  0.00     0.000 A 
ENDBRANCH  51  70
BRANCH  63  76
ATOM     76  C   UNL A   1      44.803  29.299  28.294  1.00  0.00    -0.014 A 
ATOM     77  C   UNL A   1      43.669  30.022  27.882  1.00  0.00     0.009 A 
ATOM     78  C   UNL A   1      46.050  29.649  27.756  1.00  0.00     0.009 A 
ATOM     79  C   UNL A   1      43.786  31.070  26.963  1.00  0.00     0.001 A 
ATOM     80  C   UNL A   1      46.168  30.705  26.851  1.00  0.00     0.001 A 
ATOM     81  C   UNL A   1      45.037  31.419  26.459  1.00  0.00     0.000 A 
ENDBRANCH  63  76
ENDBRANCH  37  38
ENDBRANCH  29  32
ENDBRANCH  27  28
ENDBRANCH  26  27
ENDBRANCH   1  26
TORSDOF 14
ENDMDL
