MODEL 1
REMARK VINA RESULT:     -12.2      0.000      0.000
REMARK SMILES C[C@](NC(=O)C[C@@H]1CCCCO1)(C(=O)NCCCCNC(=O)c1ccc(-c2c3nc(c(-c4ccccc4)c4ccc([nH]4)c(-c4ccccc4)c4nc(c(-c5ccccc5)c5ccc2[nH]5)C=C4)C=C3)cc1)c1ccccc1
REMARK SMILES IDX 17 1 16 2 15 3 13 4 14 5 2 7 1 8 71 9 72 10 76 11 73 12
REMARK SMILES IDX 75 13 74 14 3 15 4 16 5 18 6 19 7 20 8 21 12 22 9 23 11 24
REMARK SMILES IDX 10 25 18 26 19 27 20 28 21 29 22 31 23 32 24 33 70 34 25 35
REMARK SMILES IDX 69 36 26 37 27 38 28 39 63 40 29 41 68 42 62 43 64 44 30 45
REMARK SMILES IDX 67 46 61 47 60 48 31 50 53 51 38 52 52 53 39 54 42 55 51 56
REMARK SMILES IDX 65 57 40 58 41 59 50 61 66 62 43 63 32 64 33 65 37 66 34 67
REMARK SMILES IDX 36 68 35 69 54 70 55 71 59 72 56 73 58 74 57 75 44 76 45 77
REMARK SMILES IDX 49 78 46 79 48 80 47 81
REMARK H PARENT 15 6 3 17 20 30 64 49 42 60
REMARK Flexibility Score: inf
ROOT
ATOM      1  C   UNL A   1      31.799  30.455  26.609  1.00  0.00     0.023 C 
ENDROOT
BRANCH   1   2
ATOM      2  C   UNL A   1      31.267  29.885  25.295  1.00  0.00     0.116 C 
BRANCH   2   3
ATOM      3  N   UNL A   1      32.355  29.626  24.364  1.00  0.00    -0.354 N 
ATOM      4  C   UNL A   1      32.490  28.783  23.294  1.00  0.00     0.250 C 
ATOM      5  O   UNL A   1      33.483  28.994  22.590  1.00  0.00    -0.272 OA
ATOM      6  H   UNL A   1      33.159  30.168  24.540  1.00  0.00     0.163 HD
BRANCH   4   7
ATOM      7  C   UNL A   1      31.353  27.769  22.888  1.00  0.00     0.141 C 
ATOM      8  C   UNL A   1      31.243  26.791  24.091  1.00  0.00     0.051 C 
BRANCH   7   9
ATOM      9  C   UNL A   1      30.074  28.555  22.563  1.00  0.00    -0.013 A 
ATOM     10  C   UNL A   1      28.829  28.148  23.084  1.00  0.00     0.007 A 
ATOM     11  C   UNL A   1      30.107  29.735  21.796  1.00  0.00     0.007 A 
ATOM     12  C   UNL A   1      27.707  28.971  22.986  1.00  0.00     0.000 A 
ATOM     13  C   UNL A   1      28.984  30.560  21.704  1.00  0.00     0.000 A 
ATOM     14  C   UNL A   1      27.794  30.192  22.325  1.00  0.00     0.000 A 
ENDBRANCH   7   9
BRANCH   7  15
ATOM     15  N   UNL A   1      31.811  26.996  21.708  1.00  0.00    -0.338 N 
ATOM     16  C   UNL A   1      32.543  25.874  21.531  1.00  0.00     0.223 C 
ATOM     17  H   UNL A   1      31.513  27.392  20.857  1.00  0.00     0.164 HD
ATOM     18  O   UNL A   1      33.106  25.799  20.429  1.00  0.00    -0.275 OA
BRANCH  16  19
ATOM     19  C   UNL A   1      32.571  24.654  22.439  1.00  0.00     0.132 C 
BRANCH  19  20
ATOM     20  C   UNL A   1      33.149  23.297  22.055  1.00  0.00     0.127 C 
ATOM     21  C   UNL A   1      32.502  22.063  22.682  1.00  0.00     0.033 C 
ATOM     22  O   UNL A   1      34.573  23.285  22.287  1.00  0.00    -0.378 OA
ATOM     23  C   UNL A   1      32.916  21.831  24.126  1.00  0.00     0.005 C 
ATOM     24  C   UNL A   1      34.951  23.204  23.658  1.00  0.00     0.160 C 
ATOM     25  C   UNL A   1      34.427  21.921  24.278  1.00  0.00     0.029 C 
ENDBRANCH  19  20
ENDBRANCH  16  19
ENDBRANCH   7  15
ENDBRANCH   4   7
ENDBRANCH   2   3
ENDBRANCH   1   2
BRANCH   1  26
ATOM     26  C   UNL A   1      31.544  31.955  26.799  1.00  0.00     0.023 C 
BRANCH  26  27
ATOM     27  C   UNL A   1      32.782  32.779  27.131  1.00  0.00     0.116 C 
BRANCH  27  28
ATOM     28  N   UNL A   1      32.453  34.114  27.603  1.00  0.00    -0.352 N 
ATOM     29  C   UNL A   1      33.049  34.829  28.613  1.00  0.00     0.251 C 
ATOM     30  H   UNL A   1      31.709  34.562  27.140  1.00  0.00     0.163 HD
ATOM     31  O   UNL A   1      32.562  35.885  29.004  1.00  0.00    -0.269 OA
BRANCH  29  32
ATOM     32  C   UNL A   1      34.270  34.294  29.246  1.00  0.00     0.039 A 
ATOM     33  C   UNL A   1      34.154  33.548  30.419  1.00  0.00     0.014 A 
ATOM     34  C   UNL A   1      35.520  34.494  28.652  1.00  0.00     0.014 A 
ATOM     35  C   UNL A   1      35.288  32.946  30.966  1.00  0.00     0.010 A 
ATOM     36  C   UNL A   1      36.635  33.835  29.158  1.00  0.00     0.010 A 
ATOM     37  C   UNL A   1      36.531  33.056  30.321  1.00  0.00    -0.014 A 
BRANCH  37  38
ATOM     38  C   UNL A   1      37.733  32.363  30.847  1.00  0.00     0.031 A 
ATOM     39  C   UNL A   1      38.451  32.909  32.049  1.00  0.00     0.074 A 
ATOM     40  C   UNL A   1      38.213  31.279  30.208  1.00  0.00     0.049 A 
ATOM     41  N   UNL A   1      39.546  32.476  32.624  1.00  0.00    -0.248 NA
ATOM     42  C   UNL A   1      37.880  34.114  32.674  1.00  0.00     0.031 C 
ATOM     43  C   UNL A   1      37.633  30.674  29.006  1.00  0.00     0.029 A 
ATOM     44  N   UNL A   1      39.305  30.494  30.480  1.00  0.00    -0.354 N 
ATOM     45  C   UNL A   1      39.799  33.362  33.665  1.00  0.00     0.074 A 
ATOM     46  C   UNL A   1      38.777  34.384  33.609  1.00  0.00     0.031 C 
ATOM     47  C   UNL A   1      38.362  29.600  28.661  1.00  0.00     0.029 A 
ATOM     48  C   UNL A   1      39.479  29.463  29.590  1.00  0.00     0.049 A 
ATOM     49  H   UNL A   1      39.909  30.656  31.242  1.00  0.00     0.167 HD
ATOM     50  C   UNL A   1      40.780  33.317  34.596  1.00  0.00     0.031 A 
ATOM     51  C   UNL A   1      40.433  28.515  29.524  1.00  0.00     0.031 A 
ATOM     52  C   UNL A   1      41.792  32.296  34.657  1.00  0.00     0.049 A 
ATOM     53  C   UNL A   1      41.520  28.494  30.563  1.00  0.00     0.074 A 
ATOM     54  C   UNL A   1      42.800  32.136  35.591  1.00  0.00     0.029 A 
ATOM     55  N   UNL A   1      41.926  31.263  33.742  1.00  0.00    -0.354 N 
ATOM     56  N   UNL A   1      41.707  29.299  31.580  1.00  0.00    -0.248 NA
ATOM     57  C   UNL A   1      42.521  27.424  30.450  1.00  0.00     0.031 C 
ATOM     58  C   UNL A   1      43.573  31.033  35.214  1.00  0.00     0.029 A 
ATOM     59  C   UNL A   1      43.013  30.474  34.078  1.00  0.00     0.049 A 
ATOM     60  H   UNL A   1      41.335  31.114  32.968  1.00  0.00     0.167 HD
ATOM     61  C   UNL A   1      42.828  28.819  32.243  1.00  0.00     0.074 A 
ATOM     62  C   UNL A   1      43.269  27.641  31.522  1.00  0.00     0.031 C 
ATOM     63  C   UNL A   1      43.438  29.307  33.349  1.00  0.00     0.031 A 
BRANCH  50  64
ATOM     64  C   UNL A   1      40.803  34.411  35.626  1.00  0.00    -0.014 A 
ATOM     65  C   UNL A   1      41.573  35.571  35.438  1.00  0.00     0.009 A 
ATOM     66  C   UNL A   1      40.023  34.297  36.787  1.00  0.00     0.009 A 
ATOM     67  C   UNL A   1      41.592  36.574  36.409  1.00  0.00     0.001 A 
ATOM     68  C   UNL A   1      40.020  35.315  37.742  1.00  0.00     0.001 A 
ATOM     69  C   UNL A   1      40.812  36.448  37.558  1.00  0.00     0.000 A 
ENDBRANCH  50  64
BRANCH  51  70
ATOM     70  C   UNL A   1      40.398  27.496  28.442  1.00  0.00    -0.014 A 
ATOM     71  C   UNL A   1      41.045  27.732  27.219  1.00  0.00     0.009 A 
ATOM     72  C   UNL A   1      39.712  26.286  28.623  1.00  0.00     0.009 A 
ATOM     73  C   UNL A   1      40.982  26.789  26.191  1.00  0.00     0.001 A 
ATOM     74  C   UNL A   1      39.675  25.331  27.604  1.00  0.00     0.001 A 
ATOM     75  C   UNL A   1      40.301  25.588  26.386  1.00  0.00     0.000 A 
ENDBRANCH  51  70
BRANCH  63  76
ATOM     76  C   UNL A   1      44.627  28.550  33.870  1.00  0.00    -0.014 A 
ATOM     77  C   UNL A   1      45.931  28.866  33.458  1.00  0.00     0.009 A 
ATOM     78  C   UNL A   1      44.441  27.532  34.819  1.00  0.00     0.009 A 
ATOM     79  C   UNL A   1      47.022  28.155  33.962  1.00  0.00     0.001 A 
ATOM     80  C   UNL A   1      45.535  26.843  35.343  1.00  0.00     0.001 A 
ATOM     81  C   UNL A   1      46.823  27.148  34.908  1.00  0.00     0.000 A 
ENDBRANCH  63  76
ENDBRANCH  37  38
ENDBRANCH  29  32
ENDBRANCH  27  28
ENDBRANCH  26  27
ENDBRANCH   1  26
TORSDOF 15
ENDMDL
MODEL 2
REMARK VINA RESULT:     -12.2      0.848      5.937
REMARK SMILES C[C@](NC(=O)C[C@@H]1CCCCO1)(C(=O)NCCCCNC(=O)c1ccc(-c2c3nc(c(-c4ccccc4)c4ccc([nH]4)c(-c4ccccc4)c4nc(c(-c5ccccc5)c5ccc2[nH]5)C=C4)C=C3)cc1)c1ccccc1
REMARK SMILES IDX 17 1 16 2 15 3 13 4 14 5 2 7 1 8 71 9 72 10 76 11 73 12
REMARK SMILES IDX 75 13 74 14 3 15 4 16 5 18 6 19 7 20 8 21 12 22 9 23 11 24
REMARK SMILES IDX 10 25 18 26 19 27 20 28 21 29 22 31 23 32 24 33 70 34 25 35
REMARK SMILES IDX 69 36 26 37 27 38 28 39 63 40 29 41 68 42 62 43 64 44 30 45
REMARK SMILES IDX 67 46 61 47 60 48 31 50 53 51 38 52 52 53 39 54 42 55 51 56
REMARK SMILES IDX 65 57 40 58 41 59 50 61 66 62 43 63 32 64 33 65 37 66 34 67
REMARK SMILES IDX 36 68 35 69 54 70 55 71 59 72 56 73 58 74 57 75 44 76 45 77
REMARK SMILES IDX 49 78 46 79 48 80 47 81
REMARK H PARENT 15 6 3 17 20 30 64 49 42 60
REMARK Flexibility Score: inf
ROOT
ATOM      1  C   UNL A   1      31.915  30.486  26.603  1.00  0.00     0.023 C 
ENDROOT
BRANCH   1   2
ATOM      2  C   UNL A   1      31.336  29.951  25.294  1.00  0.00     0.116 C 
BRANCH   2   3
ATOM      3  N   UNL A   1      32.393  29.686  24.330  1.00  0.00    -0.354 N 
ATOM      4  C   UNL A   1      32.494  28.835  23.262  1.00  0.00     0.250 C 
ATOM      5  O   UNL A   1      33.463  29.041  22.525  1.00  0.00    -0.272 OA
ATOM      6  H   UNL A   1      33.202  30.230  24.475  1.00  0.00     0.163 HD
BRANCH   4   7
ATOM      7  C   UNL A   1      31.345  27.816  22.902  1.00  0.00     0.141 C 
ATOM      8  C   UNL A   1      31.262  26.861  24.124  1.00  0.00     0.051 C 
BRANCH   7   9
ATOM      9  C   UNL A   1      30.061  28.600  22.593  1.00  0.00    -0.013 A 
ATOM     10  C   UNL A   1      28.824  28.192  23.130  1.00  0.00     0.007 A 
ATOM     11  C   UNL A   1      30.082  29.779  21.825  1.00  0.00     0.007 A 
ATOM     12  C   UNL A   1      27.699  29.012  23.046  1.00  0.00     0.000 A 
ATOM     13  C   UNL A   1      28.956  30.603  21.747  1.00  0.00     0.000 A 
ATOM     14  C   UNL A   1      27.775  30.233  22.383  1.00  0.00     0.000 A 
ENDBRANCH   7   9
BRANCH   7  15
ATOM     15  N   UNL A   1      31.773  27.021  21.726  1.00  0.00    -0.338 N 
ATOM     16  C   UNL A   1      32.565  25.941  21.544  1.00  0.00     0.223 C 
ATOM     17  H   UNL A   1      31.395  27.359  20.882  1.00  0.00     0.164 HD
ATOM     18  O   UNL A   1      33.056  25.851  20.410  1.00  0.00    -0.275 OA
BRANCH  16  19
ATOM     19  C   UNL A   1      32.734  24.767  22.498  1.00  0.00     0.132 C 
BRANCH  19  20
ATOM     20  C   UNL A   1      33.277  23.399  22.104  1.00  0.00     0.127 C 
ATOM     21  C   UNL A   1      32.560  22.176  22.674  1.00  0.00     0.033 C 
ATOM     22  O   UNL A   1      34.689  23.328  22.394  1.00  0.00    -0.378 OA
ATOM     23  C   UNL A   1      32.905  21.896  24.128  1.00  0.00     0.005 C 
ATOM     24  C   UNL A   1      35.006  23.202  23.777  1.00  0.00     0.160 C 
ATOM     25  C   UNL A   1      34.410  21.925  24.343  1.00  0.00     0.029 C 
ENDBRANCH  19  20
ENDBRANCH  16  19
ENDBRANCH   7  15
ENDBRANCH   4   7
ENDBRANCH   2   3
ENDBRANCH   1   2
BRANCH   1  26
ATOM     26  C   UNL A   1      31.631  31.970  26.862  1.00  0.00     0.023 C 
BRANCH  26  27
ATOM     27  C   UNL A   1      32.838  32.785  27.312  1.00  0.00     0.116 C 
BRANCH  27  28
ATOM     28  N   UNL A   1      32.495  34.162  27.626  1.00  0.00    -0.352 N 
ATOM     29  C   UNL A   1      33.032  34.971  28.598  1.00  0.00     0.251 C 
ATOM     30  H   UNL A   1      31.789  34.566  27.072  1.00  0.00     0.163 HD
ATOM     31  O   UNL A   1      32.533  36.063  28.849  1.00  0.00    -0.269 OA
BRANCH  29  32
ATOM     32  C   UNL A   1      34.201  34.494  29.362  1.00  0.00     0.039 A 
ATOM     33  C   UNL A   1      33.999  33.905  30.611  1.00  0.00     0.014 A 
ATOM     34  C   UNL A   1      35.486  34.590  28.820  1.00  0.00     0.014 A 
ATOM     35  C   UNL A   1      35.084  33.353  31.293  1.00  0.00     0.010 A 
ATOM     36  C   UNL A   1      36.553  33.976  29.468  1.00  0.00     0.010 A 
ATOM     37  C   UNL A   1      36.363  33.353  30.712  1.00  0.00    -0.014 A 
BRANCH  37  38
ATOM     38  C   UNL A   1      37.515  32.707  31.389  1.00  0.00     0.031 A 
ATOM     39  C   UNL A   1      38.192  31.523  30.758  1.00  0.00     0.074 A 
ATOM     40  C   UNL A   1      37.911  33.146  32.599  1.00  0.00     0.049 A 
ATOM     41  N   UNL A   1      39.176  30.792  31.219  1.00  0.00    -0.248 NA
ATOM     42  C   UNL A   1      37.681  31.086  29.448  1.00  0.00     0.031 C 
ATOM     43  C   UNL A   1      37.311  34.260  33.338  1.00  0.00     0.029 A 
ATOM     44  N   UNL A   1      38.915  32.704  33.424  1.00  0.00    -0.354 N 
ATOM     45  C   UNL A   1      39.390  29.805  30.265  1.00  0.00     0.074 A 
ATOM     46  C   UNL A   1      38.401  29.997  29.228  1.00  0.00     0.031 C 
ATOM     47  C   UNL A   1      37.973  34.426  34.494  1.00  0.00     0.029 A 
ATOM     48  C   UNL A   1      39.018  33.412  34.596  1.00  0.00     0.049 A 
ATOM     49  H   UNL A   1      39.506  31.949  33.196  1.00  0.00     0.167 HD
ATOM     50  C   UNL A   1      40.338  28.839  30.243  1.00  0.00     0.031 A 
ATOM     51  C   UNL A   1      39.854  33.259  35.640  1.00  0.00     0.031 A 
ATOM     52  C   UNL A   1      41.328  28.652  31.270  1.00  0.00     0.049 A 
ATOM     53  C   UNL A   1      40.891  32.171  35.597  1.00  0.00     0.074 A 
ATOM     54  C   UNL A   1      42.361  27.733  31.315  1.00  0.00     0.029 A 
ATOM     55  N   UNL A   1      41.404  29.398  32.436  1.00  0.00    -0.354 N 
ATOM     56  N   UNL A   1      41.123  31.288  34.657  1.00  0.00    -0.248 NA
ATOM     57  C   UNL A   1      41.788  32.067  36.756  1.00  0.00     0.031 C 
ATOM     58  C   UNL A   1      43.033  27.892  32.531  1.00  0.00     0.029 A 
ATOM     59  C   UNL A   1      42.454  28.946  33.217  1.00  0.00     0.049 A 
ATOM     60  H   UNL A   1      40.800  30.139  32.673  1.00  0.00     0.167 HD
ATOM     61  C   UNL A   1      42.209  30.542  35.097  1.00  0.00     0.074 A 
ATOM     62  C   UNL A   1      42.599  31.088  36.381  1.00  0.00     0.031 C 
ATOM     63  C   UNL A   1      42.827  29.500  34.493  1.00  0.00     0.031 A 
BRANCH  50  64
ATOM     64  C   UNL A   1      40.345  27.907  29.063  1.00  0.00    -0.014 A 
ATOM     65  C   UNL A   1      41.073  28.211  27.901  1.00  0.00     0.009 A 
ATOM     66  C   UNL A   1      39.639  26.696  29.123  1.00  0.00     0.009 A 
ATOM     67  C   UNL A   1      41.062  27.341  26.810  1.00  0.00     0.001 A 
ATOM     68  C   UNL A   1      39.654  25.813  28.042  1.00  0.00     0.001 A 
ATOM     69  C   UNL A   1      40.356  26.140  26.883  1.00  0.00     0.000 A 
ENDBRANCH  50  64
BRANCH  51  70
ATOM     70  C   UNL A   1      39.758  34.169  36.811  1.00  0.00    -0.014 A 
ATOM     71  C   UNL A   1      39.022  33.796  37.946  1.00  0.00     0.009 A 
ATOM     72  C   UNL A   1      40.396  35.419  36.799  1.00  0.00     0.009 A 
ATOM     73  C   UNL A   1      38.903  34.666  39.032  1.00  0.00     0.001 A 
ATOM     74  C   UNL A   1      40.301  36.276  37.898  1.00  0.00     0.001 A 
ATOM     75  C   UNL A   1      39.546  35.902  39.009  1.00  0.00     0.000 A 
ENDBRANCH  51  70
BRANCH  63  76
ATOM     76  C   UNL A   1      44.014  28.902  35.196  1.00  0.00    -0.014 A 
ATOM     77  C   UNL A   1      43.879  27.781  36.030  1.00  0.00     0.009 A 
ATOM     78  C   UNL A   1      45.290  29.447  34.988  1.00  0.00     0.009 A 
ATOM     79  C   UNL A   1      44.996  27.237  36.666  1.00  0.00     0.001 A 
ATOM     80  C   UNL A   1      46.410  28.883  35.602  1.00  0.00     0.001 A 
ATOM     81  C   UNL A   1      46.261  27.785  36.447  1.00  0.00     0.000 A 
ENDBRANCH  63  76
ENDBRANCH  37  38
ENDBRANCH  29  32
ENDBRANCH  27  28
ENDBRANCH  26  27
ENDBRANCH   1  26
TORSDOF 15
ENDMDL
MODEL 3
REMARK VINA RESULT:     -12.1      3.323      5.390
REMARK SMILES C[C@](NC(=O)C[C@@H]1CCCCO1)(C(=O)NCCCCNC(=O)c1ccc(-c2c3nc(c(-c4ccccc4)c4ccc([nH]4)c(-c4ccccc4)c4nc(c(-c5ccccc5)c5ccc2[nH]5)C=C4)C=C3)cc1)c1ccccc1
REMARK SMILES IDX 17 1 16 2 15 3 13 4 14 5 2 7 1 8 71 9 72 10 76 11 73 12
REMARK SMILES IDX 75 13 74 14 3 15 4 16 5 18 6 19 7 20 8 21 12 22 9 23 11 24
REMARK SMILES IDX 10 25 18 26 19 27 20 28 21 29 22 31 23 32 24 33 70 34 25 35
REMARK SMILES IDX 69 36 26 37 27 38 28 39 63 40 29 41 68 42 62 43 64 44 30 45
REMARK SMILES IDX 67 46 61 47 60 48 31 50 53 51 38 52 52 53 39 54 42 55 51 56
REMARK SMILES IDX 65 57 40 58 41 59 50 61 66 62 43 63 32 64 33 65 37 66 34 67
REMARK SMILES IDX 36 68 35 69 54 70 55 71 59 72 56 73 58 74 57 75 44 76 45 77
REMARK SMILES IDX 49 78 46 79 48 80 47 81
REMARK H PARENT 15 6 3 17 20 30 64 49 42 60
REMARK Flexibility Score: inf
ROOT
ATOM      1  C   UNL A   1      31.793  27.875  25.685  1.00  0.00     0.023 C 
ENDROOT
BRANCH   1   2
ATOM      2  C   UNL A   1      32.367  26.541  25.210  1.00  0.00     0.116 C 
BRANCH   2   3
ATOM      3  N   UNL A   1      33.104  26.707  23.965  1.00  0.00    -0.354 N 
ATOM      4  C   UNL A   1      33.620  25.822  23.058  1.00  0.00     0.250 C 
ATOM      5  O   UNL A   1      33.989  26.327  21.993  1.00  0.00    -0.272 OA
ATOM      6  H   UNL A   1      33.263  27.650  23.728  1.00  0.00     0.163 HD
BRANCH   4   7
ATOM      7  C   UNL A   1      33.547  24.263  23.286  1.00  0.00     0.141 C 
ATOM      8  C   UNL A   1      33.257  23.668  21.881  1.00  0.00     0.051 C 
BRANCH   7   9
ATOM      9  C   UNL A   1      34.853  23.792  23.942  1.00  0.00    -0.013 A 
ATOM     10  C   UNL A   1      35.770  22.996  23.225  1.00  0.00     0.007 A 
ATOM     11  C   UNL A   1      35.211  24.189  25.244  1.00  0.00     0.007 A 
ATOM     12  C   UNL A   1      37.050  22.752  23.722  1.00  0.00     0.000 A 
ATOM     13  C   UNL A   1      36.496  23.948  25.737  1.00  0.00     0.000 A 
ATOM     14  C   UNL A   1      37.423  23.257  24.964  1.00  0.00     0.000 A 
ENDBRANCH   7   9
BRANCH   7  15
ATOM     15  N   UNL A   1      32.384  23.970  24.158  1.00  0.00    -0.338 N 
ATOM     16  C   UNL A   1      31.570  22.904  24.334  1.00  0.00     0.223 C 
ATOM     17  H   UNL A   1      32.149  24.726  24.745  1.00  0.00     0.164 HD
ATOM     18  O   UNL A   1      30.452  23.184  24.790  1.00  0.00    -0.275 OA
BRANCH  16  19
ATOM     19  C   UNL A   1      31.958  21.437  24.223  1.00  0.00     0.132 C 
BRANCH  19  20
ATOM     20  C   UNL A   1      32.458  20.581  25.380  1.00  0.00     0.127 C 
ATOM     21  C   UNL A   1      33.950  20.651  25.702  1.00  0.00     0.033 C 
ATOM     22  O   UNL A   1      32.054  19.209  25.189  1.00  0.00    -0.378 OA
ATOM     23  C   UNL A   1      34.815  19.854  24.738  1.00  0.00     0.005 C 
ATOM     24  C   UNL A   1      32.783  18.510  24.183  1.00  0.00     0.160 C 
ATOM     25  C   UNL A   1      34.258  18.453  24.541  1.00  0.00     0.029 C 
ENDBRANCH  19  20
ENDBRANCH  16  19
ENDBRANCH   7  15
ENDBRANCH   4   7
ENDBRANCH   2   3
ENDBRANCH   1   2
BRANCH   1  26
ATOM     26  C   UNL A   1      32.189  28.263  27.114  1.00  0.00     0.023 C 
BRANCH  26  27
ATOM     27  C   UNL A   1      33.594  28.836  27.257  1.00  0.00     0.116 C 
BRANCH  27  28
ATOM     28  N   UNL A   1      33.590  30.214  27.720  1.00  0.00    -0.352 N 
ATOM     29  C   UNL A   1      34.587  30.893  28.376  1.00  0.00     0.251 C 
ATOM     30  H   UNL A   1      32.767  30.725  27.541  1.00  0.00     0.163 HD
ATOM     31  O   UNL A   1      34.382  32.009  28.845  1.00  0.00    -0.269 OA
BRANCH  29  32
ATOM     32  C   UNL A   1      35.905  30.250  28.540  1.00  0.00     0.039 A 
ATOM     33  C   UNL A   1      36.810  30.280  27.478  1.00  0.00     0.014 A 
ATOM     34  C   UNL A   1      36.256  29.660  29.758  1.00  0.00     0.014 A 
ATOM     35  C   UNL A   1      38.098  29.772  27.659  1.00  0.00     0.010 A 
ATOM     36  C   UNL A   1      37.561  29.219  29.957  1.00  0.00     0.010 A 
ATOM     37  C   UNL A   1      38.494  29.269  28.910  1.00  0.00    -0.014 A 
BRANCH  37  38
ATOM     38  C   UNL A   1      39.880  28.792  29.141  1.00  0.00     0.031 A 
ATOM     39  C   UNL A   1      40.901  29.711  29.748  1.00  0.00     0.074 A 
ATOM     40  C   UNL A   1      40.234  27.553  28.749  1.00  0.00     0.049 A 
ATOM     41  N   UNL A   1      42.172  29.496  29.979  1.00  0.00    -0.248 NA
ATOM     42  C   UNL A   1      40.442  31.059  30.123  1.00  0.00     0.031 C 
ATOM     43  C   UNL A   1      39.348  26.577  28.109  1.00  0.00     0.029 A 
ATOM     44  N   UNL A   1      41.440  26.903  28.828  1.00  0.00    -0.354 N 
ATOM     45  C   UNL A   1      42.664  30.681  30.511  1.00  0.00     0.074 A 
ATOM     46  C   UNL A   1      41.571  31.628  30.518  1.00  0.00     0.031 C 
ATOM     47  C   UNL A   1      40.035  25.447  27.877  1.00  0.00     0.029 A 
ATOM     48  C   UNL A   1      41.415  25.629  28.314  1.00  0.00     0.049 A 
ATOM     49  H   UNL A   1      42.248  27.312  29.216  1.00  0.00     0.167 HD
ATOM     50  C   UNL A   1      43.908  30.952  30.971  1.00  0.00     0.031 A 
ATOM     51  C   UNL A   1      42.394  24.712  28.203  1.00  0.00     0.031 A 
ATOM     52  C   UNL A   1      44.994  30.009  30.971  1.00  0.00     0.049 A 
ATOM     53  C   UNL A   1      43.770  25.041  28.710  1.00  0.00     0.074 A 
ATOM     54  C   UNL A   1      46.278  30.173  31.461  1.00  0.00     0.029 A 
ATOM     55  N   UNL A   1      44.924  28.726  30.452  1.00  0.00    -0.354 N 
ATOM     56  N   UNL A   1      44.202  26.144  29.272  1.00  0.00    -0.248 NA
ATOM     57  C   UNL A   1      44.791  23.993  28.578  1.00  0.00     0.031 C 
ATOM     58  C   UNL A   1      46.998  29.004  31.195  1.00  0.00     0.029 A 
ATOM     59  C   UNL A   1      46.148  28.094  30.591  1.00  0.00     0.049 A 
ATOM     60  H   UNL A   1      44.122  28.325  30.044  1.00  0.00     0.167 HD
ATOM     61  C   UNL A   1      45.535  25.913  29.585  1.00  0.00     0.074 A 
ATOM     62  C   UNL A   1      45.836  24.559  29.166  1.00  0.00     0.031 C 
ATOM     63  C   UNL A   1      46.430  26.746  30.167  1.00  0.00     0.031 A 
BRANCH  50  64
ATOM     64  C   UNL A   1      44.157  32.332  31.514  1.00  0.00    -0.014 A 
ATOM     65  C   UNL A   1      43.920  32.636  32.864  1.00  0.00     0.009 A 
ATOM     66  C   UNL A   1      44.661  33.335  30.672  1.00  0.00     0.009 A 
ATOM     67  C   UNL A   1      44.146  33.924  33.351  1.00  0.00     0.001 A 
ATOM     68  C   UNL A   1      44.915  34.615  31.168  1.00  0.00     0.001 A 
ATOM     69  C   UNL A   1      44.648  34.912  32.504  1.00  0.00     0.000 A 
ENDBRANCH  50  64
BRANCH  51  70
ATOM     70  C   UNL A   1      42.107  23.386  27.596  1.00  0.00    -0.014 A 
ATOM     71  C   UNL A   1      42.410  23.137  26.248  1.00  0.00     0.009 A 
ATOM     72  C   UNL A   1      41.521  22.363  28.358  1.00  0.00     0.009 A 
ATOM     73  C   UNL A   1      42.107  21.902  25.670  1.00  0.00     0.001 A 
ATOM     74  C   UNL A   1      41.247  21.119  27.786  1.00  0.00     0.001 A 
ATOM     75  C   UNL A   1      41.530  20.894  26.440  1.00  0.00     0.000 A 
ENDBRANCH  51  70
BRANCH  63  76
ATOM     76  C   UNL A   1      47.810  26.207  30.419  1.00  0.00    -0.014 A 
ATOM     77  C   UNL A   1      48.789  26.211  29.413  1.00  0.00     0.009 A 
ATOM     78  C   UNL A   1      48.145  25.726  31.694  1.00  0.00     0.009 A 
ATOM     79  C   UNL A   1      50.068  25.713  29.672  1.00  0.00     0.001 A 
ATOM     80  C   UNL A   1      49.432  25.256  31.959  1.00  0.00     0.001 A 
ATOM     81  C   UNL A   1      50.389  25.241  30.946  1.00  0.00     0.000 A 
ENDBRANCH  63  76
ENDBRANCH  37  38
ENDBRANCH  29  32
ENDBRANCH  27  28
ENDBRANCH  26  27
ENDBRANCH   1  26
TORSDOF 15
ENDMDL
