MODEL 1
REMARK VINA RESULT:     -12.2      0.000      0.000
REMARK SMILES CC[C@H](C)N1C(=O)c2ccccc2[C@@H](C(=O)NCCCCNC(=O)c2ccc(-c3c4nc(c(-c5ccccc5)c5ccc([nH]5)c(-c5ccccc5)c5nc(c(-c6ccccc6)c6ccc3[nH]6)C=C5)C=C4)cc2)C12CCCCC2
REMARK SMILES IDX 19 1 18 2 17 3 15 4 16 5 14 7 5 8 6 9 73 10 7 11 8 12 74 13
REMARK SMILES IDX 78 14 9 15 13 16 75 17 77 18 10 19 12 20 76 21 11 22 3 23
REMARK SMILES IDX 4 24 2 25 1 26 20 27 21 28 22 29 23 30 24 32 25 33 26 34
REMARK SMILES IDX 72 35 27 36 71 37 28 38 29 39 30 40 65 41 31 42 70 43 64 44
REMARK SMILES IDX 66 45 32 46 69 47 63 48 62 49 33 51 55 52 40 53 54 54 41 55
REMARK SMILES IDX 44 56 53 57 67 58 42 59 43 60 52 62 68 63 45 64 34 65 35 66
REMARK SMILES IDX 39 67 36 68 38 69 37 70 56 71 57 72 61 73 58 74 60 75 59 76
REMARK SMILES IDX 46 77 47 78 51 79 48 80 50 81 49 82
REMARK H PARENT 17 6 22 31 66 50 44 61
REMARK Flexibility Score: inf
ROOT
ATOM      1  C   UNL A   1      32.133  27.194  25.985  1.00  0.00     0.023 C 
ENDROOT
BRANCH   1   2
ATOM      2  C   UNL A   1      33.137  26.047  26.129  1.00  0.00     0.116 C 
BRANCH   2   3
ATOM      3  N   UNL A   1      33.792  25.673  24.886  1.00  0.00    -0.355 N 
ATOM      4  C   UNL A   1      34.209  24.472  24.389  1.00  0.00     0.229 C 
ATOM      5  O   UNL A   1      34.648  24.488  23.233  1.00  0.00    -0.274 OA
ATOM      6  H   UNL A   1      33.970  26.433  24.286  1.00  0.00     0.163 HD
BRANCH   4   7
ATOM      7  C   UNL A   1      34.098  23.143  25.167  1.00  0.00     0.135 C 
ATOM      8  N   UNL A   1      33.482  20.640  24.910  1.00  0.00    -0.329 N 
ATOM      9  C   UNL A   1      34.860  20.318  24.826  1.00  0.00     0.254 C 
ATOM     10  C   UNL A   1      33.001  22.091  24.657  1.00  0.00     0.059 C 
ATOM     11  O   UNL A   1      35.275  19.193  24.551  1.00  0.00    -0.269 OA
ATOM     12  C   UNL A   1      35.867  21.339  25.152  1.00  0.00     0.044 A 
ATOM     13  C   UNL A   1      32.644  22.162  23.154  1.00  0.00     0.030 C 
ATOM     14  C   UNL A   1      31.667  22.427  25.403  1.00  0.00     0.030 C 
ATOM     15  C   UNL A   1      37.224  20.968  25.191  1.00  0.00     0.014 A 
ATOM     16  C   UNL A   1      35.499  22.639  25.450  1.00  0.00    -0.020 A 
ATOM     17  C   UNL A   1      31.915  23.404  22.637  1.00  0.00     0.002 C 
ATOM     18  C   UNL A   1      30.991  23.735  24.978  1.00  0.00     0.002 C 
ATOM     19  C   UNL A   1      38.203  21.878  25.591  1.00  0.00     0.001 A 
ATOM     20  C   UNL A   1      36.487  23.527  25.936  1.00  0.00     0.005 A 
ATOM     21  C   UNL A   1      30.704  23.764  23.480  1.00  0.00     0.000 C 
ATOM     22  C   UNL A   1      37.829  23.152  25.995  1.00  0.00     0.000 A 
BRANCH   8  23
ATOM     23  C   UNL A   1      32.628  19.405  24.783  1.00  0.00     0.082 C 
ATOM     24  C   UNL A   1      32.464  18.771  23.404  1.00  0.00     0.031 C 
BRANCH  23  25
ATOM     25  C   UNL A   1      32.816  18.404  25.962  1.00  0.00     0.021 C 
ATOM     26  C   UNL A   1      32.804  16.920  25.623  1.00  0.00     0.006 C 
ENDBRANCH  23  25
ENDBRANCH   8  23
ENDBRANCH   4   7
ENDBRANCH   2   3
ENDBRANCH   1   2
BRANCH   1  27
ATOM     27  C   UNL A   1      32.254  28.295  27.022  1.00  0.00     0.023 C 
BRANCH  27  28
ATOM     28  C   UNL A   1      33.654  28.856  27.110  1.00  0.00     0.116 C 
BRANCH  28  29
ATOM     29  N   UNL A   1      33.666  30.195  27.688  1.00  0.00    -0.352 N 
ATOM     30  C   UNL A   1      34.647  30.800  28.437  1.00  0.00     0.251 C 
ATOM     31  H   UNL A   1      32.863  30.739  27.520  1.00  0.00     0.163 HD
ATOM     32  O   UNL A   1      34.430  31.844  29.040  1.00  0.00    -0.269 OA
BRANCH  30  33
ATOM     33  C   UNL A   1      35.964  30.143  28.518  1.00  0.00     0.039 A 
ATOM     34  C   UNL A   1      36.355  29.555  29.720  1.00  0.00     0.014 A 
ATOM     35  C   UNL A   1      36.838  30.194  27.430  1.00  0.00     0.014 A 
ATOM     36  C   UNL A   1      37.683  29.221  29.908  1.00  0.00     0.010 A 
ATOM     37  C   UNL A   1      38.141  29.717  27.580  1.00  0.00     0.010 A 
ATOM     38  C   UNL A   1      38.586  29.269  28.834  1.00  0.00    -0.014 A 
BRANCH  38  39
ATOM     39  C   UNL A   1      39.973  28.795  29.055  1.00  0.00     0.031 A 
ATOM     40  C   UNL A   1      40.413  27.433  28.600  1.00  0.00     0.074 A 
ATOM     41  C   UNL A   1      40.853  29.649  29.613  1.00  0.00     0.049 A 
ATOM     42  N   UNL A   1      41.593  26.876  28.715  1.00  0.00    -0.248 NA
ATOM     43  C   UNL A   1      39.412  26.579  27.939  1.00  0.00     0.031 C 
ATOM     44  C   UNL A   1      40.534  31.008  30.064  1.00  0.00     0.029 A 
ATOM     45  N   UNL A   1      42.197  29.530  29.853  1.00  0.00    -0.354 N 
ATOM     46  C   UNL A   1      41.466  25.600  28.180  1.00  0.00     0.074 A 
ATOM     47  C   UNL A   1      40.094  25.456  27.747  1.00  0.00     0.031 C 
ATOM     48  C   UNL A   1      41.662  31.626  30.431  1.00  0.00     0.029 A 
ATOM     49  C   UNL A   1      42.765  30.679  30.347  1.00  0.00     0.049 A 
ATOM     50  H   UNL A   1      42.704  28.704  29.686  1.00  0.00     0.167 HD
ATOM     51  C   UNL A   1      42.414  24.642  28.064  1.00  0.00     0.031 A 
ATOM     52  C   UNL A   1      44.031  30.942  30.718  1.00  0.00     0.031 A 
ATOM     53  C   UNL A   1      43.783  24.811  28.476  1.00  0.00     0.049 A 
ATOM     54  C   UNL A   1      45.050  29.849  30.611  1.00  0.00     0.074 A 
ATOM     55  C   UNL A   1      44.824  23.905  28.386  1.00  0.00     0.029 A 
ATOM     56  N   UNL A   1      44.301  25.963  29.050  1.00  0.00    -0.354 N 
ATOM     57  N   UNL A   1      44.907  28.641  30.126  1.00  0.00    -0.248 NA
ATOM     58  C   UNL A   1      46.395  30.147  31.118  1.00  0.00     0.031 C 
ATOM     59  C   UNL A   1      45.958  24.486  28.958  1.00  0.00     0.029 A 
ATOM     60  C   UNL A   1      45.642  25.779  29.343  1.00  0.00     0.049 A 
ATOM     61  H   UNL A   1      43.792  26.787  29.223  1.00  0.00     0.167 HD
ATOM     62  C   UNL A   1      46.144  28.030  30.266  1.00  0.00     0.074 A 
ATOM     63  C   UNL A   1      47.031  29.011  30.858  1.00  0.00     0.031 C 
ATOM     64  C   UNL A   1      46.506  26.766  29.940  1.00  0.00     0.031 A 
BRANCH  51  65
ATOM     65  C   UNL A   1      42.014  23.308  27.494  1.00  0.00    -0.014 A 
ATOM     66  C   UNL A   1      41.441  22.340  28.336  1.00  0.00     0.009 A 
ATOM     67  C   UNL A   1      42.286  22.969  26.159  1.00  0.00     0.009 A 
ATOM     68  C   UNL A   1      41.162  21.058  27.859  1.00  0.00     0.001 A 
ATOM     69  C   UNL A   1      41.981  21.693  25.679  1.00  0.00     0.001 A 
ATOM     70  C   UNL A   1      41.430  20.736  26.530  1.00  0.00     0.000 A 
ENDBRANCH  51  65
BRANCH  52  71
ATOM     71  C   UNL A   1      44.371  32.295  31.229  1.00  0.00    -0.014 A 
ATOM     72  C   UNL A   1      44.300  32.578  32.603  1.00  0.00     0.009 A 
ATOM     73  C   UNL A   1      44.681  33.333  30.340  1.00  0.00     0.009 A 
ATOM     74  C   UNL A   1      44.490  33.878  33.074  1.00  0.00     0.001 A 
ATOM     75  C   UNL A   1      44.905  34.627  30.817  1.00  0.00     0.001 A 
ATOM     76  C   UNL A   1      44.795  34.902  32.179  1.00  0.00     0.000 A 
ENDBRANCH  52  71
BRANCH  64  77
ATOM     77  C   UNL A   1      47.926  26.362  30.209  1.00  0.00    -0.014 A 
ATOM     78  C   UNL A   1      48.875  26.425  29.175  1.00  0.00     0.009 A 
ATOM     79  C   UNL A   1      48.301  25.830  31.451  1.00  0.00     0.009 A 
ATOM     80  C   UNL A   1      50.170  25.947  29.376  1.00  0.00     0.001 A 
ATOM     81  C   UNL A   1      49.606  25.379  31.658  1.00  0.00     0.001 A 
ATOM     82  C   UNL A   1      50.535  25.428  30.618  1.00  0.00     0.000 A 
ENDBRANCH  64  77
ENDBRANCH  38  39
ENDBRANCH  30  33
ENDBRANCH  28  29
ENDBRANCH  27  28
ENDBRANCH   1  27
TORSDOF 13
ENDMDL
MODEL 2
REMARK VINA RESULT:     -12.0      0.329      5.804
REMARK SMILES CC[C@H](C)N1C(=O)c2ccccc2[C@@H](C(=O)NCCCCNC(=O)c2ccc(-c3c4nc(c(-c5ccccc5)c5ccc([nH]5)c(-c5ccccc5)c5nc(c(-c6ccccc6)c6ccc3[nH]6)C=C5)C=C4)cc2)C12CCCCC2
REMARK SMILES IDX 19 1 18 2 17 3 15 4 16 5 14 7 5 8 6 9 73 10 7 11 8 12 74 13
REMARK SMILES IDX 78 14 9 15 13 16 75 17 77 18 10 19 12 20 76 21 11 22 3 23
REMARK SMILES IDX 4 24 2 25 1 26 20 27 21 28 22 29 23 30 24 32 25 33 26 34
REMARK SMILES IDX 72 35 27 36 71 37 28 38 29 39 30 40 65 41 31 42 70 43 64 44
REMARK SMILES IDX 66 45 32 46 69 47 63 48 62 49 33 51 55 52 40 53 54 54 41 55
REMARK SMILES IDX 44 56 53 57 67 58 42 59 43 60 52 62 68 63 45 64 34 65 35 66
REMARK SMILES IDX 39 67 36 68 38 69 37 70 56 71 57 72 61 73 58 74 60 75 59 76
REMARK SMILES IDX 46 77 47 78 51 79 48 80 50 81 49 82
REMARK H PARENT 17 6 22 31 66 50 44 61
REMARK Flexibility Score: inf
ROOT
ATOM      1  C   UNL A   1      32.043  27.178  26.024  1.00  0.00     0.023 C 
ENDROOT
BRANCH   1   2
ATOM      2  C   UNL A   1      33.003  25.994  26.167  1.00  0.00     0.116 C 
BRANCH   2   3
ATOM      3  N   UNL A   1      33.712  25.653  24.943  1.00  0.00    -0.355 N 
ATOM      4  C   UNL A   1      34.180  24.471  24.447  1.00  0.00     0.229 C 
ATOM      5  O   UNL A   1      34.658  24.515  23.308  1.00  0.00    -0.274 OA
ATOM      6  H   UNL A   1      33.889  26.426  24.359  1.00  0.00     0.163 HD
BRANCH   4   7
ATOM      7  C   UNL A   1      34.078  23.129  25.204  1.00  0.00     0.135 C 
ATOM      8  N   UNL A   1      33.472  20.628  24.911  1.00  0.00    -0.329 N 
ATOM      9  C   UNL A   1      34.850  20.314  24.815  1.00  0.00     0.254 C 
ATOM     10  C   UNL A   1      32.983  22.080  24.682  1.00  0.00     0.059 C 
ATOM     11  O   UNL A   1      35.270  19.195  24.520  1.00  0.00    -0.269 OA
ATOM     12  C   UNL A   1      35.855  21.334  25.153  1.00  0.00     0.044 A 
ATOM     13  C   UNL A   1      32.619  22.174  23.182  1.00  0.00     0.030 C 
ATOM     14  C   UNL A   1      31.651  22.398  25.440  1.00  0.00     0.030 C 
ATOM     15  C   UNL A   1      37.214  20.969  25.180  1.00  0.00     0.014 A 
ATOM     16  C   UNL A   1      35.482  22.627  25.473  1.00  0.00    -0.020 A 
ATOM     17  C   UNL A   1      31.882  23.421  22.689  1.00  0.00     0.002 C 
ATOM     18  C   UNL A   1      30.967  23.710  25.039  1.00  0.00     0.002 C 
ATOM     19  C   UNL A   1      38.190  21.876  25.589  1.00  0.00     0.001 A 
ATOM     20  C   UNL A   1      36.468  23.512  25.969  1.00  0.00     0.005 A 
ATOM     21  C   UNL A   1      30.673  23.761  23.543  1.00  0.00     0.000 C 
ATOM     22  C   UNL A   1      37.812  23.142  26.015  1.00  0.00     0.000 A 
BRANCH   8  23
ATOM     23  C   UNL A   1      32.623  19.391  24.767  1.00  0.00     0.082 C 
ATOM     24  C   UNL A   1      32.460  18.775  23.381  1.00  0.00     0.031 C 
BRANCH  23  25
ATOM     25  C   UNL A   1      32.816  18.375  25.933  1.00  0.00     0.021 C 
ATOM     26  C   UNL A   1      32.904  16.901  25.563  1.00  0.00     0.006 C 
ENDBRANCH  23  25
ENDBRANCH   8  23
ENDBRANCH   4   7
ENDBRANCH   2   3
ENDBRANCH   1   2
BRANCH   1  27
ATOM     27  C   UNL A   1      32.145  28.228  27.114  1.00  0.00     0.023 C 
BRANCH  27  28
ATOM     28  C   UNL A   1      33.554  28.742  27.294  1.00  0.00     0.116 C 
BRANCH  28  29
ATOM     29  N   UNL A   1      33.571  30.136  27.723  1.00  0.00    -0.352 N 
ATOM     30  C   UNL A   1      34.573  30.827  28.361  1.00  0.00     0.251 C 
ATOM     31  H   UNL A   1      32.755  30.652  27.530  1.00  0.00     0.163 HD
ATOM     32  O   UNL A   1      34.368  31.928  28.856  1.00  0.00    -0.269 OA
BRANCH  30  33
ATOM     33  C   UNL A   1      35.901  30.193  28.459  1.00  0.00     0.039 A 
ATOM     34  C   UNL A   1      36.300  29.641  29.675  1.00  0.00     0.014 A 
ATOM     35  C   UNL A   1      36.775  30.232  27.371  1.00  0.00     0.014 A 
ATOM     36  C   UNL A   1      37.633  29.333  29.873  1.00  0.00     0.010 A 
ATOM     37  C   UNL A   1      38.086  29.781  27.534  1.00  0.00     0.010 A 
ATOM     38  C   UNL A   1      38.536  29.370  28.798  1.00  0.00    -0.014 A 
BRANCH  38  39
ATOM     39  C   UNL A   1      39.930  28.924  29.032  1.00  0.00     0.031 A 
ATOM     40  C   UNL A   1      40.905  29.777  29.791  1.00  0.00     0.074 A 
ATOM     41  C   UNL A   1      40.283  27.695  28.605  1.00  0.00     0.049 A 
ATOM     42  N   UNL A   1      42.157  29.523  30.084  1.00  0.00    -0.248 NA
ATOM     43  C   UNL A   1      40.430  31.081  30.284  1.00  0.00     0.031 C 
ATOM     44  C   UNL A   1      39.400  26.773  27.882  1.00  0.00     0.029 A 
ATOM     45  N   UNL A   1      41.446  26.987  28.755  1.00  0.00    -0.354 N 
ATOM     46  C   UNL A   1      42.626  30.645  30.755  1.00  0.00     0.074 A 
ATOM     47  C   UNL A   1      41.532  31.589  30.821  1.00  0.00     0.031 C 
ATOM     48  C   UNL A   1      40.017  25.594  27.740  1.00  0.00     0.029 A 
ATOM     49  C   UNL A   1      41.372  25.708  28.260  1.00  0.00     0.049 A 
ATOM     50  H   UNL A   1      42.253  27.359  29.177  1.00  0.00     0.167 HD
ATOM     51  C   UNL A   1      43.860  30.861  31.266  1.00  0.00     0.031 A 
ATOM     52  C   UNL A   1      42.298  24.733  28.206  1.00  0.00     0.031 A 
ATOM     53  C   UNL A   1      44.931  29.900  31.214  1.00  0.00     0.049 A 
ATOM     54  C   UNL A   1      43.666  25.014  28.748  1.00  0.00     0.074 A 
ATOM     55  C   UNL A   1      46.214  30.018  31.719  1.00  0.00     0.029 A 
ATOM     56  N   UNL A   1      44.842  28.645  30.630  1.00  0.00    -0.354 N 
ATOM     57  N   UNL A   1      44.100  26.090  29.357  1.00  0.00    -0.248 NA
ATOM     58  C   UNL A   1      44.674  23.962  28.580  1.00  0.00     0.031 C 
ATOM     59  C   UNL A   1      46.919  28.858  31.389  1.00  0.00     0.029 A 
ATOM     60  C   UNL A   1      46.057  27.989  30.738  1.00  0.00     0.049 A 
ATOM     61  H   UNL A   1      44.036  28.276  30.203  1.00  0.00     0.167 HD
ATOM     62  C   UNL A   1      45.433  25.846  29.649  1.00  0.00     0.074 A 
ATOM     63  C   UNL A   1      45.728  24.509  29.173  1.00  0.00     0.031 C 
ATOM     64  C   UNL A   1      46.332  26.662  30.250  1.00  0.00     0.031 A 
BRANCH  51  65
ATOM     65  C   UNL A   1      44.144  32.192  31.907  1.00  0.00    -0.014 A 
ATOM     66  C   UNL A   1      43.884  32.372  33.276  1.00  0.00     0.009 A 
ATOM     67  C   UNL A   1      44.575  33.293  31.150  1.00  0.00     0.009 A 
ATOM     68  C   UNL A   1      44.035  33.625  33.871  1.00  0.00     0.001 A 
ATOM     69  C   UNL A   1      44.750  34.540  31.755  1.00  0.00     0.001 A 
ATOM     70  C   UNL A   1      44.471  34.708  33.111  1.00  0.00     0.000 A 
ENDBRANCH  51  65
BRANCH  52  71
ATOM     71  C   UNL A   1      41.940  23.424  27.603  1.00  0.00    -0.014 A 
ATOM     72  C   UNL A   1      41.395  22.398  28.395  1.00  0.00     0.009 A 
ATOM     73  C   UNL A   1      42.223  23.160  26.256  1.00  0.00     0.009 A 
ATOM     74  C   UNL A   1      41.180  21.126  27.864  1.00  0.00     0.001 A 
ATOM     75  C   UNL A   1      41.974  21.895  25.718  1.00  0.00     0.001 A 
ATOM     76  C   UNL A   1      41.467  20.876  26.524  1.00  0.00     0.000 A 
ENDBRANCH  52  71
BRANCH  64  77
ATOM     77  C   UNL A   1      47.726  26.137  30.437  1.00  0.00    -0.014 A 
ATOM     78  C   UNL A   1      48.135  25.684  31.702  1.00  0.00     0.009 A 
ATOM     79  C   UNL A   1      48.659  26.182  29.390  1.00  0.00     0.009 A 
ATOM     80  C   UNL A   1      49.459  25.302  31.919  1.00  0.00     0.001 A 
ATOM     81  C   UNL A   1      49.975  25.770  29.604  1.00  0.00     0.001 A 
ATOM     82  C   UNL A   1      50.376  25.341  30.870  1.00  0.00     0.000 A 
ENDBRANCH  64  77
ENDBRANCH  38  39
ENDBRANCH  30  33
ENDBRANCH  28  29
ENDBRANCH  27  28
ENDBRANCH   1  27
TORSDOF 13
ENDMDL
MODEL 3
REMARK VINA RESULT:     -11.9      2.632      8.011
REMARK SMILES CC[C@H](C)N1C(=O)c2ccccc2[C@@H](C(=O)NCCCCNC(=O)c2ccc(-c3c4nc(c(-c5ccccc5)c5ccc([nH]5)c(-c5ccccc5)c5nc(c(-c6ccccc6)c6ccc3[nH]6)C=C5)C=C4)cc2)C12CCCCC2
REMARK SMILES IDX 19 1 18 2 17 3 15 4 16 5 14 7 5 8 6 9 73 10 7 11 8 12 74 13
REMARK SMILES IDX 78 14 9 15 13 16 75 17 77 18 10 19 12 20 76 21 11 22 3 23
REMARK SMILES IDX 4 24 2 25 1 26 20 27 21 28 22 29 23 30 24 32 25 33 26 34
REMARK SMILES IDX 72 35 27 36 71 37 28 38 29 39 30 40 65 41 31 42 70 43 64 44
REMARK SMILES IDX 66 45 32 46 69 47 63 48 62 49 33 51 55 52 40 53 54 54 41 55
REMARK SMILES IDX 44 56 53 57 67 58 42 59 43 60 52 62 68 63 45 64 34 65 35 66
REMARK SMILES IDX 39 67 36 68 38 69 37 70 56 71 57 72 61 73 58 74 60 75 59 76
REMARK SMILES IDX 46 77 47 78 51 79 48 80 50 81 49 82
REMARK H PARENT 17 6 22 31 66 50 44 61
REMARK Flexibility Score: inf
ROOT
ATOM      1  C   UNL A   1      34.974  23.316  24.005  1.00  0.00     0.023 C 
ENDROOT
BRANCH   1   2
ATOM      2  C   UNL A   1      34.645  24.788  24.272  1.00  0.00     0.116 C 
BRANCH   2   3
ATOM      3  N   UNL A   1      33.755  25.001  25.402  1.00  0.00    -0.355 N 
ATOM      4  C   UNL A   1      32.878  26.001  25.709  1.00  0.00     0.229 C 
ATOM      5  O   UNL A   1      32.188  25.823  26.719  1.00  0.00    -0.274 OA
ATOM      6  H   UNL A   1      33.792  24.286  26.077  1.00  0.00     0.163 HD
BRANCH   4   7
ATOM      7  C   UNL A   1      32.685  27.262  24.839  1.00  0.00     0.135 C 
ATOM      8  N   UNL A   1      30.885  28.862  23.885  1.00  0.00    -0.329 N 
ATOM      9  C   UNL A   1      31.169  29.786  24.921  1.00  0.00     0.254 C 
ATOM     10  C   UNL A   1      31.311  27.378  24.022  1.00  0.00     0.059 C 
ATOM     11  O   UNL A   1      30.504  30.802  25.121  1.00  0.00    -0.269 OA
ATOM     12  C   UNL A   1      32.355  29.588  25.768  1.00  0.00     0.044 A 
ATOM     13  C   UNL A   1      30.096  26.645  24.635  1.00  0.00     0.030 C 
ATOM     14  C   UNL A   1      31.544  26.684  22.638  1.00  0.00     0.030 C 
ATOM     15  C   UNL A   1      32.697  30.582  26.705  1.00  0.00     0.014 A 
ATOM     16  C   UNL A   1      33.151  28.465  25.635  1.00  0.00    -0.020 A 
ATOM     17  C   UNL A   1      30.116  25.115  24.680  1.00  0.00     0.002 C 
ATOM     18  C   UNL A   1      31.689  25.160  22.688  1.00  0.00     0.002 C 
ATOM     19  C   UNL A   1      33.865  30.483  27.459  1.00  0.00     0.001 A 
ATOM     20  C   UNL A   1      34.376  28.416  26.341  1.00  0.00     0.005 A 
ATOM     21  C   UNL A   1      30.481  24.496  23.341  1.00  0.00     0.000 C 
ATOM     22  C   UNL A   1      34.723  29.412  27.253  1.00  0.00     0.000 A 
BRANCH   8  23
ATOM     23  C   UNL A   1      29.788  29.374  22.988  1.00  0.00     0.082 C 
ATOM     24  C   UNL A   1      30.162  29.902  21.606  1.00  0.00     0.031 C 
BRANCH  23  25
ATOM     25  C   UNL A   1      28.494  28.507  23.045  1.00  0.00     0.021 C 
ATOM     26  C   UNL A   1      27.163  29.246  23.082  1.00  0.00     0.006 C 
ENDBRANCH  23  25
ENDBRANCH   8  23
ENDBRANCH   4   7
ENDBRANCH   2   3
ENDBRANCH   1   2
BRANCH   1  27
ATOM     27  C   UNL A   1      36.453  22.983  23.955  1.00  0.00     0.023 C 
BRANCH  27  28
ATOM     28  C   UNL A   1      37.194  23.445  25.188  1.00  0.00     0.116 C 
BRANCH  28  29
ATOM     29  N   UNL A   1      38.276  22.534  25.543  1.00  0.00    -0.352 N 
ATOM     30  C   UNL A   1      39.463  22.814  26.176  1.00  0.00     0.251 C 
ATOM     31  H   UNL A   1      38.137  21.591  25.297  1.00  0.00     0.163 HD
ATOM     32  O   UNL A   1      40.370  21.991  26.214  1.00  0.00    -0.269 OA
BRANCH  30  33
ATOM     33  C   UNL A   1      39.627  24.145  26.788  1.00  0.00     0.039 A 
ATOM     34  C   UNL A   1      40.283  25.144  26.069  1.00  0.00     0.014 A 
ATOM     35  C   UNL A   1      39.211  24.366  28.101  1.00  0.00     0.014 A 
ATOM     36  C   UNL A   1      40.720  26.276  26.730  1.00  0.00     0.010 A 
ATOM     37  C   UNL A   1      39.527  25.576  28.722  1.00  0.00     0.010 A 
ATOM     38  C   UNL A   1      40.322  26.521  28.055  1.00  0.00    -0.014 A 
BRANCH  38  39
ATOM     39  C   UNL A   1      40.721  27.802  28.686  1.00  0.00     0.031 A 
ATOM     40  C   UNL A   1      42.153  28.083  29.042  1.00  0.00     0.074 A 
ATOM     41  C   UNL A   1      39.773  28.742  28.869  1.00  0.00     0.049 A 
ATOM     42  N   UNL A   1      42.661  29.157  29.593  1.00  0.00    -0.248 NA
ATOM     43  C   UNL A   1      43.145  27.034  28.754  1.00  0.00     0.031 C 
ATOM     44  C   UNL A   1      38.355  28.579  28.529  1.00  0.00     0.029 A 
ATOM     45  N   UNL A   1      39.855  30.028  29.332  1.00  0.00    -0.354 N 
ATOM     46  C   UNL A   1      44.017  28.899  29.753  1.00  0.00     0.074 A 
ATOM     47  C   UNL A   1      44.256  27.564  29.251  1.00  0.00     0.031 C 
ATOM     48  C   UNL A   1      37.725  29.748  28.702  1.00  0.00     0.029 A 
ATOM     49  C   UNL A   1      38.663  30.708  29.266  1.00  0.00     0.049 A 
ATOM     50  H   UNL A   1      40.686  30.426  29.676  1.00  0.00     0.167 HD
ATOM     51  C   UNL A   1      44.969  29.708  30.272  1.00  0.00     0.031 A 
ATOM     52  C   UNL A   1      38.345  31.960  29.640  1.00  0.00     0.031 A 
ATOM     53  C   UNL A   1      44.719  31.045  30.744  1.00  0.00     0.049 A 
ATOM     54  C   UNL A   1      39.413  32.820  30.244  1.00  0.00     0.074 A 
ATOM     55  C   UNL A   1      45.620  31.951  31.273  1.00  0.00     0.029 A 
ATOM     56  N   UNL A   1      43.479  31.668  30.737  1.00  0.00    -0.354 N 
ATOM     57  N   UNL A   1      40.684  32.550  30.411  1.00  0.00    -0.248 NA
ATOM     58  C   UNL A   1      39.002  34.142  30.729  1.00  0.00     0.031 C 
ATOM     59  C   UNL A   1      44.918  33.100  31.640  1.00  0.00     0.029 A 
ATOM     60  C   UNL A   1      43.589  32.938  31.278  1.00  0.00     0.049 A 
ATOM     61  H   UNL A   1      42.647  31.268  30.398  1.00  0.00     0.167 HD
ATOM     62  C   UNL A   1      41.230  33.670  31.019  1.00  0.00     0.074 A 
ATOM     63  C   UNL A   1      40.156  34.632  31.167  1.00  0.00     0.031 C 
ATOM     64  C   UNL A   1      42.506  33.877  31.424  1.00  0.00     0.031 A 
BRANCH  51  65
ATOM     65  C   UNL A   1      46.371  29.175  30.390  1.00  0.00    -0.014 A 
ATOM     66  C   UNL A   1      47.284  29.391  29.344  1.00  0.00     0.009 A 
ATOM     67  C   UNL A   1      46.766  28.383  31.480  1.00  0.00     0.009 A 
ATOM     68  C   UNL A   1      48.555  28.815  29.379  1.00  0.00     0.001 A 
ATOM     69  C   UNL A   1      48.048  27.830  31.523  1.00  0.00     0.001 A 
ATOM     70  C   UNL A   1      48.938  28.038  30.470  1.00  0.00     0.000 A 
ENDBRANCH  51  65
BRANCH  52  71
ATOM     71  C   UNL A   1      36.953  32.443  29.452  1.00  0.00    -0.014 A 
ATOM     72  C   UNL A   1      36.600  33.179  28.309  1.00  0.00     0.009 A 
ATOM     73  C   UNL A   1      35.992  32.249  30.455  1.00  0.00     0.009 A 
ATOM     74  C   UNL A   1      35.330  33.746  28.190  1.00  0.00     0.001 A 
ATOM     75  C   UNL A   1      34.711  32.788  30.318  1.00  0.00     0.001 A 
ATOM     76  C   UNL A   1      34.385  33.548  29.195  1.00  0.00     0.000 A 
ENDBRANCH  52  71
BRANCH  64  77
ATOM     77  C   UNL A   1      42.823  35.196  32.066  1.00  0.00    -0.014 A 
ATOM     78  C   UNL A   1      43.428  36.211  31.308  1.00  0.00     0.009 A 
ATOM     79  C   UNL A   1      42.613  35.399  33.438  1.00  0.00     0.009 A 
ATOM     80  C   UNL A   1      43.833  37.399  31.915  1.00  0.00     0.001 A 
ATOM     81  C   UNL A   1      42.992  36.601  34.037  1.00  0.00     0.001 A 
ATOM     82  C   UNL A   1      43.611  37.595  33.278  1.00  0.00     0.000 A 
ENDBRANCH  64  77
ENDBRANCH  38  39
ENDBRANCH  30  33
ENDBRANCH  28  29
ENDBRANCH  27  28
ENDBRANCH   1  27
TORSDOF 13
ENDMDL
