MODEL 1
REMARK VINA RESULT:     -12.5      0.000      0.000
REMARK SMILES Cn1ccc(-c2n[nH]c(=O)n2-c2ccc(C(=O)NCCCCNC(=O)c3ccc(-c4c5nc(c(-c6ccccc6)c6ccc([nH]6)c(-c6ccccc6)c6nc(c(-c7ccccc7)c7ccc4[nH]7)C=C6)C=C5)cc3)cc2)n1
REMARK SMILES IDX 20 1 19 2 18 3 16 4 17 5 15 7 12 8 13 9 75 10 14 11 74 12
REMARK SMILES IDX 11 13 6 14 7 15 8 16 9 17 10 19 5 20 1 21 2 22 3 23 76 24
REMARK SMILES IDX 4 25 21 26 22 27 23 28 24 29 25 31 26 32 27 33 73 34 28 35
REMARK SMILES IDX 72 36 29 37 30 38 31 39 66 40 32 41 71 42 65 43 67 44 33 45
REMARK SMILES IDX 70 46 64 47 63 48 34 50 56 51 41 52 55 53 42 54 45 55 54 56
REMARK SMILES IDX 68 57 43 58 44 59 53 61 69 62 46 63 35 64 36 65 40 66 37 67
REMARK SMILES IDX 39 68 38 69 57 70 58 71 62 72 59 73 61 74 60 75 47 76 48 77
REMARK SMILES IDX 52 78 49 79 51 80 50 81
REMARK H PARENT 18 6 8 18 23 30 67 49 45 60
REMARK Flexibility Score: inf
ROOT
ATOM      1  C   UNL A   1      36.332  20.917  24.992  1.00  0.00     0.023 C 
ENDROOT
BRANCH   1   2
ATOM      2  C   UNL A   1      34.913  20.398  25.267  1.00  0.00     0.116 C 
BRANCH   2   3
ATOM      3  N   UNL A   1      34.382  20.940  26.504  1.00  0.00    -0.352 N 
ATOM      4  C   UNL A   1      33.859  22.162  26.851  1.00  0.00     0.251 C 
ATOM      5  O   UNL A   1      33.493  22.295  28.020  1.00  0.00    -0.269 OA
ATOM      6  H   UNL A   1      34.401  20.298  27.251  1.00  0.00     0.163 HD
BRANCH   4   7
ATOM      7  C   UNL A   1      33.661  23.295  25.896  1.00  0.00     0.039 A 
ATOM      8  C   UNL A   1      33.387  25.596  24.285  1.00  0.00     0.052 A 
ATOM      9  C   UNL A   1      34.615  25.307  24.877  1.00  0.00     0.028 A 
ATOM     10  C   UNL A   1      32.332  24.691  24.425  1.00  0.00     0.028 A 
ATOM     11  C   UNL A   1      34.737  24.182  25.705  1.00  0.00     0.016 A 
ATOM     12  C   UNL A   1      32.489  23.529  25.179  1.00  0.00     0.016 A 
BRANCH   8  13
ATOM     13  N   UNL A   1      33.206  26.731  23.486  1.00  0.00    -0.242 N 
ATOM     14  C   UNL A   1      32.656  27.929  23.839  1.00  0.00     0.189 A 
ATOM     15  N   UNL A   1      32.242  28.659  22.838  1.00  0.00    -0.150 NA
ATOM     16  N   UNL A   1      32.565  27.909  21.738  1.00  0.00    -0.226 N 
ATOM     17  C   UNL A   1      33.163  26.706  22.114  1.00  0.00     0.348 A 
ATOM     18  H   UNL A   1      32.400  28.182  20.807  1.00  0.00     0.195 HD
ATOM     19  O   UNL A   1      33.474  25.806  21.341  1.00  0.00    -0.246 OA
BRANCH  14  20
ATOM     20  C   UNL A   1      32.584  28.401  25.212  1.00  0.00     0.130 A 
ATOM     21  C   UNL A   1      33.411  30.772  27.653  1.00  0.00     0.173 C 
ATOM     22  N   UNL A   1      32.918  29.634  26.914  1.00  0.00    -0.275 N 
ATOM     23  C   UNL A   1      31.999  28.721  27.334  1.00  0.00     0.109 A 
ATOM     24  N   UNL A   1      33.340  29.424  25.654  1.00  0.00    -0.170 NA
ATOM     25  C   UNL A   1      31.731  27.928  26.243  1.00  0.00     0.054 A 
ENDBRANCH  14  20
ENDBRANCH   8  13
ENDBRANCH   4   7
ENDBRANCH   2   3
ENDBRANCH   1   2
BRANCH   1  26
ATOM     26  C   UNL A   1      37.435  19.847  25.009  1.00  0.00     0.023 C 
BRANCH  26  27
ATOM     27  C   UNL A   1      38.795  20.345  25.480  1.00  0.00     0.116 C 
BRANCH  27  28
ATOM     28  N   UNL A   1      39.757  19.263  25.734  1.00  0.00    -0.352 N 
ATOM     29  C   UNL A   1      41.123  19.363  25.965  1.00  0.00     0.251 C 
ATOM     30  H   UNL A   1      39.386  18.351  25.739  1.00  0.00     0.163 HD
ATOM     31  O   UNL A   1      41.878  18.418  25.796  1.00  0.00    -0.269 OA
BRANCH  29  32
ATOM     32  C   UNL A   1      41.632  20.642  26.480  1.00  0.00     0.039 A 
ATOM     33  C   UNL A   1      42.363  21.559  25.717  1.00  0.00     0.014 A 
ATOM     34  C   UNL A   1      41.274  20.926  27.789  1.00  0.00     0.014 A 
ATOM     35  C   UNL A   1      42.683  22.790  26.291  1.00  0.00     0.010 A 
ATOM     36  C   UNL A   1      41.319  22.213  28.219  1.00  0.00     0.010 A 
ATOM     37  C   UNL A   1      42.153  23.097  27.550  1.00  0.00    -0.014 A 
BRANCH  37  38
ATOM     38  C   UNL A   1      42.408  24.333  28.265  1.00  0.00     0.031 A 
ATOM     39  C   UNL A   1      41.384  25.391  28.081  1.00  0.00     0.074 A 
ATOM     40  C   UNL A   1      43.321  24.353  29.266  1.00  0.00     0.049 A 
ATOM     41  N   UNL A   1      41.546  26.561  27.566  1.00  0.00    -0.248 NA
ATOM     42  C   UNL A   1      39.981  25.072  28.398  1.00  0.00     0.031 C 
ATOM     43  C   UNL A   1      44.133  23.243  29.799  1.00  0.00     0.029 A 
ATOM     44  N   UNL A   1      43.607  25.352  30.134  1.00  0.00    -0.354 N 
ATOM     45  C   UNL A   1      40.312  27.199  27.645  1.00  0.00     0.074 A 
ATOM     46  C   UNL A   1      39.356  26.183  28.003  1.00  0.00     0.031 C 
ATOM     47  C   UNL A   1      44.598  23.567  31.027  1.00  0.00     0.029 A 
ATOM     48  C   UNL A   1      44.273  24.955  31.288  1.00  0.00     0.049 A 
ATOM     49  H   UNL A   1      43.362  26.290  29.961  1.00  0.00     0.167 HD
ATOM     50  C   UNL A   1      40.210  28.558  27.626  1.00  0.00     0.031 A 
ATOM     51  C   UNL A   1      44.493  25.714  32.391  1.00  0.00     0.031 A 
ATOM     52  C   UNL A   1      41.460  29.169  27.251  1.00  0.00     0.049 A 
ATOM     53  C   UNL A   1      44.302  27.129  31.982  1.00  0.00     0.074 A 
ATOM     54  C   UNL A   1      42.243  29.153  26.117  1.00  0.00     0.029 A 
ATOM     55  N   UNL A   1      42.280  29.579  28.278  1.00  0.00    -0.354 N 
ATOM     56  N   UNL A   1      45.072  27.730  31.119  1.00  0.00    -0.248 NA
ATOM     57  C   UNL A   1      42.972  27.699  32.135  1.00  0.00     0.031 C 
ATOM     58  C   UNL A   1      43.580  29.060  26.605  1.00  0.00     0.029 A 
ATOM     59  C   UNL A   1      43.544  29.121  28.001  1.00  0.00     0.049 A 
ATOM     60  H   UNL A   1      42.011  30.104  29.065  1.00  0.00     0.167 HD
ATOM     61  C   UNL A   1      44.206  28.457  30.316  1.00  0.00     0.074 A 
ATOM     62  C   UNL A   1      42.933  28.466  31.041  1.00  0.00     0.031 C 
ATOM     63  C   UNL A   1      44.504  28.723  29.008  1.00  0.00     0.031 A 
BRANCH  50  64
ATOM     64  C   UNL A   1      39.123  29.352  28.303  1.00  0.00    -0.014 A 
ATOM     65  C   UNL A   1      37.943  29.619  27.583  1.00  0.00     0.009 A 
ATOM     66  C   UNL A   1      39.310  30.068  29.499  1.00  0.00     0.009 A 
ATOM     67  C   UNL A   1      37.043  30.608  27.996  1.00  0.00     0.001 A 
ATOM     68  C   UNL A   1      38.393  31.029  29.936  1.00  0.00     0.001 A 
ATOM     69  C   UNL A   1      37.275  31.321  29.168  1.00  0.00     0.000 A 
ENDBRANCH  50  64
BRANCH  51  70
ATOM     70  C   UNL A   1      44.510  25.289  33.811  1.00  0.00    -0.014 A 
ATOM     71  C   UNL A   1      43.391  24.682  34.404  1.00  0.00     0.009 A 
ATOM     72  C   UNL A   1      45.730  25.226  34.512  1.00  0.00     0.009 A 
ATOM     73  C   UNL A   1      43.499  24.008  35.631  1.00  0.00     0.001 A 
ATOM     74  C   UNL A   1      45.838  24.553  35.735  1.00  0.00     0.001 A 
ATOM     75  C   UNL A   1      44.725  23.932  36.288  1.00  0.00     0.000 A 
ENDBRANCH  51  70
BRANCH  63  76
ATOM     76  C   UNL A   1      45.877  28.347  28.497  1.00  0.00    -0.014 A 
ATOM     77  C   UNL A   1      46.185  27.083  27.963  1.00  0.00     0.009 A 
ATOM     78  C   UNL A   1      46.831  29.367  28.371  1.00  0.00     0.009 A 
ATOM     79  C   UNL A   1      47.414  26.844  27.338  1.00  0.00     0.001 A 
ATOM     80  C   UNL A   1      48.050  29.135  27.730  1.00  0.00     0.001 A 
ATOM     81  C   UNL A   1      48.343  27.874  27.215  1.00  0.00     0.000 A 
ENDBRANCH  63  76
ENDBRANCH  37  38
ENDBRANCH  29  32
ENDBRANCH  27  28
ENDBRANCH  26  27
ENDBRANCH   1  26
TORSDOF 13
ENDMDL
MODEL 2
REMARK VINA RESULT:     -12.4      1.668      2.539
REMARK SMILES Cn1ccc(-c2n[nH]c(=O)n2-c2ccc(C(=O)NCCCCNC(=O)c3ccc(-c4c5nc(c(-c6ccccc6)c6ccc([nH]6)c(-c6ccccc6)c6nc(c(-c7ccccc7)c7ccc4[nH]7)C=C6)C=C5)cc3)cc2)n1
REMARK SMILES IDX 20 1 19 2 18 3 16 4 17 5 15 7 12 8 13 9 75 10 14 11 74 12
REMARK SMILES IDX 11 13 6 14 7 15 8 16 9 17 10 19 5 20 1 21 2 22 3 23 76 24
REMARK SMILES IDX 4 25 21 26 22 27 23 28 24 29 25 31 26 32 27 33 73 34 28 35
REMARK SMILES IDX 72 36 29 37 30 38 31 39 66 40 32 41 71 42 65 43 67 44 33 45
REMARK SMILES IDX 70 46 64 47 63 48 34 50 56 51 41 52 55 53 42 54 45 55 54 56
REMARK SMILES IDX 68 57 43 58 44 59 53 61 69 62 46 63 35 64 36 65 40 66 37 67
REMARK SMILES IDX 39 68 38 69 57 70 58 71 62 72 59 73 61 74 60 75 47 76 48 77
REMARK SMILES IDX 52 78 49 79 51 80 50 81
REMARK H PARENT 18 6 8 18 23 30 67 49 45 60
REMARK Flexibility Score: inf
ROOT
ATOM      1  C   UNL A   1      39.149  22.135  26.154  1.00  0.00     0.023 C 
ENDROOT
BRANCH   1   2
ATOM      2  C   UNL A   1      37.787  22.783  25.864  1.00  0.00     0.116 C 
BRANCH   2   3
ATOM      3  N   UNL A   1      37.550  22.899  24.437  1.00  0.00    -0.352 N 
ATOM      4  C   UNL A   1      36.421  23.102  23.682  1.00  0.00     0.251 C 
ATOM      5  O   UNL A   1      36.573  23.149  22.460  1.00  0.00    -0.269 OA
ATOM      6  H   UNL A   1      38.370  22.814  23.897  1.00  0.00     0.163 HD
BRANCH   4   7
ATOM      7  C   UNL A   1      35.056  23.321  24.251  1.00  0.00     0.039 A 
ATOM      8  C   UNL A   1      32.429  23.892  25.111  1.00  0.00     0.052 A 
ATOM      9  C   UNL A   1      32.646  23.402  23.824  1.00  0.00     0.028 A 
ATOM     10  C   UNL A   1      33.509  24.009  25.988  1.00  0.00     0.028 A 
ATOM     11  C   UNL A   1      33.956  23.152  23.390  1.00  0.00     0.016 A 
ATOM     12  C   UNL A   1      34.798  23.675  25.574  1.00  0.00     0.016 A 
BRANCH   8  13
ATOM     13  N   UNL A   1      31.143  24.195  25.573  1.00  0.00    -0.242 N 
ATOM     14  C   UNL A   1      30.604  25.425  25.815  1.00  0.00     0.189 A 
ATOM     15  N   UNL A   1      29.563  25.424  26.603  1.00  0.00    -0.150 NA
ATOM     16  N   UNL A   1      29.374  24.096  26.884  1.00  0.00    -0.226 N 
ATOM     17  C   UNL A   1      30.344  23.313  26.257  1.00  0.00     0.348 A 
ATOM     18  H   UNL A   1      28.651  23.741  27.449  1.00  0.00     0.195 HD
ATOM     19  O   UNL A   1      30.469  22.102  26.404  1.00  0.00    -0.246 OA
BRANCH  14  20
ATOM     20  C   UNL A   1      31.100  26.648  25.203  1.00  0.00     0.130 A 
ATOM     21  C   UNL A   1      30.822  29.151  22.771  1.00  0.00     0.173 C 
ATOM     22  N   UNL A   1      31.224  28.293  23.860  1.00  0.00    -0.275 N 
ATOM     23  C   UNL A   1      32.166  28.559  24.806  1.00  0.00     0.109 A 
ATOM     24  N   UNL A   1      30.608  27.110  24.038  1.00  0.00    -0.170 NA
ATOM     25  C   UNL A   1      32.087  27.530  25.715  1.00  0.00     0.054 A 
ENDBRANCH  14  20
ENDBRANCH   8  13
ENDBRANCH   4   7
ENDBRANCH   2   3
ENDBRANCH   1   2
BRANCH   1  26
ATOM     26  C   UNL A   1      39.387  20.779  25.470  1.00  0.00     0.023 C 
BRANCH  26  27
ATOM     27  C   UNL A   1      39.824  19.663  26.409  1.00  0.00     0.116 C 
BRANCH  27  28
ATOM     28  N   UNL A   1      41.078  19.012  26.000  1.00  0.00    -0.352 N 
ATOM     29  C   UNL A   1      42.294  19.606  25.692  1.00  0.00     0.251 C 
ATOM     30  H   UNL A   1      41.050  18.031  25.935  1.00  0.00     0.163 HD
ATOM     31  O   UNL A   1      43.140  19.036  25.021  1.00  0.00    -0.269 OA
BRANCH  29  32
ATOM     32  C   UNL A   1      42.559  20.940  26.251  1.00  0.00     0.039 A 
ATOM     33  C   UNL A   1      42.904  22.057  25.485  1.00  0.00     0.014 A 
ATOM     34  C   UNL A   1      42.374  21.043  27.622  1.00  0.00     0.014 A 
ATOM     35  C   UNL A   1      43.011  23.292  26.126  1.00  0.00     0.010 A 
ATOM     36  C   UNL A   1      42.180  22.270  28.169  1.00  0.00     0.010 A 
ATOM     37  C   UNL A   1      42.647  23.376  27.476  1.00  0.00    -0.014 A 
BRANCH  37  38
ATOM     38  C   UNL A   1      42.714  24.591  28.266  1.00  0.00     0.031 A 
ATOM     39  C   UNL A   1      41.594  25.542  28.057  1.00  0.00     0.074 A 
ATOM     40  C   UNL A   1      43.548  24.652  29.332  1.00  0.00     0.049 A 
ATOM     41  N   UNL A   1      41.662  26.750  27.612  1.00  0.00    -0.248 NA
ATOM     42  C   UNL A   1      40.216  25.058  28.252  1.00  0.00     0.031 C 
ATOM     43  C   UNL A   1      44.439  23.607  29.870  1.00  0.00     0.029 A 
ATOM     44  N   UNL A   1      43.661  25.626  30.266  1.00  0.00    -0.354 N 
ATOM     45  C   UNL A   1      40.362  27.247  27.629  1.00  0.00     0.074 A 
ATOM     46  C   UNL A   1      39.502  26.117  27.866  1.00  0.00     0.031 C 
ATOM     47  C   UNL A   1      44.779  23.909  31.144  1.00  0.00     0.029 A 
ATOM     48  C   UNL A   1      44.286  25.238  31.446  1.00  0.00     0.049 A 
ATOM     49  H   UNL A   1      43.326  26.540  30.120  1.00  0.00     0.167 HD
ATOM     50  C   UNL A   1      40.112  28.587  27.667  1.00  0.00     0.031 A 
ATOM     51  C   UNL A   1      44.344  25.954  32.598  1.00  0.00     0.031 A 
ATOM     52  C   UNL A   1      41.310  29.347  27.417  1.00  0.00     0.049 A 
ATOM     53  C   UNL A   1      44.027  27.361  32.244  1.00  0.00     0.074 A 
ATOM     54  C   UNL A   1      42.167  29.478  26.345  1.00  0.00     0.029 A 
ATOM     55  N   UNL A   1      42.007  29.784  28.520  1.00  0.00    -0.354 N 
ATOM     56  N   UNL A   1      44.784  28.088  31.471  1.00  0.00    -0.248 NA
ATOM     57  C   UNL A   1      42.635  27.777  32.324  1.00  0.00     0.031 C 
ATOM     58  C   UNL A   1      43.469  29.501  26.926  1.00  0.00     0.029 A 
ATOM     59  C   UNL A   1      43.330  29.480  28.317  1.00  0.00     0.049 A 
ATOM     60  H   UNL A   1      41.628  30.233  29.310  1.00  0.00     0.167 HD
ATOM     61  C   UNL A   1      43.900  28.763  30.640  1.00  0.00     0.074 A 
ATOM     62  C   UNL A   1      42.587  28.595  31.268  1.00  0.00     0.031 C 
ATOM     63  C   UNL A   1      44.256  29.131  29.373  1.00  0.00     0.031 A 
BRANCH  50  64
ATOM     64  C   UNL A   1      38.900  29.221  28.299  1.00  0.00    -0.014 A 
ATOM     65  C   UNL A   1      38.666  28.997  29.669  1.00  0.00     0.009 A 
ATOM     66  C   UNL A   1      37.848  29.794  27.563  1.00  0.00     0.009 A 
ATOM     67  C   UNL A   1      37.420  29.258  30.249  1.00  0.00     0.001 A 
ATOM     68  C   UNL A   1      36.614  30.093  28.148  1.00  0.00     0.001 A 
ATOM     69  C   UNL A   1      36.389  29.796  29.485  1.00  0.00     0.000 A 
ENDBRANCH  50  64
BRANCH  51  70
ATOM     70  C   UNL A   1      44.310  25.455  33.993  1.00  0.00    -0.014 A 
ATOM     71  C   UNL A   1      43.289  24.598  34.436  1.00  0.00     0.009 A 
ATOM     72  C   UNL A   1      45.442  25.597  34.819  1.00  0.00     0.009 A 
ATOM     73  C   UNL A   1      43.413  23.886  35.639  1.00  0.00     0.001 A 
ATOM     74  C   UNL A   1      45.567  24.885  36.018  1.00  0.00     0.001 A 
ATOM     75  C   UNL A   1      44.558  24.019  36.422  1.00  0.00     0.000 A 
ENDBRANCH  51  70
BRANCH  63  76
ATOM     76  C   UNL A   1      45.695  28.933  28.949  1.00  0.00    -0.014 A 
ATOM     77  C   UNL A   1      46.665  29.950  29.008  1.00  0.00     0.009 A 
ATOM     78  C   UNL A   1      46.122  27.627  28.670  1.00  0.00     0.009 A 
ATOM     79  C   UNL A   1      48.017  29.669  28.780  1.00  0.00     0.001 A 
ATOM     80  C   UNL A   1      47.474  27.343  28.462  1.00  0.00     0.001 A 
ATOM     81  C   UNL A   1      48.421  28.363  28.515  1.00  0.00     0.000 A 
ENDBRANCH  63  76
ENDBRANCH  37  38
ENDBRANCH  29  32
ENDBRANCH  27  28
ENDBRANCH  26  27
ENDBRANCH   1  26
TORSDOF 13
ENDMDL
MODEL 3
REMARK VINA RESULT:     -12.3      3.821      9.299
REMARK SMILES Cn1ccc(-c2n[nH]c(=O)n2-c2ccc(C(=O)NCCCCNC(=O)c3ccc(-c4c5nc(c(-c6ccccc6)c6ccc([nH]6)c(-c6ccccc6)c6nc(c(-c7ccccc7)c7ccc4[nH]7)C=C6)C=C5)cc3)cc2)n1
REMARK SMILES IDX 20 1 19 2 18 3 16 4 17 5 15 7 12 8 13 9 75 10 14 11 74 12
REMARK SMILES IDX 11 13 6 14 7 15 8 16 9 17 10 19 5 20 1 21 2 22 3 23 76 24
REMARK SMILES IDX 4 25 21 26 22 27 23 28 24 29 25 31 26 32 27 33 73 34 28 35
REMARK SMILES IDX 72 36 29 37 30 38 31 39 66 40 32 41 71 42 65 43 67 44 33 45
REMARK SMILES IDX 70 46 64 47 63 48 34 50 56 51 41 52 55 53 42 54 45 55 54 56
REMARK SMILES IDX 68 57 43 58 44 59 53 61 69 62 46 63 35 64 36 65 40 66 37 67
REMARK SMILES IDX 39 68 38 69 57 70 58 71 62 72 59 73 61 74 60 75 47 76 48 77
REMARK SMILES IDX 52 78 49 79 51 80 50 81
REMARK H PARENT 18 6 8 18 23 30 67 49 45 60
REMARK Flexibility Score: inf
ROOT
ATOM      1  C   UNL A   1      31.544  30.130  26.130  1.00  0.00     0.023 C 
ENDROOT
BRANCH   1   2
ATOM      2  C   UNL A   1      31.193  29.658  24.712  1.00  0.00     0.116 C 
BRANCH   2   3
ATOM      3  N   UNL A   1      32.381  29.533  23.887  1.00  0.00    -0.352 N 
ATOM      4  C   UNL A   1      33.205  28.480  23.575  1.00  0.00     0.251 C 
ATOM      5  O   UNL A   1      34.154  28.723  22.827  1.00  0.00    -0.269 OA
ATOM      6  H   UNL A   1      32.653  30.380  23.464  1.00  0.00     0.163 HD
BRANCH   4   7
ATOM      7  C   UNL A   1      32.987  27.075  24.035  1.00  0.00     0.039 A 
ATOM      8  C   UNL A   1      32.835  24.420  24.980  1.00  0.00     0.052 A 
ATOM      9  C   UNL A   1      33.324  25.424  25.813  1.00  0.00     0.028 A 
ATOM     10  C   UNL A   1      32.342  24.759  23.718  1.00  0.00     0.028 A 
ATOM     11  C   UNL A   1      33.430  26.735  25.328  1.00  0.00     0.016 A 
ATOM     12  C   UNL A   1      32.372  26.081  23.277  1.00  0.00     0.016 A 
BRANCH   8  13
ATOM     13  N   UNL A   1      32.751  23.089  25.408  1.00  0.00    -0.242 N 
ATOM     14  C   UNL A   1      33.648  22.082  25.204  1.00  0.00     0.189 A 
ATOM     15  N   UNL A   1      33.164  20.877  25.343  1.00  0.00    -0.150 NA
ATOM     16  N   UNL A   1      31.857  21.095  25.694  1.00  0.00    -0.226 N 
ATOM     17  C   UNL A   1      31.576  22.461  25.739  1.00  0.00     0.348 A 
ATOM     18  H   UNL A   1      31.205  20.385  25.890  1.00  0.00     0.195 HD
ATOM     19  O   UNL A   1      30.465  22.942  25.939  1.00  0.00    -0.246 OA
BRANCH  14  20
ATOM     20  C   UNL A   1      35.055  22.313  24.914  1.00  0.00     0.130 A 
ATOM     21  C   UNL A   1      38.432  21.633  25.540  1.00  0.00     0.173 C 
ATOM     22  N   UNL A   1      37.171  22.142  25.056  1.00  0.00    -0.275 N 
ATOM     23  C   UNL A   1      36.968  22.909  23.950  1.00  0.00     0.109 A 
ATOM     24  N   UNL A   1      36.033  21.820  25.698  1.00  0.00    -0.170 NA
ATOM     25  C   UNL A   1      35.604  23.009  23.807  1.00  0.00     0.054 A 
ENDBRANCH  14  20
ENDBRANCH   8  13
ENDBRANCH   4   7
ENDBRANCH   2   3
ENDBRANCH   1   2
BRANCH   1  26
ATOM     26  C   UNL A   1      31.322  31.628  26.395  1.00  0.00     0.023 C 
BRANCH  26  27
ATOM     27  C   UNL A   1      32.236  32.227  27.455  1.00  0.00     0.116 C 
BRANCH  27  28
ATOM     28  N   UNL A   1      32.177  33.695  27.515  1.00  0.00    -0.352 N 
ATOM     29  C   UNL A   1      32.900  34.552  28.334  1.00  0.00     0.251 C 
ATOM     30  H   UNL A   1      31.544  34.125  26.896  1.00  0.00     0.163 HD
ATOM     31  O   UNL A   1      32.524  35.690  28.571  1.00  0.00    -0.269 OA
BRANCH  29  32
ATOM     32  C   UNL A   1      34.177  34.061  28.871  1.00  0.00     0.039 A 
ATOM     33  C   UNL A   1      34.363  33.646  30.194  1.00  0.00     0.014 A 
ATOM     34  C   UNL A   1      35.202  33.967  27.942  1.00  0.00     0.014 A 
ATOM     35  C   UNL A   1      35.594  33.088  30.545  1.00  0.00     0.010 A 
ATOM     36  C   UNL A   1      36.259  33.158  28.208  1.00  0.00     0.010 A 
ATOM     37  C   UNL A   1      36.533  32.855  29.533  1.00  0.00    -0.014 A 
BRANCH  37  38
ATOM     38  C   UNL A   1      37.850  32.289  29.756  1.00  0.00     0.031 A 
ATOM     39  C   UNL A   1      38.002  30.868  29.354  1.00  0.00     0.074 A 
ATOM     40  C   UNL A   1      38.903  33.110  29.984  1.00  0.00     0.049 A 
ATOM     41  N   UNL A   1      38.293  29.865  30.109  1.00  0.00    -0.248 NA
ATOM     42  C   UNL A   1      37.675  30.492  27.968  1.00  0.00     0.031 C 
ATOM     43  C   UNL A   1      38.936  34.584  30.021  1.00  0.00     0.029 A 
ATOM     44  N   UNL A   1      40.218  32.797  30.080  1.00  0.00    -0.354 N 
ATOM     45  C   UNL A   1      38.358  28.753  29.275  1.00  0.00     0.074 A 
ATOM     46  C   UNL A   1      37.804  29.165  28.011  1.00  0.00     0.031 C 
ATOM     47  C   UNL A   1      40.209  35.016  29.867  1.00  0.00     0.029 A 
ATOM     48  C   UNL A   1      41.090  33.866  29.903  1.00  0.00     0.049 A 
ATOM     49  H   UNL A   1      40.532  31.882  30.261  1.00  0.00     0.167 HD
ATOM     50  C   UNL A   1      39.067  27.642  29.623  1.00  0.00     0.031 A 
ATOM     51  C   UNL A   1      42.436  33.788  29.751  1.00  0.00     0.031 A 
ATOM     52  C   UNL A   1      39.468  27.692  31.006  1.00  0.00     0.049 A 
ATOM     53  C   UNL A   1      42.846  32.449  30.244  1.00  0.00     0.074 A 
ATOM     54  C   UNL A   1      38.793  27.710  32.209  1.00  0.00     0.029 A 
ATOM     55  N   UNL A   1      40.730  28.172  31.268  1.00  0.00    -0.354 N 
ATOM     56  N   UNL A   1      42.722  32.080  31.488  1.00  0.00    -0.248 NA
ATOM     57  C   UNL A   1      42.904  31.365  29.275  1.00  0.00     0.031 C 
ATOM     58  C   UNL A   1      39.503  28.657  33.004  1.00  0.00     0.029 A 
ATOM     59  C   UNL A   1      40.619  29.090  32.282  1.00  0.00     0.049 A 
ATOM     60  H   UNL A   1      41.561  27.906  30.812  1.00  0.00     0.167 HD
ATOM     61  C   UNL A   1      42.251  30.777  31.428  1.00  0.00     0.074 A 
ATOM     62  C   UNL A   1      42.461  30.361  30.039  1.00  0.00     0.031 C 
ATOM     63  C   UNL A   1      41.459  30.260  32.416  1.00  0.00     0.031 A 
BRANCH  50  64
ATOM     64  C   UNL A   1      39.728  26.700  28.650  1.00  0.00    -0.014 A 
ATOM     65  C   UNL A   1      40.687  27.222  27.762  1.00  0.00     0.009 A 
ATOM     66  C   UNL A   1      39.265  25.399  28.387  1.00  0.00     0.009 A 
ATOM     67  C   UNL A   1      41.095  26.511  26.627  1.00  0.00     0.001 A 
ATOM     68  C   UNL A   1      39.700  24.670  27.277  1.00  0.00     0.001 A 
ATOM     69  C   UNL A   1      40.593  25.238  26.379  1.00  0.00     0.000 A 
ENDBRANCH  50  64
BRANCH  51  70
ATOM     70  C   UNL A   1      43.317  34.633  28.910  1.00  0.00    -0.014 A 
ATOM     71  C   UNL A   1      44.703  34.686  29.130  1.00  0.00     0.009 A 
ATOM     72  C   UNL A   1      42.830  35.176  27.705  1.00  0.00     0.009 A 
ATOM     73  C   UNL A   1      45.568  35.228  28.166  1.00  0.00     0.001 A 
ATOM     74  C   UNL A   1      43.692  35.715  26.743  1.00  0.00     0.001 A 
ATOM     75  C   UNL A   1      45.064  35.729  26.968  1.00  0.00     0.000 A 
ENDBRANCH  51  70
BRANCH  63  76
ATOM     76  C   UNL A   1      41.241  31.089  33.663  1.00  0.00    -0.014 A 
ATOM     77  C   UNL A   1      40.198  32.023  33.798  1.00  0.00     0.009 A 
ATOM     78  C   UNL A   1      41.993  30.769  34.802  1.00  0.00     0.009 A 
ATOM     79  C   UNL A   1      39.928  32.629  35.031  1.00  0.00     0.001 A 
ATOM     80  C   UNL A   1      41.712  31.358  36.037  1.00  0.00     0.001 A 
ATOM     81  C   UNL A   1      40.681  32.289  36.151  1.00  0.00     0.000 A 
ENDBRANCH  63  76
ENDBRANCH  37  38
ENDBRANCH  29  32
ENDBRANCH  27  28
ENDBRANCH  26  27
ENDBRANCH   1  26
TORSDOF 13
ENDMDL
