MODEL 1
REMARK VINA RESULT:     -11.6      0.000      0.000
REMARK SMILES O=C(NCCCCNC(=O)c1ccc(-c2c3nc(c(-c4ccccc4)c4ccc([nH]4)c(-c4ccccc4)c4nc(c(-c5ccccc5)c5ccc2[nH]5)C=C4)C=C3)cc1)C1=Cc2cc(Cl)cc(Cl)c2O[C@@H]1C(F)(F)F
REMARK SMILES IDX 6 1 5 2 4 3 3 4 1 5 2 6 59 8 60 9 70 10 61 11 69 12 62 13
REMARK SMILES IDX 68 14 63 15 66 16 64 17 65 18 67 19 71 20 72 21 73 22 74 23
REMARK SMILES IDX 7 24 8 25 9 26 10 28 11 29 12 30 58 31 13 32 57 33 14 34
REMARK SMILES IDX 15 35 16 36 51 37 17 38 56 39 50 40 52 41 18 42 55 43 49 44
REMARK SMILES IDX 48 45 19 47 41 48 26 49 40 50 27 51 30 52 39 53 53 54 28 55
REMARK SMILES IDX 29 56 38 58 54 59 31 60 20 61 21 62 25 63 22 64 24 65 23 66
REMARK SMILES IDX 42 67 43 68 47 69 44 70 46 71 45 72 32 73 33 74 37 75 34 76
REMARK SMILES IDX 36 77 35 78
REMARK H PARENT 3 7 8 27 52 46 30 57
REMARK Flexibility Score: inf
ROOT
ATOM      1  C   UNL A   1      32.034  28.184  27.174  1.00  0.00     0.023 C 
ENDROOT
BRANCH   1   2
ATOM      2  C   UNL A   1      31.609  27.807  25.756  1.00  0.00     0.023 C 
BRANCH   2   3
ATOM      3  C   UNL A   1      30.679  26.596  25.661  1.00  0.00     0.116 C 
BRANCH   3   4
ATOM      4  N   UNL A   1      30.921  25.581  26.685  1.00  0.00    -0.352 N 
ATOM      5  O   UNL A   1      32.045  23.917  27.728  1.00  0.00    -0.270 OA
ATOM      6  C   UNL A   1      31.790  24.512  26.689  1.00  0.00     0.251 C 
ATOM      7  H   UNL A   1      30.378  25.677  27.500  1.00  0.00     0.163 HD
BRANCH   6   8
ATOM      8  C   UNL A   1      32.522  24.201  25.443  1.00  0.00     0.067 C 
ATOM      9  C   UNL A   1      33.761  24.656  25.212  1.00  0.00     0.025 C 
ATOM     10  C   UNL A   1      31.949  23.122  24.576  1.00  0.00     0.314 C 
ATOM     11  C   UNL A   1      34.684  23.532  24.933  1.00  0.00     0.020 A 
ATOM     12  O   UNL A   1      32.833  21.982  24.514  1.00  0.00    -0.474 OA
ATOM     13  C   UNL A   1      36.028  23.685  25.302  1.00  0.00     0.032 A 
ATOM     14  C   UNL A   1      34.174  22.231  24.714  1.00  0.00     0.146 A 
ATOM     15  C   UNL A   1      36.834  22.560  25.489  1.00  0.00     0.043 A 
ATOM     16  C   UNL A   1      35.009  21.115  24.877  1.00  0.00     0.085 A 
ATOM     17  Cl  UNL A   1      38.434  22.754  26.092  1.00  0.00    -0.084 Cl
ATOM     18  C   UNL A   1      36.333  21.277  25.280  1.00  0.00     0.045 A 
ATOM     19  Cl  UNL A   1      34.391  19.508  24.724  1.00  0.00    -0.080 Cl
BRANCH  10  20
ATOM     20  C   UNL A   1      31.624  23.651  23.165  1.00  0.00     0.429 C 
ATOM     21  F   UNL A   1      31.970  24.955  23.038  1.00  0.00    -0.167 F 
ATOM     22  F   UNL A   1      32.293  22.971  22.204  1.00  0.00    -0.167 F 
ATOM     23  F   UNL A   1      30.303  23.561  22.871  1.00  0.00    -0.167 F 
ENDBRANCH  10  20
ENDBRANCH   6   8
ENDBRANCH   3   4
ENDBRANCH   2   3
ENDBRANCH   1   2
BRANCH   1  24
ATOM     24  C   UNL A   1      33.429  28.786  27.330  1.00  0.00     0.116 C 
BRANCH  24  25
ATOM     25  N   UNL A   1      33.456  30.158  27.813  1.00  0.00    -0.352 N 
ATOM     26  C   UNL A   1      34.525  30.852  28.340  1.00  0.00     0.251 C 
ATOM     27  H   UNL A   1      32.606  30.653  27.758  1.00  0.00     0.163 HD
ATOM     28  O   UNL A   1      34.390  32.010  28.729  1.00  0.00    -0.269 OA
BRANCH  26  29
ATOM     29  C   UNL A   1      35.830  30.170  28.482  1.00  0.00     0.039 A 
ATOM     30  C   UNL A   1      36.734  30.212  27.419  1.00  0.00     0.014 A 
ATOM     31  C   UNL A   1      36.186  29.560  29.688  1.00  0.00     0.014 A 
ATOM     32  C   UNL A   1      38.030  29.718  27.595  1.00  0.00     0.010 A 
ATOM     33  C   UNL A   1      37.499  29.142  29.886  1.00  0.00     0.010 A 
ATOM     34  C   UNL A   1      38.437  29.219  28.843  1.00  0.00    -0.014 A 
BRANCH  34  35
ATOM     35  C   UNL A   1      39.830  28.758  29.075  1.00  0.00     0.031 A 
ATOM     36  C   UNL A   1      40.832  29.690  29.701  1.00  0.00     0.074 A 
ATOM     37  C   UNL A   1      40.212  27.530  28.671  1.00  0.00     0.049 A 
ATOM     38  N   UNL A   1      42.110  29.502  29.919  1.00  0.00    -0.248 NA
ATOM     39  C   UNL A   1      40.341  31.015  30.109  1.00  0.00     0.031 C 
ATOM     40  C   UNL A   1      39.356  26.544  28.008  1.00  0.00     0.029 A 
ATOM     41  N   UNL A   1      41.432  26.904  28.754  1.00  0.00    -0.354 N 
ATOM     42  C   UNL A   1      42.573  30.688  30.474  1.00  0.00     0.074 A 
ATOM     43  C   UNL A   1      41.457  31.607  30.506  1.00  0.00     0.031 C 
ATOM     44  C   UNL A   1      40.069  25.430  27.769  1.00  0.00     0.029 A 
ATOM     45  C   UNL A   1      41.438  25.633  28.231  1.00  0.00     0.049 A 
ATOM     46  H   UNL A   1      42.228  27.326  29.151  1.00  0.00     0.167 HD
ATOM     47  C   UNL A   1      43.809  30.983  30.942  1.00  0.00     0.031 A 
ATOM     48  C   UNL A   1      42.435  24.732  28.137  1.00  0.00     0.031 A 
ATOM     49  C   UNL A   1      44.919  30.070  30.932  1.00  0.00     0.049 A 
ATOM     50  C   UNL A   1      43.793  25.076  28.684  1.00  0.00     0.074 A 
ATOM     51  C   UNL A   1      46.206  30.268  31.401  1.00  0.00     0.029 A 
ATOM     52  N   UNL A   1      44.867  28.776  30.437  1.00  0.00    -0.354 N 
ATOM     53  N   UNL A   1      44.201  26.188  29.245  1.00  0.00    -0.248 NA
ATOM     54  C   UNL A   1      44.824  24.030  28.603  1.00  0.00     0.031 C 
ATOM     55  C   UNL A   1      46.940  29.100  31.172  1.00  0.00     0.029 A 
ATOM     56  C   UNL A   1      46.096  28.162  30.598  1.00  0.00     0.049 A 
ATOM     57  H   UNL A   1      44.074  28.357  30.033  1.00  0.00     0.167 HD
ATOM     58  C   UNL A   1      45.520  25.962  29.619  1.00  0.00     0.074 A 
ATOM     59  C   UNL A   1      45.839  24.604  29.232  1.00  0.00     0.031 C 
ATOM     60  C   UNL A   1      46.390  26.803  30.229  1.00  0.00     0.031 A 
BRANCH  47  61
ATOM     61  C   UNL A   1      44.016  32.353  31.521  1.00  0.00    -0.014 A 
ATOM     62  C   UNL A   1      43.813  32.593  32.890  1.00  0.00     0.009 A 
ATOM     63  C   UNL A   1      44.442  33.408  30.702  1.00  0.00     0.009 A 
ATOM     64  C   UNL A   1      44.000  33.870  33.420  1.00  0.00     0.001 A 
ATOM     65  C   UNL A   1      44.655  34.679  31.241  1.00  0.00     0.001 A 
ATOM     66  C   UNL A   1      44.426  34.911  32.596  1.00  0.00     0.000 A 
ENDBRANCH  47  61
BRANCH  48  67
ATOM     67  C   UNL A   1      42.191  23.398  27.527  1.00  0.00    -0.014 A 
ATOM     68  C   UNL A   1      41.673  22.346  28.299  1.00  0.00     0.009 A 
ATOM     69  C   UNL A   1      42.515  23.157  26.183  1.00  0.00     0.009 A 
ATOM     70  C   UNL A   1      41.523  21.070  27.749  1.00  0.00     0.001 A 
ATOM     71  C   UNL A   1      42.336  21.887  25.629  1.00  0.00     0.001 A 
ATOM     72  C   UNL A   1      41.853  20.843  26.414  1.00  0.00     0.000 A 
ENDBRANCH  48  67
BRANCH  60  73
ATOM     73  C   UNL A   1      47.745  26.258  30.574  1.00  0.00    -0.014 A 
ATOM     74  C   UNL A   1      48.040  25.790  31.863  1.00  0.00     0.009 A 
ATOM     75  C   UNL A   1      48.732  26.185  29.579  1.00  0.00     0.009 A 
ATOM     76  C   UNL A   1      49.311  25.291  32.157  1.00  0.00     0.001 A 
ATOM     77  C   UNL A   1      49.992  25.661  29.869  1.00  0.00     0.001 A 
ATOM     78  C   UNL A   1      50.283  25.224  31.160  1.00  0.00     0.000 A 
ENDBRANCH  60  73
ENDBRANCH  34  35
ENDBRANCH  26  29
ENDBRANCH  24  25
ENDBRANCH   1  24
TORSDOF 12
ENDMDL
MODEL 2
REMARK VINA RESULT:     -11.6      2.614      7.555
REMARK SMILES O=C(NCCCCNC(=O)c1ccc(-c2c3nc(c(-c4ccccc4)c4ccc([nH]4)c(-c4ccccc4)c4nc(c(-c5ccccc5)c5ccc2[nH]5)C=C4)C=C3)cc1)C1=Cc2cc(Cl)cc(Cl)c2O[C@@H]1C(F)(F)F
REMARK SMILES IDX 6 1 5 2 4 3 3 4 1 5 2 6 59 8 60 9 70 10 61 11 69 12 62 13
REMARK SMILES IDX 68 14 63 15 66 16 64 17 65 18 67 19 71 20 72 21 73 22 74 23
REMARK SMILES IDX 7 24 8 25 9 26 10 28 11 29 12 30 58 31 13 32 57 33 14 34
REMARK SMILES IDX 15 35 16 36 51 37 17 38 56 39 50 40 52 41 18 42 55 43 49 44
REMARK SMILES IDX 48 45 19 47 41 48 26 49 40 50 27 51 30 52 39 53 53 54 28 55
REMARK SMILES IDX 29 56 38 58 54 59 31 60 20 61 21 62 25 63 22 64 24 65 23 66
REMARK SMILES IDX 42 67 43 68 47 69 44 70 46 71 45 72 32 73 33 74 37 75 34 76
REMARK SMILES IDX 36 77 35 78
REMARK H PARENT 3 7 8 27 52 46 30 57
REMARK Flexibility Score: inf
ROOT
ATOM      1  C   UNL A   1      37.783  20.010  24.911  1.00  0.00     0.023 C 
ENDROOT
BRANCH   1   2
ATOM      2  C   UNL A   1      36.626  21.003  25.013  1.00  0.00     0.023 C 
BRANCH   2   3
ATOM      3  C   UNL A   1      36.882  22.362  24.358  1.00  0.00     0.116 C 
BRANCH   3   4
ATOM      4  N   UNL A   1      35.858  22.757  23.392  1.00  0.00    -0.352 N 
ATOM      5  O   UNL A   1      34.126  23.972  22.590  1.00  0.00    -0.270 OA
ATOM      6  C   UNL A   1      34.732  23.533  23.559  1.00  0.00     0.251 C 
ATOM      7  H   UNL A   1      35.995  22.415  22.480  1.00  0.00     0.163 HD
BRANCH   6   8
ATOM      8  C   UNL A   1      34.365  23.950  24.929  1.00  0.00     0.067 C 
ATOM      9  C   UNL A   1      34.812  25.092  25.470  1.00  0.00     0.025 C 
ATOM     10  C   UNL A   1      33.247  23.200  25.585  1.00  0.00     0.314 C 
ATOM     11  C   UNL A   1      33.678  25.935  25.912  1.00  0.00     0.020 A 
ATOM     12  O   UNL A   1      32.107  24.058  25.806  1.00  0.00    -0.474 OA
ATOM     13  C   UNL A   1      33.851  27.327  25.882  1.00  0.00     0.032 A 
ATOM     14  C   UNL A   1      32.367  25.405  25.945  1.00  0.00     0.146 A 
ATOM     15  C   UNL A   1      32.736  28.168  25.845  1.00  0.00     0.043 A 
ATOM     16  C   UNL A   1      31.261  26.268  25.938  1.00  0.00     0.085 A 
ATOM     17  Cl  UNL A   1      32.961  29.863  25.651  1.00  0.00    -0.084 Cl
ATOM     18  C   UNL A   1      31.444  27.648  25.870  1.00  0.00     0.045 A 
ATOM     19  Cl  UNL A   1      29.648  25.653  25.867  1.00  0.00    -0.080 Cl
BRANCH  10  20
ATOM     20  C   UNL A   1      33.710  22.540  26.899  1.00  0.00     0.429 C 
ATOM     21  F   UNL A   1      32.883  22.852  27.925  1.00  0.00    -0.167 F 
ATOM     22  F   UNL A   1      33.729  21.189  26.806  1.00  0.00    -0.167 F 
ATOM     23  F   UNL A   1      34.957  22.931  27.262  1.00  0.00    -0.167 F 
ENDBRANCH  10  20
ENDBRANCH   6   8
ENDBRANCH   3   4
ENDBRANCH   2   3
ENDBRANCH   1   2
BRANCH   1  24
ATOM     24  C   UNL A   1      39.021  20.317  25.751  1.00  0.00     0.116 C 
BRANCH  24  25
ATOM     25  N   UNL A   1      40.068  19.308  25.693  1.00  0.00    -0.352 N 
ATOM     26  C   UNL A   1      41.382  19.425  26.093  1.00  0.00     0.251 C 
ATOM     27  H   UNL A   1      39.807  18.434  25.322  1.00  0.00     0.163 HD
ATOM     28  O   UNL A   1      42.164  18.486  25.962  1.00  0.00    -0.269 OA
BRANCH  26  29
ATOM     29  C   UNL A   1      41.861  20.716  26.635  1.00  0.00     0.039 A 
ATOM     30  C   UNL A   1      42.382  21.668  25.756  1.00  0.00     0.014 A 
ATOM     31  C   UNL A   1      41.724  21.012  27.994  1.00  0.00     0.014 A 
ATOM     32  C   UNL A   1      42.684  22.949  26.225  1.00  0.00     0.010 A 
ATOM     33  C   UNL A   1      41.951  22.310  28.442  1.00  0.00     0.010 A 
ATOM     34  C   UNL A   1      42.430  23.294  27.562  1.00  0.00    -0.014 A 
BRANCH  34  35
ATOM     35  C   UNL A   1      42.673  24.671  28.065  1.00  0.00     0.031 A 
ATOM     36  C   UNL A   1      44.058  25.078  28.491  1.00  0.00     0.074 A 
ATOM     37  C   UNL A   1      41.647  25.534  28.198  1.00  0.00     0.049 A 
ATOM     38  N   UNL A   1      44.460  26.204  29.023  1.00  0.00    -0.248 NA
ATOM     39  C   UNL A   1      45.124  24.078  28.322  1.00  0.00     0.031 C 
ATOM     40  C   UNL A   1      40.247  25.254  27.868  1.00  0.00     0.029 A 
ATOM     41  N   UNL A   1      41.624  26.829  28.656  1.00  0.00    -0.354 N 
ATOM     42  C   UNL A   1      45.819  26.041  29.265  1.00  0.00     0.074 A 
ATOM     43  C   UNL A   1      46.160  24.691  28.876  1.00  0.00     0.031 C 
ATOM     44  C   UNL A   1      39.509  26.351  28.110  1.00  0.00     0.029 A 
ATOM     45  C   UNL A   1      40.374  27.400  28.641  1.00  0.00     0.049 A 
ATOM     46  H   UNL A   1      42.429  27.304  28.967  1.00  0.00     0.167 HD
ATOM     47  C   UNL A   1      46.712  26.940  29.742  1.00  0.00     0.031 A 
ATOM     48  C   UNL A   1      39.971  28.631  29.011  1.00  0.00     0.031 A 
ATOM     49  C   UNL A   1      46.386  28.289  30.113  1.00  0.00     0.049 A 
ATOM     50  C   UNL A   1      40.987  29.617  29.518  1.00  0.00     0.074 A 
ATOM     51  C   UNL A   1      47.225  29.282  30.589  1.00  0.00     0.029 A 
ATOM     52  N   UNL A   1      45.116  28.840  30.035  1.00  0.00    -0.354 N 
ATOM     53  N   UNL A   1      42.276  29.458  29.698  1.00  0.00    -0.248 NA
ATOM     54  C   UNL A   1      40.495  30.962  29.852  1.00  0.00     0.031 C 
ATOM     55  C   UNL A   1      46.459  30.429  30.818  1.00  0.00     0.029 A 
ATOM     56  C   UNL A   1      45.151  30.160  30.445  1.00  0.00     0.049 A 
ATOM     57  H   UNL A   1      44.310  28.363  29.733  1.00  0.00     0.167 HD
ATOM     58  C   UNL A   1      42.753  30.690  30.127  1.00  0.00     0.074 A 
ATOM     59  C   UNL A   1      41.619  31.589  30.169  1.00  0.00     0.031 C 
ATOM     60  C   UNL A   1      44.018  31.047  30.458  1.00  0.00     0.031 A 
BRANCH  47  61
ATOM     61  C   UNL A   1      48.138  26.487  29.873  1.00  0.00    -0.014 A 
ATOM     62  C   UNL A   1      49.057  26.697  28.832  1.00  0.00     0.009 A 
ATOM     63  C   UNL A   1      48.577  25.870  31.053  1.00  0.00     0.009 A 
ATOM     64  C   UNL A   1      50.379  26.268  28.958  1.00  0.00     0.001 A 
ATOM     65  C   UNL A   1      49.907  25.466  31.187  1.00  0.00     0.001 A 
ATOM     66  C   UNL A   1      50.804  25.657  30.137  1.00  0.00     0.000 A 
ENDBRANCH  47  61
BRANCH  48  67
ATOM     67  C   UNL A   1      38.542  29.024  28.892  1.00  0.00    -0.014 A 
ATOM     68  C   UNL A   1      38.033  29.497  27.673  1.00  0.00     0.009 A 
ATOM     69  C   UNL A   1      37.692  28.971  30.008  1.00  0.00     0.009 A 
ATOM     70  C   UNL A   1      36.713  29.946  27.583  1.00  0.00     0.001 A 
ATOM     71  C   UNL A   1      36.364  29.394  29.906  1.00  0.00     0.001 A 
ATOM     72  C   UNL A   1      35.879  29.892  28.699  1.00  0.00     0.000 A 
ENDBRANCH  48  67
BRANCH  60  73
ATOM     73  C   UNL A   1      44.253  32.482  30.828  1.00  0.00    -0.014 A 
ATOM     74  C   UNL A   1      44.179  32.917  32.159  1.00  0.00     0.009 A 
ATOM     75  C   UNL A   1      44.585  33.406  29.825  1.00  0.00     0.009 A 
ATOM     76  C   UNL A   1      44.399  34.260  32.474  1.00  0.00     0.001 A 
ATOM     77  C   UNL A   1      44.830  34.742  30.146  1.00  0.00     0.001 A 
ATOM     78  C   UNL A   1      44.728  35.169  31.469  1.00  0.00     0.000 A 
ENDBRANCH  60  73
ENDBRANCH  34  35
ENDBRANCH  26  29
ENDBRANCH  24  25
ENDBRANCH   1  24
TORSDOF 12
ENDMDL
MODEL 3
REMARK VINA RESULT:     -11.4      0.372      5.986
REMARK SMILES O=C(NCCCCNC(=O)c1ccc(-c2c3nc(c(-c4ccccc4)c4ccc([nH]4)c(-c4ccccc4)c4nc(c(-c5ccccc5)c5ccc2[nH]5)C=C4)C=C3)cc1)C1=Cc2cc(Cl)cc(Cl)c2O[C@@H]1C(F)(F)F
REMARK SMILES IDX 6 1 5 2 4 3 3 4 1 5 2 6 59 8 60 9 70 10 61 11 69 12 62 13
REMARK SMILES IDX 68 14 63 15 66 16 64 17 65 18 67 19 71 20 72 21 73 22 74 23
REMARK SMILES IDX 7 24 8 25 9 26 10 28 11 29 12 30 58 31 13 32 57 33 14 34
REMARK SMILES IDX 15 35 16 36 51 37 17 38 56 39 50 40 52 41 18 42 55 43 49 44
REMARK SMILES IDX 48 45 19 47 41 48 26 49 40 50 27 51 30 52 39 53 53 54 28 55
REMARK SMILES IDX 29 56 38 58 54 59 31 60 20 61 21 62 25 63 22 64 24 65 23 66
REMARK SMILES IDX 42 67 43 68 47 69 44 70 46 71 45 72 32 73 33 74 37 75 34 76
REMARK SMILES IDX 36 77 35 78
REMARK H PARENT 3 7 8 27 52 46 30 57
REMARK Flexibility Score: inf
ROOT
ATOM      1  C   UNL A   1      32.365  27.859  27.484  1.00  0.00     0.023 C 
ENDROOT
BRANCH   1   2
ATOM      2  C   UNL A   1      31.279  27.972  26.415  1.00  0.00     0.023 C 
BRANCH   2   3
ATOM      3  C   UNL A   1      30.811  26.639  25.827  1.00  0.00     0.116 C 
BRANCH   3   4
ATOM      4  N   UNL A   1      30.911  25.514  26.754  1.00  0.00    -0.352 N 
ATOM      5  O   UNL A   1      31.835  23.666  27.679  1.00  0.00    -0.270 OA
ATOM      6  C   UNL A   1      31.689  24.378  26.693  1.00  0.00     0.251 C 
ATOM      7  H   UNL A   1      30.332  25.577  27.547  1.00  0.00     0.163 HD
BRANCH   6   8
ATOM      8  C   UNL A   1      32.465  24.127  25.460  1.00  0.00     0.067 C 
ATOM      9  C   UNL A   1      33.677  24.661  25.259  1.00  0.00     0.025 C 
ATOM     10  C   UNL A   1      31.978  23.023  24.572  1.00  0.00     0.314 C 
ATOM     11  C   UNL A   1      34.674  23.600  24.989  1.00  0.00     0.020 A 
ATOM     12  O   UNL A   1      32.933  21.941  24.518  1.00  0.00    -0.474 OA
ATOM     13  C   UNL A   1      35.998  23.833  25.388  1.00  0.00     0.032 A 
ATOM     14  C   UNL A   1      34.251  22.271  24.748  1.00  0.00     0.146 A 
ATOM     15  C   UNL A   1      36.869  22.758  25.580  1.00  0.00     0.043 A 
ATOM     16  C   UNL A   1      35.151  21.208  24.918  1.00  0.00     0.085 A 
ATOM     17  Cl  UNL A   1      38.441  23.046  26.219  1.00  0.00    -0.084 Cl
ATOM     18  C   UNL A   1      36.454  21.449  25.350  1.00  0.00     0.045 A 
ATOM     19  Cl  UNL A   1      34.639  19.568  24.738  1.00  0.00    -0.080 Cl
BRANCH  10  20
ATOM     20  C   UNL A   1      31.649  23.546  23.159  1.00  0.00     0.429 C 
ATOM     21  F   UNL A   1      30.330  23.415  22.881  1.00  0.00    -0.167 F 
ATOM     22  F   UNL A   1      31.950  24.859  23.025  1.00  0.00    -0.167 F 
ATOM     23  F   UNL A   1      32.326  22.881  22.191  1.00  0.00    -0.167 F 
ENDBRANCH  10  20
ENDBRANCH   6   8
ENDBRANCH   3   4
ENDBRANCH   2   3
ENDBRANCH   1   2
BRANCH   1  24
ATOM     24  C   UNL A   1      33.637  28.673  27.251  1.00  0.00     0.116 C 
BRANCH  24  25
ATOM     25  N   UNL A   1      33.595  30.037  27.756  1.00  0.00    -0.352 N 
ATOM     26  C   UNL A   1      34.622  30.768  28.313  1.00  0.00     0.251 C 
ATOM     27  H   UNL A   1      32.725  30.494  27.694  1.00  0.00     0.163 HD
ATOM     28  O   UNL A   1      34.431  31.912  28.718  1.00  0.00    -0.269 OA
BRANCH  26  29
ATOM     29  C   UNL A   1      35.954  30.142  28.469  1.00  0.00     0.039 A 
ATOM     30  C   UNL A   1      36.867  30.222  27.415  1.00  0.00     0.014 A 
ATOM     31  C   UNL A   1      36.323  29.546  29.678  1.00  0.00     0.014 A 
ATOM     32  C   UNL A   1      38.180  29.784  27.604  1.00  0.00     0.010 A 
ATOM     33  C   UNL A   1      37.650  29.183  29.889  1.00  0.00     0.010 A 
ATOM     34  C   UNL A   1      38.595  29.301  28.856  1.00  0.00    -0.014 A 
BRANCH  34  35
ATOM     35  C   UNL A   1      40.003  28.899  29.102  1.00  0.00     0.031 A 
ATOM     36  C   UNL A   1      40.470  27.525  28.704  1.00  0.00     0.074 A 
ATOM     37  C   UNL A   1      40.847  29.739  29.735  1.00  0.00     0.049 A 
ATOM     38  N   UNL A   1      41.635  26.960  28.897  1.00  0.00    -0.248 NA
ATOM     39  C   UNL A   1      39.490  26.664  28.024  1.00  0.00     0.031 C 
ATOM     40  C   UNL A   1      40.512  31.081  30.217  1.00  0.00     0.029 A 
ATOM     41  N   UNL A   1      42.164  29.581  30.089  1.00  0.00    -0.354 N 
ATOM     42  C   UNL A   1      41.521  25.677  28.378  1.00  0.00     0.074 A 
ATOM     43  C   UNL A   1      40.160  25.526  27.913  1.00  0.00     0.031 C 
ATOM     44  C   UNL A   1      41.602  31.631  30.780  1.00  0.00     0.029 A 
ATOM     45  C   UNL A   1      42.701  30.673  30.727  1.00  0.00     0.049 A 
ATOM     46  H   UNL A   1      42.677  28.761  29.902  1.00  0.00     0.167 HD
ATOM     47  C   UNL A   1      42.468  24.715  28.269  1.00  0.00     0.031 A 
ATOM     48  C   UNL A   1      43.940  30.880  31.213  1.00  0.00     0.031 A 
ATOM     49  C   UNL A   1      43.828  24.863  28.710  1.00  0.00     0.049 A 
ATOM     50  C   UNL A   1      44.980  29.803  31.061  1.00  0.00     0.074 A 
ATOM     51  C   UNL A   1      44.868  23.953  28.627  1.00  0.00     0.029 A 
ATOM     52  N   UNL A   1      44.340  26.004  29.307  1.00  0.00    -0.354 N 
ATOM     53  N   UNL A   1      44.865  28.611  30.526  1.00  0.00    -0.248 NA
ATOM     54  C   UNL A   1      46.329  30.110  31.560  1.00  0.00     0.031 C 
ATOM     55  C   UNL A   1      46.006  24.536  29.191  1.00  0.00     0.029 A 
ATOM     56  C   UNL A   1      45.682  25.824  29.588  1.00  0.00     0.049 A 
ATOM     57  H   UNL A   1      43.826  26.820  29.501  1.00  0.00     0.167 HD
ATOM     58  C   UNL A   1      46.131  28.044  30.589  1.00  0.00     0.074 A 
ATOM     59  C   UNL A   1      47.001  29.026  31.202  1.00  0.00     0.031 C 
ATOM     60  C   UNL A   1      46.538  26.820  30.177  1.00  0.00     0.031 A 
BRANCH  47  61
ATOM     61  C   UNL A   1      42.061  23.419  27.629  1.00  0.00    -0.014 A 
ATOM     62  C   UNL A   1      42.281  23.192  26.261  1.00  0.00     0.009 A 
ATOM     63  C   UNL A   1      41.477  22.404  28.401  1.00  0.00     0.009 A 
ATOM     64  C   UNL A   1      41.893  21.988  25.672  1.00  0.00     0.001 A 
ATOM     65  C   UNL A   1      41.115  21.189  27.814  1.00  0.00     0.001 A 
ATOM     66  C   UNL A   1      41.315  20.986  26.450  1.00  0.00     0.000 A 
ENDBRANCH  47  61
BRANCH  48  67
ATOM     67  C   UNL A   1      44.289  32.168  31.867  1.00  0.00    -0.014 A 
ATOM     68  C   UNL A   1      44.808  33.232  31.111  1.00  0.00     0.009 A 
ATOM     69  C   UNL A   1      44.147  32.327  33.253  1.00  0.00     0.009 A 
ATOM     70  C   UNL A   1      45.216  34.413  31.737  1.00  0.00     0.001 A 
ATOM     71  C   UNL A   1      44.528  33.521  33.872  1.00  0.00     0.001 A 
ATOM     72  C   UNL A   1      45.073  34.557  33.116  1.00  0.00     0.000 A 
ENDBRANCH  48  67
BRANCH  60  73
ATOM     73  C   UNL A   1      47.999  26.499  30.313  1.00  0.00    -0.014 A 
ATOM     74  C   UNL A   1      48.504  25.857  31.453  1.00  0.00     0.009 A 
ATOM     75  C   UNL A   1      48.875  26.820  29.264  1.00  0.00     0.009 A 
ATOM     76  C   UNL A   1      49.868  25.574  31.554  1.00  0.00     0.001 A 
ATOM     77  C   UNL A   1      50.233  26.511  29.357  1.00  0.00     0.001 A 
ATOM     78  C   UNL A   1      50.729  25.897  30.506  1.00  0.00     0.000 A 
ENDBRANCH  60  73
ENDBRANCH  34  35
ENDBRANCH  26  29
ENDBRANCH  24  25
ENDBRANCH   1  24
TORSDOF 12
ENDMDL
