MODEL 1
REMARK VINA RESULT:     -12.9      0.000      0.000
REMARK SMILES O=C1OC(c2ccc(Cl)cc2)=N/C1=C/Nc1ccc(O)c(C(=O)NCCCCNC(=O)c2ccc(-c3c4nc(c(-c5ccccc5)c5ccc([nH]5)c(-c5ccccc5)c5nc(c(-c6ccccc6)c6ccc3[nH]6)C=C5)C=C4)cc2)c1
REMARK SMILES IDX 26 1 25 2 24 3 22 4 23 5 21 7 16 8 17 9 80 10 18 11 19 12
REMARK SMILES IDX 15 13 14 15 1 16 2 17 3 18 13 19 4 20 12 21 5 22 6 23 11 24
REMARK SMILES IDX 7 25 10 26 8 27 9 28 20 29 27 31 28 32 29 33 30 34 31 36
REMARK SMILES IDX 32 37 33 38 79 39 34 40 78 41 35 42 36 43 37 44 72 45 38 46
REMARK SMILES IDX 77 47 71 48 73 49 39 50 76 51 70 52 69 53 40 55 62 56 47 57
REMARK SMILES IDX 61 58 48 59 51 60 60 61 74 62 49 63 50 64 59 66 75 67 52 68
REMARK SMILES IDX 41 69 42 70 46 71 43 72 45 73 44 74 63 75 64 76 68 77 65 78
REMARK SMILES IDX 67 79 66 80 53 81 54 82 58 83 55 84 57 85 56 86
REMARK H PARENT 24 6 15 14 20 30 29 35 73 54 51 65
REMARK Flexibility Score: inf
ROOT
ATOM      1  C   UNL A   1      31.723  30.818  25.925  1.00  0.00     0.023 C 
ENDROOT
BRANCH   1   2
ATOM      2  C   UNL A   1      33.026  30.072  26.231  1.00  0.00     0.116 C 
BRANCH   2   3
ATOM      3  N   UNL A   1      33.664  29.688  24.995  1.00  0.00    -0.352 N 
ATOM      4  C   UNL A   1      33.241  28.913  23.949  1.00  0.00     0.255 C 
ATOM      5  O   UNL A   1      34.096  28.668  23.092  1.00  0.00    -0.269 OA
ATOM      6  H   UNL A   1      34.571  30.053  24.882  1.00  0.00     0.163 HD
BRANCH   4   7
ATOM      7  C   UNL A   1      31.837  28.437  23.720  1.00  0.00     0.083 A 
ATOM      8  C   UNL A   1      30.197  26.775  24.507  1.00  0.00     0.039 A 
ATOM      9  C   UNL A   1      29.320  27.179  23.502  1.00  0.00     0.030 A 
ATOM     10  C   UNL A   1      31.450  27.391  24.584  1.00  0.00     0.043 A 
ATOM     11  C   UNL A   1      29.647  28.242  22.670  1.00  0.00     0.049 A 
ATOM     12  C   UNL A   1      30.882  28.889  22.801  1.00  0.00     0.128 A 
BRANCH   8  13
ATOM     13  N   UNL A   1      29.886  25.740  25.395  1.00  0.00    -0.360 N 
ATOM     14  H   UNL A   1      28.987  25.753  25.795  1.00  0.00     0.166 HD
BRANCH  13  15
ATOM     15  C   UNL A   1      30.710  24.711  25.759  1.00  0.00     0.119 C 
ATOM     16  O   UNL A   1      30.167  24.138  22.844  1.00  0.00    -0.244 OA
ATOM     17  C   UNL A   1      30.847  23.471  23.595  1.00  0.00     0.365 C 
ATOM     18  O   UNL A   1      31.556  22.343  23.302  1.00  0.00    -0.402 OA
ATOM     19  C   UNL A   1      31.130  23.667  25.043  1.00  0.00     0.168 C 
ATOM     20  C   UNL A   1      32.114  21.944  24.467  1.00  0.00     0.231 C 
ATOM     21  N   UNL A   1      31.910  22.654  25.526  1.00  0.00    -0.204 NA
BRANCH  20  22
ATOM     22  C   UNL A   1      32.849  20.688  24.405  1.00  0.00     0.037 A 
ATOM     23  C   UNL A   1      34.112  20.574  24.990  1.00  0.00     0.015 A 
ATOM     24  C   UNL A   1      32.238  19.590  23.789  1.00  0.00     0.015 A 
ATOM     25  C   UNL A   1      34.768  19.342  24.956  1.00  0.00     0.021 A 
ATOM     26  C   UNL A   1      32.907  18.369  23.741  1.00  0.00     0.021 A 
ATOM     27  C   UNL A   1      34.167  18.248  24.330  1.00  0.00     0.041 A 
ATOM     28  Cl  UNL A   1      34.981  16.734  24.289  1.00  0.00    -0.084 Cl
ENDBRANCH  20  22
ENDBRANCH  13  15
ENDBRANCH   8  13
BRANCH  12  29
ATOM     29  O   UNL A   1      31.053  30.003  22.036  1.00  0.00    -0.507 OA
ATOM     30  H   UNL A   1      30.564  30.781  22.223  1.00  0.00     0.293 HD
ENDBRANCH  12  29
ENDBRANCH   4   7
ENDBRANCH   2   3
ENDBRANCH   1   2
BRANCH   1  31
ATOM     31  C   UNL A   1      31.418  31.963  26.889  1.00  0.00     0.023 C 
BRANCH  31  32
ATOM     32  C   UNL A   1      32.634  32.785  27.285  1.00  0.00     0.116 C 
BRANCH  32  33
ATOM     33  N   UNL A   1      32.309  34.160  27.634  1.00  0.00    -0.352 N 
ATOM     34  C   UNL A   1      32.936  34.988  28.530  1.00  0.00     0.251 C 
ATOM     35  H   UNL A   1      31.535  34.548  27.164  1.00  0.00     0.163 HD
ATOM     36  O   UNL A   1      32.463  36.087  28.800  1.00  0.00    -0.269 OA
BRANCH  34  37
ATOM     37  C   UNL A   1      34.163  34.519  29.200  1.00  0.00     0.039 A 
ATOM     38  C   UNL A   1      34.044  33.853  30.419  1.00  0.00     0.014 A 
ATOM     39  C   UNL A   1      35.417  34.692  28.605  1.00  0.00     0.014 A 
ATOM     40  C   UNL A   1      35.180  33.308  31.015  1.00  0.00     0.010 A 
ATOM     41  C   UNL A   1      36.533  34.071  29.153  1.00  0.00     0.010 A 
ATOM     42  C   UNL A   1      36.427  33.376  30.366  1.00  0.00    -0.014 A 
BRANCH  42  43
ATOM     43  C   UNL A   1      37.611  32.702  30.949  1.00  0.00     0.031 A 
ATOM     44  C   UNL A   1      38.184  33.155  32.262  1.00  0.00     0.074 A 
ATOM     45  C   UNL A   1      38.183  31.685  30.275  1.00  0.00     0.049 A 
ATOM     46  N   UNL A   1      39.173  32.639  32.948  1.00  0.00    -0.248 NA
ATOM     47  C   UNL A   1      37.587  34.351  32.876  1.00  0.00     0.031 C 
ATOM     48  C   UNL A   1      37.758  31.193  28.961  1.00  0.00     0.029 A 
ATOM     49  N   UNL A   1      39.236  30.871  30.607  1.00  0.00    -0.354 N 
ATOM     50  C   UNL A   1      39.316  33.448  34.069  1.00  0.00     0.074 A 
ATOM     51  C   UNL A   1      38.358  34.523  33.939  1.00  0.00     0.031 C 
ATOM     52  C   UNL A   1      38.504  30.129  28.628  1.00  0.00     0.029 A 
ATOM     53  C   UNL A   1      39.486  29.890  29.680  1.00  0.00     0.049 A 
ATOM     54  H   UNL A   1      39.762  30.980  31.433  1.00  0.00     0.167 HD
ATOM     55  C   UNL A   1      40.151  33.295  35.124  1.00  0.00     0.031 A 
ATOM     56  C   UNL A   1      40.399  28.901  29.680  1.00  0.00     0.031 A 
ATOM     57  C   UNL A   1      41.109  32.228  35.246  1.00  0.00     0.049 A 
ATOM     58  C   UNL A   1      41.324  28.763  30.856  1.00  0.00     0.074 A 
ATOM     59  C   UNL A   1      41.966  31.955  36.299  1.00  0.00     0.029 A 
ATOM     60  N   UNL A   1      41.346  31.265  34.277  1.00  0.00    -0.354 N 
ATOM     61  N   UNL A   1      41.383  29.481  31.952  1.00  0.00    -0.248 NA
ATOM     62  C   UNL A   1      42.296  27.663  30.800  1.00  0.00     0.031 C 
ATOM     63  C   UNL A   1      42.766  30.866  35.938  1.00  0.00     0.029 A 
ATOM     64  C   UNL A   1      42.360  30.415  34.692  1.00  0.00     0.049 A 
ATOM     65  H   UNL A   1      40.866  31.195  33.421  1.00  0.00     0.167 HD
ATOM     66  C   UNL A   1      42.384  28.908  32.725  1.00  0.00     0.074 A 
ATOM     67  C   UNL A   1      42.878  27.763  31.986  1.00  0.00     0.031 C 
ATOM     68  C   UNL A   1      42.855  29.293  33.937  1.00  0.00     0.031 A 
BRANCH  55  69
ATOM     69  C   UNL A   1      40.070  34.318  36.225  1.00  0.00    -0.014 A 
ATOM     70  C   UNL A   1      40.811  35.510  36.171  1.00  0.00     0.009 A 
ATOM     71  C   UNL A   1      39.215  34.103  37.318  1.00  0.00     0.009 A 
ATOM     72  C   UNL A   1      40.728  36.445  37.205  1.00  0.00     0.001 A 
ATOM     73  C   UNL A   1      39.110  35.055  38.334  1.00  0.00     0.001 A 
ATOM     74  C   UNL A   1      39.873  36.219  38.282  1.00  0.00     0.000 A 
ENDBRANCH  55  69
BRANCH  56  75
ATOM     75  C   UNL A   1      40.471  27.951  28.537  1.00  0.00    -0.014 A 
ATOM     76  C   UNL A   1      41.216  28.267  27.389  1.00  0.00     0.009 A 
ATOM     77  C   UNL A   1      39.784  26.728  28.582  1.00  0.00     0.009 A 
ATOM     78  C   UNL A   1      41.244  27.394  26.300  1.00  0.00     0.001 A 
ATOM     79  C   UNL A   1      39.843  25.841  27.506  1.00  0.00     0.001 A 
ATOM     80  C   UNL A   1      40.562  26.179  26.361  1.00  0.00     0.000 A 
ENDBRANCH  56  75
BRANCH  68  81
ATOM     81  C   UNL A   1      43.947  28.452  34.541  1.00  0.00    -0.014 A 
ATOM     82  C   UNL A   1      45.304  28.748  34.325  1.00  0.00     0.009 A 
ATOM     83  C   UNL A   1      43.614  27.348  35.340  1.00  0.00     0.009 A 
ATOM     84  C   UNL A   1      46.300  27.922  34.851  1.00  0.00     0.001 A 
ATOM     85  C   UNL A   1      44.611  26.548  35.897  1.00  0.00     0.001 A 
ATOM     86  C   UNL A   1      45.953  26.825  35.638  1.00  0.00     0.000 A 
ENDBRANCH  68  81
ENDBRANCH  42  43
ENDBRANCH  34  37
ENDBRANCH  32  33
ENDBRANCH  31  32
ENDBRANCH   1  31
TORSDOF 15
ENDMDL
MODEL 2
REMARK VINA RESULT:     -12.8      5.120     10.515
REMARK SMILES O=C1OC(c2ccc(Cl)cc2)=N/C1=C/Nc1ccc(O)c(C(=O)NCCCCNC(=O)c2ccc(-c3c4nc(c(-c5ccccc5)c5ccc([nH]5)c(-c5ccccc5)c5nc(c(-c6ccccc6)c6ccc3[nH]6)C=C5)C=C4)cc2)c1
REMARK SMILES IDX 26 1 25 2 24 3 22 4 23 5 21 7 16 8 17 9 80 10 18 11 19 12
REMARK SMILES IDX 15 13 14 15 1 16 2 17 3 18 13 19 4 20 12 21 5 22 6 23 11 24
REMARK SMILES IDX 7 25 10 26 8 27 9 28 20 29 27 31 28 32 29 33 30 34 31 36
REMARK SMILES IDX 32 37 33 38 79 39 34 40 78 41 35 42 36 43 37 44 72 45 38 46
REMARK SMILES IDX 77 47 71 48 73 49 39 50 76 51 70 52 69 53 40 55 62 56 47 57
REMARK SMILES IDX 61 58 48 59 51 60 60 61 74 62 49 63 50 64 59 66 75 67 52 68
REMARK SMILES IDX 41 69 42 70 46 71 43 72 45 73 44 74 63 75 64 76 68 77 65 78
REMARK SMILES IDX 67 79 66 80 53 81 54 82 58 83 55 84 57 85 56 86
REMARK H PARENT 24 6 15 14 20 30 29 35 73 54 51 65
REMARK Flexibility Score: inf
ROOT
ATOM      1  C   UNL A   1      37.270  20.862  24.322  1.00  0.00     0.023 C 
ENDROOT
BRANCH   1   2
ATOM      2  C   UNL A   1      36.925  22.157  25.064  1.00  0.00     0.116 C 
BRANCH   2   3
ATOM      3  N   UNL A   1      36.083  21.855  26.197  1.00  0.00    -0.352 N 
ATOM      4  C   UNL A   1      34.789  21.419  26.284  1.00  0.00     0.255 C 
ATOM      5  O   UNL A   1      34.316  21.388  27.426  1.00  0.00    -0.269 OA
ATOM      6  H   UNL A   1      36.522  21.986  27.068  1.00  0.00     0.163 HD
BRANCH   4   7
ATOM      7  C   UNL A   1      33.960  20.895  25.149  1.00  0.00     0.083 A 
ATOM      8  C   UNL A   1      32.390  21.623  23.395  1.00  0.00     0.039 A 
ATOM      9  C   UNL A   1      32.181  20.291  23.043  1.00  0.00     0.030 A 
ATOM     10  C   UNL A   1      33.254  21.904  24.458  1.00  0.00     0.043 A 
ATOM     11  C   UNL A   1      32.901  19.279  23.666  1.00  0.00     0.049 A 
ATOM     12  C   UNL A   1      33.809  19.582  24.687  1.00  0.00     0.128 A 
BRANCH   8  13
ATOM     13  N   UNL A   1      31.720  22.675  22.761  1.00  0.00    -0.360 N 
ATOM     14  H   UNL A   1      31.640  22.624  21.781  1.00  0.00     0.166 HD
BRANCH  13  15
ATOM     15  C   UNL A   1      31.164  23.765  23.371  1.00  0.00     0.119 C 
ATOM     16  O   UNL A   1      33.863  24.791  22.483  1.00  0.00    -0.244 OA
ATOM     17  C   UNL A   1      33.018  25.416  23.088  1.00  0.00     0.365 C 
ATOM     18  O   UNL A   1      33.060  26.725  23.472  1.00  0.00    -0.402 OA
ATOM     19  C   UNL A   1      31.689  24.973  23.589  1.00  0.00     0.168 C 
ATOM     20  C   UNL A   1      31.912  26.949  24.150  1.00  0.00     0.231 C 
ATOM     21  N   UNL A   1      31.064  25.981  24.268  1.00  0.00    -0.204 NA
BRANCH  20  22
ATOM     22  C   UNL A   1      31.787  28.275  24.740  1.00  0.00     0.037 A 
ATOM     23  C   UNL A   1      30.927  29.223  24.182  1.00  0.00     0.015 A 
ATOM     24  C   UNL A   1      32.513  28.555  25.902  1.00  0.00     0.015 A 
ATOM     25  C   UNL A   1      30.794  30.467  24.801  1.00  0.00     0.021 A 
ATOM     26  C   UNL A   1      32.391  29.806  26.504  1.00  0.00     0.021 A 
ATOM     27  C   UNL A   1      31.528  30.756  25.954  1.00  0.00     0.041 A 
ATOM     28  Cl  UNL A   1      31.361  32.291  26.711  1.00  0.00    -0.084 Cl
ENDBRANCH  20  22
ENDBRANCH  13  15
ENDBRANCH   8  13
BRANCH  12  29
ATOM     29  O   UNL A   1      34.564  18.542  25.138  1.00  0.00    -0.507 OA
ATOM     30  H   UNL A   1      34.658  17.769  24.617  1.00  0.00     0.293 HD
ENDBRANCH  12  29
ENDBRANCH   4   7
ENDBRANCH   2   3
ENDBRANCH   1   2
BRANCH   1  31
ATOM     31  C   UNL A   1      37.913  19.791  25.201  1.00  0.00     0.023 C 
BRANCH  31  32
ATOM     32  C   UNL A   1      39.245  20.201  25.810  1.00  0.00     0.116 C 
BRANCH  32  33
ATOM     33  N   UNL A   1      40.232  19.131  25.805  1.00  0.00    -0.352 N 
ATOM     34  C   UNL A   1      41.575  19.204  26.072  1.00  0.00     0.251 C 
ATOM     35  H   UNL A   1      39.889  18.235  25.581  1.00  0.00     0.163 HD
ATOM     36  O   UNL A   1      42.297  18.226  25.907  1.00  0.00    -0.269 OA
BRANCH  34  37
ATOM     37  C   UNL A   1      42.149  20.488  26.514  1.00  0.00     0.039 A 
ATOM     38  C   UNL A   1      42.668  21.353  25.551  1.00  0.00     0.014 A 
ATOM     39  C   UNL A   1      42.131  20.856  27.863  1.00  0.00     0.014 A 
ATOM     40  C   UNL A   1      43.116  22.615  25.936  1.00  0.00     0.010 A 
ATOM     41  C   UNL A   1      42.492  22.146  28.231  1.00  0.00     0.010 A 
ATOM     42  C   UNL A   1      42.993  23.038  27.272  1.00  0.00    -0.014 A 
BRANCH  42  43
ATOM     43  C   UNL A   1      43.369  24.419  27.658  1.00  0.00     0.031 A 
ATOM     44  C   UNL A   1      44.804  24.863  27.620  1.00  0.00     0.074 A 
ATOM     45  C   UNL A   1      42.406  25.270  28.064  1.00  0.00     0.049 A 
ATOM     46  N   UNL A   1      45.302  26.050  27.860  1.00  0.00    -0.248 NA
ATOM     47  C   UNL A   1      45.812  23.843  27.292  1.00  0.00     0.031 C 
ATOM     48  C   UNL A   1      40.985  24.940  28.203  1.00  0.00     0.029 A 
ATOM     49  N   UNL A   1      42.473  26.593  28.419  1.00  0.00    -0.354 N 
ATOM     50  C   UNL A   1      46.678  25.917  27.714  1.00  0.00     0.074 A 
ATOM     51  C   UNL A   1      46.940  24.524  27.429  1.00  0.00     0.031 C 
ATOM     52  C   UNL A   1      40.310  26.043  28.558  1.00  0.00     0.029 A 
ATOM     53  C   UNL A   1      41.251  27.146  28.712  1.00  0.00     0.049 A 
ATOM     54  H   UNL A   1      43.318  27.099  28.459  1.00  0.00     0.167 HD
ATOM     55  C   UNL A   1      47.634  26.873  27.785  1.00  0.00     0.031 A 
ATOM     56  C   UNL A   1      40.923  28.405  29.059  1.00  0.00     0.031 A 
ATOM     57  C   UNL A   1      47.371  28.258  28.077  1.00  0.00     0.049 A 
ATOM     58  C   UNL A   1      42.006  29.443  29.145  1.00  0.00     0.074 A 
ATOM     59  C   UNL A   1      48.264  29.314  28.121  1.00  0.00     0.029 A 
ATOM     60  N   UNL A   1      46.123  28.776  28.387  1.00  0.00    -0.354 N 
ATOM     61  N   UNL A   1      43.291  29.321  28.912  1.00  0.00    -0.248 NA
ATOM     62  C   UNL A   1      41.587  30.798  29.525  1.00  0.00     0.031 C 
ATOM     63  C   UNL A   1      47.566  30.458  28.523  1.00  0.00     0.029 A 
ATOM     64  C   UNL A   1      46.226  30.131  28.658  1.00  0.00     0.049 A 
ATOM     65  H   UNL A   1      45.286  28.257  28.413  1.00  0.00     0.167 HD
ATOM     66  C   UNL A   1      43.830  30.587  29.097  1.00  0.00     0.074 A 
ATOM     67  C   UNL A   1      42.727  31.467  29.426  1.00  0.00     0.031 C 
ATOM     68  C   UNL A   1      45.122  30.988  29.005  1.00  0.00     0.031 A 
BRANCH  55  69
ATOM     69  C   UNL A   1      49.058  26.445  27.553  1.00  0.00    -0.014 A 
ATOM     70  C   UNL A   1      49.622  26.449  26.266  1.00  0.00     0.009 A 
ATOM     71  C   UNL A   1      49.861  26.064  28.640  1.00  0.00     0.009 A 
ATOM     72  C   UNL A   1      50.944  26.042  26.068  1.00  0.00     0.001 A 
ATOM     73  C   UNL A   1      51.191  25.690  28.444  1.00  0.00     0.001 A 
ATOM     74  C   UNL A   1      51.729  25.670  27.158  1.00  0.00     0.000 A 
ENDBRANCH  55  69
BRANCH  56  75
ATOM     75  C   UNL A   1      39.504  28.758  29.332  1.00  0.00    -0.014 A 
ATOM     76  C   UNL A   1      38.963  28.604  30.618  1.00  0.00     0.009 A 
ATOM     77  C   UNL A   1      38.678  29.239  28.304  1.00  0.00     0.009 A 
ATOM     78  C   UNL A   1      37.618  28.894  30.861  1.00  0.00     0.001 A 
ATOM     79  C   UNL A   1      37.345  29.561  28.557  1.00  0.00     0.001 A 
ATOM     80  C   UNL A   1      36.812  29.377  29.832  1.00  0.00     0.000 A 
ENDBRANCH  56  75
BRANCH  68  81
ATOM     81  C   UNL A   1      45.400  32.447  29.245  1.00  0.00    -0.014 A 
ATOM     82  C   UNL A   1      45.353  33.384  28.199  1.00  0.00     0.009 A 
ATOM     83  C   UNL A   1      45.711  32.893  30.539  1.00  0.00     0.009 A 
ATOM     84  C   UNL A   1      45.667  34.725  28.435  1.00  0.00     0.001 A 
ATOM     85  C   UNL A   1      45.985  34.239  30.779  1.00  0.00     0.001 A 
ATOM     86  C   UNL A   1      45.980  35.151  29.725  1.00  0.00     0.000 A 
ENDBRANCH  68  81
ENDBRANCH  42  43
ENDBRANCH  34  37
ENDBRANCH  32  33
ENDBRANCH  31  32
ENDBRANCH   1  31
TORSDOF 15
ENDMDL
MODEL 3
REMARK VINA RESULT:     -12.8      4.503      9.674
REMARK SMILES O=C1OC(c2ccc(Cl)cc2)=N/C1=C/Nc1ccc(O)c(C(=O)NCCCCNC(=O)c2ccc(-c3c4nc(c(-c5ccccc5)c5ccc([nH]5)c(-c5ccccc5)c5nc(c(-c6ccccc6)c6ccc3[nH]6)C=C5)C=C4)cc2)c1
REMARK SMILES IDX 26 1 25 2 24 3 22 4 23 5 21 7 16 8 17 9 80 10 18 11 19 12
REMARK SMILES IDX 15 13 14 15 1 16 2 17 3 18 13 19 4 20 12 21 5 22 6 23 11 24
REMARK SMILES IDX 7 25 10 26 8 27 9 28 20 29 27 31 28 32 29 33 30 34 31 36
REMARK SMILES IDX 32 37 33 38 79 39 34 40 78 41 35 42 36 43 37 44 72 45 38 46
REMARK SMILES IDX 77 47 71 48 73 49 39 50 76 51 70 52 69 53 40 55 62 56 47 57
REMARK SMILES IDX 61 58 48 59 51 60 60 61 74 62 49 63 50 64 59 66 75 67 52 68
REMARK SMILES IDX 41 69 42 70 46 71 43 72 45 73 44 74 63 75 64 76 68 77 65 78
REMARK SMILES IDX 67 79 66 80 53 81 54 82 58 83 55 84 57 85 56 86
REMARK H PARENT 24 6 15 14 20 30 29 35 73 54 51 65
REMARK Flexibility Score: inf
ROOT
ATOM      1  C   UNL A   1      38.919  22.845  26.451  1.00  0.00     0.023 C 
ENDROOT
BRANCH   1   2
ATOM      2  C   UNL A   1      37.559  23.442  26.073  1.00  0.00     0.116 C 
BRANCH   2   3
ATOM      3  N   UNL A   1      37.444  23.512  24.637  1.00  0.00    -0.352 N 
ATOM      4  C   UNL A   1      36.571  22.928  23.759  1.00  0.00     0.255 C 
ATOM      5  O   UNL A   1      36.835  23.089  22.563  1.00  0.00    -0.269 OA
ATOM      6  H   UNL A   1      38.119  24.086  24.208  1.00  0.00     0.163 HD
BRANCH   4   7
ATOM      7  C   UNL A   1      35.301  22.217  24.125  1.00  0.00     0.083 A 
ATOM      8  C   UNL A   1      32.889  22.173  23.625  1.00  0.00     0.039 A 
ATOM      9  C   UNL A   1      32.708  21.226  24.631  1.00  0.00     0.030 A 
ATOM     10  C   UNL A   1      34.176  22.674  23.405  1.00  0.00     0.043 A 
ATOM     11  C   UNL A   1      33.802  20.715  25.320  1.00  0.00     0.049 A 
ATOM     12  C   UNL A   1      35.092  21.182  25.044  1.00  0.00     0.128 A 
BRANCH   8  13
ATOM     13  N   UNL A   1      31.820  22.678  22.878  1.00  0.00    -0.360 N 
ATOM     14  H   UNL A   1      31.716  22.332  21.962  1.00  0.00     0.166 HD
BRANCH  13  15
ATOM     15  C   UNL A   1      30.905  23.604  23.296  1.00  0.00     0.119 C 
ATOM     16  O   UNL A   1      32.660  25.191  21.419  1.00  0.00    -0.244 OA
ATOM     17  C   UNL A   1      31.710  25.611  22.046  1.00  0.00     0.365 C 
ATOM     18  O   UNL A   1      31.185  26.871  22.025  1.00  0.00    -0.402 OA
ATOM     19  C   UNL A   1      30.826  24.906  23.012  1.00  0.00     0.168 C 
ATOM     20  C   UNL A   1      30.168  26.862  22.917  1.00  0.00     0.231 C 
ATOM     21  N   UNL A   1      29.898  25.762  23.537  1.00  0.00    -0.204 NA
BRANCH  20  22
ATOM     22  C   UNL A   1      29.516  28.147  23.128  1.00  0.00     0.037 A 
ATOM     23  C   UNL A   1      30.268  29.285  23.430  1.00  0.00     0.015 A 
ATOM     24  C   UNL A   1      28.127  28.220  22.975  1.00  0.00     0.015 A 
ATOM     25  C   UNL A   1      29.616  30.511  23.577  1.00  0.00     0.021 A 
ATOM     26  C   UNL A   1      27.481  29.443  23.142  1.00  0.00     0.021 A 
ATOM     27  C   UNL A   1      28.228  30.585  23.438  1.00  0.00     0.041 A 
ATOM     28  Cl  UNL A   1      27.431  32.097  23.623  1.00  0.00    -0.084 Cl
ENDBRANCH  20  22
ENDBRANCH  13  15
ENDBRANCH   8  13
BRANCH  12  29
ATOM     29  O   UNL A   1      36.108  20.526  25.670  1.00  0.00    -0.507 OA
ATOM     30  H   UNL A   1      35.918  19.842  26.283  1.00  0.00     0.293 HD
ENDBRANCH  12  29
ENDBRANCH   4   7
ENDBRANCH   2   3
ENDBRANCH   1   2
BRANCH   1  31
ATOM     31  C   UNL A   1      39.271  21.565  25.696  1.00  0.00     0.023 C 
BRANCH  31  32
ATOM     32  C   UNL A   1      39.862  20.470  26.570  1.00  0.00     0.116 C 
BRANCH  32  33
ATOM     33  N   UNL A   1      41.024  19.825  25.974  1.00  0.00    -0.352 N 
ATOM     34  C   UNL A   1      42.308  20.294  25.878  1.00  0.00     0.251 C 
ATOM     35  H   UNL A   1      40.865  18.933  25.588  1.00  0.00     0.163 HD
ATOM     36  O   UNL A   1      43.151  19.677  25.235  1.00  0.00    -0.269 OA
BRANCH  34  37
ATOM     37  C   UNL A   1      42.652  21.577  26.520  1.00  0.00     0.039 A 
ATOM     38  C   UNL A   1      42.929  22.676  25.707  1.00  0.00     0.014 A 
ATOM     39  C   UNL A   1      42.654  21.705  27.912  1.00  0.00     0.014 A 
ATOM     40  C   UNL A   1      43.149  23.921  26.293  1.00  0.00     0.010 A 
ATOM     41  C   UNL A   1      42.783  22.963  28.489  1.00  0.00     0.010 A 
ATOM     42  C   UNL A   1      43.037  24.083  27.686  1.00  0.00    -0.014 A 
BRANCH  42  43
ATOM     43  C   UNL A   1      43.164  25.428  28.295  1.00  0.00     0.031 A 
ATOM     44  C   UNL A   1      44.502  25.942  28.750  1.00  0.00     0.074 A 
ATOM     45  C   UNL A   1      42.059  26.182  28.456  1.00  0.00     0.049 A 
ATOM     46  N   UNL A   1      44.806  27.116  29.242  1.00  0.00    -0.248 NA
ATOM     47  C   UNL A   1      45.640  25.014  28.662  1.00  0.00     0.031 C 
ATOM     48  C   UNL A   1      40.695  25.770  28.111  1.00  0.00     0.029 A 
ATOM     49  N   UNL A   1      41.908  27.458  28.934  1.00  0.00    -0.354 N 
ATOM     50  C   UNL A   1      46.166  27.066  29.523  1.00  0.00     0.074 A 
ATOM     51  C   UNL A   1      46.613  25.728  29.208  1.00  0.00     0.031 C 
ATOM     52  C   UNL A   1      39.857  26.793  28.336  1.00  0.00     0.029 A 
ATOM     53  C   UNL A   1      40.614  27.916  28.879  1.00  0.00     0.049 A 
ATOM     54  H   UNL A   1      42.656  27.995  29.283  1.00  0.00     0.167 HD
ATOM     55  C   UNL A   1      46.974  28.052  29.978  1.00  0.00     0.031 A 
ATOM     56  C   UNL A   1      40.096  29.111  29.220  1.00  0.00     0.031 A 
ATOM     57  C   UNL A   1      46.524  29.381  30.299  1.00  0.00     0.049 A 
ATOM     58  C   UNL A   1      41.013  30.183  29.736  1.00  0.00     0.074 A 
ATOM     59  C   UNL A   1      47.273  30.467  30.718  1.00  0.00     0.029 A 
ATOM     60  N   UNL A   1      45.204  29.801  30.249  1.00  0.00    -0.354 N 
ATOM     61  N   UNL A   1      42.313  30.149  29.907  1.00  0.00    -0.248 NA
ATOM     62  C   UNL A   1      40.390  31.465  30.088  1.00  0.00     0.031 C 
ATOM     63  C   UNL A   1      46.396  31.524  30.984  1.00  0.00     0.029 A 
ATOM     64  C   UNL A   1      45.110  31.121  30.661  1.00  0.00     0.049 A 
ATOM     65  H   UNL A   1      44.444  29.243  29.962  1.00  0.00     0.167 HD
ATOM     66  C   UNL A   1      42.667  31.410  30.368  1.00  0.00     0.074 A 
ATOM     67  C   UNL A   1      41.448  32.194  30.414  1.00  0.00     0.031 C 
ATOM     68  C   UNL A   1      43.888  31.880  30.723  1.00  0.00     0.031 A 
BRANCH  55  69
ATOM     69  C   UNL A   1      48.431  27.721  30.166  1.00  0.00    -0.014 A 
ATOM     70  C   UNL A   1      49.356  27.877  29.120  1.00  0.00     0.009 A 
ATOM     71  C   UNL A   1      48.892  27.278  31.415  1.00  0.00     0.009 A 
ATOM     72  C   UNL A   1      50.703  27.559  29.311  1.00  0.00     0.001 A 
ATOM     73  C   UNL A   1      50.244  26.993  31.612  1.00  0.00     0.001 A 
ATOM     74  C   UNL A   1      51.147  27.123  30.558  1.00  0.00     0.000 A 
ENDBRANCH  55  69
BRANCH  56  75
ATOM     75  C   UNL A   1      38.638  29.363  29.066  1.00  0.00    -0.014 A 
ATOM     76  C   UNL A   1      38.113  29.802  27.840  1.00  0.00     0.009 A 
ATOM     77  C   UNL A   1      37.764  29.178  30.149  1.00  0.00     0.009 A 
ATOM     78  C   UNL A   1      36.751  30.081  27.712  1.00  0.00     0.001 A 
ATOM     79  C   UNL A   1      36.398  29.424  30.008  1.00  0.00     0.001 A 
ATOM     80  C   UNL A   1      35.893  29.887  28.794  1.00  0.00     0.000 A 
ENDBRANCH  56  75
BRANCH  68  81
ATOM     81  C   UNL A   1      43.961  33.315  31.171  1.00  0.00    -0.014 A 
ATOM     82  C   UNL A   1      44.164  34.359  30.253  1.00  0.00     0.009 A 
ATOM     83  C   UNL A   1      43.821  33.627  32.532  1.00  0.00     0.009 A 
ATOM     84  C   UNL A   1      44.282  35.678  30.699  1.00  0.00     0.001 A 
ATOM     85  C   UNL A   1      43.900  34.949  32.969  1.00  0.00     0.001 A 
ATOM     86  C   UNL A   1      44.148  35.972  32.055  1.00  0.00     0.000 A 
ENDBRANCH  68  81
ENDBRANCH  42  43
ENDBRANCH  34  37
ENDBRANCH  32  33
ENDBRANCH  31  32
ENDBRANCH   1  31
TORSDOF 15
ENDMDL
