MODEL 1
REMARK VINA RESULT:     -11.4      0.000      0.000
REMARK SMILES O=C(CCS(=O)(=O)c1ccc2[nH]c(=O)oc2c1)NCCCCNC(=O)c1ccc(-c2c3nc(c(-c4ccccc4)c4ccc([nH]4)c(-c4ccccc4)c4nc(c(-c5ccccc5)c5ccc2[nH]5)C=C4)C=C3)cc1
REMARK SMILES IDX 20 1 19 2 18 3 1 4 2 5 3 7 4 8 5 9 6 10 7 11 8 12 9 13 17 14
REMARK SMILES IDX 10 15 16 16 11 17 15 18 12 19 13 20 14 22 21 23 22 24 23 25
REMARK SMILES IDX 24 26 25 28 26 29 27 30 73 31 28 32 72 33 29 34 30 35 31 36
REMARK SMILES IDX 66 37 32 38 71 39 65 40 67 41 33 42 70 43 64 44 63 45 34 47
REMARK SMILES IDX 56 48 41 49 55 50 42 51 45 52 54 53 68 54 43 55 44 56 53 58
REMARK SMILES IDX 69 59 46 60 35 61 36 62 40 63 37 64 39 65 38 66 57 67 58 68
REMARK SMILES IDX 62 69 59 70 61 71 60 72 47 73 48 74 52 75 49 76 51 77 50 78
REMARK H PARENT 18 6 12 21 23 27 67 46 45 57
REMARK Flexibility Score: inf
ROOT
ATOM      1  C   UNL A   1      32.195  30.380  26.126  1.00  0.00     0.023 C 
ENDROOT
BRANCH   1   2
ATOM      2  C   UNL A   1      33.167  29.393  26.795  1.00  0.00     0.116 C 
BRANCH   2   3
ATOM      3  N   UNL A   1      33.083  27.985  26.451  1.00  0.00    -0.356 N 
ATOM      4  O   UNL A   1      31.198  27.651  27.730  1.00  0.00    -0.275 OA
ATOM      5  C   UNL A   1      32.073  27.208  26.988  1.00  0.00     0.221 C 
ATOM      6  H   UNL A   1      33.742  27.585  25.839  1.00  0.00     0.163 HD
BRANCH   5   7
ATOM      7  C   UNL A   1      32.051  25.761  26.559  1.00  0.00     0.116 C 
BRANCH   7   8
ATOM      8  C   UNL A   1      31.992  25.635  25.041  1.00  0.00     0.152 C 
BRANCH   8   9
ATOM      9  S   UNL A   1      30.347  25.768  24.370  1.00  0.00     0.179 S 
ATOM     10  O   UNL A   1      30.212  24.766  23.326  1.00  0.00    -0.224 OA
ATOM     11  O   UNL A   1      29.406  25.806  25.472  1.00  0.00    -0.224 OA
BRANCH   9  12
ATOM     12  C   UNL A   1      30.268  27.370  23.600  1.00  0.00     0.071 A 
ATOM     13  C   UNL A   1      31.443  28.063  23.246  1.00  0.00     0.023 A 
ATOM     14  C   UNL A   1      29.014  27.899  23.313  1.00  0.00     0.069 A 
ATOM     15  C   UNL A   1      31.365  29.266  22.525  1.00  0.00     0.031 A 
ATOM     16  C   UNL A   1      28.968  29.056  22.570  1.00  0.00     0.157 A 
ATOM     17  C   UNL A   1      30.110  29.710  22.179  1.00  0.00     0.087 A 
ATOM     18  O   UNL A   1      27.826  29.612  22.022  1.00  0.00    -0.408 OA
ATOM     19  N   UNL A   1      29.700  30.734  21.371  1.00  0.00    -0.287 N 
ATOM     20  C   UNL A   1      28.337  30.646  21.239  1.00  0.00     0.417 A 
ATOM     21  H   UNL A   1      30.280  31.413  20.957  1.00  0.00     0.173 HD
ATOM     22  O   UNL A   1      27.647  31.337  20.497  1.00  0.00    -0.224 OA
ENDBRANCH   9  12
ENDBRANCH   8   9
ENDBRANCH   7   8
ENDBRANCH   5   7
ENDBRANCH   2   3
ENDBRANCH   1   2
BRANCH   1  23
ATOM     23  C   UNL A   1      31.768  31.708  26.774  1.00  0.00     0.023 C 
BRANCH  23  24
ATOM     24  C   UNL A   1      32.774  32.735  27.322  1.00  0.00     0.116 C 
BRANCH  24  25
ATOM     25  N   UNL A   1      32.281  34.036  27.728  1.00  0.00    -0.352 N 
ATOM     26  C   UNL A   1      32.938  34.967  28.508  1.00  0.00     0.251 C 
ATOM     27  H   UNL A   1      31.382  34.282  27.413  1.00  0.00     0.163 HD
ATOM     28  O   UNL A   1      32.507  36.106  28.653  1.00  0.00    -0.269 OA
BRANCH  26  29
ATOM     29  C   UNL A   1      34.156  34.567  29.234  1.00  0.00     0.039 A 
ATOM     30  C   UNL A   1      34.007  34.070  30.531  1.00  0.00     0.014 A 
ATOM     31  C   UNL A   1      35.415  34.628  28.632  1.00  0.00     0.014 A 
ATOM     32  C   UNL A   1      35.110  33.533  31.192  1.00  0.00     0.010 A 
ATOM     33  C   UNL A   1      36.506  34.045  29.273  1.00  0.00     0.010 A 
ATOM     34  C   UNL A   1      36.353  33.465  30.543  1.00  0.00    -0.014 A 
BRANCH  34  35
ATOM     35  C   UNL A   1      37.480  32.723  31.158  1.00  0.00     0.031 A 
ATOM     36  C   UNL A   1      38.032  33.143  32.487  1.00  0.00     0.074 A 
ATOM     37  C   UNL A   1      38.037  31.709  30.468  1.00  0.00     0.049 A 
ATOM     38  N   UNL A   1      39.038  32.641  33.157  1.00  0.00    -0.248 NA
ATOM     39  C   UNL A   1      37.385  34.292  33.137  1.00  0.00     0.031 C 
ATOM     40  C   UNL A   1      37.605  31.250  29.144  1.00  0.00     0.029 A 
ATOM     41  N   UNL A   1      39.087  30.881  30.776  1.00  0.00    -0.354 N 
ATOM     42  C   UNL A   1      39.152  33.422  34.301  1.00  0.00     0.074 A 
ATOM     43  C   UNL A   1      38.146  34.458  34.208  1.00  0.00     0.031 C 
ATOM     44  C   UNL A   1      38.363  30.209  28.767  1.00  0.00     0.029 A 
ATOM     45  C   UNL A   1      39.359  29.951  29.801  1.00  0.00     0.049 A 
ATOM     46  H   UNL A   1      39.596  30.946  31.615  1.00  0.00     0.167 HD
ATOM     47  C   UNL A   1      40.008  33.274  35.341  1.00  0.00     0.031 A 
ATOM     48  C   UNL A   1      40.310  29.000  29.744  1.00  0.00     0.031 A 
ATOM     49  C   UNL A   1      41.009  32.242  35.409  1.00  0.00     0.049 A 
ATOM     50  C   UNL A   1      41.250  28.859  30.908  1.00  0.00     0.074 A 
ATOM     51  C   UNL A   1      41.906  31.972  36.427  1.00  0.00     0.029 A 
ATOM     52  N   UNL A   1      41.245  31.309  34.409  1.00  0.00    -0.354 N 
ATOM     53  N   UNL A   1      41.303  29.562  32.014  1.00  0.00    -0.248 NA
ATOM     54  C   UNL A   1      42.248  27.785  30.826  1.00  0.00     0.031 C 
ATOM     55  C   UNL A   1      42.718  30.907  36.020  1.00  0.00     0.029 A 
ATOM     56  C   UNL A   1      42.286  30.474  34.776  1.00  0.00     0.049 A 
ATOM     57  H   UNL A   1      40.746  31.250  33.563  1.00  0.00     0.167 HD
ATOM     58  C   UNL A   1      42.324  29.002  32.770  1.00  0.00     0.074 A 
ATOM     59  C   UNL A   1      42.846  27.889  32.004  1.00  0.00     0.031 C 
ATOM     60  C   UNL A   1      42.789  29.376  33.988  1.00  0.00     0.031 A 
BRANCH  47  61
ATOM     61  C   UNL A   1      39.900  34.264  36.470  1.00  0.00    -0.014 A 
ATOM     62  C   UNL A   1      39.097  34.005  37.594  1.00  0.00     0.009 A 
ATOM     63  C   UNL A   1      40.615  35.471  36.418  1.00  0.00     0.009 A 
ATOM     64  C   UNL A   1      38.972  34.951  38.613  1.00  0.00     0.001 A 
ATOM     65  C   UNL A   1      40.514  36.403  37.455  1.00  0.00     0.001 A 
ATOM     66  C   UNL A   1      39.683  36.148  38.544  1.00  0.00     0.000 A 
ENDBRANCH  47  61
BRANCH  48  67
ATOM     67  C   UNL A   1      40.401  28.102  28.561  1.00  0.00    -0.014 A 
ATOM     68  C   UNL A   1      41.151  28.474  27.436  1.00  0.00     0.009 A 
ATOM     69  C   UNL A   1      39.750  26.857  28.555  1.00  0.00     0.009 A 
ATOM     70  C   UNL A   1      41.228  27.633  26.322  1.00  0.00     0.001 A 
ATOM     71  C   UNL A   1      39.855  26.004  27.454  1.00  0.00     0.001 A 
ATOM     72  C   UNL A   1      40.586  26.396  26.335  1.00  0.00     0.000 A 
ENDBRANCH  48  67
BRANCH  60  73
ATOM     73  C   UNL A   1      43.898  28.549  34.574  1.00  0.00    -0.014 A 
ATOM     74  C   UNL A   1      45.245  28.888  34.374  1.00  0.00     0.009 A 
ATOM     75  C   UNL A   1      43.585  27.439  35.373  1.00  0.00     0.009 A 
ATOM     76  C   UNL A   1      46.258  28.108  34.935  1.00  0.00     0.001 A 
ATOM     77  C   UNL A   1      44.599  26.681  35.960  1.00  0.00     0.001 A 
ATOM     78  C   UNL A   1      45.934  27.010  35.732  1.00  0.00     0.000 A 
ENDBRANCH  60  73
ENDBRANCH  34  35
ENDBRANCH  26  29
ENDBRANCH  24  25
ENDBRANCH  23  24
ENDBRANCH   1  23
TORSDOF 14
ENDMDL
MODEL 2
REMARK VINA RESULT:     -11.4      1.996      2.642
REMARK SMILES O=C(CCS(=O)(=O)c1ccc2[nH]c(=O)oc2c1)NCCCCNC(=O)c1ccc(-c2c3nc(c(-c4ccccc4)c4ccc([nH]4)c(-c4ccccc4)c4nc(c(-c5ccccc5)c5ccc2[nH]5)C=C4)C=C3)cc1
REMARK SMILES IDX 20 1 19 2 18 3 1 4 2 5 3 7 4 8 5 9 6 10 7 11 8 12 9 13 17 14
REMARK SMILES IDX 10 15 16 16 11 17 15 18 12 19 13 20 14 22 21 23 22 24 23 25
REMARK SMILES IDX 24 26 25 28 26 29 27 30 73 31 28 32 72 33 29 34 30 35 31 36
REMARK SMILES IDX 66 37 32 38 71 39 65 40 67 41 33 42 70 43 64 44 63 45 34 47
REMARK SMILES IDX 56 48 41 49 55 50 42 51 45 52 54 53 68 54 43 55 44 56 53 58
REMARK SMILES IDX 69 59 46 60 35 61 36 62 40 63 37 64 39 65 38 66 57 67 58 68
REMARK SMILES IDX 62 69 59 70 61 71 60 72 47 73 48 74 52 75 49 76 51 77 50 78
REMARK H PARENT 18 6 12 21 23 27 67 46 45 57
REMARK Flexibility Score: inf
ROOT
ATOM      1  C   UNL A   1      32.036  28.674  27.455  1.00  0.00     0.023 C 
ENDROOT
BRANCH   1   2
ATOM      2  C   UNL A   1      31.416  27.409  26.836  1.00  0.00     0.116 C 
BRANCH   2   3
ATOM      3  N   UNL A   1      32.286  26.300  26.488  1.00  0.00    -0.356 N 
ATOM      4  O   UNL A   1      30.600  24.745  26.690  1.00  0.00    -0.275 OA
ATOM      5  C   UNL A   1      31.778  25.014  26.464  1.00  0.00     0.221 C 
ATOM      6  H   UNL A   1      33.231  26.463  26.269  1.00  0.00     0.163 HD
BRANCH   5   7
ATOM      7  C   UNL A   1      32.749  23.927  26.070  1.00  0.00     0.116 C 
BRANCH   7   8
ATOM      8  C   UNL A   1      33.793  24.445  25.088  1.00  0.00     0.152 C 
BRANCH   8   9
ATOM      9  S   UNL A   1      33.220  24.529  23.403  1.00  0.00     0.179 S 
ATOM     10  O   UNL A   1      34.355  24.258  22.536  1.00  0.00    -0.224 OA
ATOM     11  O   UNL A   1      32.010  23.738  23.292  1.00  0.00    -0.224 OA
BRANCH   9  12
ATOM     12  C   UNL A   1      32.729  26.219  23.143  1.00  0.00     0.071 A 
ATOM     13  C   UNL A   1      33.688  27.249  23.067  1.00  0.00     0.023 A 
ATOM     14  C   UNL A   1      31.376  26.490  22.971  1.00  0.00     0.069 A 
ATOM     15  C   UNL A   1      33.297  28.557  22.735  1.00  0.00     0.031 A 
ATOM     16  C   UNL A   1      31.026  27.770  22.606  1.00  0.00     0.157 A 
ATOM     17  C   UNL A   1      31.962  28.766  22.481  1.00  0.00     0.087 A 
ATOM     18  O   UNL A   1      29.767  28.171  22.197  1.00  0.00    -0.408 OA
ATOM     19  N   UNL A   1      31.290  29.855  21.997  1.00  0.00    -0.287 N 
ATOM     20  C   UNL A   1      29.987  29.484  21.783  1.00  0.00     0.417 A 
ATOM     21  H   UNL A   1      31.674  30.746  21.832  1.00  0.00     0.173 HD
ATOM     22  O   UNL A   1      29.127  30.178  21.250  1.00  0.00    -0.224 OA
ENDBRANCH   9  12
ENDBRANCH   8   9
ENDBRANCH   7   8
ENDBRANCH   5   7
ENDBRANCH   2   3
ENDBRANCH   1   2
BRANCH   1  23
ATOM     23  C   UNL A   1      31.974  30.055  26.783  1.00  0.00     0.023 C 
BRANCH  23  24
ATOM     24  C   UNL A   1      32.945  31.199  27.125  1.00  0.00     0.116 C 
BRANCH  24  25
ATOM     25  N   UNL A   1      32.394  32.475  27.535  1.00  0.00    -0.352 N 
ATOM     26  C   UNL A   1      33.068  33.514  28.146  1.00  0.00     0.251 C 
ATOM     27  H   UNL A   1      31.436  32.615  27.360  1.00  0.00     0.163 HD
ATOM     28  O   UNL A   1      32.553  34.615  28.299  1.00  0.00    -0.269 OA
BRANCH  26  29
ATOM     29  C   UNL A   1      34.420  33.277  28.683  1.00  0.00     0.039 A 
ATOM     30  C   UNL A   1      34.526  32.711  29.956  1.00  0.00     0.014 A 
ATOM     31  C   UNL A   1      35.562  33.556  27.928  1.00  0.00     0.014 A 
ATOM     32  C   UNL A   1      35.775  32.325  30.434  1.00  0.00     0.010 A 
ATOM     33  C   UNL A   1      36.804  33.123  28.385  1.00  0.00     0.010 A 
ATOM     34  C   UNL A   1      36.915  32.476  29.627  1.00  0.00    -0.014 A 
BRANCH  34  35
ATOM     35  C   UNL A   1      38.212  31.893  30.045  1.00  0.00     0.031 A 
ATOM     36  C   UNL A   1      39.126  32.649  30.962  1.00  0.00     0.074 A 
ATOM     37  C   UNL A   1      38.579  30.703  29.531  1.00  0.00     0.049 A 
ATOM     38  N   UNL A   1      40.313  32.317  31.400  1.00  0.00    -0.248 NA
ATOM     39  C   UNL A   1      38.653  33.960  31.430  1.00  0.00     0.031 C 
ATOM     40  C   UNL A   1      37.783  29.906  28.592  1.00  0.00     0.029 A 
ATOM     41  N   UNL A   1      39.713  29.954  29.718  1.00  0.00    -0.354 N 
ATOM     42  C   UNL A   1      40.735  33.384  32.183  1.00  0.00     0.074 A 
ATOM     43  C   UNL A   1      39.699  34.392  32.119  1.00  0.00     0.031 C 
ATOM     44  C   UNL A   1      38.439  28.770  28.308  1.00  0.00     0.029 A 
ATOM     45  C   UNL A   1      39.718  28.775  29.010  1.00  0.00     0.049 A 
ATOM     46  H   UNL A   1      40.453  30.233  30.303  1.00  0.00     0.167 HD
ATOM     47  C   UNL A   1      41.877  33.502  32.903  1.00  0.00     0.031 A 
ATOM     48  C   UNL A   1      40.651  27.809  28.932  1.00  0.00     0.031 A 
ATOM     49  C   UNL A   1      42.901  32.491  32.946  1.00  0.00     0.049 A 
ATOM     50  C   UNL A   1      41.911  27.965  29.737  1.00  0.00     0.074 A 
ATOM     51  C   UNL A   1      44.081  32.484  33.667  1.00  0.00     0.029 A 
ATOM     52  N   UNL A   1      42.863  31.304  32.227  1.00  0.00    -0.354 N 
ATOM     53  N   UNL A   1      42.268  28.950  30.526  1.00  0.00    -0.248 NA
ATOM     54  C   UNL A   1      42.888  26.872  29.654  1.00  0.00     0.031 C 
ATOM     55  C   UNL A   1      44.781  31.315  33.346  1.00  0.00     0.029 A 
ATOM     56  C   UNL A   1      44.008  30.565  32.472  1.00  0.00     0.049 A 
ATOM     57  H   UNL A   1      42.131  31.028  31.630  1.00  0.00     0.167 HD
ATOM     58  C   UNL A   1      43.499  28.586  31.054  1.00  0.00     0.074 A 
ATOM     59  C   UNL A   1      43.815  27.280  30.509  1.00  0.00     0.031 C 
ATOM     60  C   UNL A   1      44.298  29.269  31.910  1.00  0.00     0.031 A 
BRANCH  47  61
ATOM     61  C   UNL A   1      42.073  34.774  33.683  1.00  0.00    -0.014 A 
ATOM     62  C   UNL A   1      41.545  34.926  34.977  1.00  0.00     0.009 A 
ATOM     63  C   UNL A   1      42.802  35.836  33.125  1.00  0.00     0.009 A 
ATOM     64  C   UNL A   1      41.697  36.129  35.671  1.00  0.00     0.001 A 
ATOM     65  C   UNL A   1      42.981  37.027  33.835  1.00  0.00     0.001 A 
ATOM     66  C   UNL A   1      42.418  37.177  35.100  1.00  0.00     0.000 A 
ENDBRANCH  47  61
BRANCH  48  67
ATOM     67  C   UNL A   1      40.418  26.609  28.082  1.00  0.00    -0.014 A 
ATOM     68  C   UNL A   1      39.695  25.513  28.575  1.00  0.00     0.009 A 
ATOM     69  C   UNL A   1      40.904  26.560  26.765  1.00  0.00     0.009 A 
ATOM     70  C   UNL A   1      39.484  24.384  27.777  1.00  0.00     0.001 A 
ATOM     71  C   UNL A   1      40.665  25.444  25.959  1.00  0.00     0.001 A 
ATOM     72  C   UNL A   1      39.963  24.354  26.469  1.00  0.00     0.000 A 
ENDBRANCH  48  67
BRANCH  60  73
ATOM     73  C   UNL A   1      45.574  28.597  32.331  1.00  0.00    -0.014 A 
ATOM     74  C   UNL A   1      45.616  27.744  33.444  1.00  0.00     0.009 A 
ATOM     75  C   UNL A   1      46.740  28.790  31.574  1.00  0.00     0.009 A 
ATOM     76  C   UNL A   1      46.812  27.124  33.811  1.00  0.00     0.001 A 
ATOM     77  C   UNL A   1      47.925  28.143  31.923  1.00  0.00     0.001 A 
ATOM     78  C   UNL A   1      47.963  27.320  33.048  1.00  0.00     0.000 A 
ENDBRANCH  60  73
ENDBRANCH  34  35
ENDBRANCH  26  29
ENDBRANCH  24  25
ENDBRANCH  23  24
ENDBRANCH   1  23
TORSDOF 14
ENDMDL
MODEL 3
REMARK VINA RESULT:     -11.3      1.865      6.319
REMARK SMILES O=C(CCS(=O)(=O)c1ccc2[nH]c(=O)oc2c1)NCCCCNC(=O)c1ccc(-c2c3nc(c(-c4ccccc4)c4ccc([nH]4)c(-c4ccccc4)c4nc(c(-c5ccccc5)c5ccc2[nH]5)C=C4)C=C3)cc1
REMARK SMILES IDX 20 1 19 2 18 3 1 4 2 5 3 7 4 8 5 9 6 10 7 11 8 12 9 13 17 14
REMARK SMILES IDX 10 15 16 16 11 17 15 18 12 19 13 20 14 22 21 23 22 24 23 25
REMARK SMILES IDX 24 26 25 28 26 29 27 30 73 31 28 32 72 33 29 34 30 35 31 36
REMARK SMILES IDX 66 37 32 38 71 39 65 40 67 41 33 42 70 43 64 44 63 45 34 47
REMARK SMILES IDX 56 48 41 49 55 50 42 51 45 52 54 53 68 54 43 55 44 56 53 58
REMARK SMILES IDX 69 59 46 60 35 61 36 62 40 63 37 64 39 65 38 66 57 67 58 68
REMARK SMILES IDX 62 69 59 70 61 71 60 72 47 73 48 74 52 75 49 76 51 77 50 78
REMARK H PARENT 18 6 12 21 23 27 67 46 45 57
REMARK Flexibility Score: inf
ROOT
ATOM      1  C   UNL A   1      32.609  28.588  26.544  1.00  0.00     0.023 C 
ENDROOT
BRANCH   1   2
ATOM      2  C   UNL A   1      31.943  27.249  26.904  1.00  0.00     0.116 C 
BRANCH   2   3
ATOM      3  N   UNL A   1      32.456  26.028  26.310  1.00  0.00    -0.356 N 
ATOM      4  O   UNL A   1      30.459  24.910  26.565  1.00  0.00    -0.275 OA
ATOM      5  C   UNL A   1      31.635  24.920  26.208  1.00  0.00     0.221 C 
ATOM      6  H   UNL A   1      33.383  25.989  25.981  1.00  0.00     0.163 HD
BRANCH   5   7
ATOM      7  C   UNL A   1      32.247  23.702  25.557  1.00  0.00     0.116 C 
BRANCH   7   8
ATOM      8  C   UNL A   1      32.106  23.755  24.041  1.00  0.00     0.152 C 
BRANCH   8   9
ATOM      9  S   UNL A   1      33.415  24.649  23.226  1.00  0.00     0.179 S 
ATOM     10  O   UNL A   1      34.553  24.687  24.129  1.00  0.00    -0.224 OA
ATOM     11  O   UNL A   1      33.564  24.119  21.885  1.00  0.00    -0.224 OA
BRANCH   9  12
ATOM     12  C   UNL A   1      32.816  26.313  23.035  1.00  0.00     0.071 A 
ATOM     13  C   UNL A   1      33.706  27.405  23.013  1.00  0.00     0.023 A 
ATOM     14  C   UNL A   1      31.449  26.503  22.862  1.00  0.00     0.069 A 
ATOM     15  C   UNL A   1      33.232  28.699  22.734  1.00  0.00     0.031 A 
ATOM     16  C   UNL A   1      31.019  27.772  22.550  1.00  0.00     0.157 A 
ATOM     17  C   UNL A   1      31.888  28.832  22.477  1.00  0.00     0.087 A 
ATOM     18  O   UNL A   1      29.738  28.108  22.147  1.00  0.00    -0.408 OA
ATOM     19  N   UNL A   1      31.150  29.895  22.035  1.00  0.00    -0.287 N 
ATOM     20  C   UNL A   1      29.875  29.450  21.793  1.00  0.00     0.417 A 
ATOM     21  H   UNL A   1      31.476  30.816  21.913  1.00  0.00     0.173 HD
ATOM     22  O   UNL A   1      28.975  30.109  21.282  1.00  0.00    -0.224 OA
ENDBRANCH   9  12
ENDBRANCH   8   9
ENDBRANCH   7   8
ENDBRANCH   5   7
ENDBRANCH   2   3
ENDBRANCH   1   2
BRANCH   1  23
ATOM     23  C   UNL A   1      32.193  29.928  27.172  1.00  0.00     0.023 C 
BRANCH  23  24
ATOM     24  C   UNL A   1      33.012  31.221  27.009  1.00  0.00     0.116 C 
BRANCH  24  25
ATOM     25  N   UNL A   1      32.411  32.476  27.413  1.00  0.00    -0.352 N 
ATOM     26  C   UNL A   1      33.034  33.528  28.055  1.00  0.00     0.251 C 
ATOM     27  H   UNL A   1      31.455  32.591  27.206  1.00  0.00     0.163 HD
ATOM     28  O   UNL A   1      32.482  34.612  28.201  1.00  0.00    -0.269 OA
BRANCH  26  29
ATOM     29  C   UNL A   1      34.373  33.325  28.635  1.00  0.00     0.039 A 
ATOM     30  C   UNL A   1      34.455  32.713  29.888  1.00  0.00     0.014 A 
ATOM     31  C   UNL A   1      35.530  33.680  27.936  1.00  0.00     0.014 A 
ATOM     32  C   UNL A   1      35.701  32.359  30.399  1.00  0.00     0.010 A 
ATOM     33  C   UNL A   1      36.771  33.279  28.424  1.00  0.00     0.010 A 
ATOM     34  C   UNL A   1      36.862  32.588  29.644  1.00  0.00    -0.014 A 
BRANCH  34  35
ATOM     35  C   UNL A   1      38.166  32.042  30.089  1.00  0.00     0.031 A 
ATOM     36  C   UNL A   1      38.655  30.723  29.570  1.00  0.00     0.074 A 
ATOM     37  C   UNL A   1      38.869  32.722  31.015  1.00  0.00     0.049 A 
ATOM     38  N   UNL A   1      39.747  30.069  29.876  1.00  0.00    -0.248 NA
ATOM     39  C   UNL A   1      37.791  30.036  28.598  1.00  0.00     0.031 C 
ATOM     40  C   UNL A   1      38.460  33.994  31.620  1.00  0.00     0.029 A 
ATOM     41  N   UNL A   1      40.071  32.445  31.615  1.00  0.00    -0.354 N 
ATOM     42  C   UNL A   1      39.695  28.889  29.144  1.00  0.00     0.074 A 
ATOM     43  C   UNL A   1      38.442  28.895  28.420  1.00  0.00     0.031 C 
ATOM     44  C   UNL A   1      39.406  34.398  32.482  1.00  0.00     0.029 A 
ATOM     45  C   UNL A   1      40.467  33.399  32.523  1.00  0.00     0.049 A 
ATOM     46  H   UNL A   1      40.600  31.640  31.416  1.00  0.00     0.167 HD
ATOM     47  C   UNL A   1      40.618  27.900  29.073  1.00  0.00     0.031 A 
ATOM     48  C   UNL A   1      41.561  33.458  33.304  1.00  0.00     0.031 A 
ATOM     49  C   UNL A   1      41.854  27.909  29.810  1.00  0.00     0.049 A 
ATOM     50  C   UNL A   1      42.569  32.347  33.209  1.00  0.00     0.074 A 
ATOM     51  C   UNL A   1      42.881  26.981  29.790  1.00  0.00     0.029 A 
ATOM     52  N   UNL A   1      42.227  28.899  30.708  1.00  0.00    -0.354 N 
ATOM     53  N   UNL A   1      42.538  31.269  32.463  1.00  0.00    -0.248 NA
ATOM     54  C   UNL A   1      43.767  32.467  34.049  1.00  0.00     0.031 C 
ATOM     55  C   UNL A   1      43.852  27.387  30.712  1.00  0.00     0.029 A 
ATOM     56  C   UNL A   1      43.459  28.598  31.262  1.00  0.00     0.049 A 
ATOM     57  H   UNL A   1      41.693  29.699  30.920  1.00  0.00     0.167 HD
ATOM     58  C   UNL A   1      43.722  30.593  32.724  1.00  0.00     0.074 A 
ATOM     59  C   UNL A   1      44.456  31.396  33.682  1.00  0.00     0.031 C 
ATOM     60  C   UNL A   1      44.163  29.414  32.220  1.00  0.00     0.031 A 
BRANCH  47  61
ATOM     61  C   UNL A   1      40.308  26.730  28.178  1.00  0.00    -0.014 A 
ATOM     62  C   UNL A   1      39.557  25.636  28.641  1.00  0.00     0.009 A 
ATOM     63  C   UNL A   1      40.766  26.719  26.851  1.00  0.00     0.009 A 
ATOM     64  C   UNL A   1      39.315  24.537  27.813  1.00  0.00     0.001 A 
ATOM     65  C   UNL A   1      40.495  25.633  26.014  1.00  0.00     0.001 A 
ATOM     66  C   UNL A   1      39.783  24.538  26.500  1.00  0.00     0.000 A 
ENDBRANCH  47  61
BRANCH  48  67
ATOM     67  C   UNL A   1      41.767  34.615  34.218  1.00  0.00    -0.014 A 
ATOM     68  C   UNL A   1      42.431  35.768  33.776  1.00  0.00     0.009 A 
ATOM     69  C   UNL A   1      41.285  34.578  35.537  1.00  0.00     0.009 A 
ATOM     70  C   UNL A   1      42.630  36.850  34.639  1.00  0.00     0.001 A 
ATOM     71  C   UNL A   1      41.457  35.673  36.388  1.00  0.00     0.001 A 
ATOM     72  C   UNL A   1      42.136  36.804  35.941  1.00  0.00     0.000 A 
ENDBRANCH  48  67
BRANCH  60  73
ATOM     73  C   UNL A   1      45.515  28.944  32.674  1.00  0.00    -0.014 A 
ATOM     74  C   UNL A   1      45.656  28.066  33.761  1.00  0.00     0.009 A 
ATOM     75  C   UNL A   1      46.662  29.356  31.977  1.00  0.00     0.009 A 
ATOM     76  C   UNL A   1      46.923  27.638  34.160  1.00  0.00     0.001 A 
ATOM     77  C   UNL A   1      47.923  28.899  32.358  1.00  0.00     0.001 A 
ATOM     78  C   UNL A   1      48.054  28.050  33.455  1.00  0.00     0.000 A 
ENDBRANCH  60  73
ENDBRANCH  34  35
ENDBRANCH  26  29
ENDBRANCH  24  25
ENDBRANCH  23  24
ENDBRANCH   1  23
TORSDOF 14
ENDMDL
