MODEL 1
REMARK VINA RESULT:     -11.7      0.000      0.000
REMARK SMILES Cc1nn(C)c2nc(C3CC3)c(Cl)c(C(=O)NCCCCNC(=O)c3ccc(-c4c5nc(c(-c6ccccc6)c6ccc([nH]6)c(-c6ccccc6)c6nc(c(-c7ccccc7)c7ccc4[nH]7)C=C6)C=C5)cc3)c12
REMARK SMILES IDX 20 1 19 2 18 3 17 4 15 5 16 6 14 8 1 9 2 10 3 11 73 12 4 13
REMARK SMILES IDX 6 14 5 15 7 16 12 17 8 18 13 19 9 20 10 21 11 22 21 23 22 24
REMARK SMILES IDX 23 25 24 27 25 28 26 29 72 30 27 31 71 32 28 33 29 34 30 35
REMARK SMILES IDX 65 36 31 37 70 38 64 39 66 40 32 41 69 42 63 43 62 44 33 46
REMARK SMILES IDX 55 47 40 48 54 49 41 50 44 51 53 52 67 53 42 54 43 55 52 57
REMARK SMILES IDX 68 58 45 59 34 60 35 61 39 62 36 63 38 64 37 65 56 66 57 67
REMARK SMILES IDX 61 68 58 69 60 70 59 71 46 72 47 73 51 74 48 75 50 76 49 77
REMARK H PARENT 17 7 22 26 66 45 44 56
REMARK Flexibility Score: inf
ROOT
ATOM      1  C   UNL A   1      37.279  20.916  24.944  1.00  0.00     0.023 C 
ENDROOT
BRANCH   1   2
ATOM      2  C   UNL A   1      35.873  21.227  25.471  1.00  0.00     0.023 C 
BRANCH   2   3
ATOM      3  C   UNL A   1      35.589  22.715  25.711  1.00  0.00     0.116 C 
BRANCH   3   4
ATOM      4  N   UNL A   1      35.348  23.370  24.436  1.00  0.00    -0.352 N 
ATOM      5  C   UNL A   1      34.247  24.011  23.924  1.00  0.00     0.253 C 
ATOM      6  O   UNL A   1      34.247  24.279  22.723  1.00  0.00    -0.269 OA
ATOM      7  H   UNL A   1      36.120  23.350  23.824  1.00  0.00     0.163 HD
BRANCH   5   8
ATOM      8  C   UNL A   1      33.127  24.483  24.762  1.00  0.00     0.073 A 
ATOM      9  C   UNL A   1      32.494  21.142  24.132  1.00  0.00     0.069 C 
ATOM     10  C   UNL A   1      31.799  22.175  24.941  1.00  0.00     0.070 A 
ATOM     11  N   UNL A   1      30.730  21.806  25.666  1.00  0.00    -0.176 NA
ATOM     12  C   UNL A   1      32.122  23.557  25.126  1.00  0.00     0.056 A 
ATOM     13  N   UNL A   1      30.375  22.931  26.311  1.00  0.00    -0.250 N 
ATOM     14  C   UNL A   1      31.102  24.026  25.940  1.00  0.00     0.158 A 
ATOM     15  C   UNL A   1      29.417  22.881  27.388  1.00  0.00     0.176 C 
ATOM     16  N   UNL A   1      30.889  25.290  26.340  1.00  0.00    -0.231 NA
ATOM     17  C   UNL A   1      33.047  25.756  25.356  1.00  0.00     0.076 A 
ATOM     18  C   UNL A   1      31.870  26.164  26.012  1.00  0.00     0.065 A 
ATOM     19  Cl  UNL A   1      34.451  26.761  25.514  1.00  0.00    -0.081 Cl
BRANCH  18  20
ATOM     20  C   UNL A   1      31.605  27.608  26.421  1.00  0.00     0.040 C 
ATOM     21  C   UNL A   1      31.233  28.013  27.832  1.00  0.00     0.011 C 
ATOM     22  C   UNL A   1      32.617  28.278  27.335  1.00  0.00     0.011 C 
ENDBRANCH  18  20
ENDBRANCH   5   8
ENDBRANCH   3   4
ENDBRANCH   2   3
ENDBRANCH   1   2
BRANCH   1  23
ATOM     23  C   UNL A   1      38.396  21.682  25.649  1.00  0.00     0.116 C 
BRANCH  23  24
ATOM     24  N   UNL A   1      39.558  20.839  25.884  1.00  0.00    -0.352 N 
ATOM     25  C   UNL A   1      40.828  21.166  26.260  1.00  0.00     0.251 C 
ATOM     26  H   UNL A   1      39.403  19.876  25.751  1.00  0.00     0.163 HD
ATOM     27  O   UNL A   1      41.700  20.293  26.251  1.00  0.00    -0.269 OA
BRANCH  25  28
ATOM     28  C   UNL A   1      41.184  22.543  26.645  1.00  0.00     0.039 A 
ATOM     29  C   UNL A   1      42.287  23.122  26.012  1.00  0.00     0.014 A 
ATOM     30  C   UNL A   1      40.511  23.230  27.661  1.00  0.00     0.014 A 
ATOM     31  C   UNL A   1      42.693  24.402  26.373  1.00  0.00     0.010 A 
ATOM     32  C   UNL A   1      40.911  24.520  28.012  1.00  0.00     0.010 A 
ATOM     33  C   UNL A   1      42.002  25.112  27.367  1.00  0.00    -0.014 A 
BRANCH  33  34
ATOM     34  C   UNL A   1      42.478  26.470  27.680  1.00  0.00     0.031 A 
ATOM     35  C   UNL A   1      41.458  27.565  27.683  1.00  0.00     0.074 A 
ATOM     36  C   UNL A   1      43.524  26.617  28.519  1.00  0.00     0.049 A 
ATOM     37  N   UNL A   1      40.711  27.879  28.703  1.00  0.00    -0.248 NA
ATOM     38  C   UNL A   1      41.080  28.239  26.439  1.00  0.00     0.031 C 
ATOM     39  C   UNL A   1      43.705  25.819  29.737  1.00  0.00     0.029 A 
ATOM     40  N   UNL A   1      44.445  27.629  28.627  1.00  0.00    -0.354 N 
ATOM     41  C   UNL A   1      39.739  28.750  28.239  1.00  0.00     0.074 A 
ATOM     42  C   UNL A   1      40.014  28.952  26.833  1.00  0.00     0.031 C 
ATOM     43  C   UNL A   1      44.558  26.470  30.552  1.00  0.00     0.029 A 
ATOM     44  C   UNL A   1      45.099  27.630  29.853  1.00  0.00     0.049 A 
ATOM     45  H   UNL A   1      44.622  28.283  27.913  1.00  0.00     0.167 HD
ATOM     46  C   UNL A   1      38.745  29.264  29.012  1.00  0.00     0.031 A 
ATOM     47  C   UNL A   1      45.645  28.728  30.437  1.00  0.00     0.031 A 
ATOM     48  C   UNL A   1      38.777  28.913  30.398  1.00  0.00     0.049 A 
ATOM     49  C   UNL A   1      44.419  29.386  31.010  1.00  0.00     0.074 A 
ATOM     50  C   UNL A   1      38.189  27.983  31.226  1.00  0.00     0.029 A 
ATOM     51  N   UNL A   1      39.597  29.641  31.223  1.00  0.00    -0.354 N 
ATOM     52  N   UNL A   1      43.818  29.078  32.125  1.00  0.00    -0.248 NA
ATOM     53  C   UNL A   1      43.626  30.220  30.101  1.00  0.00     0.031 C 
ATOM     54  C   UNL A   1      39.016  27.925  32.391  1.00  0.00     0.029 A 
ATOM     55  C   UNL A   1      40.094  28.782  32.168  1.00  0.00     0.049 A 
ATOM     56  H   UNL A   1      39.794  30.603  31.150  1.00  0.00     0.167 HD
ATOM     57  C   UNL A   1      42.474  29.395  31.919  1.00  0.00     0.074 A 
ATOM     58  C   UNL A   1      42.433  30.139  30.674  1.00  0.00     0.031 C 
ATOM     59  C   UNL A   1      41.455  28.854  32.651  1.00  0.00     0.031 A 
BRANCH  46  60
ATOM     60  C   UNL A   1      37.728  30.224  28.531  1.00  0.00    -0.014 A 
ATOM     61  C   UNL A   1      37.828  31.568  28.924  1.00  0.00     0.009 A 
ATOM     62  C   UNL A   1      36.578  29.792  27.860  1.00  0.00     0.009 A 
ATOM     63  C   UNL A   1      36.781  32.458  28.686  1.00  0.00     0.001 A 
ATOM     64  C   UNL A   1      35.532  30.689  27.617  1.00  0.00     0.001 A 
ATOM     65  C   UNL A   1      35.630  32.015  28.041  1.00  0.00     0.000 A 
ENDBRANCH  46  60
BRANCH  47  66
ATOM     66  C   UNL A   1      46.662  29.455  29.615  1.00  0.00    -0.014 A 
ATOM     67  C   UNL A   1      46.993  30.773  29.999  1.00  0.00     0.009 A 
ATOM     68  C   UNL A   1      47.304  28.936  28.484  1.00  0.00     0.009 A 
ATOM     69  C   UNL A   1      47.988  31.501  29.342  1.00  0.00     0.001 A 
ATOM     70  C   UNL A   1      48.320  29.654  27.838  1.00  0.00     0.001 A 
ATOM     71  C   UNL A   1      48.670  30.929  28.276  1.00  0.00     0.000 A 
ENDBRANCH  47  66
BRANCH  59  72
ATOM     72  C   UNL A   1      41.857  28.067  33.859  1.00  0.00    -0.014 A 
ATOM     73  C   UNL A   1      42.478  26.819  33.716  1.00  0.00     0.009 A 
ATOM     74  C   UNL A   1      41.657  28.577  35.152  1.00  0.00     0.009 A 
ATOM     75  C   UNL A   1      42.911  26.110  34.838  1.00  0.00     0.001 A 
ATOM     76  C   UNL A   1      42.110  27.879  36.272  1.00  0.00     0.001 A 
ATOM     77  C   UNL A   1      42.739  26.647  36.114  1.00  0.00     0.000 A 
ENDBRANCH  59  72
ENDBRANCH  33  34
ENDBRANCH  25  28
ENDBRANCH  23  24
ENDBRANCH   1  23
TORSDOF 12
ENDMDL
MODEL 2
REMARK VINA RESULT:     -11.6      3.002      7.475
REMARK SMILES Cc1nn(C)c2nc(C3CC3)c(Cl)c(C(=O)NCCCCNC(=O)c3ccc(-c4c5nc(c(-c6ccccc6)c6ccc([nH]6)c(-c6ccccc6)c6nc(c(-c7ccccc7)c7ccc4[nH]7)C=C6)C=C5)cc3)c12
REMARK SMILES IDX 20 1 19 2 18 3 17 4 15 5 16 6 14 8 1 9 2 10 3 11 73 12 4 13
REMARK SMILES IDX 6 14 5 15 7 16 12 17 8 18 13 19 9 20 10 21 11 22 21 23 22 24
REMARK SMILES IDX 23 25 24 27 25 28 26 29 72 30 27 31 71 32 28 33 29 34 30 35
REMARK SMILES IDX 65 36 31 37 70 38 64 39 66 40 32 41 69 42 63 43 62 44 33 46
REMARK SMILES IDX 55 47 40 48 54 49 41 50 44 51 53 52 67 53 42 54 43 55 52 57
REMARK SMILES IDX 68 58 45 59 34 60 35 61 39 62 36 63 38 64 37 65 56 66 57 67
REMARK SMILES IDX 61 68 58 69 60 70 59 71 46 72 47 73 51 74 48 75 50 76 49 77
REMARK H PARENT 17 7 22 26 66 45 44 56
REMARK Flexibility Score: inf
ROOT
ATOM      1  C   UNL A   1      32.209  30.156  26.831  1.00  0.00     0.023 C 
ENDROOT
BRANCH   1   2
ATOM      2  C   UNL A   1      31.779  28.831  27.473  1.00  0.00     0.023 C 
BRANCH   2   3
ATOM      3  C   UNL A   1      31.903  27.603  26.562  1.00  0.00     0.116 C 
BRANCH   3   4
ATOM      4  N   UNL A   1      30.799  26.696  26.826  1.00  0.00    -0.352 N 
ATOM      5  C   UNL A   1      30.279  25.645  26.110  1.00  0.00     0.253 C 
ATOM      6  O   UNL A   1      29.193  25.189  26.467  1.00  0.00    -0.269 OA
ATOM      7  H   UNL A   1      30.335  26.866  27.678  1.00  0.00     0.163 HD
BRANCH   5   8
ATOM      8  C   UNL A   1      31.009  24.978  25.013  1.00  0.00     0.073 A 
ATOM      9  C   UNL A   1      29.644  27.842  23.637  1.00  0.00     0.069 C 
ATOM     10  C   UNL A   1      30.523  26.772  23.099  1.00  0.00     0.070 A 
ATOM     11  N   UNL A   1      30.985  26.897  21.844  1.00  0.00    -0.176 NA
ATOM     12  C   UNL A   1      31.023  25.595  23.742  1.00  0.00     0.056 A 
ATOM     13  N   UNL A   1      31.775  25.821  21.684  1.00  0.00    -0.250 N 
ATOM     14  C   UNL A   1      31.744  24.959  22.743  1.00  0.00     0.158 A 
ATOM     15  C   UNL A   1      32.659  25.728  20.548  1.00  0.00     0.176 C 
ATOM     16  N   UNL A   1      32.346  23.760  22.805  1.00  0.00    -0.231 NA
ATOM     17  C   UNL A   1      31.822  23.839  25.164  1.00  0.00     0.076 A 
ATOM     18  C   UNL A   1      32.354  23.189  24.034  1.00  0.00     0.065 A 
ATOM     19  Cl  UNL A   1      32.391  23.343  26.724  1.00  0.00    -0.081 Cl
BRANCH  18  20
ATOM     20  C   UNL A   1      32.991  21.807  24.094  1.00  0.00     0.040 C 
ATOM     21  C   UNL A   1      32.339  20.624  24.780  1.00  0.00     0.011 C 
ATOM     22  C   UNL A   1      32.340  20.695  23.287  1.00  0.00     0.011 C 
ENDBRANCH  18  20
ENDBRANCH   5   8
ENDBRANCH   3   4
ENDBRANCH   2   3
ENDBRANCH   1   2
BRANCH   1  23
ATOM     23  C   UNL A   1      33.568  30.669  27.302  1.00  0.00     0.116 C 
BRANCH  23  24
ATOM     24  N   UNL A   1      33.536  32.097  27.575  1.00  0.00    -0.352 N 
ATOM     25  C   UNL A   1      34.270  32.850  28.443  1.00  0.00     0.251 C 
ATOM     26  H   UNL A   1      32.877  32.603  27.047  1.00  0.00     0.163 HD
ATOM     27  O   UNL A   1      33.966  34.032  28.620  1.00  0.00    -0.269 OA
BRANCH  25  28
ATOM     28  C   UNL A   1      35.398  32.271  29.195  1.00  0.00     0.039 A 
ATOM     29  C   UNL A   1      36.497  31.821  28.458  1.00  0.00     0.014 A 
ATOM     30  C   UNL A   1      35.357  32.093  30.582  1.00  0.00     0.014 A 
ATOM     31  C   UNL A   1      37.568  31.224  29.114  1.00  0.00     0.010 A 
ATOM     32  C   UNL A   1      36.439  31.507  31.241  1.00  0.00     0.010 A 
ATOM     33  C   UNL A   1      37.550  31.073  30.510  1.00  0.00    -0.014 A 
BRANCH  33  34
ATOM     34  C   UNL A   1      38.728  30.451  31.136  1.00  0.00     0.031 A 
ATOM     35  C   UNL A   1      39.108  29.083  30.665  1.00  0.00     0.074 A 
ATOM     36  C   UNL A   1      39.734  31.243  31.561  1.00  0.00     0.049 A 
ATOM     37  N   UNL A   1      39.859  28.837  29.630  1.00  0.00    -0.248 NA
ATOM     38  C   UNL A   1      38.472  27.893  31.235  1.00  0.00     0.031 C 
ATOM     39  C   UNL A   1      40.222  32.407  30.811  1.00  0.00     0.029 A 
ATOM     40  N   UNL A   1      40.674  31.043  32.541  1.00  0.00    -0.354 N 
ATOM     41  C   UNL A   1      39.765  27.477  29.377  1.00  0.00     0.074 A 
ATOM     42  C   UNL A   1      38.903  26.933  30.403  1.00  0.00     0.031 C 
ATOM     43  C   UNL A   1      41.459  32.711  31.252  1.00  0.00     0.029 A 
ATOM     44  C   UNL A   1      41.776  31.878  32.406  1.00  0.00     0.049 A 
ATOM     45  H   UNL A   1      40.577  30.379  33.262  1.00  0.00     0.167 HD
ATOM     46  C   UNL A   1      40.383  26.852  28.339  1.00  0.00     0.031 A 
ATOM     47  C   UNL A   1      43.022  31.593  32.864  1.00  0.00     0.031 A 
ATOM     48  C   UNL A   1      41.224  27.668  27.519  1.00  0.00     0.049 A 
ATOM     49  C   UNL A   1      43.512  30.656  31.794  1.00  0.00     0.074 A 
ATOM     50  C   UNL A   1      41.129  28.355  26.330  1.00  0.00     0.029 A 
ATOM     51  N   UNL A   1      42.506  27.901  27.952  1.00  0.00    -0.354 N 
ATOM     52  N   UNL A   1      44.003  30.987  30.632  1.00  0.00    -0.248 NA
ATOM     53  C   UNL A   1      43.111  29.251  31.907  1.00  0.00     0.031 C 
ATOM     54  C   UNL A   1      42.198  29.305  26.346  1.00  0.00     0.029 A 
ATOM     55  C   UNL A   1      42.838  29.177  27.578  1.00  0.00     0.049 A 
ATOM     56  H   UNL A   1      43.081  27.269  28.442  1.00  0.00     0.167 HD
ATOM     57  C   UNL A   1      43.669  29.934  29.778  1.00  0.00     0.074 A 
ATOM     58  C   UNL A   1      43.167  28.878  30.636  1.00  0.00     0.031 C 
ATOM     59  C   UNL A   1      43.618  30.059  28.418  1.00  0.00     0.031 A 
BRANCH  46  60
ATOM     60  C   UNL A   1      40.318  25.397  28.086  1.00  0.00    -0.014 A 
ATOM     61  C   UNL A   1      41.423  24.601  28.427  1.00  0.00     0.009 A 
ATOM     62  C   UNL A   1      39.270  24.830  27.350  1.00  0.00     0.009 A 
ATOM     63  C   UNL A   1      41.501  23.274  28.006  1.00  0.00     0.001 A 
ATOM     64  C   UNL A   1      39.347  23.497  26.936  1.00  0.00     0.001 A 
ATOM     65  C   UNL A   1      40.467  22.725  27.253  1.00  0.00     0.000 A 
ENDBRANCH  46  60
BRANCH  47  66
ATOM     66  C   UNL A   1      43.118  31.295  34.327  1.00  0.00    -0.014 A 
ATOM     67  C   UNL A   1      42.207  31.946  35.188  1.00  0.00     0.009 A 
ATOM     68  C   UNL A   1      44.050  30.432  34.914  1.00  0.00     0.009 A 
ATOM     69  C   UNL A   1      42.166  31.672  36.557  1.00  0.00     0.001 A 
ATOM     70  C   UNL A   1      43.996  30.136  36.284  1.00  0.00     0.001 A 
ATOM     71  C   UNL A   1      43.047  30.745  37.101  1.00  0.00     0.000 A 
ENDBRANCH  47  66
BRANCH  59  72
ATOM     72  C   UNL A   1      44.165  31.331  27.852  1.00  0.00    -0.014 A 
ATOM     73  C   UNL A   1      45.257  31.304  26.973  1.00  0.00     0.009 A 
ATOM     74  C   UNL A   1      43.575  32.569  28.155  1.00  0.00     0.009 A 
ATOM     75  C   UNL A   1      45.730  32.482  26.394  1.00  0.00     0.001 A 
ATOM     76  C   UNL A   1      44.034  33.744  27.559  1.00  0.00     0.001 A 
ATOM     77  C   UNL A   1      45.110  33.699  26.676  1.00  0.00     0.000 A 
ENDBRANCH  59  72
ENDBRANCH  33  34
ENDBRANCH  25  28
ENDBRANCH  23  24
ENDBRANCH   1  23
TORSDOF 12
ENDMDL
MODEL 3
REMARK VINA RESULT:     -11.2      1.723      2.272
REMARK SMILES Cc1nn(C)c2nc(C3CC3)c(Cl)c(C(=O)NCCCCNC(=O)c3ccc(-c4c5nc(c(-c6ccccc6)c6ccc([nH]6)c(-c6ccccc6)c6nc(c(-c7ccccc7)c7ccc4[nH]7)C=C6)C=C5)cc3)c12
REMARK SMILES IDX 20 1 19 2 18 3 17 4 15 5 16 6 14 8 1 9 2 10 3 11 73 12 4 13
REMARK SMILES IDX 6 14 5 15 7 16 12 17 8 18 13 19 9 20 10 21 11 22 21 23 22 24
REMARK SMILES IDX 23 25 24 27 25 28 26 29 72 30 27 31 71 32 28 33 29 34 30 35
REMARK SMILES IDX 65 36 31 37 70 38 64 39 66 40 32 41 69 42 63 43 62 44 33 46
REMARK SMILES IDX 55 47 40 48 54 49 41 50 44 51 53 52 67 53 42 54 43 55 52 57
REMARK SMILES IDX 68 58 45 59 34 60 35 61 39 62 36 63 38 64 37 65 56 66 57 67
REMARK SMILES IDX 61 68 58 69 60 70 59 71 46 72 47 73 51 74 48 75 50 76 49 77
REMARK H PARENT 17 7 22 26 66 45 44 56
REMARK Flexibility Score: inf
ROOT
ATOM      1  C   UNL A   1      38.181  20.758  25.257  1.00  0.00     0.023 C 
ENDROOT
BRANCH   1   2
ATOM      2  C   UNL A   1      36.886  21.543  25.012  1.00  0.00     0.023 C 
BRANCH   2   3
ATOM      3  C   UNL A   1      36.720  22.799  25.876  1.00  0.00     0.116 C 
BRANCH   3   4
ATOM      4  N   UNL A   1      35.485  22.699  26.636  1.00  0.00    -0.352 N 
ATOM      5  C   UNL A   1      34.178  22.965  26.307  1.00  0.00     0.253 C 
ATOM      6  O   UNL A   1      33.354  23.008  27.220  1.00  0.00    -0.269 OA
ATOM      7  H   UNL A   1      35.607  22.383  27.561  1.00  0.00     0.163 HD
BRANCH   5   8
ATOM      8  C   UNL A   1      33.708  23.093  24.913  1.00  0.00     0.073 A 
ATOM      9  C   UNL A   1      33.570  19.717  25.651  1.00  0.00     0.069 C 
ATOM     10  C   UNL A   1      33.192  20.516  24.457  1.00  0.00     0.070 A 
ATOM     11  N   UNL A   1      32.605  19.884  23.426  1.00  0.00    -0.176 NA
ATOM     12  C   UNL A   1      33.310  21.923  24.227  1.00  0.00     0.056 A 
ATOM     13  N   UNL A   1      32.345  20.870  22.550  1.00  0.00    -0.250 N 
ATOM     14  C   UNL A   1      32.843  22.084  22.931  1.00  0.00     0.158 A 
ATOM     15  C   UNL A   1      31.485  20.631  21.418  1.00  0.00     0.176 C 
ATOM     16  N   UNL A   1      32.826  23.210  22.201  1.00  0.00    -0.231 NA
ATOM     17  C   UNL A   1      33.484  24.314  24.249  1.00  0.00     0.076 A 
ATOM     18  C   UNL A   1      33.180  24.331  22.874  1.00  0.00     0.065 A 
ATOM     19  Cl  UNL A   1      33.333  25.800  25.129  1.00  0.00    -0.081 Cl
BRANCH  18  20
ATOM     20  C   UNL A   1      33.210  25.601  22.033  1.00  0.00     0.040 C 
ATOM     21  C   UNL A   1      32.560  25.706  20.669  1.00  0.00     0.011 C 
ATOM     22  C   UNL A   1      31.901  26.351  21.844  1.00  0.00     0.011 C 
ENDBRANCH  18  20
ENDBRANCH   5   8
ENDBRANCH   3   4
ENDBRANCH   2   3
ENDBRANCH   1   2
BRANCH   1  23
ATOM     23  C   UNL A   1      39.205  21.492  26.118  1.00  0.00     0.116 C 
BRANCH  23  24
ATOM     24  N   UNL A   1      40.506  20.842  26.074  1.00  0.00    -0.352 N 
ATOM     25  C   UNL A   1      41.759  21.355  26.237  1.00  0.00     0.251 C 
ATOM     26  H   UNL A   1      40.477  19.874  25.898  1.00  0.00     0.163 HD
ATOM     27  O   UNL A   1      42.736  20.640  26.004  1.00  0.00    -0.269 OA
BRANCH  25  28
ATOM     28  C   UNL A   1      41.966  22.753  26.656  1.00  0.00     0.039 A 
ATOM     29  C   UNL A   1      42.697  23.579  25.797  1.00  0.00     0.014 A 
ATOM     30  C   UNL A   1      41.532  23.231  27.897  1.00  0.00     0.014 A 
ATOM     31  C   UNL A   1      42.961  24.893  26.166  1.00  0.00     0.010 A 
ATOM     32  C   UNL A   1      41.786  24.555  28.259  1.00  0.00     0.010 A 
ATOM     33  C   UNL A   1      42.499  25.392  27.394  1.00  0.00    -0.014 A 
BRANCH  33  34
ATOM     34  C   UNL A   1      42.800  26.799  27.706  1.00  0.00     0.031 A 
ATOM     35  C   UNL A   1      41.654  27.761  27.686  1.00  0.00     0.074 A 
ATOM     36  C   UNL A   1      43.805  27.076  28.561  1.00  0.00     0.049 A 
ATOM     37  N   UNL A   1      40.857  27.985  28.692  1.00  0.00    -0.248 NA
ATOM     38  C   UNL A   1      41.217  28.379  26.432  1.00  0.00     0.031 C 
ATOM     39  C   UNL A   1      44.062  26.312  29.787  1.00  0.00     0.029 A 
ATOM     40  N   UNL A   1      44.593  28.194  28.678  1.00  0.00    -0.354 N 
ATOM     41  C   UNL A   1      39.793  28.729  28.206  1.00  0.00     0.074 A 
ATOM     42  C   UNL A   1      40.066  28.956  26.804  1.00  0.00     0.031 C 
ATOM     43  C   UNL A   1      44.816  27.066  30.611  1.00  0.00     0.029 A 
ATOM     44  C   UNL A   1      45.221  28.281  29.914  1.00  0.00     0.049 A 
ATOM     45  H   UNL A   1      44.702  28.862  27.963  1.00  0.00     0.167 HD
ATOM     46  C   UNL A   1      38.731  29.120  28.960  1.00  0.00     0.031 A 
ATOM     47  C   UNL A   1      45.619  29.440  30.500  1.00  0.00     0.031 A 
ATOM     48  C   UNL A   1      38.782  28.781  30.349  1.00  0.00     0.049 A 
ATOM     49  C   UNL A   1      44.313  29.945  31.049  1.00  0.00     0.074 A 
ATOM     50  C   UNL A   1      38.298  27.789  31.173  1.00  0.00     0.029 A 
ATOM     51  N   UNL A   1      39.493  29.608  31.182  1.00  0.00    -0.354 N 
ATOM     52  N   UNL A   1      43.735  29.570  32.156  1.00  0.00    -0.248 NA
ATOM     53  C   UNL A   1      43.439  30.671  30.122  1.00  0.00     0.031 C 
ATOM     54  C   UNL A   1      39.106  27.839  32.351  1.00  0.00     0.029 A 
ATOM     55  C   UNL A   1      40.075  28.820  32.140  1.00  0.00     0.049 A 
ATOM     56  H   UNL A   1      39.572  30.586  31.106  1.00  0.00     0.167 HD
ATOM     57  C   UNL A   1      42.366  29.719  31.926  1.00  0.00     0.074 A 
ATOM     58  C   UNL A   1      42.256  30.447  30.677  1.00  0.00     0.031 C 
ATOM     59  C   UNL A   1      41.409  29.060  32.645  1.00  0.00     0.031 A 
BRANCH  46  60
ATOM     60  C   UNL A   1      37.613  29.946  28.457  1.00  0.00    -0.014 A 
ATOM     61  C   UNL A   1      37.633  31.330  28.694  1.00  0.00     0.009 A 
ATOM     62  C   UNL A   1      36.457  29.362  27.924  1.00  0.00     0.009 A 
ATOM     63  C   UNL A   1      36.507  32.112  28.443  1.00  0.00     0.001 A 
ATOM     64  C   UNL A   1      35.331  30.150  27.665  1.00  0.00     0.001 A 
ATOM     65  C   UNL A   1      35.352  31.519  27.937  1.00  0.00     0.000 A 
ENDBRANCH  46  60
BRANCH  47  66
ATOM     66  C   UNL A   1      46.553  30.282  29.691  1.00  0.00    -0.014 A 
ATOM     67  C   UNL A   1      47.727  29.669  29.199  1.00  0.00     0.009 A 
ATOM     68  C   UNL A   1      46.365  31.637  29.394  1.00  0.00     0.009 A 
ATOM     69  C   UNL A   1      48.619  30.352  28.368  1.00  0.00     0.001 A 
ATOM     70  C   UNL A   1      47.245  32.318  28.540  1.00  0.00     0.001 A 
ATOM     71  C   UNL A   1      48.363  31.672  28.018  1.00  0.00     0.000 A 
ENDBRANCH  47  66
BRANCH  59  72
ATOM     72  C   UNL A   1      41.883  28.334  33.864  1.00  0.00    -0.014 A 
ATOM     73  C   UNL A   1      41.580  28.821  35.143  1.00  0.00     0.009 A 
ATOM     74  C   UNL A   1      42.604  27.134  33.753  1.00  0.00     0.009 A 
ATOM     75  C   UNL A   1      41.966  28.113  36.281  1.00  0.00     0.001 A 
ATOM     76  C   UNL A   1      42.971  26.414  34.891  1.00  0.00     0.001 A 
ATOM     77  C   UNL A   1      42.649  26.903  36.155  1.00  0.00     0.000 A 
ENDBRANCH  59  72
ENDBRANCH  33  34
ENDBRANCH  25  28
ENDBRANCH  23  24
ENDBRANCH   1  23
TORSDOF 12
ENDMDL
