MODEL 1
REMARK VINA RESULT:     -11.7      0.000      0.000
REMARK SMILES O=C(NCCCCNC(=O)c1ccc(-n2cc(CSc3nc4ccccc4c(=O)n3-c3ccccc3)nn2)cc1)c1ccc(-c2c3nc(c(-c4ccccc4)c4ccc([nH]4)c(-c4ccccc4)c4nc(c(-c5ccccc5)c5ccc2[nH]5)C=C4)C=C3)cc1
REMARK SMILES IDX 7 1 6 2 5 3 4 4 3 5 1 6 2 7 41 9 42 10 88 11 43 12 87 13
REMARK SMILES IDX 44 14 45 15 46 16 81 17 47 18 86 19 80 20 82 21 48 22 85 23
REMARK SMILES IDX 79 24 78 25 49 27 71 28 56 29 70 30 57 31 60 32 69 33 83 34
REMARK SMILES IDX 58 35 59 36 68 38 84 39 61 40 50 41 51 42 55 43 52 44 54 45
REMARK SMILES IDX 53 46 72 47 73 48 77 49 74 50 76 51 75 52 62 53 63 54 67 55
REMARK SMILES IDX 64 56 66 57 65 58 8 59 9 60 10 62 11 63 12 64 40 65 13 66
REMARK SMILES IDX 39 67 14 68 15 69 16 70 38 71 17 72 37 73 18 74 19 75 20 76
REMARK SMILES IDX 21 77 30 78 22 79 28 80 23 81 27 82 29 83 24 84 26 85 25 86
REMARK SMILES IDX 31 87 32 88 36 89 33 90 35 91 34 92
REMARK H PARENT 3 8 82 26 60 37 8 61
REMARK Flexibility Score: inf
ROOT
ATOM      1  C   UNL A   1      35.335  21.409  25.698  1.00  0.00     0.116 C 
ENDROOT
BRANCH   1   2
ATOM      2  C   UNL A   1      36.565  22.238  25.334  1.00  0.00     0.023 C 
BRANCH   2   3
ATOM      3  C   UNL A   1      36.657  23.622  25.981  1.00  0.00     0.023 C 
BRANCH   3   4
ATOM      4  C   UNL A   1      38.046  24.035  26.462  1.00  0.00     0.116 C 
BRANCH   4   5
ATOM      5  N   UNL A   1      38.896  22.943  26.891  1.00  0.00    -0.352 N 
ATOM      6  O   UNL A   1      40.500  21.755  27.838  1.00  0.00    -0.269 OA
ATOM      7  C   UNL A   1      40.171  22.852  27.378  1.00  0.00     0.251 C 
ATOM      8  H   UNL A   1      38.455  22.067  26.816  1.00  0.00     0.163 HD
BRANCH   7   9
ATOM      9  C   UNL A   1      41.193  23.929  27.310  1.00  0.00     0.039 A 
ATOM     10  C   UNL A   1      41.422  24.781  26.228  1.00  0.00     0.014 A 
ATOM     11  C   UNL A   1      42.007  24.062  28.453  1.00  0.00     0.014 A 
ATOM     12  C   UNL A   1      42.495  25.671  26.249  1.00  0.00     0.010 A 
ATOM     13  C   UNL A   1      43.072  24.951  28.483  1.00  0.00     0.010 A 
ATOM     14  C   UNL A   1      43.338  25.730  27.363  1.00  0.00    -0.014 A 
BRANCH  14  15
ATOM     15  C   UNL A   1      44.383  26.750  27.402  1.00  0.00     0.031 A 
ATOM     16  C   UNL A   1      45.698  26.298  26.867  1.00  0.00     0.074 A 
ATOM     17  C   UNL A   1      44.172  28.041  27.731  1.00  0.00     0.049 A 
ATOM     18  N   UNL A   1      46.819  26.195  27.502  1.00  0.00    -0.248 NA
ATOM     19  C   UNL A   1      45.748  25.801  25.482  1.00  0.00     0.031 C 
ATOM     20  C   UNL A   1      42.895  28.711  27.987  1.00  0.00     0.029 A 
ATOM     21  N   UNL A   1      45.072  29.066  27.799  1.00  0.00    -0.354 N 
ATOM     22  C   UNL A   1      47.760  25.779  26.563  1.00  0.00     0.074 A 
ATOM     23  C   UNL A   1      47.023  25.423  25.377  1.00  0.00     0.031 C 
ATOM     24  C   UNL A   1      43.078  30.051  27.949  1.00  0.00     0.029 A 
ATOM     25  C   UNL A   1      44.498  30.332  27.802  1.00  0.00     0.049 A 
ATOM     26  H   UNL A   1      46.045  28.921  27.841  1.00  0.00     0.167 HD
ATOM     27  C   UNL A   1      49.095  25.961  26.755  1.00  0.00     0.031 A 
ATOM     28  C   UNL A   1      45.137  31.520  27.641  1.00  0.00     0.031 A 
ATOM     29  C   UNL A   1      49.405  26.276  28.123  1.00  0.00     0.049 A 
ATOM     30  C   UNL A   1      46.574  31.300  27.922  1.00  0.00     0.074 A 
ATOM     31  C   UNL A   1      49.259  25.631  29.334  1.00  0.00     0.029 A 
ATOM     32  N   UNL A   1      49.628  27.598  28.421  1.00  0.00    -0.354 N 
ATOM     33  N   UNL A   1      47.041  31.040  29.107  1.00  0.00    -0.248 NA
ATOM     34  C   UNL A   1      47.444  30.945  26.813  1.00  0.00     0.031 C 
ATOM     35  C   UNL A   1      48.916  26.663  30.257  1.00  0.00     0.029 A 
ATOM     36  C   UNL A   1      48.940  27.879  29.570  1.00  0.00     0.049 A 
ATOM     37  H   UNL A   1      50.181  28.227  27.904  1.00  0.00     0.167 HD
ATOM     38  C   UNL A   1      48.025  30.089  28.890  1.00  0.00     0.074 A 
ATOM     39  C   UNL A   1      48.301  30.148  27.456  1.00  0.00     0.031 C 
ATOM     40  C   UNL A   1      48.316  29.153  29.840  1.00  0.00     0.031 A 
BRANCH  27  41
ATOM     41  C   UNL A   1      50.069  26.266  25.644  1.00  0.00    -0.014 A 
ATOM     42  C   UNL A   1      51.337  25.655  25.670  1.00  0.00     0.009 A 
ATOM     43  C   UNL A   1      49.906  27.349  24.759  1.00  0.00     0.009 A 
ATOM     44  C   UNL A   1      52.405  26.157  24.915  1.00  0.00     0.001 A 
ATOM     45  C   UNL A   1      50.960  27.826  23.973  1.00  0.00     0.001 A 
ATOM     46  C   UNL A   1      52.218  27.249  24.076  1.00  0.00     0.000 A 
ENDBRANCH  27  41
BRANCH  28  47
ATOM     47  C   UNL A   1      44.662  32.768  27.003  1.00  0.00    -0.014 A 
ATOM     48  C   UNL A   1      44.440  32.832  25.616  1.00  0.00     0.009 A 
ATOM     49  C   UNL A   1      44.144  33.809  27.794  1.00  0.00     0.009 A 
ATOM     50  C   UNL A   1      43.693  33.876  25.051  1.00  0.00     0.001 A 
ATOM     51  C   UNL A   1      43.401  34.852  27.229  1.00  0.00     0.001 A 
ATOM     52  C   UNL A   1      43.161  34.876  25.860  1.00  0.00     0.000 A 
ENDBRANCH  28  47
BRANCH  40  53
ATOM     53  C   UNL A   1      47.726  29.332  31.216  1.00  0.00    -0.014 A 
ATOM     54  C   UNL A   1      46.445  28.873  31.574  1.00  0.00     0.009 A 
ATOM     55  C   UNL A   1      48.554  29.847  32.224  1.00  0.00     0.009 A 
ATOM     56  C   UNL A   1      46.000  28.959  32.898  1.00  0.00     0.001 A 
ATOM     57  C   UNL A   1      48.118  29.912  33.548  1.00  0.00     0.001 A 
ATOM     58  C   UNL A   1      46.839  29.473  33.884  1.00  0.00     0.000 A 
ENDBRANCH  40  53
ENDBRANCH  14  15
ENDBRANCH   7   9
ENDBRANCH   4   5
ENDBRANCH   3   4
ENDBRANCH   2   3
ENDBRANCH   1   2
BRANCH   1  59
ATOM     59  N   UNL A   1      34.435  21.211  24.575  1.00  0.00    -0.352 N 
ATOM     60  C   UNL A   1      33.406  22.005  24.123  1.00  0.00     0.251 C 
ATOM     61  H   UNL A   1      34.584  20.385  24.060  1.00  0.00     0.163 HD
ATOM     62  O   UNL A   1      32.685  21.619  23.218  1.00  0.00    -0.269 OA
BRANCH  60  63
ATOM     63  C   UNL A   1      33.163  23.326  24.745  1.00  0.00     0.039 A 
ATOM     64  C   UNL A   1      33.749  24.456  24.168  1.00  0.00     0.016 A 
ATOM     65  C   UNL A   1      32.409  23.439  25.916  1.00  0.00     0.016 A 
ATOM     66  C   UNL A   1      33.539  25.719  24.731  1.00  0.00     0.029 A 
ATOM     67  C   UNL A   1      32.213  24.694  26.492  1.00  0.00     0.029 A 
ATOM     68  C   UNL A   1      32.788  25.835  25.907  1.00  0.00     0.066 A 
BRANCH  68  69
ATOM     69  N   UNL A   1      32.698  27.090  26.553  1.00  0.00    -0.220 N 
ATOM     70  C   UNL A   1      33.696  28.018  26.683  1.00  0.00     0.141 A 
ATOM     71  N   UNL A   1      31.562  27.583  27.097  1.00  0.00    -0.062 NA
ATOM     72  C   UNL A   1      33.093  29.142  27.197  1.00  0.00     0.093 A 
ATOM     73  N   UNL A   1      31.800  28.826  27.512  1.00  0.00    -0.134 NA
BRANCH  72  74
ATOM     74  C   UNL A   1      33.719  30.427  27.571  1.00  0.00     0.138 C 
BRANCH  74  75
ATOM     75  S   UNL A   1      35.497  30.673  27.555  1.00  0.00    -0.081 SA
BRANCH  75  76
ATOM     76  C   UNL A   1      36.153  31.051  29.128  1.00  0.00     0.176 A 
ATOM     77  N   UNL A   1      35.286  31.672  29.875  1.00  0.00    -0.223 NA
ATOM     78  N   UNL A   1      37.421  30.736  29.596  1.00  0.00    -0.255 N 
ATOM     79  C   UNL A   1      35.690  32.135  31.132  1.00  0.00     0.079 A 
ATOM     80  C   UNL A   1      37.974  31.702  30.452  1.00  0.00     0.266 A 
ATOM     81  C   UNL A   1      34.756  32.510  32.097  1.00  0.00     0.029 A 
ATOM     82  C   UNL A   1      37.037  32.331  31.397  1.00  0.00     0.066 A 
ATOM     83  O   UNL A   1      39.149  32.062  30.476  1.00  0.00    -0.268 OA
ATOM     84  C   UNL A   1      35.173  33.137  33.278  1.00  0.00     0.002 A 
ATOM     85  C   UNL A   1      37.468  33.006  32.542  1.00  0.00     0.016 A 
ATOM     86  C   UNL A   1      36.525  33.420  33.482  1.00  0.00     0.001 A 
BRANCH  78  87
ATOM     87  C   UNL A   1      38.208  29.553  29.297  1.00  0.00     0.051 A 
ATOM     88  C   UNL A   1      38.854  29.427  28.048  1.00  0.00     0.027 A 
ATOM     89  C   UNL A   1      38.424  28.496  30.190  1.00  0.00     0.027 A 
ATOM     90  C   UNL A   1      39.475  28.243  27.639  1.00  0.00     0.002 A 
ATOM     91  C   UNL A   1      38.984  27.280  29.768  1.00  0.00     0.002 A 
ATOM     92  C   UNL A   1      39.481  27.143  28.479  1.00  0.00     0.000 A 
ENDBRANCH  78  87
ENDBRANCH  75  76
ENDBRANCH  74  75
ENDBRANCH  72  74
ENDBRANCH  68  69
ENDBRANCH  60  63
ENDBRANCH   1  59
TORSDOF 16
ENDMDL
MODEL 2
REMARK VINA RESULT:     -11.5      2.250      5.924
REMARK SMILES O=C(NCCCCNC(=O)c1ccc(-n2cc(CSc3nc4ccccc4c(=O)n3-c3ccccc3)nn2)cc1)c1ccc(-c2c3nc(c(-c4ccccc4)c4ccc([nH]4)c(-c4ccccc4)c4nc(c(-c5ccccc5)c5ccc2[nH]5)C=C4)C=C3)cc1
REMARK SMILES IDX 7 1 6 2 5 3 4 4 3 5 1 6 2 7 41 9 42 10 88 11 43 12 87 13
REMARK SMILES IDX 44 14 45 15 46 16 81 17 47 18 86 19 80 20 82 21 48 22 85 23
REMARK SMILES IDX 79 24 78 25 49 27 71 28 56 29 70 30 57 31 60 32 69 33 83 34
REMARK SMILES IDX 58 35 59 36 68 38 84 39 61 40 50 41 51 42 55 43 52 44 54 45
REMARK SMILES IDX 53 46 72 47 73 48 77 49 74 50 76 51 75 52 62 53 63 54 67 55
REMARK SMILES IDX 64 56 66 57 65 58 8 59 9 60 10 62 11 63 12 64 40 65 13 66
REMARK SMILES IDX 39 67 14 68 15 69 16 70 38 71 17 72 37 73 18 74 19 75 20 76
REMARK SMILES IDX 21 77 30 78 22 79 28 80 23 81 27 82 29 83 24 84 26 85 25 86
REMARK SMILES IDX 31 87 32 88 36 89 33 90 35 91 34 92
REMARK H PARENT 3 8 82 26 60 37 8 61
REMARK Flexibility Score: inf
ROOT
ATOM      1  C   UNL A   1      34.127  24.912  25.585  1.00  0.00     0.116 C 
ENDROOT
BRANCH   1   2
ATOM      2  C   UNL A   1      35.092  23.854  25.054  1.00  0.00     0.023 C 
BRANCH   2   3
ATOM      3  C   UNL A   1      36.204  23.419  26.013  1.00  0.00     0.023 C 
BRANCH   3   4
ATOM      4  C   UNL A   1      37.617  23.430  25.433  1.00  0.00     0.116 C 
BRANCH   4   5
ATOM      5  N   UNL A   1      38.285  22.145  25.422  1.00  0.00    -0.352 N 
ATOM      6  O   UNL A   1      39.575  20.425  25.932  1.00  0.00    -0.269 OA
ATOM      7  C   UNL A   1      39.421  21.648  25.998  1.00  0.00     0.251 C 
ATOM      8  H   UNL A   1      37.813  21.476  24.875  1.00  0.00     0.163 HD
BRANCH   7   9
ATOM      9  C   UNL A   1      40.503  22.468  26.605  1.00  0.00     0.039 A 
ATOM     10  C   UNL A   1      40.330  23.589  27.419  1.00  0.00     0.014 A 
ATOM     11  C   UNL A   1      41.816  22.062  26.291  1.00  0.00     0.014 A 
ATOM     12  C   UNL A   1      41.433  24.339  27.824  1.00  0.00     0.010 A 
ATOM     13  C   UNL A   1      42.918  22.801  26.698  1.00  0.00     0.010 A 
ATOM     14  C   UNL A   1      42.722  23.962  27.435  1.00  0.00    -0.014 A 
BRANCH  14  15
ATOM     15  C   UNL A   1      43.863  24.703  27.969  1.00  0.00     0.031 A 
ATOM     16  C   UNL A   1      44.004  24.623  29.450  1.00  0.00     0.074 A 
ATOM     17  C   UNL A   1      44.815  25.280  27.209  1.00  0.00     0.049 A 
ATOM     18  N   UNL A   1      43.933  25.589  30.306  1.00  0.00    -0.248 NA
ATOM     19  C   UNL A   1      44.137  23.291  30.062  1.00  0.00     0.031 C 
ATOM     20  C   UNL A   1      44.988  25.195  25.758  1.00  0.00     0.029 A 
ATOM     21  N   UNL A   1      45.913  25.990  27.604  1.00  0.00    -0.354 N 
ATOM     22  C   UNL A   1      44.177  25.020  31.554  1.00  0.00     0.074 A 
ATOM     23  C   UNL A   1      44.160  23.592  31.362  1.00  0.00     0.031 C 
ATOM     24  C   UNL A   1      46.230  25.622  25.429  1.00  0.00     0.029 A 
ATOM     25  C   UNL A   1      46.886  26.134  26.621  1.00  0.00     0.049 A 
ATOM     26  H   UNL A   1      46.008  26.369  28.509  1.00  0.00     0.167 HD
ATOM     27  C   UNL A   1      44.588  25.766  32.615  1.00  0.00     0.031 A 
ATOM     28  C   UNL A   1      48.155  26.589  26.789  1.00  0.00     0.031 A 
ATOM     29  C   UNL A   1      44.390  27.173  32.394  1.00  0.00     0.049 A 
ATOM     30  C   UNL A   1      48.202  27.336  28.065  1.00  0.00     0.074 A 
ATOM     31  C   UNL A   1      43.298  27.985  32.173  1.00  0.00     0.029 A 
ATOM     32  N   UNL A   1      45.490  27.903  32.016  1.00  0.00    -0.354 N 
ATOM     33  N   UNL A   1      47.610  28.479  28.249  1.00  0.00    -0.248 NA
ATOM     34  C   UNL A   1      48.551  26.609  29.274  1.00  0.00     0.031 C 
ATOM     35  C   UNL A   1      43.751  28.954  31.229  1.00  0.00     0.029 A 
ATOM     36  C   UNL A   1      45.105  28.715  30.985  1.00  0.00     0.049 A 
ATOM     37  H   UNL A   1      46.390  27.852  32.413  1.00  0.00     0.167 HD
ATOM     38  C   UNL A   1      47.101  28.402  29.536  1.00  0.00     0.074 A 
ATOM     39  C   UNL A   1      47.800  27.276  30.154  1.00  0.00     0.031 C 
ATOM     40  C   UNL A   1      45.964  29.075  29.882  1.00  0.00     0.031 A 
BRANCH  27  41
ATOM     41  C   UNL A   1      45.546  25.269  33.670  1.00  0.00    -0.014 A 
ATOM     42  C   UNL A   1      46.909  25.143  33.339  1.00  0.00     0.009 A 
ATOM     43  C   UNL A   1      45.121  24.637  34.854  1.00  0.00     0.009 A 
ATOM     44  C   UNL A   1      47.776  24.355  34.107  1.00  0.00     0.001 A 
ATOM     45  C   UNL A   1      45.994  23.885  35.645  1.00  0.00     0.001 A 
ATOM     46  C   UNL A   1      47.315  23.718  35.253  1.00  0.00     0.000 A 
ENDBRANCH  27  41
BRANCH  28  47
ATOM     47  C   UNL A   1      49.396  26.206  26.077  1.00  0.00    -0.014 A 
ATOM     48  C   UNL A   1      49.796  26.879  24.908  1.00  0.00     0.009 A 
ATOM     49  C   UNL A   1      50.341  25.377  26.706  1.00  0.00     0.009 A 
ATOM     50  C   UNL A   1      51.103  26.758  24.416  1.00  0.00     0.001 A 
ATOM     51  C   UNL A   1      51.645  25.255  26.214  1.00  0.00     0.001 A 
ATOM     52  C   UNL A   1      52.031  25.958  25.078  1.00  0.00     0.000 A 
ENDBRANCH  28  47
BRANCH  40  53
ATOM     53  C   UNL A   1      45.422  30.094  28.912  1.00  0.00    -0.014 A 
ATOM     54  C   UNL A   1      44.485  29.786  27.910  1.00  0.00     0.009 A 
ATOM     55  C   UNL A   1      45.757  31.440  29.120  1.00  0.00     0.009 A 
ATOM     56  C   UNL A   1      43.926  30.797  27.120  1.00  0.00     0.001 A 
ATOM     57  C   UNL A   1      45.182  32.450  28.347  1.00  0.00     0.001 A 
ATOM     58  C   UNL A   1      44.271  32.128  27.343  1.00  0.00     0.000 A 
ENDBRANCH  40  53
ENDBRANCH  14  15
ENDBRANCH   7   9
ENDBRANCH   4   5
ENDBRANCH   3   4
ENDBRANCH   2   3
ENDBRANCH   1   2
BRANCH   1  59
ATOM     59  N   UNL A   1      32.843  24.896  24.908  1.00  0.00    -0.352 N 
ATOM     60  C   UNL A   1      31.861  25.859  24.862  1.00  0.00     0.251 C 
ATOM     61  H   UNL A   1      32.645  24.072  24.406  1.00  0.00     0.163 HD
ATOM     62  O   UNL A   1      30.793  25.623  24.322  1.00  0.00    -0.269 OA
BRANCH  60  63
ATOM     63  C   UNL A   1      32.095  27.183  25.481  1.00  0.00     0.039 A 
ATOM     64  C   UNL A   1      32.810  28.144  24.759  1.00  0.00     0.016 A 
ATOM     65  C   UNL A   1      31.661  27.454  26.781  1.00  0.00     0.016 A 
ATOM     66  C   UNL A   1      33.048  29.404  25.314  1.00  0.00     0.029 A 
ATOM     67  C   UNL A   1      31.913  28.703  27.348  1.00  0.00     0.029 A 
ATOM     68  C   UNL A   1      32.618  29.677  26.619  1.00  0.00     0.066 A 
BRANCH  68  69
ATOM     69  N   UNL A   1      32.985  30.897  27.231  1.00  0.00    -0.220 N 
ATOM     70  C   UNL A   1      34.069  31.116  28.038  1.00  0.00     0.141 A 
ATOM     71  N   UNL A   1      32.326  32.065  27.050  1.00  0.00    -0.062 NA
ATOM     72  C   UNL A   1      34.124  32.478  28.224  1.00  0.00     0.093 A 
ATOM     73  N   UNL A   1      33.001  33.030  27.672  1.00  0.00    -0.134 NA
BRANCH  72  74
ATOM     74  C   UNL A   1      35.077  33.251  29.048  1.00  0.00     0.138 C 
BRANCH  74  75
ATOM     75  S   UNL A   1      36.856  33.120  28.843  1.00  0.00    -0.081 SA
BRANCH  75  76
ATOM     76  C   UNL A   1      37.520  31.655  29.520  1.00  0.00     0.176 A 
ATOM     77  N   UNL A   1      38.250  31.012  28.656  1.00  0.00    -0.223 NA
ATOM     78  N   UNL A   1      37.351  31.190  30.817  1.00  0.00    -0.255 N 
ATOM     79  C   UNL A   1      38.773  29.764  29.012  1.00  0.00     0.079 A 
ATOM     80  C   UNL A   1      37.283  29.791  30.921  1.00  0.00     0.266 A 
ATOM     81  C   UNL A   1      39.806  29.179  28.280  1.00  0.00     0.029 A 
ATOM     82  C   UNL A   1      38.192  29.040  30.041  1.00  0.00     0.066 A 
ATOM     83  O   UNL A   1      36.542  29.155  31.666  1.00  0.00    -0.268 OA
ATOM     84  C   UNL A   1      40.195  27.859  28.538  1.00  0.00     0.002 A 
ATOM     85  C   UNL A   1      38.527  27.703  30.276  1.00  0.00     0.016 A 
ATOM     86  C   UNL A   1      39.528  27.108  29.509  1.00  0.00     0.001 A 
BRANCH  78  87
ATOM     87  C   UNL A   1      37.238  31.975  32.033  1.00  0.00     0.051 A 
ATOM     88  C   UNL A   1      35.966  32.306  32.548  1.00  0.00     0.027 A 
ATOM     89  C   UNL A   1      38.325  32.420  32.796  1.00  0.00     0.027 A 
ATOM     90  C   UNL A   1      35.794  33.201  33.609  1.00  0.00     0.002 A 
ATOM     91  C   UNL A   1      38.167  33.371  33.817  1.00  0.00     0.002 A 
ATOM     92  C   UNL A   1      36.899  33.787  34.202  1.00  0.00     0.000 A 
ENDBRANCH  78  87
ENDBRANCH  75  76
ENDBRANCH  74  75
ENDBRANCH  72  74
ENDBRANCH  68  69
ENDBRANCH  60  63
ENDBRANCH   1  59
TORSDOF 16
ENDMDL
MODEL 3
REMARK VINA RESULT:     -11.4      3.382      9.624
REMARK SMILES O=C(NCCCCNC(=O)c1ccc(-n2cc(CSc3nc4ccccc4c(=O)n3-c3ccccc3)nn2)cc1)c1ccc(-c2c3nc(c(-c4ccccc4)c4ccc([nH]4)c(-c4ccccc4)c4nc(c(-c5ccccc5)c5ccc2[nH]5)C=C4)C=C3)cc1
REMARK SMILES IDX 7 1 6 2 5 3 4 4 3 5 1 6 2 7 41 9 42 10 88 11 43 12 87 13
REMARK SMILES IDX 44 14 45 15 46 16 81 17 47 18 86 19 80 20 82 21 48 22 85 23
REMARK SMILES IDX 79 24 78 25 49 27 71 28 56 29 70 30 57 31 60 32 69 33 83 34
REMARK SMILES IDX 58 35 59 36 68 38 84 39 61 40 50 41 51 42 55 43 52 44 54 45
REMARK SMILES IDX 53 46 72 47 73 48 77 49 74 50 76 51 75 52 62 53 63 54 67 55
REMARK SMILES IDX 64 56 66 57 65 58 8 59 9 60 10 62 11 63 12 64 40 65 13 66
REMARK SMILES IDX 39 67 14 68 15 69 16 70 38 71 17 72 37 73 18 74 19 75 20 76
REMARK SMILES IDX 21 77 30 78 22 79 28 80 23 81 27 82 29 83 24 84 26 85 25 86
REMARK SMILES IDX 31 87 32 88 36 89 33 90 35 91 34 92
REMARK H PARENT 3 8 82 26 60 37 8 61
REMARK Flexibility Score: inf
ROOT
ATOM      1  C   UNL A   1      35.699  35.330  32.525  1.00  0.00     0.116 C 
ENDROOT
BRANCH   1   2
ATOM      2  C   UNL A   1      35.608  34.708  33.916  1.00  0.00     0.023 C 
BRANCH   2   3
ATOM      3  C   UNL A   1      35.993  33.229  34.016  1.00  0.00     0.023 C 
BRANCH   3   4
ATOM      4  C   UNL A   1      37.488  32.943  34.133  1.00  0.00     0.116 C 
BRANCH   4   5
ATOM      5  N   UNL A   1      38.334  33.736  33.266  1.00  0.00    -0.352 N 
ATOM      6  O   UNL A   1      39.564  34.433  31.567  1.00  0.00    -0.269 OA
ATOM      7  C   UNL A   1      39.148  33.459  32.202  1.00  0.00     0.251 C 
ATOM      8  H   UNL A   1      38.319  34.694  33.493  1.00  0.00     0.163 HD
BRANCH   7   9
ATOM      9  C   UNL A   1      39.630  32.105  31.821  1.00  0.00     0.039 A 
ATOM     10  C   UNL A   1      38.947  30.903  32.016  1.00  0.00     0.014 A 
ATOM     11  C   UNL A   1      40.909  32.063  31.232  1.00  0.00     0.014 A 
ATOM     12  C   UNL A   1      39.565  29.689  31.721  1.00  0.00     0.010 A 
ATOM     13  C   UNL A   1      41.527  30.857  30.929  1.00  0.00     0.010 A 
ATOM     14  C   UNL A   1      40.867  29.667  31.209  1.00  0.00    -0.014 A 
BRANCH  14  15
ATOM     15  C   UNL A   1      41.443  28.387  30.805  1.00  0.00     0.031 A 
ATOM     16  C   UNL A   1      42.294  27.744  31.846  1.00  0.00     0.074 A 
ATOM     17  C   UNL A   1      41.126  27.738  29.667  1.00  0.00     0.049 A 
ATOM     18  N   UNL A   1      43.558  27.481  31.785  1.00  0.00    -0.248 NA
ATOM     19  C   UNL A   1      41.685  27.454  33.155  1.00  0.00     0.031 C 
ATOM     20  C   UNL A   1      40.092  28.082  28.689  1.00  0.00     0.029 A 
ATOM     21  N   UNL A   1      41.604  26.547  29.199  1.00  0.00    -0.354 N 
ATOM     22  C   UNL A   1      43.879  26.840  32.980  1.00  0.00     0.074 A 
ATOM     23  C   UNL A   1      42.727  26.972  33.836  1.00  0.00     0.031 C 
ATOM     24  C   UNL A   1      39.865  27.016  27.885  1.00  0.00     0.029 A 
ATOM     25  C   UNL A   1      40.824  25.970  28.202  1.00  0.00     0.049 A 
ATOM     26  H   UNL A   1      42.430  26.132  29.538  1.00  0.00     0.167 HD
ATOM     27  C   UNL A   1      44.988  26.060  33.101  1.00  0.00     0.031 A 
ATOM     28  C   UNL A   1      40.927  24.707  27.713  1.00  0.00     0.031 A 
ATOM     29  C   UNL A   1      45.916  26.274  32.025  1.00  0.00     0.049 A 
ATOM     30  C   UNL A   1      42.270  24.195  28.065  1.00  0.00     0.074 A 
ATOM     31  C   UNL A   1      46.650  27.346  31.561  1.00  0.00     0.029 A 
ATOM     32  N   UNL A   1      45.915  25.348  31.009  1.00  0.00    -0.354 N 
ATOM     33  N   UNL A   1      43.370  24.647  27.539  1.00  0.00    -0.248 NA
ATOM     34  C   UNL A   1      42.424  23.474  29.317  1.00  0.00     0.031 C 
ATOM     35  C   UNL A   1      46.629  27.216  30.142  1.00  0.00     0.029 A 
ATOM     36  C   UNL A   1      45.945  26.039  29.829  1.00  0.00     0.049 A 
ATOM     37  H   UNL A   1      45.895  24.370  31.112  1.00  0.00     0.167 HD
ATOM     38  C   UNL A   1      44.270  24.680  28.593  1.00  0.00     0.074 A 
ATOM     39  C   UNL A   1      43.666  23.850  29.634  1.00  0.00     0.031 C 
ATOM     40  C   UNL A   1      45.276  25.603  28.626  1.00  0.00     0.031 A 
BRANCH  27  41
ATOM     41  C   UNL A   1      45.049  24.815  33.950  1.00  0.00    -0.014 A 
ATOM     42  C   UNL A   1      46.301  24.392  34.439  1.00  0.00     0.009 A 
ATOM     43  C   UNL A   1      43.993  23.887  34.028  1.00  0.00     0.009 A 
ATOM     44  C   UNL A   1      46.500  23.084  34.899  1.00  0.00     0.001 A 
ATOM     45  C   UNL A   1      44.180  22.594  34.525  1.00  0.00     0.001 A 
ATOM     46  C   UNL A   1      45.442  22.183  34.931  1.00  0.00     0.000 A 
ENDBRANCH  27  41
BRANCH  28  47
ATOM     47  C   UNL A   1      39.870  23.804  27.204  1.00  0.00    -0.014 A 
ATOM     48  C   UNL A   1      38.648  24.315  26.730  1.00  0.00     0.009 A 
ATOM     49  C   UNL A   1      40.173  22.463  26.908  1.00  0.00     0.009 A 
ATOM     50  C   UNL A   1      37.786  23.526  25.956  1.00  0.00     0.001 A 
ATOM     51  C   UNL A   1      39.311  21.675  26.137  1.00  0.00     0.001 A 
ATOM     52  C   UNL A   1      38.125  22.212  25.647  1.00  0.00     0.000 A 
ENDBRANCH  28  47
BRANCH  40  53
ATOM     53  C   UNL A   1      45.537  26.411  27.381  1.00  0.00    -0.014 A 
ATOM     54  C   UNL A   1      46.450  26.021  26.383  1.00  0.00     0.009 A 
ATOM     55  C   UNL A   1      44.722  27.526  27.138  1.00  0.00     0.009 A 
ATOM     56  C   UNL A   1      46.560  26.748  25.193  1.00  0.00     0.001 A 
ATOM     57  C   UNL A   1      44.816  28.237  25.941  1.00  0.00     0.001 A 
ATOM     58  C   UNL A   1      45.740  27.852  24.971  1.00  0.00     0.000 A 
ENDBRANCH  40  53
ENDBRANCH  14  15
ENDBRANCH   7   9
ENDBRANCH   4   5
ENDBRANCH   3   4
ENDBRANCH   2   3
ENDBRANCH   1   2
BRANCH   1  59
ATOM     59  N   UNL A   1      34.603  36.240  32.240  1.00  0.00    -0.352 N 
ATOM     60  C   UNL A   1      33.689  36.221  31.211  1.00  0.00     0.251 C 
ATOM     61  H   UNL A   1      34.497  36.981  32.880  1.00  0.00     0.163 HD
ATOM     62  O   UNL A   1      32.897  37.137  31.076  1.00  0.00    -0.269 OA
BRANCH  60  63
ATOM     63  C   UNL A   1      33.677  35.091  30.255  1.00  0.00     0.039 A 
ATOM     64  C   UNL A   1      32.915  35.208  29.089  1.00  0.00     0.016 A 
ATOM     65  C   UNL A   1      34.367  33.908  30.534  1.00  0.00     0.016 A 
ATOM     66  C   UNL A   1      32.881  34.159  28.165  1.00  0.00     0.029 A 
ATOM     67  C   UNL A   1      34.321  32.851  29.625  1.00  0.00     0.029 A 
ATOM     68  C   UNL A   1      33.568  32.971  28.444  1.00  0.00     0.066 A 
BRANCH  68  69
ATOM     69  N   UNL A   1      33.416  31.862  27.580  1.00  0.00    -0.220 N 
ATOM     70  C   UNL A   1      34.346  30.892  27.320  1.00  0.00     0.141 A 
ATOM     71  N   UNL A   1      32.274  31.568  26.915  1.00  0.00    -0.062 NA
ATOM     72  C   UNL A   1      33.687  29.930  26.591  1.00  0.00     0.093 A 
ATOM     73  N   UNL A   1      32.438  30.403  26.292  1.00  0.00    -0.134 NA
BRANCH  72  74
ATOM     74  C   UNL A   1      34.232  28.684  26.014  1.00  0.00     0.138 C 
BRANCH  74  75
ATOM     75  S   UNL A   1      34.048  28.263  24.279  1.00  0.00    -0.081 SA
BRANCH  75  76
ATOM     76  C   UNL A   1      32.409  27.850  23.842  1.00  0.00     0.176 A 
ATOM     77  N   UNL A   1      31.766  28.873  23.359  1.00  0.00    -0.223 NA
ATOM     78  N   UNL A   1      31.813  26.600  23.946  1.00  0.00    -0.255 N 
ATOM     79  C   UNL A   1      30.408  28.732  23.055  1.00  0.00     0.079 A 
ATOM     80  C   UNL A   1      30.449  26.641  24.276  1.00  0.00     0.266 A 
ATOM     81  C   UNL A   1      29.749  29.661  22.250  1.00  0.00     0.029 A 
ATOM     82  C   UNL A   1      29.669  27.716  23.642  1.00  0.00     0.066 A 
ATOM     83  O   UNL A   1      29.864  25.873  25.036  1.00  0.00    -0.268 OA
ATOM     84  C   UNL A   1      28.357  29.605  22.102  1.00  0.00     0.002 A 
ATOM     85  C   UNL A   1      28.275  27.678  23.553  1.00  0.00     0.016 A 
ATOM     86  C   UNL A   1      27.617  28.638  22.785  1.00  0.00     0.001 A 
BRANCH  78  87
ATOM     87  C   UNL A   1      32.436  25.302  23.760  1.00  0.00     0.051 A 
ATOM     88  C   UNL A   1      33.565  24.940  24.525  1.00  0.00     0.027 A 
ATOM     89  C   UNL A   1      31.973  24.318  22.876  1.00  0.00     0.027 A 
ATOM     90  C   UNL A   1      34.308  23.784  24.269  1.00  0.00     0.002 A 
ATOM     91  C   UNL A   1      32.746  23.190  22.563  1.00  0.00     0.002 A 
ATOM     92  C   UNL A   1      33.934  22.939  23.237  1.00  0.00     0.000 A 
ENDBRANCH  78  87
ENDBRANCH  75  76
ENDBRANCH  74  75
ENDBRANCH  72  74
ENDBRANCH  68  69
ENDBRANCH  60  63
ENDBRANCH   1  59
TORSDOF 16
ENDMDL
