MODEL 1
REMARK VINA RESULT:     -11.0      0.000      0.000
REMARK SMILES Cc1cc(C)n2ncc(C(=O)N(C)CCCC(=O)NCCCCNC(=O)c3ccc(-c4c5nc(c(-c6ccccc6)c6ccc([nH]6)c(-c6ccccc6)c6nc(c(-c7ccccc7)c7ccc4[nH]7)C=C6)C=C5)cc3)c2n1
REMARK SMILES IDX 20 1 19 2 17 3 18 4 16 6 15 7 14 8 12 9 13 10 10 11 11 12
REMARK SMILES IDX 9 13 1 14 2 15 3 16 76 17 4 18 75 19 5 20 6 21 7 22 8 23
REMARK SMILES IDX 21 24 22 25 23 26 24 27 25 28 26 30 27 31 28 32 74 33 29 34
REMARK SMILES IDX 73 35 30 36 31 37 32 38 67 39 33 40 72 41 66 42 68 43 34 44
REMARK SMILES IDX 71 45 65 46 64 47 35 49 57 50 42 51 56 52 43 53 46 54 55 55
REMARK SMILES IDX 69 56 44 57 45 58 54 60 70 61 47 62 36 63 37 64 41 65 38 66
REMARK SMILES IDX 40 67 39 68 58 69 59 70 63 71 60 72 62 73 61 74 48 75 49 76
REMARK SMILES IDX 53 77 50 78 52 79 51 80
REMARK H PARENT 19 5 24 29 68 48 46 59
REMARK Flexibility Score: inf
ROOT
ATOM      1  C   UNL A   1      33.366  32.015  27.655  1.00  0.00     0.116 C 
ENDROOT
BRANCH   1   2
ATOM      2  N   UNL A   1      34.177  30.848  27.916  1.00  0.00    -0.356 N 
ATOM      3  C   UNL A   1      34.333  29.662  27.284  1.00  0.00     0.220 C 
ATOM      4  O   UNL A   1      35.236  28.945  27.742  1.00  0.00    -0.275 OA
ATOM      5  H   UNL A   1      34.734  30.934  28.724  1.00  0.00     0.163 HD
BRANCH   3   6
ATOM      6  C   UNL A   1      33.598  29.195  26.036  1.00  0.00     0.102 C 
BRANCH   6   7
ATOM      7  C   UNL A   1      33.474  27.739  25.568  1.00  0.00     0.031 C 
BRANCH   7   8
ATOM      8  C   UNL A   1      32.600  26.661  26.223  1.00  0.00     0.120 C 
BRANCH   8   9
ATOM      9  N   UNL A   1      32.010  25.478  25.548  1.00  0.00    -0.342 N 
ATOM     10  C   UNL A   1      31.877  25.685  24.111  1.00  0.00     0.147 C 
BRANCH   9  11
ATOM     11  C   UNL A   1      31.784  24.267  26.221  1.00  0.00     0.259 C 
ATOM     12  O   UNL A   1      31.296  24.309  27.354  1.00  0.00    -0.269 OA
BRANCH  11  13
ATOM     13  C   UNL A   1      32.096  22.937  25.690  1.00  0.00     0.104 A 
ATOM     14  C   UNL A   1      37.031  23.091  25.542  1.00  0.00     0.067 C 
ATOM     15  C   UNL A   1      35.687  22.423  25.369  1.00  0.00     0.042 A 
ATOM     16  C   UNL A   1      35.691  20.961  25.062  1.00  0.00     0.047 A 
ATOM     17  N   UNL A   1      34.616  23.146  25.509  1.00  0.00    -0.233 NA
ATOM     18  C   UNL A   1      34.488  20.382  24.916  1.00  0.00     0.043 A 
ATOM     19  C   UNL A   1      33.401  22.508  25.420  1.00  0.00     0.168 A 
ATOM     20  C   UNL A   1      34.326  18.923  24.621  1.00  0.00     0.067 C 
ATOM     21  N   UNL A   1      33.327  21.152  25.086  1.00  0.00    -0.219 N 
ATOM     22  N   UNL A   1      32.042  20.737  25.007  1.00  0.00    -0.174 NA
ATOM     23  C   UNL A   1      31.330  21.783  25.429  1.00  0.00     0.151 A 
ENDBRANCH  11  13
ENDBRANCH   9  11
ENDBRANCH   8   9
ENDBRANCH   7   8
ENDBRANCH   6   7
ENDBRANCH   3   6
ENDBRANCH   1   2
BRANCH   1  24
ATOM     24  C   UNL A   1      34.055  33.303  28.130  1.00  0.00     0.023 C 
BRANCH  24  25
ATOM     25  C   UNL A   1      33.118  34.444  28.545  1.00  0.00     0.023 C 
BRANCH  25  26
ATOM     26  C   UNL A   1      33.804  35.579  29.297  1.00  0.00     0.116 C 
BRANCH  26  27
ATOM     27  N   UNL A   1      33.182  35.880  30.583  1.00  0.00    -0.352 N 
ATOM     28  C   UNL A   1      33.285  35.140  31.745  1.00  0.00     0.251 C 
ATOM     29  H   UNL A   1      32.631  36.694  30.627  1.00  0.00     0.163 HD
ATOM     30  O   UNL A   1      32.441  35.222  32.627  1.00  0.00    -0.269 OA
BRANCH  28  31
ATOM     31  C   UNL A   1      34.444  34.241  31.902  1.00  0.00     0.039 A 
ATOM     32  C   UNL A   1      34.307  32.864  31.723  1.00  0.00     0.014 A 
ATOM     33  C   UNL A   1      35.687  34.808  32.193  1.00  0.00     0.014 A 
ATOM     34  C   UNL A   1      35.451  32.072  31.752  1.00  0.00     0.010 A 
ATOM     35  C   UNL A   1      36.829  34.037  32.124  1.00  0.00     0.010 A 
ATOM     36  C   UNL A   1      36.717  32.666  31.921  1.00  0.00    -0.014 A 
BRANCH  36  37
ATOM     37  C   UNL A   1      37.922  31.870  31.699  1.00  0.00     0.031 A 
ATOM     38  C   UNL A   1      38.648  31.532  32.954  1.00  0.00     0.074 A 
ATOM     39  C   UNL A   1      38.298  31.331  30.519  1.00  0.00     0.049 A 
ATOM     40  N   UNL A   1      39.755  32.047  33.370  1.00  0.00    -0.248 NA
ATOM     41  C   UNL A   1      37.995  30.650  33.935  1.00  0.00     0.031 C 
ATOM     42  C   UNL A   1      37.557  31.300  29.255  1.00  0.00     0.029 A 
ATOM     43  N   UNL A   1      39.418  30.612  30.224  1.00  0.00    -0.354 N 
ATOM     44  C   UNL A   1      40.060  31.398  34.561  1.00  0.00     0.074 A 
ATOM     45  C   UNL A   1      38.864  30.694  34.948  1.00  0.00     0.031 C 
ATOM     46  C   UNL A   1      38.140  30.420  28.406  1.00  0.00     0.029 A 
ATOM     47  C   UNL A   1      39.385  29.960  28.995  1.00  0.00     0.049 A 
ATOM     48  H   UNL A   1      40.190  30.557  30.834  1.00  0.00     0.167 HD
ATOM     49  C   UNL A   1      41.354  31.281  34.975  1.00  0.00     0.031 A 
ATOM     50  C   UNL A   1      40.314  29.103  28.500  1.00  0.00     0.031 A 
ATOM     51  C   UNL A   1      42.214  32.187  34.251  1.00  0.00     0.049 A 
ATOM     52  C   UNL A   1      41.577  29.376  29.217  1.00  0.00     0.074 A 
ATOM     53  C   UNL A   1      42.287  33.555  34.086  1.00  0.00     0.029 A 
ATOM     54  N   UNL A   1      42.934  31.639  33.216  1.00  0.00    -0.354 N 
ATOM     55  N   UNL A   1      42.253  30.478  29.085  1.00  0.00    -0.248 NA
ATOM     56  C   UNL A   1      41.879  28.588  30.399  1.00  0.00     0.031 C 
ATOM     57  C   UNL A   1      42.662  33.743  32.721  1.00  0.00     0.029 A 
ATOM     58  C   UNL A   1      42.874  32.488  32.148  1.00  0.00     0.049 A 
ATOM     59  H   UNL A   1      43.414  30.779  33.242  1.00  0.00     0.167 HD
ATOM     60  C   UNL A   1      42.710  30.756  30.363  1.00  0.00     0.074 A 
ATOM     61  C   UNL A   1      42.554  29.502  31.100  1.00  0.00     0.031 C 
ATOM     62  C   UNL A   1      42.898  32.046  30.771  1.00  0.00     0.031 A 
BRANCH  49  63
ATOM     63  C   UNL A   1      41.908  30.035  35.638  1.00  0.00    -0.014 A 
ATOM     64  C   UNL A   1      42.960  30.189  36.564  1.00  0.00     0.009 A 
ATOM     65  C   UNL A   1      41.667  28.728  35.179  1.00  0.00     0.009 A 
ATOM     66  C   UNL A   1      43.796  29.121  36.909  1.00  0.00     0.001 A 
ATOM     67  C   UNL A   1      42.475  27.650  35.554  1.00  0.00     0.001 A 
ATOM     68  C   UNL A   1      43.562  27.853  36.391  1.00  0.00     0.000 A 
ENDBRANCH  49  63
BRANCH  50  69
ATOM     69  C   UNL A   1      40.163  27.906  27.643  1.00  0.00    -0.014 A 
ATOM     70  C   UNL A   1      41.008  27.714  26.533  1.00  0.00     0.009 A 
ATOM     71  C   UNL A   1      39.420  26.801  28.092  1.00  0.00     0.009 A 
ATOM     72  C   UNL A   1      41.154  26.453  25.941  1.00  0.00     0.001 A 
ATOM     73  C   UNL A   1      39.560  25.541  27.495  1.00  0.00     0.001 A 
ATOM     74  C   UNL A   1      40.443  25.362  26.434  1.00  0.00     0.000 A 
ENDBRANCH  50  69
BRANCH  62  75
ATOM     75  C   UNL A   1      42.891  33.134  29.726  1.00  0.00    -0.014 A 
ATOM     76  C   UNL A   1      41.861  34.083  29.596  1.00  0.00     0.009 A 
ATOM     77  C   UNL A   1      44.057  33.309  28.964  1.00  0.00     0.009 A 
ATOM     78  C   UNL A   1      41.997  35.169  28.723  1.00  0.00     0.001 A 
ATOM     79  C   UNL A   1      44.202  34.404  28.112  1.00  0.00     0.001 A 
ATOM     80  C   UNL A   1      43.172  35.334  27.990  1.00  0.00     0.000 A 
ENDBRANCH  62  75
ENDBRANCH  36  37
ENDBRANCH  28  31
ENDBRANCH  26  27
ENDBRANCH  25  26
ENDBRANCH  24  25
ENDBRANCH   1  24
TORSDOF 16
ENDMDL
MODEL 2
REMARK VINA RESULT:     -10.9      3.082      4.664
REMARK SMILES Cc1cc(C)n2ncc(C(=O)N(C)CCCC(=O)NCCCCNC(=O)c3ccc(-c4c5nc(c(-c6ccccc6)c6ccc([nH]6)c(-c6ccccc6)c6nc(c(-c7ccccc7)c7ccc4[nH]7)C=C6)C=C5)cc3)c2n1
REMARK SMILES IDX 20 1 19 2 17 3 18 4 16 6 15 7 14 8 12 9 13 10 10 11 11 12
REMARK SMILES IDX 9 13 1 14 2 15 3 16 76 17 4 18 75 19 5 20 6 21 7 22 8 23
REMARK SMILES IDX 21 24 22 25 23 26 24 27 25 28 26 30 27 31 28 32 74 33 29 34
REMARK SMILES IDX 73 35 30 36 31 37 32 38 67 39 33 40 72 41 66 42 68 43 34 44
REMARK SMILES IDX 71 45 65 46 64 47 35 49 57 50 42 51 56 52 43 53 46 54 55 55
REMARK SMILES IDX 69 56 44 57 45 58 54 60 70 61 47 62 36 63 37 64 41 65 38 66
REMARK SMILES IDX 40 67 39 68 58 69 59 70 63 71 60 72 62 73 61 74 48 75 49 76
REMARK SMILES IDX 53 77 50 78 52 79 51 80
REMARK H PARENT 19 5 24 29 68 48 46 59
REMARK Flexibility Score: inf
ROOT
ATOM      1  C   UNL A   1      31.602  29.472  24.760  1.00  0.00     0.116 C 
ENDROOT
BRANCH   1   2
ATOM      2  N   UNL A   1      30.933  29.659  23.492  1.00  0.00    -0.356 N 
ATOM      3  C   UNL A   1      30.350  28.813  22.614  1.00  0.00     0.220 C 
ATOM      4  O   UNL A   1      29.753  29.367  21.679  1.00  0.00    -0.275 OA
ATOM      5  H   UNL A   1      30.894  30.602  23.209  1.00  0.00     0.163 HD
BRANCH   3   6
ATOM      6  C   UNL A   1      30.271  27.297  22.730  1.00  0.00     0.102 C 
BRANCH   6   7
ATOM      7  C   UNL A   1      29.603  26.525  23.875  1.00  0.00     0.031 C 
BRANCH   7   8
ATOM      8  C   UNL A   1      30.328  25.909  25.078  1.00  0.00     0.120 C 
BRANCH   8   9
ATOM      9  N   UNL A   1      30.990  24.580  25.120  1.00  0.00    -0.342 N 
ATOM     10  C   UNL A   1      30.702  23.794  23.927  1.00  0.00     0.147 C 
BRANCH   9  11
ATOM     11  C   UNL A   1      31.910  24.233  26.122  1.00  0.00     0.259 C 
ATOM     12  O   UNL A   1      31.528  24.236  27.295  1.00  0.00    -0.269 OA
BRANCH  11  13
ATOM     13  C   UNL A   1      33.313  23.876  25.889  1.00  0.00     0.104 A 
ATOM     14  C   UNL A   1      32.980  18.979  25.329  1.00  0.00     0.067 C 
ATOM     15  C   UNL A   1      33.722  20.296  25.363  1.00  0.00     0.042 A 
ATOM     16  C   UNL A   1      35.148  20.282  24.921  1.00  0.00     0.047 A 
ATOM     17  N   UNL A   1      33.079  21.355  25.756  1.00  0.00    -0.233 NA
ATOM     18  C   UNL A   1      35.791  21.461  24.953  1.00  0.00     0.043 A 
ATOM     19  C   UNL A   1      33.747  22.557  25.713  1.00  0.00     0.168 A 
ATOM     20  C   UNL A   1      37.219  21.613  24.529  1.00  0.00     0.067 C 
ATOM     21  N   UNL A   1      35.098  22.612  25.358  1.00  0.00    -0.219 N 
ATOM     22  N   UNL A   1      35.569  23.879  25.425  1.00  0.00    -0.174 NA
ATOM     23  C   UNL A   1      34.490  24.621  25.676  1.00  0.00     0.151 A 
ENDBRANCH  11  13
ENDBRANCH   9  11
ENDBRANCH   8   9
ENDBRANCH   7   8
ENDBRANCH   6   7
ENDBRANCH   3   6
ENDBRANCH   1   2
BRANCH   1  24
ATOM     24  C   UNL A   1      33.102  29.199  24.576  1.00  0.00     0.023 C 
BRANCH  24  25
ATOM     25  C   UNL A   1      33.691  28.095  25.462  1.00  0.00     0.023 C 
BRANCH  25  26
ATOM     26  C   UNL A   1      34.450  28.603  26.682  1.00  0.00     0.116 C 
BRANCH  26  27
ATOM     27  N   UNL A   1      34.375  30.051  26.848  1.00  0.00    -0.352 N 
ATOM     28  C   UNL A   1      35.066  30.816  27.768  1.00  0.00     0.251 C 
ATOM     29  H   UNL A   1      33.768  30.534  26.242  1.00  0.00     0.163 HD
ATOM     30  O   UNL A   1      34.661  31.918  28.110  1.00  0.00    -0.269 OA
BRANCH  28  31
ATOM     31  C   UNL A   1      36.314  30.271  28.333  1.00  0.00     0.039 A 
ATOM     32  C   UNL A   1      36.314  29.627  29.572  1.00  0.00     0.014 A 
ATOM     33  C   UNL A   1      37.486  30.380  27.581  1.00  0.00     0.014 A 
ATOM     34  C   UNL A   1      37.487  29.015  30.005  1.00  0.00     0.010 A 
ATOM     35  C   UNL A   1      38.618  29.691  27.963  1.00  0.00     0.010 A 
ATOM     36  C   UNL A   1      38.630  29.021  29.182  1.00  0.00    -0.014 A 
BRANCH  36  37
ATOM     37  C   UNL A   1      39.768  28.169  29.524  1.00  0.00     0.031 A 
ATOM     38  C   UNL A   1      40.117  28.201  30.971  1.00  0.00     0.074 A 
ATOM     39  C   UNL A   1      40.375  27.301  28.687  1.00  0.00     0.049 A 
ATOM     40  N   UNL A   1      41.128  28.792  31.511  1.00  0.00    -0.248 NA
ATOM     41  C   UNL A   1      39.153  27.660  31.944  1.00  0.00     0.031 C 
ATOM     42  C   UNL A   1      39.978  26.915  27.331  1.00  0.00     0.029 A 
ATOM     43  N   UNL A   1      41.457  26.504  28.919  1.00  0.00    -0.354 N 
ATOM     44  C   UNL A   1      41.056  28.515  32.872  1.00  0.00     0.074 A 
ATOM     45  C   UNL A   1      39.738  27.980  33.100  1.00  0.00     0.031 C 
ATOM     46  C   UNL A   1      40.668  25.813  26.950  1.00  0.00     0.029 A 
ATOM     47  C   UNL A   1      41.672  25.520  27.957  1.00  0.00     0.049 A 
ATOM     48  H   UNL A   1      42.041  26.615  29.704  1.00  0.00     0.167 HD
ATOM     49  C   UNL A   1      42.186  28.499  33.636  1.00  0.00     0.031 A 
ATOM     50  C   UNL A   1      42.606  24.537  27.990  1.00  0.00     0.031 A 
ATOM     51  C   UNL A   1      43.285  29.134  32.949  1.00  0.00     0.049 A 
ATOM     52  C   UNL A   1      43.669  24.982  28.917  1.00  0.00     0.074 A 
ATOM     53  C   UNL A   1      43.532  30.392  32.437  1.00  0.00     0.029 A 
ATOM     54  N   UNL A   1      44.186  28.292  32.343  1.00  0.00    -0.354 N 
ATOM     55  N   UNL A   1      44.461  25.984  28.672  1.00  0.00    -0.248 NA
ATOM     56  C   UNL A   1      43.582  24.570  30.306  1.00  0.00     0.031 C 
ATOM     57  C   UNL A   1      44.256  30.163  31.228  1.00  0.00     0.029 A 
ATOM     58  C   UNL A   1      44.482  28.790  31.106  1.00  0.00     0.049 A 
ATOM     59  H   UNL A   1      44.557  27.468  32.735  1.00  0.00     0.167 HD
ATOM     60  C   UNL A   1      44.605  26.615  29.897  1.00  0.00     0.074 A 
ATOM     61  C   UNL A   1      44.145  25.635  30.882  1.00  0.00     0.031 C 
ATOM     62  C   UNL A   1      44.809  27.964  29.965  1.00  0.00     0.031 A 
BRANCH  49  63
ATOM     63  C   UNL A   1      42.429  27.491  34.743  1.00  0.00    -0.014 A 
ATOM     64  C   UNL A   1      42.887  26.208  34.382  1.00  0.00     0.009 A 
ATOM     65  C   UNL A   1      41.946  27.635  36.055  1.00  0.00     0.009 A 
ATOM     66  C   UNL A   1      42.750  25.112  35.242  1.00  0.00     0.001 A 
ATOM     67  C   UNL A   1      41.847  26.551  36.932  1.00  0.00     0.001 A 
ATOM     68  C   UNL A   1      42.216  25.282  36.514  1.00  0.00     0.000 A 
ENDBRANCH  49  63
BRANCH  50  69
ATOM     69  C   UNL A   1      42.561  23.144  27.491  1.00  0.00    -0.014 A 
ATOM     70  C   UNL A   1      41.333  22.464  27.388  1.00  0.00     0.009 A 
ATOM     71  C   UNL A   1      43.665  22.597  26.814  1.00  0.00     0.009 A 
ATOM     72  C   UNL A   1      41.199  21.322  26.587  1.00  0.00     0.001 A 
ATOM     73  C   UNL A   1      43.533  21.452  26.019  1.00  0.00     0.001 A 
ATOM     74  C   UNL A   1      42.295  20.827  25.888  1.00  0.00     0.000 A 
ENDBRANCH  50  69
BRANCH  62  75
ATOM     75  C   UNL A   1      45.174  28.697  28.699  1.00  0.00    -0.014 A 
ATOM     76  C   UNL A   1      44.230  29.301  27.849  1.00  0.00     0.009 A 
ATOM     77  C   UNL A   1      46.536  28.933  28.455  1.00  0.00     0.009 A 
ATOM     78  C   UNL A   1      44.643  30.113  26.786  1.00  0.00     0.001 A 
ATOM     79  C   UNL A   1      46.947  29.760  27.409  1.00  0.00     0.001 A 
ATOM     80  C   UNL A   1      46.001  30.350  26.574  1.00  0.00     0.000 A 
ENDBRANCH  62  75
ENDBRANCH  36  37
ENDBRANCH  28  31
ENDBRANCH  26  27
ENDBRANCH  25  26
ENDBRANCH  24  25
ENDBRANCH   1  24
TORSDOF 16
ENDMDL
MODEL 3
REMARK VINA RESULT:     -10.9      4.125      9.705
REMARK SMILES Cc1cc(C)n2ncc(C(=O)N(C)CCCC(=O)NCCCCNC(=O)c3ccc(-c4c5nc(c(-c6ccccc6)c6ccc([nH]6)c(-c6ccccc6)c6nc(c(-c7ccccc7)c7ccc4[nH]7)C=C6)C=C5)cc3)c2n1
REMARK SMILES IDX 20 1 19 2 17 3 18 4 16 6 15 7 14 8 12 9 13 10 10 11 11 12
REMARK SMILES IDX 9 13 1 14 2 15 3 16 76 17 4 18 75 19 5 20 6 21 7 22 8 23
REMARK SMILES IDX 21 24 22 25 23 26 24 27 25 28 26 30 27 31 28 32 74 33 29 34
REMARK SMILES IDX 73 35 30 36 31 37 32 38 67 39 33 40 72 41 66 42 68 43 34 44
REMARK SMILES IDX 71 45 65 46 64 47 35 49 57 50 42 51 56 52 43 53 46 54 55 55
REMARK SMILES IDX 69 56 44 57 45 58 54 60 70 61 47 62 36 63 37 64 41 65 38 66
REMARK SMILES IDX 40 67 39 68 58 69 59 70 63 71 60 72 62 73 61 74 48 75 49 76
REMARK SMILES IDX 53 77 50 78 52 79 51 80
REMARK H PARENT 19 5 24 29 68 48 46 59
REMARK Flexibility Score: inf
ROOT
ATOM      1  C   UNL A   1      39.505  22.105  26.171  1.00  0.00     0.116 C 
ENDROOT
BRANCH   1   2
ATOM      2  N   UNL A   1      38.411  21.255  25.757  1.00  0.00    -0.356 N 
ATOM      3  C   UNL A   1      37.204  21.498  25.199  1.00  0.00     0.220 C 
ATOM      4  O   UNL A   1      36.576  20.484  24.859  1.00  0.00    -0.275 OA
ATOM      5  H   UNL A   1      38.582  20.298  25.914  1.00  0.00     0.163 HD
BRANCH   3   6
ATOM      6  C   UNL A   1      36.616  22.862  24.864  1.00  0.00     0.102 C 
BRANCH   6   7
ATOM      7  C   UNL A   1      35.781  23.190  23.620  1.00  0.00     0.031 C 
BRANCH   7   8
ATOM      8  C   UNL A   1      34.719  24.293  23.522  1.00  0.00     0.120 C 
BRANCH   8   9
ATOM      9  N   UNL A   1      33.659  24.404  22.488  1.00  0.00    -0.342 N 
ATOM     10  C   UNL A   1      32.906  23.163  22.350  1.00  0.00     0.147 C 
BRANCH   9  11
ATOM     11  C   UNL A   1      33.342  25.622  21.868  1.00  0.00     0.259 C 
ATOM     12  O   UNL A   1      33.201  25.636  20.642  1.00  0.00    -0.269 OA
BRANCH  11  13
ATOM     13  C   UNL A   1      33.175  26.903  22.562  1.00  0.00     0.104 A 
ATOM     14  C   UNL A   1      29.946  25.672  26.093  1.00  0.00     0.067 C 
ATOM     15  C   UNL A   1      30.866  26.625  25.364  1.00  0.00     0.042 A 
ATOM     16  C   UNL A   1      31.093  27.961  25.992  1.00  0.00     0.047 A 
ATOM     17  N   UNL A   1      31.412  26.228  24.253  1.00  0.00    -0.233 NA
ATOM     18  C   UNL A   1      31.916  28.794  25.335  1.00  0.00     0.043 A 
ATOM     19  C   UNL A   1      32.300  27.080  23.641  1.00  0.00     0.168 A 
ATOM     20  C   UNL A   1      32.254  30.162  25.843  1.00  0.00     0.067 C 
ATOM     21  N   UNL A   1      32.524  28.365  24.145  1.00  0.00    -0.219 N 
ATOM     22  N   UNL A   1      33.396  29.049  23.369  1.00  0.00    -0.174 NA
ATOM     23  C   UNL A   1      33.820  28.153  22.478  1.00  0.00     0.151 A 
ENDBRANCH  11  13
ENDBRANCH   9  11
ENDBRANCH   8   9
ENDBRANCH   7   8
ENDBRANCH   6   7
ENDBRANCH   3   6
ENDBRANCH   1   2
BRANCH   1  24
ATOM     24  C   UNL A   1      40.556  21.327  26.977  1.00  0.00     0.023 C 
BRANCH  24  25
ATOM     25  C   UNL A   1      41.157  20.101  26.278  1.00  0.00     0.023 C 
BRANCH  25  26
ATOM     26  C   UNL A   1      42.470  19.614  26.880  1.00  0.00     0.116 C 
BRANCH  26  27
ATOM     27  N   UNL A   1      43.510  19.378  25.884  1.00  0.00    -0.352 N 
ATOM     28  C   UNL A   1      44.086  20.318  25.052  1.00  0.00     0.251 C 
ATOM     29  H   UNL A   1      43.835  18.453  25.796  1.00  0.00     0.163 HD
ATOM     30  O   UNL A   1      44.628  19.990  24.004  1.00  0.00    -0.269 OA
BRANCH  28  31
ATOM     31  C   UNL A   1      44.036  21.735  25.455  1.00  0.00     0.039 A 
ATOM     32  C   UNL A   1      43.224  22.641  24.771  1.00  0.00     0.014 A 
ATOM     33  C   UNL A   1      44.788  22.137  26.561  1.00  0.00     0.014 A 
ATOM     34  C   UNL A   1      43.108  23.937  25.267  1.00  0.00     0.010 A 
ATOM     35  C   UNL A   1      44.596  23.389  27.107  1.00  0.00     0.010 A 
ATOM     36  C   UNL A   1      43.771  24.299  26.456  1.00  0.00    -0.014 A 
BRANCH  36  37
ATOM     37  C   UNL A   1      43.447  25.569  27.103  1.00  0.00     0.031 A 
ATOM     38  C   UNL A   1      44.375  26.674  26.737  1.00  0.00     0.074 A 
ATOM     39  C   UNL A   1      42.340  25.813  27.837  1.00  0.00     0.049 A 
ATOM     40  N   UNL A   1      45.298  27.187  27.478  1.00  0.00    -0.248 NA
ATOM     41  C   UNL A   1      44.395  27.150  25.344  1.00  0.00     0.031 C 
ATOM     42  C   UNL A   1      41.177  24.946  28.047  1.00  0.00     0.029 A 
ATOM     43  N   UNL A   1      41.986  26.951  28.499  1.00  0.00    -0.354 N 
ATOM     44  C   UNL A   1      45.875  28.205  26.727  1.00  0.00     0.074 A 
ATOM     45  C   UNL A   1      45.411  28.015  25.376  1.00  0.00     0.031 C 
ATOM     46  C   UNL A   1      40.166  25.664  28.593  1.00  0.00     0.029 A 
ATOM     47  C   UNL A   1      40.663  26.986  28.931  1.00  0.00     0.049 A 
ATOM     48  H   UNL A   1      42.616  27.691  28.659  1.00  0.00     0.167 HD
ATOM     49  C   UNL A   1      46.462  29.271  27.341  1.00  0.00     0.031 A 
ATOM     50  C   UNL A   1      40.023  28.028  29.520  1.00  0.00     0.031 A 
ATOM     51  C   UNL A   1      46.705  28.996  28.738  1.00  0.00     0.049 A 
ATOM     52  C   UNL A   1      41.066  28.905  30.094  1.00  0.00     0.074 A 
ATOM     53  C   UNL A   1      47.434  28.061  29.445  1.00  0.00     0.029 A 
ATOM     54  N   UNL A   1      45.795  29.520  29.624  1.00  0.00    -0.354 N 
ATOM     55  N   UNL A   1      41.821  28.560  31.095  1.00  0.00    -0.248 NA
ATOM     56  C   UNL A   1      41.551  30.012  29.290  1.00  0.00     0.031 C 
ATOM     57  C   UNL A   1      46.631  27.752  30.584  1.00  0.00     0.029 A 
ATOM     58  C   UNL A   1      45.497  28.567  30.555  1.00  0.00     0.049 A 
ATOM     59  H   UNL A   1      45.421  30.431  29.592  1.00  0.00     0.167 HD
ATOM     60  C   UNL A   1      43.067  29.075  30.779  1.00  0.00     0.074 A 
ATOM     61  C   UNL A   1      42.812  30.057  29.725  1.00  0.00     0.031 C 
ATOM     62  C   UNL A   1      44.207  28.449  31.199  1.00  0.00     0.031 A 
BRANCH  49  63
ATOM     63  C   UNL A   1      46.350  30.694  26.830  1.00  0.00    -0.014 A 
ATOM     64  C   UNL A   1      47.508  31.498  26.846  1.00  0.00     0.009 A 
ATOM     65  C   UNL A   1      45.129  31.363  26.632  1.00  0.00     0.009 A 
ATOM     66  C   UNL A   1      47.432  32.894  26.794  1.00  0.00     0.001 A 
ATOM     67  C   UNL A   1      45.054  32.756  26.537  1.00  0.00     0.001 A 
ATOM     68  C   UNL A   1      46.202  33.525  26.654  1.00  0.00     0.000 A 
ENDBRANCH  49  63
BRANCH  50  69
ATOM     69  C   UNL A   1      38.615  28.474  29.428  1.00  0.00    -0.014 A 
ATOM     70  C   UNL A   1      37.870  28.726  30.596  1.00  0.00     0.009 A 
ATOM     71  C   UNL A   1      38.104  28.962  28.213  1.00  0.00     0.009 A 
ATOM     72  C   UNL A   1      36.698  29.492  30.558  1.00  0.00     0.001 A 
ATOM     73  C   UNL A   1      36.928  29.723  28.175  1.00  0.00     0.001 A 
ATOM     74  C   UNL A   1      36.237  30.006  29.350  1.00  0.00     0.000 A 
ENDBRANCH  50  69
BRANCH  62  75
ATOM     75  C   UNL A   1      44.087  27.376  32.252  1.00  0.00    -0.014 A 
ATOM     76  C   UNL A   1      44.146  26.000  31.970  1.00  0.00     0.009 A 
ATOM     77  C   UNL A   1      44.093  27.782  33.595  1.00  0.00     0.009 A 
ATOM     78  C   UNL A   1      44.203  25.061  33.008  1.00  0.00     0.001 A 
ATOM     79  C   UNL A   1      44.173  26.848  34.628  1.00  0.00     0.001 A 
ATOM     80  C   UNL A   1      44.227  25.488  34.335  1.00  0.00     0.000 A 
ENDBRANCH  62  75
ENDBRANCH  36  37
ENDBRANCH  28  31
ENDBRANCH  26  27
ENDBRANCH  25  26
ENDBRANCH  24  25
ENDBRANCH   1  24
TORSDOF 16
ENDMDL
