MODEL 1
REMARK VINA RESULT:     -11.0      0.000      0.000
REMARK SMILES CC[C@@H](Nc1ccc([N+](=O)[O-])c(N)n1)C(=O)NCCCCNC(=O)c1ccc(-c2c3nc(c(-c4ccccc4)c4ccc([nH]4)c(-c4ccccc4)c4nc(c(-c5ccccc5)c5ccc2[nH]5)C=C4)C=C3)cc1
REMARK SMILES IDX 19 1 18 2 17 3 15 4 16 5 3 7 2 8 1 9 4 10 5 12 6 13 14 14
REMARK SMILES IDX 7 15 12 16 8 17 13 18 9 21 10 22 11 23 20 24 21 25 22 26
REMARK SMILES IDX 23 27 24 29 25 30 26 31 72 32 27 33 71 34 28 35 29 36 30 37
REMARK SMILES IDX 65 38 31 39 70 40 64 41 66 42 32 43 69 44 63 45 62 46 33 48
REMARK SMILES IDX 55 49 40 50 54 51 41 52 44 53 53 54 67 55 42 56 43 57 52 59
REMARK SMILES IDX 68 60 45 61 34 62 35 63 39 64 36 65 38 66 37 67 56 68 57 69
REMARK SMILES IDX 61 70 58 71 60 72 59 73 46 74 47 75 51 76 48 77 50 78 49 79
REMARK H PARENT 17 6 4 11 13 19 13 20 22 28 66 47 44 58
REMARK Flexibility Score: inf
ROOT
ATOM      1  C   UNL A   1      31.746  28.979  27.258  1.00  0.00     0.023 C 
ENDROOT
BRANCH   1   2
ATOM      2  C   UNL A   1      31.978  27.755  26.374  1.00  0.00     0.116 C 
BRANCH   2   3
ATOM      3  N   UNL A   1      31.058  26.680  26.690  1.00  0.00    -0.354 N 
ATOM      4  C   UNL A   1      30.263  25.911  25.888  1.00  0.00     0.242 C 
ATOM      5  O   UNL A   1      29.547  25.073  26.448  1.00  0.00    -0.273 OA
ATOM      6  H   UNL A   1      30.995  26.467  27.649  1.00  0.00     0.163 HD
BRANCH   4   7
ATOM      7  C   UNL A   1      30.244  26.057  24.350  1.00  0.00     0.169 C 
BRANCH   7   8
ATOM      8  C   UNL A   1      30.642  24.761  23.631  1.00  0.00     0.031 C 
ATOM      9  C   UNL A   1      32.005  24.234  24.062  1.00  0.00     0.006 C 
ENDBRANCH   7   8
BRANCH   7  10
ATOM     10  N   UNL A   1      28.949  26.549  23.896  1.00  0.00    -0.358 N 
ATOM     11  H   UNL A   1      28.196  25.922  23.995  1.00  0.00     0.162 HD
BRANCH  10  12
ATOM     12  C   UNL A   1      28.646  27.760  23.355  1.00  0.00     0.129 A 
ATOM     13  C   UNL A   1      27.412  28.385  23.440  1.00  0.00     0.054 A 
ATOM     14  N   UNL A   1      29.688  28.348  22.727  1.00  0.00    -0.208 NA
ATOM     15  C   UNL A   1      27.247  29.647  22.876  1.00  0.00     0.093 A 
ATOM     16  C   UNL A   1      29.541  29.572  22.167  1.00  0.00     0.204 A 
ATOM     17  C   UNL A   1      28.331  30.251  22.234  1.00  0.00     0.311 A 
BRANCH  16  18
ATOM     18  N   UNL A   1      30.707  30.086  21.639  1.00  0.00    -0.378 N 
ATOM     19  H   UNL A   1      31.551  29.588  21.732  1.00  0.00     0.158 HD
ATOM     20  H   UNL A   1      30.694  30.950  21.168  1.00  0.00     0.158 HD
ENDBRANCH  16  18
BRANCH  17  21
ATOM     21  N   UNL A   1      28.157  31.568  21.639  1.00  0.00     0.066 N 
ATOM     22  O   UNL A   1      28.275  31.682  20.408  1.00  0.00    -0.258 OA
ATOM     23  O   UNL A   1      27.863  32.503  22.398  1.00  0.00    -0.258 OA
ENDBRANCH  17  21
ENDBRANCH  10  12
ENDBRANCH   7  10
ENDBRANCH   4   7
ENDBRANCH   2   3
ENDBRANCH   1   2
BRANCH   1  24
ATOM     24  C   UNL A   1      31.862  30.323  26.539  1.00  0.00     0.023 C 
BRANCH  24  25
ATOM     25  C   UNL A   1      32.935  31.264  27.079  1.00  0.00     0.116 C 
BRANCH  25  26
ATOM     26  N   UNL A   1      32.440  32.605  27.351  1.00  0.00    -0.352 N 
ATOM     27  C   UNL A   1      33.017  33.605  28.098  1.00  0.00     0.251 C 
ATOM     28  H   UNL A   1      31.572  32.828  26.943  1.00  0.00     0.163 HD
ATOM     29  O   UNL A   1      32.412  34.649  28.317  1.00  0.00    -0.269 OA
BRANCH  27  30
ATOM     30  C   UNL A   1      34.360  33.392  28.675  1.00  0.00     0.039 A 
ATOM     31  C   UNL A   1      34.469  32.737  29.905  1.00  0.00     0.014 A 
ATOM     32  C   UNL A   1      35.503  33.785  27.975  1.00  0.00     0.014 A 
ATOM     33  C   UNL A   1      35.731  32.386  30.388  1.00  0.00     0.010 A 
ATOM     34  C   UNL A   1      36.756  33.385  28.430  1.00  0.00     0.010 A 
ATOM     35  C   UNL A   1      36.879  32.662  29.627  1.00  0.00    -0.014 A 
BRANCH  35  36
ATOM     36  C   UNL A   1      38.214  32.151  30.025  1.00  0.00     0.031 A 
ATOM     37  C   UNL A   1      38.714  30.840  29.488  1.00  0.00     0.074 A 
ATOM     38  C   UNL A   1      38.921  32.811  30.964  1.00  0.00     0.049 A 
ATOM     39  N   UNL A   1      39.786  30.169  29.825  1.00  0.00    -0.248 NA
ATOM     40  C   UNL A   1      37.892  30.189  28.456  1.00  0.00     0.031 C 
ATOM     41  C   UNL A   1      38.521  34.070  31.600  1.00  0.00     0.029 A 
ATOM     42  N   UNL A   1      40.113  32.499  31.569  1.00  0.00    -0.354 N 
ATOM     43  C   UNL A   1      39.751  29.004  29.070  1.00  0.00     0.074 A 
ATOM     44  C   UNL A   1      38.543  29.048  28.274  1.00  0.00     0.031 C 
ATOM     45  C   UNL A   1      39.451  34.420  32.503  1.00  0.00     0.029 A 
ATOM     46  C   UNL A   1      40.487  33.394  32.542  1.00  0.00     0.049 A 
ATOM     47  H   UNL A   1      40.648  31.708  31.329  1.00  0.00     0.167 HD
ATOM     48  C   UNL A   1      40.650  27.993  29.039  1.00  0.00     0.031 A 
ATOM     49  C   UNL A   1      41.532  33.379  33.390  1.00  0.00     0.031 A 
ATOM     50  C   UNL A   1      41.865  27.960  29.807  1.00  0.00     0.049 A 
ATOM     51  C   UNL A   1      42.509  32.238  33.338  1.00  0.00     0.074 A 
ATOM     52  C   UNL A   1      42.885  27.026  29.765  1.00  0.00     0.029 A 
ATOM     53  N   UNL A   1      42.219  28.899  30.763  1.00  0.00    -0.354 N 
ATOM     54  N   UNL A   1      42.509  31.190  32.551  1.00  0.00    -0.248 NA
ATOM     55  C   UNL A   1      43.629  32.280  34.290  1.00  0.00     0.031 C 
ATOM     56  C   UNL A   1      43.834  27.372  30.731  1.00  0.00     0.029 A 
ATOM     57  C   UNL A   1      43.424  28.544  31.346  1.00  0.00     0.049 A 
ATOM     58  H   UNL A   1      41.692  29.697  30.994  1.00  0.00     0.167 HD
ATOM     59  C   UNL A   1      43.635  30.457  32.902  1.00  0.00     0.074 A 
ATOM     60  C   UNL A   1      44.302  31.188  33.959  1.00  0.00     0.031 C 
ATOM     61  C   UNL A   1      44.073  29.280  32.396  1.00  0.00     0.031 A 
BRANCH  48  62
ATOM     62  C   UNL A   1      40.354  26.822  28.148  1.00  0.00    -0.014 A 
ATOM     63  C   UNL A   1      40.882  26.744  26.850  1.00  0.00     0.009 A 
ATOM     64  C   UNL A   1      39.590  25.752  28.639  1.00  0.00     0.009 A 
ATOM     65  C   UNL A   1      40.631  25.624  26.052  1.00  0.00     0.001 A 
ATOM     66  C   UNL A   1      39.360  24.625  27.848  1.00  0.00     0.001 A 
ATOM     67  C   UNL A   1      39.875  24.564  26.554  1.00  0.00     0.000 A 
ENDBRANCH  48  62
BRANCH  49  68
ATOM     68  C   UNL A   1      41.702  34.468  34.387  1.00  0.00    -0.014 A 
ATOM     69  C   UNL A   1      42.478  35.597  34.083  1.00  0.00     0.009 A 
ATOM     70  C   UNL A   1      41.106  34.374  35.654  1.00  0.00     0.009 A 
ATOM     71  C   UNL A   1      42.677  36.596  35.040  1.00  0.00     0.001 A 
ATOM     72  C   UNL A   1      41.286  35.385  36.598  1.00  0.00     0.001 A 
ATOM     73  C   UNL A   1      42.080  36.490  36.294  1.00  0.00     0.000 A 
ENDBRANCH  49  68
BRANCH  61  74
ATOM     74  C   UNL A   1      45.342  28.717  32.965  1.00  0.00    -0.014 A 
ATOM     75  C   UNL A   1      45.313  27.814  34.038  1.00  0.00     0.009 A 
ATOM     76  C   UNL A   1      46.577  29.057  32.391  1.00  0.00     0.009 A 
ATOM     77  C   UNL A   1      46.500  27.277  34.539  1.00  0.00     0.001 A 
ATOM     78  C   UNL A   1      47.759  28.501  32.878  1.00  0.00     0.001 A 
ATOM     79  C   UNL A   1      47.721  27.616  33.956  1.00  0.00     0.000 A 
ENDBRANCH  61  74
ENDBRANCH  35  36
ENDBRANCH  27  30
ENDBRANCH  25  26
ENDBRANCH  24  25
ENDBRANCH   1  24
TORSDOF 16
ENDMDL
MODEL 2
REMARK VINA RESULT:     -10.9      4.799      9.736
REMARK SMILES CC[C@@H](Nc1ccc([N+](=O)[O-])c(N)n1)C(=O)NCCCCNC(=O)c1ccc(-c2c3nc(c(-c4ccccc4)c4ccc([nH]4)c(-c4ccccc4)c4nc(c(-c5ccccc5)c5ccc2[nH]5)C=C4)C=C3)cc1
REMARK SMILES IDX 19 1 18 2 17 3 15 4 16 5 3 7 2 8 1 9 4 10 5 12 6 13 14 14
REMARK SMILES IDX 7 15 12 16 8 17 13 18 9 21 10 22 11 23 20 24 21 25 22 26
REMARK SMILES IDX 23 27 24 29 25 30 26 31 72 32 27 33 71 34 28 35 29 36 30 37
REMARK SMILES IDX 65 38 31 39 70 40 64 41 66 42 32 43 69 44 63 45 62 46 33 48
REMARK SMILES IDX 55 49 40 50 54 51 41 52 44 53 53 54 67 55 42 56 43 57 52 59
REMARK SMILES IDX 68 60 45 61 34 62 35 63 39 64 36 65 38 66 37 67 56 68 57 69
REMARK SMILES IDX 61 70 58 71 60 72 59 73 46 74 47 75 51 76 48 77 50 78 49 79
REMARK H PARENT 17 6 4 11 13 19 13 20 22 28 66 47 44 58
REMARK Flexibility Score: inf
ROOT
ATOM      1  C   UNL A   1      36.819  22.236  24.055  1.00  0.00     0.023 C 
ENDROOT
BRANCH   1   2
ATOM      2  C   UNL A   1      35.348  22.574  24.296  1.00  0.00     0.116 C 
BRANCH   2   3
ATOM      3  N   UNL A   1      34.741  23.193  23.134  1.00  0.00    -0.354 N 
ATOM      4  C   UNL A   1      33.463  23.148  22.655  1.00  0.00     0.242 C 
ATOM      5  O   UNL A   1      33.236  23.763  21.607  1.00  0.00    -0.273 OA
ATOM      6  H   UNL A   1      35.357  23.743  22.597  1.00  0.00     0.163 HD
BRANCH   4   7
ATOM      7  C   UNL A   1      32.333  22.375  23.371  1.00  0.00     0.169 C 
BRANCH   7   8
ATOM      8  C   UNL A   1      31.047  23.202  23.503  1.00  0.00     0.031 C 
ATOM      9  C   UNL A   1      31.102  24.215  24.639  1.00  0.00     0.006 C 
ENDBRANCH   7   8
BRANCH   7  10
ATOM     10  N   UNL A   1      32.087  21.098  22.715  1.00  0.00    -0.358 N 
ATOM     11  H   UNL A   1      31.704  21.149  21.809  1.00  0.00     0.162 HD
BRANCH  10  12
ATOM     12  C   UNL A   1      32.318  19.843  23.191  1.00  0.00     0.129 A 
ATOM     13  C   UNL A   1      32.448  18.706  22.410  1.00  0.00     0.054 A 
ATOM     14  N   UNL A   1      32.445  19.789  24.535  1.00  0.00    -0.208 NA
ATOM     15  C   UNL A   1      32.726  17.487  23.022  1.00  0.00     0.093 A 
ATOM     16  C   UNL A   1      32.707  18.610  25.146  1.00  0.00     0.204 A 
ATOM     17  C   UNL A   1      32.862  17.441  24.411  1.00  0.00     0.311 A 
BRANCH  16  18
ATOM     18  N   UNL A   1      32.896  18.719  26.507  1.00  0.00    -0.378 N 
ATOM     19  H   UNL A   1      32.346  18.186  27.125  1.00  0.00     0.158 HD
ATOM     20  H   UNL A   1      33.583  19.329  26.861  1.00  0.00     0.158 HD
ENDBRANCH  16  18
BRANCH  17  21
ATOM     21  N   UNL A   1      33.146  16.165  25.053  1.00  0.00     0.066 N 
ATOM     22  O   UNL A   1      32.493  15.851  26.062  1.00  0.00    -0.258 OA
ATOM     23  O   UNL A   1      34.008  15.443  24.529  1.00  0.00    -0.258 OA
ENDBRANCH  17  21
ENDBRANCH  10  12
ENDBRANCH   7  10
ENDBRANCH   4   7
ENDBRANCH   2   3
ENDBRANCH   1   2
BRANCH   1  24
ATOM     24  C   UNL A   1      37.306  20.959  24.742  1.00  0.00     0.023 C 
BRANCH  24  25
ATOM     25  C   UNL A   1      38.552  21.116  25.608  1.00  0.00     0.116 C 
BRANCH  25  26
ATOM     26  N   UNL A   1      39.413  19.943  25.594  1.00  0.00    -0.352 N 
ATOM     27  C   UNL A   1      40.725  19.829  25.990  1.00  0.00     0.251 C 
ATOM     28  H   UNL A   1      38.999  19.116  25.255  1.00  0.00     0.163 HD
ATOM     29  O   UNL A   1      41.342  18.784  25.812  1.00  0.00    -0.269 OA
BRANCH  27  30
ATOM     30  C   UNL A   1      41.402  20.995  26.593  1.00  0.00     0.039 A 
ATOM     31  C   UNL A   1      42.006  21.933  25.752  1.00  0.00     0.014 A 
ATOM     32  C   UNL A   1      41.385  21.187  27.977  1.00  0.00     0.014 A 
ATOM     33  C   UNL A   1      42.510  23.117  26.292  1.00  0.00     0.010 A 
ATOM     34  C   UNL A   1      41.836  22.393  28.505  1.00  0.00     0.010 A 
ATOM     35  C   UNL A   1      42.381  23.378  27.666  1.00  0.00    -0.014 A 
BRANCH  35  36
ATOM     36  C   UNL A   1      42.745  24.695  28.243  1.00  0.00     0.031 A 
ATOM     37  C   UNL A   1      41.693  25.744  28.459  1.00  0.00     0.074 A 
ATOM     38  C   UNL A   1      44.044  24.984  28.460  1.00  0.00     0.049 A 
ATOM     39  N   UNL A   1      41.839  26.994  28.820  1.00  0.00    -0.248 NA
ATOM     40  C   UNL A   1      40.298  25.346  28.214  1.00  0.00     0.031 C 
ATOM     41  C   UNL A   1      45.166  24.067  28.244  1.00  0.00     0.029 A 
ATOM     42  N   UNL A   1      44.642  26.145  28.884  1.00  0.00    -0.354 N 
ATOM     43  C   UNL A   1      40.562  27.538  28.817  1.00  0.00     0.074 A 
ATOM     44  C   UNL A   1      39.654  26.492  28.396  1.00  0.00     0.031 C 
ATOM     45  C   UNL A   1      46.313  24.700  28.537  1.00  0.00     0.029 A 
ATOM     46  C   UNL A   1      46.014  26.076  28.918  1.00  0.00     0.049 A 
ATOM     47  H   UNL A   1      44.135  26.951  29.138  1.00  0.00     0.167 HD
ATOM     48  C   UNL A   1      40.180  28.795  29.142  1.00  0.00     0.031 A 
ATOM     49  C   UNL A   1      46.931  27.020  29.199  1.00  0.00     0.031 A 
ATOM     50  C   UNL A   1      41.076  29.827  29.587  1.00  0.00     0.049 A 
ATOM     51  C   UNL A   1      46.477  28.410  29.548  1.00  0.00     0.074 A 
ATOM     52  C   UNL A   1      40.767  31.100  30.036  1.00  0.00     0.029 A 
ATOM     53  N   UNL A   1      42.455  29.709  29.631  1.00  0.00    -0.354 N 
ATOM     54  N   UNL A   1      45.257  28.881  29.629  1.00  0.00    -0.248 NA
ATOM     55  C   UNL A   1      47.527  29.396  29.844  1.00  0.00     0.031 C 
ATOM     56  C   UNL A   1      41.964  31.770  30.304  1.00  0.00     0.029 A 
ATOM     57  C   UNL A   1      43.015  30.900  30.063  1.00  0.00     0.049 A 
ATOM     58  H   UNL A   1      42.962  28.900  29.391  1.00  0.00     0.167 HD
ATOM     59  C   UNL A   1      45.392  30.212  30.001  1.00  0.00     0.074 A 
ATOM     60  C   UNL A   1      46.809  30.468  30.146  1.00  0.00     0.031 C 
ATOM     61  C   UNL A   1      44.426  31.140  30.200  1.00  0.00     0.031 A 
BRANCH  48  62
ATOM     62  C   UNL A   1      38.723  29.135  29.021  1.00  0.00    -0.014 A 
ATOM     63  C   UNL A   1      37.878  29.122  30.141  1.00  0.00     0.009 A 
ATOM     64  C   UNL A   1      38.206  29.541  27.781  1.00  0.00     0.009 A 
ATOM     65  C   UNL A   1      36.535  29.486  30.015  1.00  0.00     0.001 A 
ATOM     66  C   UNL A   1      36.869  29.926  27.662  1.00  0.00     0.001 A 
ATOM     67  C   UNL A   1      36.034  29.893  28.778  1.00  0.00     0.000 A 
ENDBRANCH  48  62
BRANCH  49  68
ATOM     68  C   UNL A   1      48.380  26.697  29.136  1.00  0.00    -0.014 A 
ATOM     69  C   UNL A   1      49.063  26.725  27.912  1.00  0.00     0.009 A 
ATOM     70  C   UNL A   1      49.080  26.339  30.298  1.00  0.00     0.009 A 
ATOM     71  C   UNL A   1      50.414  26.371  27.849  1.00  0.00     0.001 A 
ATOM     72  C   UNL A   1      50.436  26.012  30.236  1.00  0.00     0.001 A 
ATOM     73  C   UNL A   1      51.099  26.018  29.009  1.00  0.00     0.000 A 
ENDBRANCH  49  68
BRANCH  61  74
ATOM     74  C   UNL A   1      44.867  32.514  30.612  1.00  0.00    -0.014 A 
ATOM     75  C   UNL A   1      45.068  33.523  29.658  1.00  0.00     0.009 A 
ATOM     76  C   UNL A   1      45.037  32.814  31.972  1.00  0.00     0.009 A 
ATOM     77  C   UNL A   1      45.452  34.804  30.060  1.00  0.00     0.001 A 
ATOM     78  C   UNL A   1      45.396  34.101  32.372  1.00  0.00     0.001 A 
ATOM     79  C   UNL A   1      45.610  35.093  31.415  1.00  0.00     0.000 A 
ENDBRANCH  61  74
ENDBRANCH  35  36
ENDBRANCH  27  30
ENDBRANCH  25  26
ENDBRANCH  24  25
ENDBRANCH   1  24
TORSDOF 16
ENDMDL
MODEL 3
REMARK VINA RESULT:     -10.9      4.575      9.495
REMARK SMILES CC[C@@H](Nc1ccc([N+](=O)[O-])c(N)n1)C(=O)NCCCCNC(=O)c1ccc(-c2c3nc(c(-c4ccccc4)c4ccc([nH]4)c(-c4ccccc4)c4nc(c(-c5ccccc5)c5ccc2[nH]5)C=C4)C=C3)cc1
REMARK SMILES IDX 19 1 18 2 17 3 15 4 16 5 3 7 2 8 1 9 4 10 5 12 6 13 14 14
REMARK SMILES IDX 7 15 12 16 8 17 13 18 9 21 10 22 11 23 20 24 21 25 22 26
REMARK SMILES IDX 23 27 24 29 25 30 26 31 72 32 27 33 71 34 28 35 29 36 30 37
REMARK SMILES IDX 65 38 31 39 70 40 64 41 66 42 32 43 69 44 63 45 62 46 33 48
REMARK SMILES IDX 55 49 40 50 54 51 41 52 44 53 53 54 67 55 42 56 43 57 52 59
REMARK SMILES IDX 68 60 45 61 34 62 35 63 39 64 36 65 38 66 37 67 56 68 57 69
REMARK SMILES IDX 61 70 58 71 60 72 59 73 46 74 47 75 51 76 48 77 50 78 49 79
REMARK H PARENT 17 6 4 11 13 19 13 20 22 28 66 47 44 58
REMARK Flexibility Score: inf
ROOT
ATOM      1  C   UNL A   1      35.940  21.278  25.562  1.00  0.00     0.023 C 
ENDROOT
BRANCH   1   2
ATOM      2  C   UNL A   1      35.695  22.759  25.279  1.00  0.00     0.116 C 
BRANCH   2   3
ATOM      3  N   UNL A   1      35.287  22.985  23.906  1.00  0.00    -0.354 N 
ATOM      4  C   UNL A   1      34.050  23.011  23.329  1.00  0.00     0.242 C 
ATOM      5  O   UNL A   1      34.006  23.202  22.108  1.00  0.00    -0.273 OA
ATOM      6  H   UNL A   1      36.030  23.148  23.282  1.00  0.00     0.163 HD
BRANCH   4   7
ATOM      7  C   UNL A   1      32.748  22.819  24.139  1.00  0.00     0.169 C 
BRANCH   7   8
ATOM      8  C   UNL A   1      31.909  24.101  24.218  1.00  0.00     0.031 C 
ATOM      9  C   UNL A   1      30.676  24.064  23.325  1.00  0.00     0.006 C 
ENDBRANCH   7   8
BRANCH   7  10
ATOM     10  N   UNL A   1      31.976  21.701  23.613  1.00  0.00    -0.358 N 
ATOM     11  H   UNL A   1      31.171  21.941  23.099  1.00  0.00     0.162 HD
BRANCH  10  12
ATOM     12  C   UNL A   1      32.222  20.367  23.740  1.00  0.00     0.129 A 
ATOM     13  C   UNL A   1      32.341  19.475  22.687  1.00  0.00     0.054 A 
ATOM     14  N   UNL A   1      32.376  19.966  25.021  1.00  0.00    -0.208 NA
ATOM     15  C   UNL A   1      32.636  18.141  22.955  1.00  0.00     0.093 A 
ATOM     16  C   UNL A   1      32.655  18.671  25.298  1.00  0.00     0.204 A 
ATOM     17  C   UNL A   1      32.800  17.735  24.281  1.00  0.00     0.311 A 
BRANCH  16  18
ATOM     18  N   UNL A   1      32.872  18.422  26.637  1.00  0.00    -0.378 N 
ATOM     19  H   UNL A   1      32.222  17.890  27.150  1.00  0.00     0.158 HD
ATOM     20  H   UNL A   1      33.678  18.775  27.078  1.00  0.00     0.158 HD
ENDBRANCH  16  18
BRANCH  17  21
ATOM     21  N   UNL A   1      33.103  16.339  24.562  1.00  0.00     0.066 N 
ATOM     22  O   UNL A   1      34.050  15.805  23.961  1.00  0.00    -0.258 OA
ATOM     23  O   UNL A   1      32.413  15.767  25.420  1.00  0.00    -0.258 OA
ENDBRANCH  17  21
ENDBRANCH  10  12
ENDBRANCH   7  10
ENDBRANCH   4   7
ENDBRANCH   2   3
ENDBRANCH   1   2
BRANCH   1  24
ATOM     24  C   UNL A   1      37.193  20.697  24.906  1.00  0.00     0.023 C 
BRANCH  24  25
ATOM     25  C   UNL A   1      38.505  20.983  25.631  1.00  0.00     0.116 C 
BRANCH  25  26
ATOM     26  N   UNL A   1      39.411  19.845  25.651  1.00  0.00    -0.352 N 
ATOM     27  C   UNL A   1      40.734  19.799  26.025  1.00  0.00     0.251 C 
ATOM     28  H   UNL A   1      39.024  18.989  25.357  1.00  0.00     0.163 HD
ATOM     29  O   UNL A   1      41.388  18.772  25.880  1.00  0.00    -0.269 OA
BRANCH  27  30
ATOM     30  C   UNL A   1      41.375  21.016  26.563  1.00  0.00     0.039 A 
ATOM     31  C   UNL A   1      42.036  21.875  25.682  1.00  0.00     0.014 A 
ATOM     32  C   UNL A   1      41.270  21.332  27.920  1.00  0.00     0.014 A 
ATOM     33  C   UNL A   1      42.509  23.105  26.144  1.00  0.00     0.010 A 
ATOM     34  C   UNL A   1      41.691  22.581  28.366  1.00  0.00     0.010 A 
ATOM     35  C   UNL A   1      42.292  23.487  27.478  1.00  0.00    -0.014 A 
BRANCH  35  36
ATOM     36  C   UNL A   1      42.623  24.851  27.957  1.00  0.00     0.031 A 
ATOM     37  C   UNL A   1      44.013  25.173  28.427  1.00  0.00     0.074 A 
ATOM     38  C   UNL A   1      41.639  25.765  28.080  1.00  0.00     0.049 A 
ATOM     39  N   UNL A   1      44.454  26.261  29.006  1.00  0.00    -0.248 NA
ATOM     40  C   UNL A   1      45.033  24.128  28.246  1.00  0.00     0.031 C 
ATOM     41  C   UNL A   1      40.238  25.560  27.703  1.00  0.00     0.029 A 
ATOM     42  N   UNL A   1      41.663  27.042  28.583  1.00  0.00    -0.354 N 
ATOM     43  C   UNL A   1      45.793  26.021  29.285  1.00  0.00     0.074 A 
ATOM     44  C   UNL A   1      46.088  24.677  28.834  1.00  0.00     0.031 C 
ATOM     45  C   UNL A   1      39.540  26.671  27.988  1.00  0.00     0.029 A 
ATOM     46  C   UNL A   1      40.430  27.647  28.606  1.00  0.00     0.049 A 
ATOM     47  H   UNL A   1      42.486  27.482  28.899  1.00  0.00     0.167 HD
ATOM     48  C   UNL A   1      46.697  26.849  29.858  1.00  0.00     0.031 A 
ATOM     49  C   UNL A   1      40.051  28.844  29.093  1.00  0.00     0.031 A 
ATOM     50  C   UNL A   1      46.414  28.194  30.281  1.00  0.00     0.049 A 
ATOM     51  C   UNL A   1      41.075  29.738  29.733  1.00  0.00     0.074 A 
ATOM     52  C   UNL A   1      47.291  29.142  30.779  1.00  0.00     0.029 A 
ATOM     53  N   UNL A   1      45.157  28.778  30.264  1.00  0.00    -0.354 N 
ATOM     54  N   UNL A   1      42.358  29.531  29.904  1.00  0.00    -0.248 NA
ATOM     55  C   UNL A   1      40.598  31.031  30.245  1.00  0.00     0.031 C 
ATOM     56  C   UNL A   1      46.556  30.284  31.111  1.00  0.00     0.029 A 
ATOM     57  C   UNL A   1      45.229  30.061  30.780  1.00  0.00     0.049 A 
ATOM     58  H   UNL A   1      44.337  28.345  29.935  1.00  0.00     0.167 HD
ATOM     59  C   UNL A   1      42.844  30.672  30.528  1.00  0.00     0.074 A 
ATOM     60  C   UNL A   1      41.723  31.574  30.690  1.00  0.00     0.031 C 
ATOM     61  C   UNL A   1      44.106  30.945  30.935  1.00  0.00     0.031 A 
BRANCH  48  62
ATOM     62  C   UNL A   1      48.086  26.324  30.076  1.00  0.00    -0.014 A 
ATOM     63  C   UNL A   1      49.073  26.449  29.086  1.00  0.00     0.009 A 
ATOM     64  C   UNL A   1      48.428  25.759  31.314  1.00  0.00     0.009 A 
ATOM     65  C   UNL A   1      50.373  25.994  29.326  1.00  0.00     0.001 A 
ATOM     66  C   UNL A   1      49.733  25.326  31.558  1.00  0.00     0.001 A 
ATOM     67  C   UNL A   1      50.702  25.439  30.562  1.00  0.00     0.000 A 
ENDBRANCH  48  62
BRANCH  49  68
ATOM     68  C   UNL A   1      38.627  29.263  29.022  1.00  0.00    -0.014 A 
ATOM     69  C   UNL A   1      38.114  29.845  27.854  1.00  0.00     0.009 A 
ATOM     70  C   UNL A   1      37.781  29.101  30.130  1.00  0.00     0.009 A 
ATOM     71  C   UNL A   1      36.788  30.285  27.808  1.00  0.00     0.001 A 
ATOM     72  C   UNL A   1      36.450  29.517  30.071  1.00  0.00     0.001 A 
ATOM     73  C   UNL A   1      35.958  30.118  28.914  1.00  0.00     0.000 A 
ENDBRANCH  49  68
BRANCH  61  74
ATOM     74  C   UNL A   1      44.347  32.278  31.579  1.00  0.00    -0.014 A 
ATOM     75  C   UNL A   1      44.658  33.407  30.806  1.00  0.00     0.009 A 
ATOM     76  C   UNL A   1      44.214  32.417  32.969  1.00  0.00     0.009 A 
ATOM     77  C   UNL A   1      44.852  34.647  31.418  1.00  0.00     0.001 A 
ATOM     78  C   UNL A   1      44.385  33.662  33.575  1.00  0.00     0.001 A 
ATOM     79  C   UNL A   1      44.710  34.775  32.799  1.00  0.00     0.000 A 
ENDBRANCH  61  74
ENDBRANCH  35  36
ENDBRANCH  27  30
ENDBRANCH  25  26
ENDBRANCH  24  25
ENDBRANCH   1  24
TORSDOF 16
ENDMDL
