MODEL 1
REMARK VINA RESULT:     -12.1      0.000      0.000
REMARK SMILES Cc1ccc(NC(=O)C[C@H]2C(=O)NCCN2C(=O)CCC(=O)NCCCCNC(=O)c2ccc(-c3c4nc(c(-c5ccccc5)c5ccc([nH]5)c(-c5ccccc5)c5nc(c(-c6ccccc6)c6ccc3[nH]6)C=C5)C=C4)cc2)c(C)c1
REMARK SMILES IDX 21 1 22 2 23 3 20 5 19 6 17 7 18 8 16 9 10 10 11 11 12 12
REMARK SMILES IDX 13 13 15 14 14 15 9 17 7 18 6 19 8 21 5 22 1 23 2 24 3 25
REMARK SMILES IDX 81 26 4 27 79 28 80 29 24 30 25 31 26 32 27 33 28 34 29 35
REMARK SMILES IDX 30 37 31 38 32 39 78 40 33 41 77 42 34 43 35 44 36 45 71 46
REMARK SMILES IDX 37 47 76 48 70 49 72 50 38 51 75 52 69 53 68 54 39 56 61 57
REMARK SMILES IDX 46 58 60 59 47 60 50 61 59 62 73 63 48 64 49 65 58 67 74 68
REMARK SMILES IDX 51 69 40 70 41 71 45 72 42 73 44 74 43 75 62 76 63 77 67 78
REMARK SMILES IDX 64 79 66 80 65 81 52 82 53 83 57 84 54 85 56 86 55 87
REMARK H PARENT 23 4 13 16 6 20 28 36 72 55 50 66
REMARK Flexibility Score: inf
ROOT
ATOM      1  C   UNL A   1      34.411  30.174  27.596  1.00  0.00     0.220 C 
ATOM      2  O   UNL A   1      35.115  29.250  27.239  1.00  0.00    -0.275 OA
ATOM      3  N   UNL A   1      34.924  31.137  28.426  1.00  0.00    -0.356 N 
ATOM      4  H   UNL A   1      35.864  30.969  28.668  1.00  0.00     0.163 HD
ENDROOT
BRANCH   1   5
ATOM      5  C   UNL A   1      32.975  30.257  27.202  1.00  0.00     0.110 C 
BRANCH   5   6
ATOM      6  C   UNL A   1      32.800  29.664  25.827  1.00  0.00     0.110 C 
BRANCH   6   7
ATOM      7  C   UNL A   1      32.061  28.361  25.854  1.00  0.00     0.223 C 
ATOM      8  O   UNL A   1      31.620  27.993  26.956  1.00  0.00    -0.275 OA
BRANCH   7   9
ATOM      9  N   UNL A   1      31.881  27.559  24.710  1.00  0.00    -0.328 N 
ATOM     10  C   UNL A   1      32.720  26.345  24.180  1.00  0.00     0.183 C 
ATOM     11  C   UNL A   1      32.971  26.553  22.647  1.00  0.00     0.243 C 
ATOM     12  O   UNL A   1      33.838  25.926  22.038  1.00  0.00    -0.273 OA
ATOM     13  N   UNL A   1      32.160  27.380  21.921  1.00  0.00    -0.353 N 
ATOM     14  C   UNL A   1      30.881  28.228  23.860  1.00  0.00     0.141 C 
ATOM     15  C   UNL A   1      30.943  27.994  22.372  1.00  0.00     0.137 C 
ATOM     16  H   UNL A   1      32.439  27.575  20.998  1.00  0.00     0.163 HD
BRANCH  10  17
ATOM     17  C   UNL A   1      32.570  24.610  24.422  1.00  0.00     0.135 C 
BRANCH  17  18
ATOM     18  C   UNL A   1      32.412  23.215  25.410  1.00  0.00     0.227 C 
ATOM     19  N   UNL A   1      32.623  21.841  25.420  1.00  0.00    -0.326 N 
ATOM     20  H   UNL A   1      32.256  21.491  26.263  1.00  0.00     0.169 HD
ATOM     21  O   UNL A   1      31.894  23.514  26.521  1.00  0.00    -0.275 OA
BRANCH  19  22
ATOM     22  C   UNL A   1      33.166  20.727  24.684  1.00  0.00     0.044 A 
ATOM     23  C   UNL A   1      33.692  16.535  24.057  1.00  0.00     0.044 C 
ATOM     24  C   UNL A   1      33.677  18.039  23.908  1.00  0.00    -0.051 A 
ATOM     25  C   UNL A   1      32.546  18.706  23.431  1.00  0.00     0.005 A 
ATOM     26  C   UNL A   1      34.685  18.822  24.489  1.00  0.00     0.009 A 
ATOM     27  C   UNL A   1      32.340  20.075  23.741  1.00  0.00     0.026 A 
ATOM     28  C   UNL A   1      34.445  20.175  24.871  1.00  0.00    -0.027 A 
ATOM     29  C   UNL A   1      35.584  20.955  25.453  1.00  0.00     0.046 C 
ENDBRANCH  19  22
ENDBRANCH  17  18
ENDBRANCH  10  17
ENDBRANCH   7   9
ENDBRANCH   6   7
ENDBRANCH   5   6
ENDBRANCH   1   5
BRANCH   3  30
ATOM     30  C   UNL A   1      34.384  32.375  29.042  1.00  0.00     0.116 C 
BRANCH  30  31
ATOM     31  C   UNL A   1      33.878  33.757  28.353  1.00  0.00     0.023 C 
BRANCH  31  32
ATOM     32  C   UNL A   1      32.855  34.886  28.695  1.00  0.00     0.023 C 
BRANCH  32  33
ATOM     33  C   UNL A   1      33.299  36.177  29.427  1.00  0.00     0.116 C 
BRANCH  33  34
ATOM     34  N   UNL A   1      32.550  36.448  30.637  1.00  0.00    -0.352 N 
ATOM     35  C   UNL A   1      32.735  36.012  31.930  1.00  0.00     0.251 C 
ATOM     36  H   UNL A   1      31.777  37.046  30.515  1.00  0.00     0.163 HD
ATOM     37  O   UNL A   1      31.907  36.342  32.778  1.00  0.00    -0.269 OA
BRANCH  35  38
ATOM     38  C   UNL A   1      33.863  35.126  32.335  1.00  0.00     0.039 A 
ATOM     39  C   UNL A   1      35.163  35.638  32.228  1.00  0.00     0.014 A 
ATOM     40  C   UNL A   1      33.696  33.801  32.748  1.00  0.00     0.014 A 
ATOM     41  C   UNL A   1      36.272  34.856  32.578  1.00  0.00     0.010 A 
ATOM     42  C   UNL A   1      34.802  33.044  33.168  1.00  0.00     0.010 A 
ATOM     43  C   UNL A   1      36.108  33.555  33.083  1.00  0.00    -0.014 A 
BRANCH  43  44
ATOM     44  C   UNL A   1      37.302  32.761  33.511  1.00  0.00     0.031 A 
ATOM     45  C   UNL A   1      37.944  31.747  32.594  1.00  0.00     0.074 A 
ATOM     46  C   UNL A   1      37.826  32.952  34.740  1.00  0.00     0.049 A 
ATOM     47  N   UNL A   1      39.049  31.061  32.765  1.00  0.00    -0.248 NA
ATOM     48  C   UNL A   1      37.244  31.442  31.338  1.00  0.00     0.031 C 
ATOM     49  C   UNL A   1      37.273  33.836  35.768  1.00  0.00     0.029 A 
ATOM     50  N   UNL A   1      38.956  32.433  35.330  1.00  0.00    -0.354 N 
ATOM     51  C   UNL A   1      39.168  30.241  31.648  1.00  0.00     0.074 A 
ATOM     52  C   UNL A   1      37.989  30.468  30.839  1.00  0.00     0.031 C 
ATOM     53  C   UNL A   1      38.094  33.848  36.831  1.00  0.00     0.029 A 
ATOM     54  C   UNL A   1      39.218  32.955  36.575  1.00  0.00     0.049 A 
ATOM     55  H   UNL A   1      39.522  31.751  34.901  1.00  0.00     0.167 HD
ATOM     56  C   UNL A   1      40.172  29.398  31.303  1.00  0.00     0.031 A 
ATOM     57  C   UNL A   1      40.260  32.763  37.409  1.00  0.00     0.031 A 
ATOM     58  C   UNL A   1      41.352  29.172  32.095  1.00  0.00     0.049 A 
ATOM     59  C   UNL A   1      41.385  31.858  36.989  1.00  0.00     0.074 A 
ATOM     60  C   UNL A   1      42.454  28.385  31.803  1.00  0.00     0.029 A 
ATOM     61  N   UNL A   1      41.584  29.735  33.340  1.00  0.00    -0.354 N 
ATOM     62  N   UNL A   1      41.527  31.174  35.879  1.00  0.00    -0.248 NA
ATOM     63  C   UNL A   1      42.510  31.724  37.926  1.00  0.00     0.031 C 
ATOM     64  C   UNL A   1      43.333  28.439  32.891  1.00  0.00     0.029 A 
ATOM     65  C   UNL A   1      42.804  29.305  33.834  1.00  0.00     0.049 A 
ATOM     66  H   UNL A   1      40.972  30.351  33.803  1.00  0.00     0.167 HD
ATOM     67  C   UNL A   1      42.766  30.551  35.974  1.00  0.00     0.074 A 
ATOM     68  C   UNL A   1      43.345  30.960  37.236  1.00  0.00     0.031 C 
ATOM     69  C   UNL A   1      43.369  29.715  35.094  1.00  0.00     0.031 A 
BRANCH  56  70
ATOM     70  C   UNL A   1      40.035  28.659  29.996  1.00  0.00    -0.014 A 
ATOM     71  C   UNL A   1      40.467  29.236  28.790  1.00  0.00     0.009 A 
ATOM     72  C   UNL A   1      39.489  27.367  29.970  1.00  0.00     0.009 A 
ATOM     73  C   UNL A   1      40.307  28.555  27.580  1.00  0.00     0.001 A 
ATOM     74  C   UNL A   1      39.360  26.676  28.763  1.00  0.00     0.001 A 
ATOM     75  C   UNL A   1      39.756  27.274  27.568  1.00  0.00     0.000 A 
ENDBRANCH  56  70
BRANCH  57  76
ATOM     76  C   UNL A   1      40.324  33.489  38.706  1.00  0.00    -0.014 A 
ATOM     77  C   UNL A   1      39.732  32.945  39.857  1.00  0.00     0.009 A 
ATOM     78  C   UNL A   1      40.963  34.735  38.800  1.00  0.00     0.009 A 
ATOM     79  C   UNL A   1      39.752  33.646  41.066  1.00  0.00     0.001 A 
ATOM     80  C   UNL A   1      41.008  35.420  40.018  1.00  0.00     0.001 A 
ATOM     81  C   UNL A   1      40.393  34.880  41.146  1.00  0.00     0.000 A 
ENDBRANCH  57  76
BRANCH  69  82
ATOM     82  C   UNL A   1      44.741  29.217  35.454  1.00  0.00    -0.014 A 
ATOM     83  C   UNL A   1      44.922  28.027  36.178  1.00  0.00     0.009 A 
ATOM     84  C   UNL A   1      45.872  29.943  35.046  1.00  0.00     0.009 A 
ATOM     85  C   UNL A   1      46.205  27.602  36.527  1.00  0.00     0.001 A 
ATOM     86  C   UNL A   1      47.155  29.498  35.370  1.00  0.00     0.001 A 
ATOM     87  C   UNL A   1      47.320  28.335  36.121  1.00  0.00     0.000 A 
ENDBRANCH  69  82
ENDBRANCH  43  44
ENDBRANCH  35  38
ENDBRANCH  33  34
ENDBRANCH  32  33
ENDBRANCH  31  32
ENDBRANCH  30  31
ENDBRANCH   3  30
TORSDOF 17
ENDMDL
MODEL 2
REMARK VINA RESULT:     -11.9      3.287      9.884
REMARK SMILES Cc1ccc(NC(=O)C[C@H]2C(=O)NCCN2C(=O)CCC(=O)NCCCCNC(=O)c2ccc(-c3c4nc(c(-c5ccccc5)c5ccc([nH]5)c(-c5ccccc5)c5nc(c(-c6ccccc6)c6ccc3[nH]6)C=C5)C=C4)cc2)c(C)c1
REMARK SMILES IDX 21 1 22 2 23 3 20 5 19 6 17 7 18 8 16 9 10 10 11 11 12 12
REMARK SMILES IDX 13 13 15 14 14 15 9 17 7 18 6 19 8 21 5 22 1 23 2 24 3 25
REMARK SMILES IDX 81 26 4 27 79 28 80 29 24 30 25 31 26 32 27 33 28 34 29 35
REMARK SMILES IDX 30 37 31 38 32 39 78 40 33 41 77 42 34 43 35 44 36 45 71 46
REMARK SMILES IDX 37 47 76 48 70 49 72 50 38 51 75 52 69 53 68 54 39 56 61 57
REMARK SMILES IDX 46 58 60 59 47 60 50 61 59 62 73 63 48 64 49 65 58 67 74 68
REMARK SMILES IDX 51 69 40 70 41 71 45 72 42 73 44 74 43 75 62 76 63 77 67 78
REMARK SMILES IDX 64 79 66 80 65 81 52 82 53 83 57 84 54 85 56 86 55 87
REMARK H PARENT 23 4 13 16 6 20 28 36 72 55 50 66
REMARK Flexibility Score: inf
ROOT
ATOM      1  C   UNL A   1      38.826  22.797  26.346  1.00  0.00     0.220 C 
ATOM      2  O   UNL A   1      38.353  23.916  26.319  1.00  0.00    -0.275 OA
ATOM      3  N   UNL A   1      39.928  22.545  27.121  1.00  0.00    -0.356 N 
ATOM      4  H   UNL A   1      40.248  23.345  27.600  1.00  0.00     0.163 HD
ENDROOT
BRANCH   1   5
ATOM      5  C   UNL A   1      38.272  21.695  25.507  1.00  0.00     0.110 C 
BRANCH   5   6
ATOM      6  C   UNL A   1      37.076  22.203  24.743  1.00  0.00     0.110 C 
BRANCH   6   7
ATOM      7  C   UNL A   1      35.882  21.310  24.884  1.00  0.00     0.223 C 
ATOM      8  O   UNL A   1      36.107  20.093  24.997  1.00  0.00    -0.275 OA
BRANCH   7   9
ATOM      9  N   UNL A   1      34.559  21.791  24.870  1.00  0.00    -0.328 N 
ATOM     10  C   UNL A   1      33.962  23.134  25.418  1.00  0.00     0.183 C 
ATOM     11  C   UNL A   1      32.667  22.800  26.234  1.00  0.00     0.243 C 
ATOM     12  O   UNL A   1      32.164  23.606  27.016  1.00  0.00    -0.273 OA
ATOM     13  N   UNL A   1      32.004  21.623  26.024  1.00  0.00    -0.353 N 
ATOM     14  C   UNL A   1      33.688  20.667  24.486  1.00  0.00     0.141 C 
ATOM     15  C   UNL A   1      32.264  20.670  24.981  1.00  0.00     0.137 C 
ATOM     16  H   UNL A   1      31.276  21.406  26.650  1.00  0.00     0.163 HD
BRANCH  10  17
ATOM     17  C   UNL A   1      33.676  24.696  24.662  1.00  0.00     0.135 C 
BRANCH  17  18
ATOM     18  C   UNL A   1      33.218  25.690  23.339  1.00  0.00     0.227 C 
ATOM     19  N   UNL A   1      32.347  26.709  22.976  1.00  0.00    -0.326 N 
ATOM     20  H   UNL A   1      32.451  26.859  22.009  1.00  0.00     0.169 HD
ATOM     21  O   UNL A   1      33.874  25.383  22.305  1.00  0.00    -0.275 OA
BRANCH  19  22
ATOM     22  C   UNL A   1      31.351  27.635  23.456  1.00  0.00     0.044 A 
ATOM     23  C   UNL A   1      28.871  31.076  22.961  1.00  0.00     0.044 C 
ATOM     24  C   UNL A   1      29.512  29.804  23.466  1.00  0.00    -0.051 A 
ATOM     25  C   UNL A   1      29.125  28.556  22.972  1.00  0.00     0.005 A 
ATOM     26  C   UNL A   1      30.684  29.854  24.234  1.00  0.00     0.009 A 
ATOM     27  C   UNL A   1      30.009  27.450  23.054  1.00  0.00     0.026 A 
ATOM     28  C   UNL A   1      31.607  28.768  24.248  1.00  0.00    -0.027 A 
ATOM     29  C   UNL A   1      32.819  28.884  25.122  1.00  0.00     0.046 C 
ENDBRANCH  19  22
ENDBRANCH  17  18
ENDBRANCH  10  17
ENDBRANCH   7   9
ENDBRANCH   6   7
ENDBRANCH   5   6
ENDBRANCH   1   5
BRANCH   3  30
ATOM     30  C   UNL A   1      40.749  21.340  27.403  1.00  0.00     0.116 C 
BRANCH  30  31
ATOM     31  C   UNL A   1      42.276  20.985  26.972  1.00  0.00     0.023 C 
BRANCH  31  32
ATOM     32  C   UNL A   1      43.243  21.366  25.807  1.00  0.00     0.023 C 
BRANCH  32  33
ATOM     33  C   UNL A   1      43.013  22.639  24.956  1.00  0.00     0.116 C 
BRANCH  33  34
ATOM     34  N   UNL A   1      44.233  23.349  24.627  1.00  0.00    -0.352 N 
ATOM     35  C   UNL A   1      44.767  24.511  25.137  1.00  0.00     0.251 C 
ATOM     36  H   UNL A   1      44.772  22.929  23.918  1.00  0.00     0.163 HD
ATOM     37  O   UNL A   1      45.802  24.945  24.633  1.00  0.00    -0.269 OA
BRANCH  35  38
ATOM     38  C   UNL A   1      44.124  25.285  26.236  1.00  0.00     0.039 A 
ATOM     39  C   UNL A   1      43.308  24.585  27.135  1.00  0.00     0.014 A 
ATOM     40  C   UNL A   1      44.240  26.671  26.377  1.00  0.00     0.014 A 
ATOM     41  C   UNL A   1      42.662  25.251  28.184  1.00  0.00     0.010 A 
ATOM     42  C   UNL A   1      43.651  27.326  27.472  1.00  0.00     0.010 A 
ATOM     43  C   UNL A   1      42.847  26.629  28.388  1.00  0.00    -0.014 A 
BRANCH  43  44
ATOM     44  C   UNL A   1      42.199  27.308  29.554  1.00  0.00     0.031 A 
ATOM     45  C   UNL A   1      42.850  27.326  30.917  1.00  0.00     0.074 A 
ATOM     46  C   UNL A   1      41.009  27.926  29.391  1.00  0.00     0.049 A 
ATOM     47  N   UNL A   1      42.481  27.967  32.000  1.00  0.00    -0.248 NA
ATOM     48  C   UNL A   1      44.052  26.500  31.095  1.00  0.00     0.031 C 
ATOM     49  C   UNL A   1      40.219  27.928  28.159  1.00  0.00     0.029 A 
ATOM     50  N   UNL A   1      40.265  28.691  30.259  1.00  0.00    -0.354 N 
ATOM     51  C   UNL A   1      43.396  27.612  32.986  1.00  0.00     0.074 A 
ATOM     52  C   UNL A   1      44.297  26.650  32.388  1.00  0.00     0.031 C 
ATOM     53  C   UNL A   1      39.138  28.708  28.328  1.00  0.00     0.029 A 
ATOM     54  C   UNL A   1      39.142  29.242  29.685  1.00  0.00     0.049 A 
ATOM     55  H   UNL A   1      40.512  28.831  31.202  1.00  0.00     0.167 HD
ATOM     56  C   UNL A   1      43.504  28.060  34.261  1.00  0.00     0.031 A 
ATOM     57  C   UNL A   1      38.232  30.102  30.181  1.00  0.00     0.031 A 
ATOM     58  C   UNL A   1      42.619  29.023  34.862  1.00  0.00     0.049 A 
ATOM     59  C   UNL A   1      38.394  30.622  31.583  1.00  0.00     0.074 A 
ATOM     60  C   UNL A   1      42.682  29.586  36.125  1.00  0.00     0.029 A 
ATOM     61  N   UNL A   1      41.508  29.567  34.238  1.00  0.00    -0.354 N 
ATOM     62  N   UNL A   1      39.328  30.353  32.463  1.00  0.00    -0.248 NA
ATOM     63  C   UNL A   1      37.389  31.590  32.049  1.00  0.00     0.031 C 
ATOM     64  C   UNL A   1      41.583  30.439  36.281  1.00  0.00     0.029 A 
ATOM     65  C   UNL A   1      40.869  30.449  35.093  1.00  0.00     0.049 A 
ATOM     66  H   UNL A   1      41.216  29.357  33.322  1.00  0.00     0.167 HD
ATOM     67  C   UNL A   1      39.039  31.137  33.574  1.00  0.00     0.074 A 
ATOM     68  C   UNL A   1      37.859  31.909  33.246  1.00  0.00     0.031 C 
ATOM     69  C   UNL A   1      39.693  31.210  34.759  1.00  0.00     0.031 A 
BRANCH  56  70
ATOM     70  C   UNL A   1      44.635  27.511  35.092  1.00  0.00    -0.014 A 
ATOM     71  C   UNL A   1      44.462  26.361  35.880  1.00  0.00     0.009 A 
ATOM     72  C   UNL A   1      45.892  28.135  35.074  1.00  0.00     0.009 A 
ATOM     73  C   UNL A   1      45.507  25.878  36.671  1.00  0.00     0.001 A 
ATOM     74  C   UNL A   1      46.945  27.631  35.842  1.00  0.00     0.001 A 
ATOM     75  C   UNL A   1      46.749  26.512  36.649  1.00  0.00     0.000 A 
ENDBRANCH  56  70
BRANCH  57  76
ATOM     76  C   UNL A   1      37.111  30.582  29.327  1.00  0.00    -0.014 A 
ATOM     77  C   UNL A   1      36.058  29.719  28.983  1.00  0.00     0.009 A 
ATOM     78  C   UNL A   1      37.093  31.897  28.839  1.00  0.00     0.009 A 
ATOM     79  C   UNL A   1      35.028  30.153  28.145  1.00  0.00     0.001 A 
ATOM     80  C   UNL A   1      36.046  32.338  28.024  1.00  0.00     0.001 A 
ATOM     81  C   UNL A   1      35.021  31.463  27.670  1.00  0.00     0.000 A 
ENDBRANCH  57  76
BRANCH  69  82
ATOM     82  C   UNL A   1      39.164  32.185  35.774  1.00  0.00    -0.014 A 
ATOM     83  C   UNL A   1      38.195  31.807  36.718  1.00  0.00     0.009 A 
ATOM     84  C   UNL A   1      39.656  33.499  35.795  1.00  0.00     0.009 A 
ATOM     85  C   UNL A   1      37.696  32.739  37.630  1.00  0.00     0.001 A 
ATOM     86  C   UNL A   1      39.178  34.420  36.729  1.00  0.00     0.001 A 
ATOM     87  C   UNL A   1      38.190  34.043  37.637  1.00  0.00     0.000 A 
ENDBRANCH  69  82
ENDBRANCH  43  44
ENDBRANCH  35  38
ENDBRANCH  33  34
ENDBRANCH  32  33
ENDBRANCH  31  32
ENDBRANCH  30  31
ENDBRANCH   3  30
TORSDOF 17
ENDMDL
MODEL 3
REMARK VINA RESULT:     -11.6      1.300      5.940
REMARK SMILES Cc1ccc(NC(=O)C[C@H]2C(=O)NCCN2C(=O)CCC(=O)NCCCCNC(=O)c2ccc(-c3c4nc(c(-c5ccccc5)c5ccc([nH]5)c(-c5ccccc5)c5nc(c(-c6ccccc6)c6ccc3[nH]6)C=C5)C=C4)cc2)c(C)c1
REMARK SMILES IDX 21 1 22 2 23 3 20 5 19 6 17 7 18 8 16 9 10 10 11 11 12 12
REMARK SMILES IDX 13 13 15 14 14 15 9 17 7 18 6 19 8 21 5 22 1 23 2 24 3 25
REMARK SMILES IDX 81 26 4 27 79 28 80 29 24 30 25 31 26 32 27 33 28 34 29 35
REMARK SMILES IDX 30 37 31 38 32 39 78 40 33 41 77 42 34 43 35 44 36 45 71 46
REMARK SMILES IDX 37 47 76 48 70 49 72 50 38 51 75 52 69 53 68 54 39 56 61 57
REMARK SMILES IDX 46 58 60 59 47 60 50 61 59 62 73 63 48 64 49 65 58 67 74 68
REMARK SMILES IDX 51 69 40 70 41 71 45 72 42 73 44 74 43 75 62 76 63 77 67 78
REMARK SMILES IDX 64 79 66 80 65 81 52 82 53 83 57 84 54 85 56 86 55 87
REMARK H PARENT 23 4 13 16 6 20 28 36 72 55 50 66
REMARK Flexibility Score: inf
ROOT
ATOM      1  C   UNL A   1      35.381  30.616  27.594  1.00  0.00     0.220 C 
ATOM      2  O   UNL A   1      35.891  29.534  27.377  1.00  0.00    -0.275 OA
ATOM      3  N   UNL A   1      36.175  31.691  27.900  1.00  0.00    -0.356 N 
ATOM      4  H   UNL A   1      37.133  31.463  27.921  1.00  0.00     0.163 HD
ENDROOT
BRANCH   1   5
ATOM      5  C   UNL A   1      33.900  30.793  27.596  1.00  0.00     0.110 C 
BRANCH   5   6
ATOM      6  C   UNL A   1      33.246  29.536  27.082  1.00  0.00     0.110 C 
BRANCH   6   7
ATOM      7  C   UNL A   1      32.130  29.820  26.124  1.00  0.00     0.223 C 
ATOM      8  O   UNL A   1      31.303  30.680  26.472  1.00  0.00    -0.275 OA
BRANCH   7   9
ATOM      9  N   UNL A   1      31.984  29.146  24.896  1.00  0.00    -0.328 N 
ATOM     10  C   UNL A   1      33.027  28.325  24.060  1.00  0.00     0.183 C 
ATOM     11  C   UNL A   1      32.930  28.784  22.565  1.00  0.00     0.243 C 
ATOM     12  O   UNL A   1      33.816  28.535  21.749  1.00  0.00    -0.273 OA
ATOM     13  N   UNL A   1      31.800  29.402  22.105  1.00  0.00    -0.353 N 
ATOM     14  C   UNL A   1      30.700  29.571  24.313  1.00  0.00     0.141 C 
ATOM     15  C   UNL A   1      30.559  29.549  22.812  1.00  0.00     0.137 C 
ATOM     16  H   UNL A   1      31.842  29.784  21.199  1.00  0.00     0.163 HD
BRANCH  10  17
ATOM     17  C   UNL A   1      33.425  26.613  24.023  1.00  0.00     0.135 C 
BRANCH  17  18
ATOM     18  C   UNL A   1      33.766  25.143  23.203  1.00  0.00     0.227 C 
ATOM     19  N   UNL A   1      33.808  23.765  23.382  1.00  0.00    -0.326 N 
ATOM     20  H   UNL A   1      34.175  23.371  22.559  1.00  0.00     0.169 HD
ATOM     21  O   UNL A   1      34.145  25.371  22.021  1.00  0.00    -0.275 OA
BRANCH  19  22
ATOM     22  C   UNL A   1      33.528  22.686  24.296  1.00  0.00     0.044 A 
ATOM     23  C   UNL A   1      32.753  18.569  25.125  1.00  0.00     0.044 C 
ATOM     24  C   UNL A   1      33.061  20.044  25.240  1.00  0.00    -0.051 A 
ATOM     25  C   UNL A   1      34.367  20.522  25.102  1.00  0.00     0.005 A 
ATOM     26  C   UNL A   1      32.027  20.992  25.218  1.00  0.00     0.009 A 
ATOM     27  C   UNL A   1      34.599  21.869  24.723  1.00  0.00     0.026 A 
ATOM     28  C   UNL A   1      32.252  22.323  24.759  1.00  0.00    -0.027 A 
ATOM     29  C   UNL A   1      31.103  23.284  24.799  1.00  0.00     0.046 C 
ENDBRANCH  19  22
ENDBRANCH  17  18
ENDBRANCH  10  17
ENDBRANCH   7   9
ENDBRANCH   6   7
ENDBRANCH   5   6
ENDBRANCH   1   5
BRANCH   3  30
ATOM     30  C   UNL A   1      35.918  33.120  28.207  1.00  0.00     0.116 C 
BRANCH  30  31
ATOM     31  C   UNL A   1      34.589  34.025  27.964  1.00  0.00     0.023 C 
BRANCH  31  32
ATOM     32  C   UNL A   1      33.299  34.384  28.766  1.00  0.00     0.023 C 
BRANCH  32  33
ATOM     33  C   UNL A   1      33.170  35.731  29.519  1.00  0.00     0.116 C 
BRANCH  33  34
ATOM     34  N   UNL A   1      32.423  35.639  30.757  1.00  0.00    -0.352 N 
ATOM     35  C   UNL A   1      32.774  35.134  31.989  1.00  0.00     0.251 C 
ATOM     36  H   UNL A   1      31.507  35.999  30.710  1.00  0.00     0.163 HD
ATOM     37  O   UNL A   1      31.920  35.115  32.874  1.00  0.00    -0.269 OA
BRANCH  35  38
ATOM     38  C   UNL A   1      34.123  34.571  32.280  1.00  0.00     0.039 A 
ATOM     39  C   UNL A   1      34.186  33.278  32.818  1.00  0.00     0.014 A 
ATOM     40  C   UNL A   1      35.313  35.284  32.107  1.00  0.00     0.014 A 
ATOM     41  C   UNL A   1      35.420  32.691  33.128  1.00  0.00     0.010 A 
ATOM     42  C   UNL A   1      36.552  34.667  32.350  1.00  0.00     0.010 A 
ATOM     43  C   UNL A   1      36.626  33.365  32.871  1.00  0.00    -0.014 A 
BRANCH  43  44
ATOM     44  C   UNL A   1      37.934  32.694  33.150  1.00  0.00     0.031 A 
ATOM     45  C   UNL A   1      38.692  32.947  34.432  1.00  0.00     0.074 A 
ATOM     46  C   UNL A   1      38.453  31.838  32.245  1.00  0.00     0.049 A 
ATOM     47  N   UNL A   1      39.776  32.361  34.881  1.00  0.00    -0.248 NA
ATOM     48  C   UNL A   1      38.185  34.010  35.311  1.00  0.00     0.031 C 
ATOM     49  C   UNL A   1      37.882  31.551  30.927  1.00  0.00     0.029 A 
ATOM     50  N   UNL A   1      39.568  31.033  32.300  1.00  0.00    -0.354 N 
ATOM     51  C   UNL A   1      40.084  32.992  36.082  1.00  0.00     0.074 A 
ATOM     52  C   UNL A   1      39.109  34.047  36.259  1.00  0.00     0.031 C 
ATOM     53  C   UNL A   1      38.609  30.593  30.328  1.00  0.00     0.029 A 
ATOM     54  C   UNL A   1      39.712  30.214  31.204  1.00  0.00     0.049 A 
ATOM     55  H   UNL A   1      40.203  31.044  33.052  1.00  0.00     0.167 HD
ATOM     56  C   UNL A   1      41.062  32.708  36.976  1.00  0.00     0.031 A 
ATOM     57  C   UNL A   1      40.611  29.245  30.942  1.00  0.00     0.031 A 
ATOM     58  C   UNL A   1      42.031  31.655  36.815  1.00  0.00     0.049 A 
ATOM     59  C   UNL A   1      41.662  28.915  31.965  1.00  0.00     0.074 A 
ATOM     60  C   UNL A   1      43.023  31.249  37.692  1.00  0.00     0.029 A 
ATOM     61  N   UNL A   1      42.127  30.839  35.699  1.00  0.00    -0.354 N 
ATOM     62  N   UNL A   1      41.869  29.454  33.142  1.00  0.00    -0.248 NA
ATOM     63  C   UNL A   1      42.586  27.820  31.634  1.00  0.00     0.031 C 
ATOM     64  C   UNL A   1      43.747  30.215  37.088  1.00  0.00     0.029 A 
ATOM     65  C   UNL A   1      43.169  29.940  35.859  1.00  0.00     0.049 A 
ATOM     66  H   UNL A   1      41.542  30.891  34.910  1.00  0.00     0.167 HD
ATOM     67  C   UNL A   1      42.927  28.747  33.702  1.00  0.00     0.074 A 
ATOM     68  C   UNL A   1      43.300  27.726  32.747  1.00  0.00     0.031 C 
ATOM     69  C   UNL A   1      43.534  28.930  34.900  1.00  0.00     0.031 A 
BRANCH  56  70
ATOM     70  C   UNL A   1      41.127  33.554  38.222  1.00  0.00    -0.014 A 
ATOM     71  C   UNL A   1      41.912  34.719  38.266  1.00  0.00     0.009 A 
ATOM     72  C   UNL A   1      40.381  33.199  39.356  1.00  0.00     0.009 A 
ATOM     73  C   UNL A   1      41.988  35.479  39.435  1.00  0.00     0.001 A 
ATOM     74  C   UNL A   1      40.435  33.979  40.513  1.00  0.00     0.001 A 
ATOM     75  C   UNL A   1      41.248  35.110  40.557  1.00  0.00     0.000 A 
ENDBRANCH  56  70
BRANCH  57  76
ATOM     76  C   UNL A   1      40.524  28.466  29.676  1.00  0.00    -0.014 A 
ATOM     77  C   UNL A   1      41.242  28.871  28.540  1.00  0.00     0.009 A 
ATOM     78  C   UNL A   1      39.713  27.324  29.591  1.00  0.00     0.009 A 
ATOM     79  C   UNL A   1      41.128  28.167  27.338  1.00  0.00     0.001 A 
ATOM     80  C   UNL A   1      39.624  26.604  28.396  1.00  0.00     0.001 A 
ATOM     81  C   UNL A   1      40.322  27.032  27.268  1.00  0.00     0.000 A 
ENDBRANCH  57  76
BRANCH  69  82
ATOM     82  C   UNL A   1      44.643  27.979  35.257  1.00  0.00    -0.014 A 
ATOM     83  C   UNL A   1      44.386  26.773  35.929  1.00  0.00     0.009 A 
ATOM     84  C   UNL A   1      45.965  28.289  34.900  1.00  0.00     0.009 A 
ATOM     85  C   UNL A   1      45.436  25.921  36.278  1.00  0.00     0.001 A 
ATOM     86  C   UNL A   1      47.009  27.421  35.223  1.00  0.00     0.001 A 
ATOM     87  C   UNL A   1      46.746  26.244  35.922  1.00  0.00     0.000 A 
ENDBRANCH  69  82
ENDBRANCH  43  44
ENDBRANCH  35  38
ENDBRANCH  33  34
ENDBRANCH  32  33
ENDBRANCH  31  32
ENDBRANCH  30  31
ENDBRANCH   3  30
TORSDOF 17
ENDMDL
