MODEL 1
REMARK VINA RESULT:     -10.0      0.000      0.000
REMARK SMILES COCCCC(=O)N[C@H]1CC[C@@H](C(=O)NCCCCNC(=O)c2ccc(-c3c4nc(c(-c5ccccc5)c5ccc([nH]5)c(-c5ccccc5)c5nc(c(-c6ccccc6)c6ccc3[nH]6)C=C5)C=C4)cc2)CC1
REMARK SMILES IDX 16 1 15 2 13 3 14 4 12 6 9 7 10 8 72 9 11 10 71 11 8 12 6 13
REMARK SMILES IDX 7 14 5 16 4 17 3 18 2 19 1 20 17 21 18 22 19 23 20 24 21 25
REMARK SMILES IDX 22 27 23 28 24 29 70 30 25 31 69 32 26 33 27 34 28 35 63 36
REMARK SMILES IDX 29 37 68 38 62 39 64 40 30 41 67 42 61 43 60 44 31 46 53 47
REMARK SMILES IDX 38 48 52 49 39 50 42 51 51 52 65 53 40 54 41 55 50 57 66 58
REMARK SMILES IDX 43 59 32 60 33 61 37 62 34 63 36 64 35 65 54 66 55 67 59 68
REMARK SMILES IDX 56 69 58 70 57 71 44 72 45 73 49 74 46 75 48 76 47 77
REMARK H PARENT 15 5 8 15 20 26 64 45 42 56
REMARK Flexibility Score: inf
ROOT
ATOM      1  C   UNL A   1      39.882  22.345  26.502  1.00  0.00     0.116 C 
ENDROOT
BRANCH   1   2
ATOM      2  N   UNL A   1      38.962  21.487  25.786  1.00  0.00    -0.356 N 
ATOM      3  C   UNL A   1      37.759  21.674  25.204  1.00  0.00     0.223 C 
ATOM      4  O   UNL A   1      37.108  20.636  25.019  1.00  0.00    -0.275 OA
ATOM      5  H   UNL A   1      39.286  20.560  25.707  1.00  0.00     0.163 HD
BRANCH   3   6
ATOM      6  C   UNL A   1      37.159  23.007  24.733  1.00  0.00     0.078 C 
ATOM      7  C   UNL A   1      34.199  23.695  24.673  1.00  0.00     0.082 C 
ATOM      8  C   UNL A   1      35.065  23.989  25.900  1.00  0.00     0.026 C 
ATOM      9  C   UNL A   1      34.852  22.991  23.503  1.00  0.00     0.026 C 
ATOM     10  C   UNL A   1      36.577  24.027  25.693  1.00  0.00     0.015 C 
ATOM     11  C   UNL A   1      36.374  22.905  23.424  1.00  0.00     0.015 C 
BRANCH   7  12
ATOM     12  N   UNL A   1      32.849  23.200  25.067  1.00  0.00    -0.353 N 
ATOM     13  C   UNL A   1      32.144  22.091  25.387  1.00  0.00     0.220 C 
ATOM     14  O   UNL A   1      30.969  22.319  25.709  1.00  0.00    -0.275 OA
ATOM     15  H   UNL A   1      32.241  23.972  25.112  1.00  0.00     0.163 HD
BRANCH  13  16
ATOM     16  C   UNL A   1      32.628  20.651  25.468  1.00  0.00     0.102 C 
BRANCH  16  17
ATOM     17  C   UNL A   1      32.816  19.848  24.178  1.00  0.00     0.038 C 
BRANCH  17  18
ATOM     18  C   UNL A   1      32.629  18.334  24.263  1.00  0.00     0.160 C 
BRANCH  18  19
ATOM     19  O   UNL A   1      33.388  17.505  23.384  1.00  0.00    -0.385 OA
ATOM     20  C   UNL A   1      33.886  16.267  23.845  1.00  0.00     0.194 C 
ENDBRANCH  18  19
ENDBRANCH  17  18
ENDBRANCH  16  17
ENDBRANCH  13  16
ENDBRANCH   7  12
ENDBRANCH   3   6
ENDBRANCH   1   2
BRANCH   1  21
ATOM     21  C   UNL A   1      41.143  21.563  26.848  1.00  0.00     0.023 C 
BRANCH  21  22
ATOM     22  C   UNL A   1      41.373  20.271  26.082  1.00  0.00     0.023 C 
BRANCH  22  23
ATOM     23  C   UNL A   1      42.658  19.549  26.435  1.00  0.00     0.116 C 
BRANCH  23  24
ATOM     24  N   UNL A   1      43.360  18.944  25.309  1.00  0.00    -0.352 N 
ATOM     25  C   UNL A   1      44.341  19.496  24.505  1.00  0.00     0.251 C 
ATOM     26  H   UNL A   1      43.099  18.020  25.091  1.00  0.00     0.163 HD
ATOM     27  O   UNL A   1      44.833  18.851  23.583  1.00  0.00    -0.269 OA
BRANCH  25  28
ATOM     28  C   UNL A   1      44.756  20.901  24.714  1.00  0.00     0.039 A 
ATOM     29  C   UNL A   1      44.205  21.905  23.913  1.00  0.00     0.014 A 
ATOM     30  C   UNL A   1      45.598  21.241  25.771  1.00  0.00     0.014 A 
ATOM     31  C   UNL A   1      44.397  23.247  24.257  1.00  0.00     0.010 A 
ATOM     32  C   UNL A   1      45.654  22.558  26.199  1.00  0.00     0.010 A 
ATOM     33  C   UNL A   1      45.062  23.584  25.447  1.00  0.00    -0.014 A 
BRANCH  33  34
ATOM     34  C   UNL A   1      45.170  24.988  25.929  1.00  0.00     0.031 A 
ATOM     35  C   UNL A   1      46.495  25.705  25.849  1.00  0.00     0.074 A 
ATOM     36  C   UNL A   1      44.121  25.589  26.530  1.00  0.00     0.049 A 
ATOM     37  N   UNL A   1      46.840  26.869  26.340  1.00  0.00    -0.248 NA
ATOM     38  C   UNL A   1      47.596  24.992  25.179  1.00  0.00     0.031 C 
ATOM     39  C   UNL A   1      42.800  24.993  26.746  1.00  0.00     0.029 A 
ATOM     40  N   UNL A   1      44.004  26.845  27.073  1.00  0.00    -0.354 N 
ATOM     41  C   UNL A   1      48.200  26.994  26.089  1.00  0.00     0.074 A 
ATOM     42  C   UNL A   1      48.632  25.763  25.469  1.00  0.00     0.031 C 
ATOM     43  C   UNL A   1      41.994  25.899  27.322  1.00  0.00     0.029 A 
ATOM     44  C   UNL A   1      42.750  27.124  27.559  1.00  0.00     0.049 A 
ATOM     45  H   UNL A   1      44.751  27.485  27.111  1.00  0.00     0.167 HD
ATOM     46  C   UNL A   1      49.016  28.051  26.312  1.00  0.00     0.031 A 
ATOM     47  C   UNL A   1      42.260  28.243  28.125  1.00  0.00     0.031 A 
ATOM     48  C   UNL A   1      48.575  29.304  26.856  1.00  0.00     0.049 A 
ATOM     49  C   UNL A   1      43.165  29.430  28.302  1.00  0.00     0.074 A 
ATOM     50  C   UNL A   1      49.299  30.468  27.043  1.00  0.00     0.029 A 
ATOM     51  N   UNL A   1      47.281  29.561  27.280  1.00  0.00    -0.354 N 
ATOM     52  N   UNL A   1      44.435  29.553  28.001  1.00  0.00    -0.248 NA
ATOM     53  C   UNL A   1      42.563  30.640  28.882  1.00  0.00     0.031 C 
ATOM     54  C   UNL A   1      48.446  31.424  27.605  1.00  0.00     0.029 A 
ATOM     55  C   UNL A   1      47.184  30.866  27.729  1.00  0.00     0.049 A 
ATOM     56  H   UNL A   1      46.540  28.913  27.263  1.00  0.00     0.167 HD
ATOM     57  C   UNL A   1      44.777  30.860  28.327  1.00  0.00     0.074 A 
ATOM     58  C   UNL A   1      43.577  31.493  28.833  1.00  0.00     0.031 C 
ATOM     59  C   UNL A   1      45.977  31.480  28.217  1.00  0.00     0.031 A 
BRANCH  46  60
ATOM     60  C   UNL A   1      50.465  27.892  25.940  1.00  0.00    -0.014 A 
ATOM     61  C   UNL A   1      50.923  28.197  24.646  1.00  0.00     0.009 A 
ATOM     62  C   UNL A   1      51.385  27.425  26.890  1.00  0.00     0.009 A 
ATOM     63  C   UNL A   1      52.257  27.984  24.298  1.00  0.00     0.001 A 
ATOM     64  C   UNL A   1      52.727  27.246  26.549  1.00  0.00     0.001 A 
ATOM     65  C   UNL A   1      53.158  27.512  25.250  1.00  0.00     0.000 A 
ENDBRANCH  46  60
BRANCH  47  66
ATOM     66  C   UNL A   1      40.828  28.320  28.521  1.00  0.00    -0.014 A 
ATOM     67  C   UNL A   1      39.886  28.886  27.647  1.00  0.00     0.009 A 
ATOM     68  C   UNL A   1      40.396  27.843  29.767  1.00  0.00     0.009 A 
ATOM     69  C   UNL A   1      38.546  29.001  28.025  1.00  0.00     0.001 A 
ATOM     70  C   UNL A   1      39.050  27.934  30.131  1.00  0.00     0.001 A 
ATOM     71  C   UNL A   1      38.129  28.522  29.265  1.00  0.00     0.000 A 
ENDBRANCH  47  66
BRANCH  59  72
ATOM     72  C   UNL A   1      46.040  32.927  28.612  1.00  0.00    -0.014 A 
ATOM     73  C   UNL A   1      46.377  33.311  29.918  1.00  0.00     0.009 A 
ATOM     74  C   UNL A   1      45.801  33.918  27.647  1.00  0.00     0.009 A 
ATOM     75  C   UNL A   1      46.443  34.664  30.258  1.00  0.00     0.001 A 
ATOM     76  C   UNL A   1      45.895  35.267  27.983  1.00  0.00     0.001 A 
ATOM     77  C   UNL A   1      46.208  35.640  29.289  1.00  0.00     0.000 A 
ENDBRANCH  59  72
ENDBRANCH  33  34
ENDBRANCH  25  28
ENDBRANCH  23  24
ENDBRANCH  22  23
ENDBRANCH  21  22
ENDBRANCH   1  21
TORSDOF 16
ENDMDL
MODEL 2
REMARK VINA RESULT:     -10.0      2.538      4.416
REMARK SMILES COCCCC(=O)N[C@H]1CC[C@@H](C(=O)NCCCCNC(=O)c2ccc(-c3c4nc(c(-c5ccccc5)c5ccc([nH]5)c(-c5ccccc5)c5nc(c(-c6ccccc6)c6ccc3[nH]6)C=C5)C=C4)cc2)CC1
REMARK SMILES IDX 16 1 15 2 13 3 14 4 12 6 9 7 10 8 72 9 11 10 71 11 8 12 6 13
REMARK SMILES IDX 7 14 5 16 4 17 3 18 2 19 1 20 17 21 18 22 19 23 20 24 21 25
REMARK SMILES IDX 22 27 23 28 24 29 70 30 25 31 69 32 26 33 27 34 28 35 63 36
REMARK SMILES IDX 29 37 68 38 62 39 64 40 30 41 67 42 61 43 60 44 31 46 53 47
REMARK SMILES IDX 38 48 52 49 39 50 42 51 51 52 65 53 40 54 41 55 50 57 66 58
REMARK SMILES IDX 43 59 32 60 33 61 37 62 34 63 36 64 35 65 54 66 55 67 59 68
REMARK SMILES IDX 56 69 58 70 57 71 44 72 45 73 49 74 46 75 48 76 47 77
REMARK H PARENT 15 5 8 15 20 26 64 45 42 56
REMARK Flexibility Score: inf
ROOT
ATOM      1  C   UNL A   1      33.916  23.777  23.714  1.00  0.00     0.116 C 
ENDROOT
BRANCH   1   2
ATOM      2  N   UNL A   1      34.085  24.802  22.707  1.00  0.00    -0.356 N 
ATOM      3  C   UNL A   1      33.586  26.045  22.534  1.00  0.00     0.223 C 
ATOM      4  O   UNL A   1      33.660  26.474  21.374  1.00  0.00    -0.275 OA
ATOM      5  H   UNL A   1      34.699  24.533  21.985  1.00  0.00     0.163 HD
BRANCH   3   6
ATOM      6  C   UNL A   1      32.989  26.958  23.616  1.00  0.00     0.078 C 
ATOM      7  C   UNL A   1      31.237  26.053  25.928  1.00  0.00     0.082 C 
ATOM      8  C   UNL A   1      32.761  26.124  26.057  1.00  0.00     0.026 C 
ATOM      9  C   UNL A   1      30.628  26.393  24.585  1.00  0.00     0.026 C 
ATOM     10  C   UNL A   1      33.507  26.985  25.042  1.00  0.00     0.015 C 
ATOM     11  C   UNL A   1      31.470  27.107  23.531  1.00  0.00     0.015 C 
BRANCH   7  12
ATOM     12  N   UNL A   1      30.690  24.848  26.612  1.00  0.00    -0.353 N 
ATOM     13  C   UNL A   1      30.897  23.528  26.831  1.00  0.00     0.220 C 
ATOM     14  O   UNL A   1      30.069  23.009  27.593  1.00  0.00    -0.275 OA
ATOM     15  H   UNL A   1      29.867  25.110  27.083  1.00  0.00     0.163 HD
BRANCH  13  16
ATOM     16  C   UNL A   1      32.033  22.651  26.325  1.00  0.00     0.102 C 
BRANCH  16  17
ATOM     17  C   UNL A   1      31.724  21.503  25.362  1.00  0.00     0.038 C 
BRANCH  17  18
ATOM     18  C   UNL A   1      32.629  20.274  25.425  1.00  0.00     0.160 C 
BRANCH  18  19
ATOM     19  O   UNL A   1      32.052  18.991  25.182  1.00  0.00    -0.385 OA
ATOM     20  C   UNL A   1      32.829  17.827  25.371  1.00  0.00     0.194 C 
ENDBRANCH  18  19
ENDBRANCH  17  18
ENDBRANCH  16  17
ENDBRANCH  13  16
ENDBRANCH   7  12
ENDBRANCH   3   6
ENDBRANCH   1   2
BRANCH   1  21
ATOM     21  C   UNL A   1      35.215  23.613  24.495  1.00  0.00     0.023 C 
BRANCH  21  22
ATOM     22  C   UNL A   1      35.868  22.242  24.447  1.00  0.00     0.023 C 
BRANCH  22  23
ATOM     23  C   UNL A   1      36.548  21.823  25.735  1.00  0.00     0.116 C 
BRANCH  23  24
ATOM     24  N   UNL A   1      37.706  20.951  25.570  1.00  0.00    -0.352 N 
ATOM     25  C   UNL A   1      39.014  21.170  25.962  1.00  0.00     0.251 C 
ATOM     26  H   UNL A   1      37.533  20.093  25.119  1.00  0.00     0.163 HD
ATOM     27  O   UNL A   1      39.884  20.332  25.742  1.00  0.00    -0.269 OA
BRANCH  25  28
ATOM     28  C   UNL A   1      39.385  22.457  26.592  1.00  0.00     0.039 A 
ATOM     29  C   UNL A   1      40.443  22.495  27.504  1.00  0.00     0.014 A 
ATOM     30  C   UNL A   1      38.765  23.642  26.201  1.00  0.00     0.014 A 
ATOM     31  C   UNL A   1      40.958  23.728  27.915  1.00  0.00     0.010 A 
ATOM     32  C   UNL A   1      39.376  24.855  26.482  1.00  0.00     0.010 A 
ATOM     33  C   UNL A   1      40.477  24.920  27.349  1.00  0.00    -0.014 A 
BRANCH  33  34
ATOM     34  C   UNL A   1      41.084  26.245  27.647  1.00  0.00     0.031 A 
ATOM     35  C   UNL A   1      42.427  26.602  27.057  1.00  0.00     0.074 A 
ATOM     36  C   UNL A   1      40.495  27.088  28.521  1.00  0.00     0.049 A 
ATOM     37  N   UNL A   1      43.193  27.635  27.302  1.00  0.00    -0.248 NA
ATOM     38  C   UNL A   1      43.012  25.638  26.109  1.00  0.00     0.031 C 
ATOM     39  C   UNL A   1      39.234  26.846  29.228  1.00  0.00     0.029 A 
ATOM     40  N   UNL A   1      40.885  28.327  28.967  1.00  0.00    -0.354 N 
ATOM     41  C   UNL A   1      44.363  27.411  26.587  1.00  0.00     0.074 A 
ATOM     42  C   UNL A   1      44.237  26.116  25.960  1.00  0.00     0.031 C 
ATOM     43  C   UNL A   1      38.929  27.923  29.970  1.00  0.00     0.029 A 
ATOM     44  C   UNL A   1      39.992  28.912  29.831  1.00  0.00     0.049 A 
ATOM     45  H   UNL A   1      41.728  28.756  28.693  1.00  0.00     0.167 HD
ATOM     46  C   UNL A   1      45.434  28.224  26.428  1.00  0.00     0.031 A 
ATOM     47  C   UNL A   1      40.019  30.114  30.438  1.00  0.00     0.031 A 
ATOM     48  C   UNL A   1      45.532  29.543  26.986  1.00  0.00     0.049 A 
ATOM     49  C   UNL A   1      41.187  31.030  30.193  1.00  0.00     0.074 A 
ATOM     50  C   UNL A   1      46.533  30.482  26.816  1.00  0.00     0.029 A 
ATOM     51  N   UNL A   1      44.574  30.117  27.808  1.00  0.00    -0.354 N 
ATOM     52  N   UNL A   1      42.257  30.828  29.464  1.00  0.00    -0.248 NA
ATOM     53  C   UNL A   1      41.141  32.347  30.844  1.00  0.00     0.031 C 
ATOM     54  C   UNL A   1      46.192  31.618  27.557  1.00  0.00     0.029 A 
ATOM     55  C   UNL A   1      44.961  31.400  28.154  1.00  0.00     0.049 A 
ATOM     56  H   UNL A   1      43.743  29.679  28.100  1.00  0.00     0.167 HD
ATOM     57  C   UNL A   1      42.997  32.001  29.543  1.00  0.00     0.074 A 
ATOM     58  C   UNL A   1      42.245  32.915  30.379  1.00  0.00     0.031 C 
ATOM     59  C   UNL A   1      44.192  32.296  28.977  1.00  0.00     0.031 A 
BRANCH  46  60
ATOM     60  C   UNL A   1      46.573  27.703  25.594  1.00  0.00    -0.014 A 
ATOM     61  C   UNL A   1      46.653  27.978  24.217  1.00  0.00     0.009 A 
ATOM     62  C   UNL A   1      47.576  26.923  26.186  1.00  0.00     0.009 A 
ATOM     63  C   UNL A   1      47.680  27.437  23.444  1.00  0.00     0.001 A 
ATOM     64  C   UNL A   1      48.624  26.412  25.418  1.00  0.00     0.001 A 
ATOM     65  C   UNL A   1      48.666  26.656  24.045  1.00  0.00     0.000 A 
ENDBRANCH  46  60
BRANCH  47  66
ATOM     66  C   UNL A   1      38.885  30.550  31.295  1.00  0.00    -0.014 A 
ATOM     67  C   UNL A   1      38.919  30.314  32.679  1.00  0.00     0.009 A 
ATOM     68  C   UNL A   1      37.766  31.189  30.744  1.00  0.00     0.009 A 
ATOM     69  C   UNL A   1      37.842  30.683  33.488  1.00  0.00     0.001 A 
ATOM     70  C   UNL A   1      36.702  31.582  31.559  1.00  0.00     0.001 A 
ATOM     71  C   UNL A   1      36.736  31.320  32.929  1.00  0.00     0.000 A 
ENDBRANCH  47  66
BRANCH  59  72
ATOM     72  C   UNL A   1      44.738  33.675  29.205  1.00  0.00    -0.014 A 
ATOM     73  C   UNL A   1      45.599  33.948  30.278  1.00  0.00     0.009 A 
ATOM     74  C   UNL A   1      44.419  34.703  28.305  1.00  0.00     0.009 A 
ATOM     75  C   UNL A   1      46.106  35.236  30.462  1.00  0.00     0.001 A 
ATOM     76  C   UNL A   1      44.948  35.981  28.475  1.00  0.00     0.001 A 
ATOM     77  C   UNL A   1      45.785  36.249  29.558  1.00  0.00     0.000 A 
ENDBRANCH  59  72
ENDBRANCH  33  34
ENDBRANCH  25  28
ENDBRANCH  23  24
ENDBRANCH  22  23
ENDBRANCH  21  22
ENDBRANCH   1  21
TORSDOF 16
ENDMDL
MODEL 3
REMARK VINA RESULT:      -9.9      3.939      8.854
REMARK SMILES COCCCC(=O)N[C@H]1CC[C@@H](C(=O)NCCCCNC(=O)c2ccc(-c3c4nc(c(-c5ccccc5)c5ccc([nH]5)c(-c5ccccc5)c5nc(c(-c6ccccc6)c6ccc3[nH]6)C=C5)C=C4)cc2)CC1
REMARK SMILES IDX 16 1 15 2 13 3 14 4 12 6 9 7 10 8 72 9 11 10 71 11 8 12 6 13
REMARK SMILES IDX 7 14 5 16 4 17 3 18 2 19 1 20 17 21 18 22 19 23 20 24 21 25
REMARK SMILES IDX 22 27 23 28 24 29 70 30 25 31 69 32 26 33 27 34 28 35 63 36
REMARK SMILES IDX 29 37 68 38 62 39 64 40 30 41 67 42 61 43 60 44 31 46 53 47
REMARK SMILES IDX 38 48 52 49 39 50 42 51 51 52 65 53 40 54 41 55 50 57 66 58
REMARK SMILES IDX 43 59 32 60 33 61 37 62 34 63 36 64 35 65 54 66 55 67 59 68
REMARK SMILES IDX 56 69 58 70 57 71 44 72 45 73 49 74 46 75 48 76 47 77
REMARK H PARENT 15 5 8 15 20 26 64 45 42 56
REMARK Flexibility Score: inf
ROOT
ATOM      1  C   UNL A   1      31.559  26.639  26.022  1.00  0.00     0.116 C 
ENDROOT
BRANCH   1   2
ATOM      2  N   UNL A   1      31.184  25.477  26.799  1.00  0.00    -0.356 N 
ATOM      3  C   UNL A   1      31.258  24.144  26.595  1.00  0.00     0.223 C 
ATOM      4  O   UNL A   1      30.503  23.471  27.311  1.00  0.00    -0.275 OA
ATOM      5  H   UNL A   1      30.786  25.710  27.670  1.00  0.00     0.163 HD
BRANCH   3   6
ATOM      6  C   UNL A   1      32.185  23.410  25.616  1.00  0.00     0.078 C 
ATOM      7  C   UNL A   1      33.561  24.654  23.208  1.00  0.00     0.082 C 
ATOM      8  C   UNL A   1      34.229  24.622  24.584  1.00  0.00     0.026 C 
ATOM      9  C   UNL A   1      32.159  24.095  23.094  1.00  0.00     0.026 C 
ATOM     10  C   UNL A   1      33.688  23.619  25.599  1.00  0.00     0.015 C 
ATOM     11  C   UNL A   1      31.593  23.231  24.217  1.00  0.00     0.015 C 
BRANCH   7  12
ATOM     12  N   UNL A   1      33.812  25.947  22.512  1.00  0.00    -0.353 N 
ATOM     13  C   UNL A   1      33.344  27.205  22.345  1.00  0.00     0.220 C 
ATOM     14  O   UNL A   1      34.063  27.918  21.629  1.00  0.00    -0.275 OA
ATOM     15  H   UNL A   1      34.626  25.849  21.969  1.00  0.00     0.163 HD
BRANCH  13  16
ATOM     16  C   UNL A   1      32.117  27.851  22.971  1.00  0.00     0.102 C 
BRANCH  16  17
ATOM     17  C   UNL A   1      30.725  27.474  22.459  1.00  0.00     0.038 C 
BRANCH  17  18
ATOM     18  C   UNL A   1      29.557  28.359  22.890  1.00  0.00     0.160 C 
BRANCH  18  19
ATOM     19  O   UNL A   1      29.756  29.772  22.938  1.00  0.00    -0.385 OA
ATOM     20  C   UNL A   1      28.646  30.639  22.838  1.00  0.00     0.194 C 
ENDBRANCH  18  19
ENDBRANCH  17  18
ENDBRANCH  16  17
ENDBRANCH  13  16
ENDBRANCH   7  12
ENDBRANCH   3   6
ENDBRANCH   1   2
BRANCH   1  21
ATOM     21  C   UNL A   1      31.471  27.884  26.896  1.00  0.00     0.023 C 
BRANCH  21  22
ATOM     22  C   UNL A   1      32.749  28.316  27.595  1.00  0.00     0.023 C 
BRANCH  22  23
ATOM     23  C   UNL A   1      33.461  29.483  26.942  1.00  0.00     0.116 C 
BRANCH  23  24
ATOM     24  N   UNL A   1      33.581  30.679  27.768  1.00  0.00    -0.352 N 
ATOM     25  C   UNL A   1      34.670  31.119  28.498  1.00  0.00     0.251 C 
ATOM     26  H   UNL A   1      32.779  31.248  27.813  1.00  0.00     0.163 HD
ATOM     27  O   UNL A   1      34.608  32.155  29.155  1.00  0.00    -0.269 OA
BRANCH  25  28
ATOM     28  C   UNL A   1      35.901  30.299  28.544  1.00  0.00     0.039 A 
ATOM     29  C   UNL A   1      36.789  30.335  27.466  1.00  0.00     0.014 A 
ATOM     30  C   UNL A   1      36.235  29.586  29.693  1.00  0.00     0.014 A 
ATOM     31  C   UNL A   1      38.060  29.766  27.598  1.00  0.00     0.010 A 
ATOM     32  C   UNL A   1      37.543  29.165  29.878  1.00  0.00     0.010 A 
ATOM     33  C   UNL A   1      38.475  29.241  28.832  1.00  0.00    -0.014 A 
BRANCH  33  34
ATOM     34  C   UNL A   1      39.862  28.751  29.064  1.00  0.00     0.031 A 
ATOM     35  C   UNL A   1      40.884  29.671  29.685  1.00  0.00     0.074 A 
ATOM     36  C   UNL A   1      40.238  27.530  28.630  1.00  0.00     0.049 A 
ATOM     37  N   UNL A   1      42.173  29.495  29.841  1.00  0.00    -0.248 NA
ATOM     38  C   UNL A   1      40.405  30.988  30.138  1.00  0.00     0.031 C 
ATOM     39  C   UNL A   1      39.379  26.561  27.945  1.00  0.00     0.029 A 
ATOM     40  N   UNL A   1      41.454  26.894  28.702  1.00  0.00    -0.354 N 
ATOM     41  C   UNL A   1      42.655  30.693  30.351  1.00  0.00     0.074 A 
ATOM     42  C   UNL A   1      41.540  31.609  30.411  1.00  0.00     0.031 C 
ATOM     43  C   UNL A   1      40.077  25.438  27.712  1.00  0.00     0.029 A 
ATOM     44  C   UNL A   1      41.444  25.620  28.187  1.00  0.00     0.049 A 
ATOM     45  H   UNL A   1      42.258  27.313  29.086  1.00  0.00     0.167 HD
ATOM     46  C   UNL A   1      43.905  30.999  30.774  1.00  0.00     0.031 A 
ATOM     47  C   UNL A   1      42.422  24.699  28.113  1.00  0.00     0.031 A 
ATOM     48  C   UNL A   1      44.998  30.069  30.788  1.00  0.00     0.049 A 
ATOM     49  C   UNL A   1      43.786  25.035  28.651  1.00  0.00     0.074 A 
ATOM     50  C   UNL A   1      46.280  30.249  31.275  1.00  0.00     0.029 A 
ATOM     51  N   UNL A   1      44.925  28.769  30.311  1.00  0.00    -0.354 N 
ATOM     52  N   UNL A   1      44.210  26.153  29.188  1.00  0.00    -0.248 NA
ATOM     53  C   UNL A   1      44.802  23.974  28.587  1.00  0.00     0.031 C 
ATOM     54  C   UNL A   1      46.993  29.062  31.069  1.00  0.00     0.029 A 
ATOM     55  C   UNL A   1      46.141  28.134  30.491  1.00  0.00     0.049 A 
ATOM     56  H   UNL A   1      44.128  28.359  29.906  1.00  0.00     0.167 HD
ATOM     57  C   UNL A   1      45.530  25.922  29.552  1.00  0.00     0.074 A 
ATOM     58  C   UNL A   1      45.832  24.552  29.189  1.00  0.00     0.031 C 
ATOM     59  C   UNL A   1      46.415  26.767  30.134  1.00  0.00     0.031 A 
BRANCH  46  60
ATOM     60  C   UNL A   1      44.137  32.399  31.276  1.00  0.00    -0.014 A 
ATOM     61  C   UNL A   1      44.591  33.415  30.417  1.00  0.00     0.009 A 
ATOM     62  C   UNL A   1      43.905  32.707  32.624  1.00  0.00     0.009 A 
ATOM     63  C   UNL A   1      44.862  34.691  30.909  1.00  0.00     0.001 A 
ATOM     64  C   UNL A   1      44.142  33.995  33.108  1.00  0.00     0.001 A 
ATOM     65  C   UNL A   1      44.635  34.981  32.254  1.00  0.00     0.000 A 
ENDBRANCH  46  60
BRANCH  47  66
ATOM     66  C   UNL A   1      42.143  23.349  27.556  1.00  0.00    -0.014 A 
ATOM     67  C   UNL A   1      42.491  23.049  26.229  1.00  0.00     0.009 A 
ATOM     68  C   UNL A   1      41.525  22.359  28.333  1.00  0.00     0.009 A 
ATOM     69  C   UNL A   1      42.197  21.798  25.682  1.00  0.00     0.001 A 
ATOM     70  C   UNL A   1      41.256  21.099  27.793  1.00  0.00     0.001 A 
ATOM     71  C   UNL A   1      41.583  20.823  26.466  1.00  0.00     0.000 A 
ENDBRANCH  47  66
BRANCH  59  72
ATOM     72  C   UNL A   1      47.777  26.222  30.454  1.00  0.00    -0.014 A 
ATOM     73  C   UNL A   1      48.785  26.165  29.480  1.00  0.00     0.009 A 
ATOM     74  C   UNL A   1      48.064  25.802  31.762  1.00  0.00     0.009 A 
ATOM     75  C   UNL A   1      50.049  25.668  29.805  1.00  0.00     0.001 A 
ATOM     76  C   UNL A   1      49.334  25.331  32.089  1.00  0.00     0.001 A 
ATOM     77  C   UNL A   1      50.324  25.257  31.109  1.00  0.00     0.000 A 
ENDBRANCH  59  72
ENDBRANCH  33  34
ENDBRANCH  25  28
ENDBRANCH  23  24
ENDBRANCH  22  23
ENDBRANCH  21  22
ENDBRANCH   1  21
TORSDOF 16
ENDMDL
