MODEL 1
REMARK VINA RESULT:      -9.5      0.000      0.000
REMARK SMILES C[C@@H](CO)CS[C@@H](C)C[C@@](C)([NH3+])C(=O)NCCCCNC(=O)c1ccc(-c2c3nc(c(-c4ccccc4)c4ccc([nH]4)c(-c4ccccc4)c4nc(c(-c5ccccc5)c5ccc2[nH]5)C=C4)C=C3)cc1
REMARK SMILES IDX 13 1 14 2 15 3 10 5 11 6 9 7 7 8 8 9 6 10 5 11 2 12 1 13
REMARK SMILES IDX 3 14 4 15 12 17 16 21 17 22 18 23 19 24 20 25 21 26 22 28
REMARK SMILES IDX 23 29 24 30 70 31 25 32 69 33 26 34 27 35 28 36 63 37 29 38
REMARK SMILES IDX 68 39 62 40 64 41 30 42 67 43 61 44 60 45 31 47 53 48 38 49
REMARK SMILES IDX 52 50 39 51 42 52 51 53 65 54 40 55 41 56 50 58 66 59 43 60
REMARK SMILES IDX 32 61 33 62 37 63 34 64 36 65 35 66 54 67 55 68 59 69 56 70
REMARK SMILES IDX 58 71 57 72 44 73 45 74 49 75 46 76 48 77 47 78
REMARK H PARENT 15 4 4 16 12 18 12 19 12 20 20 27 64 46 42 57
REMARK Flexibility Score: inf
ROOT
ATOM      1  C   UNL A   1      35.871  23.310  23.847  1.00  0.00     0.281 C 
ATOM      2  O   UNL A   1      35.383  23.304  22.721  1.00  0.00    -0.268 OA
ATOM      3  N   UNL A   1      37.095  22.718  23.887  1.00  0.00    -0.351 N 
ATOM      4  H   UNL A   1      37.660  22.894  23.100  1.00  0.00     0.163 HD
ENDROOT
BRANCH   1   5
ATOM      5  C   UNL A   1      35.155  23.855  25.128  1.00  0.00     0.172 C 
ATOM      6  C   UNL A   1      34.310  25.093  24.775  1.00  0.00     0.090 C 
BRANCH   5   7
ATOM      7  C   UNL A   1      34.255  22.860  25.937  1.00  0.00     0.093 C 
BRANCH   7   8
ATOM      8  C   UNL A   1      32.753  22.628  25.656  1.00  0.00     0.050 C 
ATOM      9  C   UNL A   1      31.931  22.990  26.903  1.00  0.00     0.019 C 
BRANCH   8  10
ATOM     10  S   UNL A   1      32.149  21.024  24.988  1.00  0.00    -0.158 SA
BRANCH  10  11
ATOM     11  C   UNL A   1      33.644  19.994  24.641  1.00  0.00     0.075 C 
BRANCH  11  12
ATOM     12  C   UNL A   1      33.512  18.522  24.176  1.00  0.00     0.021 C 
ATOM     13  C   UNL A   1      34.814  17.727  24.248  1.00  0.00     0.011 C 
BRANCH  12  14
ATOM     14  C   UNL A   1      32.456  17.786  25.017  1.00  0.00     0.160 C 
BRANCH  14  15
ATOM     15  O   UNL A   1      32.970  17.402  26.284  1.00  0.00    -0.396 OA
ATOM     16  H   UNL A   1      33.709  17.983  26.523  1.00  0.00     0.210 HD
ENDBRANCH  14  15
ENDBRANCH  12  14
ENDBRANCH  11  12
ENDBRANCH  10  11
ENDBRANCH   8  10
ENDBRANCH   7   8
ENDBRANCH   5   7
BRANCH   5  17
ATOM     17  N   UNL A   1      36.215  24.229  26.110  1.00  0.00    -0.345 N 
ATOM     18  H   UNL A   1      36.178  23.594  26.908  1.00  0.00     0.345 HD
ATOM     19  H   UNL A   1      36.060  25.186  26.429  1.00  0.00     0.345 HD
ATOM     20  H   UNL A   1      37.129  24.163  25.663  1.00  0.00     0.345 HD
ENDBRANCH   5  17
ENDBRANCH   1   5
BRANCH   3  21
ATOM     21  C   UNL A   1      37.709  21.873  24.888  1.00  0.00     0.116 C 
BRANCH  21  22
ATOM     22  C   UNL A   1      37.212  20.430  24.743  1.00  0.00     0.023 C 
BRANCH  22  23
ATOM     23  C   UNL A   1      38.274  19.352  24.998  1.00  0.00     0.023 C 
BRANCH  23  24
ATOM     24  C   UNL A   1      39.440  19.785  25.880  1.00  0.00     0.116 C 
BRANCH  24  25
ATOM     25  N   UNL A   1      40.530  18.822  25.876  1.00  0.00    -0.352 N 
ATOM     26  C   UNL A   1      41.876  19.040  26.013  1.00  0.00     0.251 C 
ATOM     27  H   UNL A   1      40.263  17.882  25.759  1.00  0.00     0.163 HD
ATOM     28  O   UNL A   1      42.672  18.119  25.847  1.00  0.00    -0.269 OA
BRANCH  26  29
ATOM     29  C   UNL A   1      42.364  20.394  26.329  1.00  0.00     0.039 A 
ATOM     30  C   UNL A   1      42.819  21.207  25.290  1.00  0.00     0.014 A 
ATOM     31  C   UNL A   1      42.349  20.868  27.644  1.00  0.00     0.014 A 
ATOM     32  C   UNL A   1      43.204  22.521  25.559  1.00  0.00     0.010 A 
ATOM     33  C   UNL A   1      42.658  22.200  27.899  1.00  0.00     0.010 A 
ATOM     34  C   UNL A   1      43.093  23.038  26.861  1.00  0.00    -0.014 A 
BRANCH  34  35
ATOM     35  C   UNL A   1      43.444  24.447  27.164  1.00  0.00     0.031 A 
ATOM     36  C   UNL A   1      44.877  24.895  27.089  1.00  0.00     0.074 A 
ATOM     37  C   UNL A   1      42.486  25.306  27.565  1.00  0.00     0.049 A 
ATOM     38  N   UNL A   1      45.396  26.056  27.394  1.00  0.00    -0.248 NA
ATOM     39  C   UNL A   1      45.861  23.899  26.632  1.00  0.00     0.031 C 
ATOM     40  C   UNL A   1      41.062  24.990  27.704  1.00  0.00     0.029 A 
ATOM     41  N   UNL A   1      42.569  26.625  27.938  1.00  0.00    -0.354 N 
ATOM     42  C   UNL A   1      46.764  25.924  27.182  1.00  0.00     0.074 A 
ATOM     43  C   UNL A   1      47.000  24.557  26.776  1.00  0.00     0.031 C 
ATOM     44  C   UNL A   1      40.403  26.090  28.104  1.00  0.00     0.029 A 
ATOM     45  C   UNL A   1      41.362  27.174  28.298  1.00  0.00     0.049 A 
ATOM     46  H   UNL A   1      43.415  27.129  27.948  1.00  0.00     0.167 HD
ATOM     47  C   UNL A   1      47.733  26.863  27.292  1.00  0.00     0.031 A 
ATOM     48  C   UNL A   1      41.062  28.409  28.744  1.00  0.00     0.031 A 
ATOM     49  C   UNL A   1      47.497  28.225  27.689  1.00  0.00     0.049 A 
ATOM     50  C   UNL A   1      42.167  29.420  28.897  1.00  0.00     0.074 A 
ATOM     51  C   UNL A   1      48.409  29.261  27.795  1.00  0.00     0.029 A 
ATOM     52  N   UNL A   1      46.261  28.738  28.046  1.00  0.00    -0.354 N 
ATOM     53  N   UNL A   1      43.446  29.295  28.638  1.00  0.00    -0.248 NA
ATOM     54  C   UNL A   1      41.781  30.749  29.394  1.00  0.00     0.031 C 
ATOM     55  C   UNL A   1      47.732  30.389  28.268  1.00  0.00     0.029 A 
ATOM     56  C   UNL A   1      46.388  30.072  28.391  1.00  0.00     0.049 A 
ATOM     57  H   UNL A   1      45.417  28.230  28.052  1.00  0.00     0.167 HD
ATOM     58  C   UNL A   1      44.009  30.537  28.902  1.00  0.00     0.074 A 
ATOM     59  C   UNL A   1      42.931  31.404  29.328  1.00  0.00     0.031 C 
ATOM     60  C   UNL A   1      45.303  30.926  28.799  1.00  0.00     0.031 A 
BRANCH  47  61
ATOM     61  C   UNL A   1      49.143  26.444  26.978  1.00  0.00    -0.014 A 
ATOM     62  C   UNL A   1      49.667  26.572  25.681  1.00  0.00     0.009 A 
ATOM     63  C   UNL A   1      49.972  25.954  27.999  1.00  0.00     0.009 A 
ATOM     64  C   UNL A   1      50.980  26.186  25.407  1.00  0.00     0.001 A 
ATOM     65  C   UNL A   1      51.295  25.600  27.728  1.00  0.00     0.001 A 
ATOM     66  C   UNL A   1      51.795  25.706  26.431  1.00  0.00     0.000 A 
ENDBRANCH  47  61
BRANCH  48  67
ATOM     67  C   UNL A   1      39.658  28.771  29.074  1.00  0.00    -0.014 A 
ATOM     68  C   UNL A   1      39.139  28.519  30.354  1.00  0.00     0.009 A 
ATOM     69  C   UNL A   1      38.817  29.338  28.104  1.00  0.00     0.009 A 
ATOM     70  C   UNL A   1      37.800  28.790  30.643  1.00  0.00     0.001 A 
ATOM     71  C   UNL A   1      37.487  29.641  28.406  1.00  0.00     0.001 A 
ATOM     72  C   UNL A   1      36.976  29.354  29.670  1.00  0.00     0.000 A 
ENDBRANCH  48  67
BRANCH  60  73
ATOM     73  C   UNL A   1      45.618  32.367  29.093  1.00  0.00    -0.014 A 
ATOM     74  C   UNL A   1      46.002  32.788  30.375  1.00  0.00     0.009 A 
ATOM     75  C   UNL A   1      45.574  33.307  28.052  1.00  0.00     0.009 A 
ATOM     76  C   UNL A   1      46.303  34.132  30.614  1.00  0.00     0.001 A 
ATOM     77  C   UNL A   1      45.907  34.642  28.287  1.00  0.00     0.001 A 
ATOM     78  C   UNL A   1      46.262  35.054  29.569  1.00  0.00     0.000 A 
ENDBRANCH  60  73
ENDBRANCH  34  35
ENDBRANCH  26  29
ENDBRANCH  24  25
ENDBRANCH  23  24
ENDBRANCH  22  23
ENDBRANCH  21  22
ENDBRANCH   3  21
TORSDOF 19
ENDMDL
MODEL 2
REMARK VINA RESULT:      -9.4      3.451      8.031
REMARK SMILES C[C@@H](CO)CS[C@@H](C)C[C@@](C)([NH3+])C(=O)NCCCCNC(=O)c1ccc(-c2c3nc(c(-c4ccccc4)c4ccc([nH]4)c(-c4ccccc4)c4nc(c(-c5ccccc5)c5ccc2[nH]5)C=C4)C=C3)cc1
REMARK SMILES IDX 13 1 14 2 15 3 10 5 11 6 9 7 7 8 8 9 6 10 5 11 2 12 1 13
REMARK SMILES IDX 3 14 4 15 12 17 16 21 17 22 18 23 19 24 20 25 21 26 22 28
REMARK SMILES IDX 23 29 24 30 70 31 25 32 69 33 26 34 27 35 28 36 63 37 29 38
REMARK SMILES IDX 68 39 62 40 64 41 30 42 67 43 61 44 60 45 31 47 53 48 38 49
REMARK SMILES IDX 52 50 39 51 42 52 51 53 65 54 40 55 41 56 50 58 66 59 43 60
REMARK SMILES IDX 32 61 33 62 37 63 34 64 36 65 35 66 54 67 55 68 59 69 56 70
REMARK SMILES IDX 58 71 57 72 44 73 45 74 49 75 46 76 48 77 47 78
REMARK H PARENT 15 4 4 16 12 18 12 19 12 20 20 27 64 46 42 57
REMARK Flexibility Score: inf
ROOT
ATOM      1  C   UNL A   1      31.003  27.625  22.666  1.00  0.00     0.281 C 
ATOM      2  O   UNL A   1      30.208  28.152  21.893  1.00  0.00    -0.268 OA
ATOM      3  N   UNL A   1      30.852  28.064  23.945  1.00  0.00    -0.351 N 
ATOM      4  H   UNL A   1      29.918  28.212  24.218  1.00  0.00     0.163 HD
ENDROOT
BRANCH   1   5
ATOM      5  C   UNL A   1      32.130  26.624  22.245  1.00  0.00     0.172 C 
ATOM      6  C   UNL A   1      33.504  27.315  22.318  1.00  0.00     0.090 C 
BRANCH   5   7
ATOM      7  C   UNL A   1      32.222  25.265  23.017  1.00  0.00     0.093 C 
BRANCH   7   8
ATOM      8  C   UNL A   1      33.532  24.469  23.216  1.00  0.00     0.050 C 
ATOM      9  C   UNL A   1      33.535  23.239  22.295  1.00  0.00     0.019 C 
BRANCH   8  10
ATOM     10  S   UNL A   1      34.089  23.961  24.893  1.00  0.00    -0.158 SA
BRANCH  10  11
ATOM     11  C   UNL A   1      32.566  23.705  25.907  1.00  0.00     0.075 C 
BRANCH  11  12
ATOM     12  C   UNL A   1      31.462  22.713  25.460  1.00  0.00     0.021 C 
ATOM     13  C   UNL A   1      31.947  21.275  25.293  1.00  0.00     0.011 C 
BRANCH  12  14
ATOM     14  C   UNL A   1      30.301  22.713  26.468  1.00  0.00     0.160 C 
BRANCH  14  15
ATOM     15  O   UNL A   1      30.212  23.948  27.164  1.00  0.00    -0.396 OA
ATOM     16  H   UNL A   1      30.979  24.500  26.943  1.00  0.00     0.210 HD
ENDBRANCH  14  15
ENDBRANCH  12  14
ENDBRANCH  11  12
ENDBRANCH  10  11
ENDBRANCH   8  10
ENDBRANCH   7   8
ENDBRANCH   5   7
BRANCH   5  17
ATOM     17  N   UNL A   1      31.852  26.199  20.841  1.00  0.00    -0.345 N 
ATOM     18  H   UNL A   1      32.632  25.642  20.494  1.00  0.00     0.345 HD
ATOM     19  H   UNL A   1      31.735  27.025  20.253  1.00  0.00     0.345 HD
ATOM     20  H   UNL A   1      30.998  25.643  20.818  1.00  0.00     0.345 HD
ENDBRANCH   5  17
ENDBRANCH   1   5
BRANCH   3  21
ATOM     21  C   UNL A   1      31.829  28.349  24.973  1.00  0.00     0.116 C 
BRANCH  21  22
ATOM     22  C   UNL A   1      31.483  27.592  26.260  1.00  0.00     0.023 C 
BRANCH  22  23
ATOM     23  C   UNL A   1      32.206  28.092  27.518  1.00  0.00     0.023 C 
BRANCH  23  24
ATOM     24  C   UNL A   1      33.542  28.781  27.267  1.00  0.00     0.116 C 
BRANCH  24  25
ATOM     25  N   UNL A   1      33.542  30.171  27.699  1.00  0.00    -0.352 N 
ATOM     26  C   UNL A   1      34.533  30.881  28.326  1.00  0.00     0.251 C 
ATOM     27  H   UNL A   1      32.716  30.671  27.514  1.00  0.00     0.163 HD
ATOM     28  O   UNL A   1      34.313  32.014  28.745  1.00  0.00    -0.269 OA
BRANCH  26  29
ATOM     29  C   UNL A   1      35.857  30.262  28.523  1.00  0.00     0.039 A 
ATOM     30  C   UNL A   1      36.785  30.305  27.482  1.00  0.00     0.014 A 
ATOM     31  C   UNL A   1      36.188  29.665  29.743  1.00  0.00     0.014 A 
ATOM     32  C   UNL A   1      38.070  29.801  27.681  1.00  0.00     0.010 A 
ATOM     33  C   UNL A   1      37.492  29.235  29.966  1.00  0.00     0.010 A 
ATOM     34  C   UNL A   1      38.444  29.293  28.937  1.00  0.00    -0.014 A 
BRANCH  34  35
ATOM     35  C   UNL A   1      39.820  28.801  29.192  1.00  0.00     0.031 A 
ATOM     36  C   UNL A   1      40.836  29.712  29.823  1.00  0.00     0.074 A 
ATOM     37  C   UNL A   1      40.173  27.561  28.802  1.00  0.00     0.049 A 
ATOM     38  N   UNL A   1      42.106  29.501  30.052  1.00  0.00    -0.248 NA
ATOM     39  C   UNL A   1      40.366  31.048  30.230  1.00  0.00     0.031 C 
ATOM     40  C   UNL A   1      39.289  26.586  28.156  1.00  0.00     0.029 A 
ATOM     41  N   UNL A   1      41.378  26.908  28.887  1.00  0.00    -0.354 N 
ATOM     42  C   UNL A   1      42.589  30.678  30.612  1.00  0.00     0.074 A 
ATOM     43  C   UNL A   1      41.490  31.618  30.638  1.00  0.00     0.031 C 
ATOM     44  C   UNL A   1      39.974  25.454  27.928  1.00  0.00     0.029 A 
ATOM     45  C   UNL A   1      41.354  25.636  28.366  1.00  0.00     0.049 A 
ATOM     46  H   UNL A   1      42.183  27.313  29.282  1.00  0.00     0.167 HD
ATOM     47  C   UNL A   1      43.828  30.945  31.085  1.00  0.00     0.031 A 
ATOM     48  C   UNL A   1      42.337  24.724  28.245  1.00  0.00     0.031 A 
ATOM     49  C   UNL A   1      44.920  30.009  31.065  1.00  0.00     0.049 A 
ATOM     50  C   UNL A   1      43.718  25.064  28.741  1.00  0.00     0.074 A 
ATOM     51  C   UNL A   1      46.205  30.173  31.553  1.00  0.00     0.029 A 
ATOM     52  N   UNL A   1      44.854  28.734  30.528  1.00  0.00    -0.354 N 
ATOM     53  N   UNL A   1      44.142  26.161  29.319  1.00  0.00    -0.248 NA
ATOM     54  C   UNL A   1      44.751  24.031  28.576  1.00  0.00     0.031 C 
ATOM     55  C   UNL A   1      46.932  29.014  31.263  1.00  0.00     0.029 A 
ATOM     56  C   UNL A   1      46.081  28.106  30.655  1.00  0.00     0.049 A 
ATOM     57  H   UNL A   1      44.053  28.333  30.117  1.00  0.00     0.167 HD
ATOM     58  C   UNL A   1      45.479  25.936  29.622  1.00  0.00     0.074 A 
ATOM     59  C   UNL A   1      45.790  24.594  29.176  1.00  0.00     0.031 C 
ATOM     60  C   UNL A   1      46.369  26.764  30.219  1.00  0.00     0.031 A 
BRANCH  47  61
ATOM     61  C   UNL A   1      44.071  32.312  31.664  1.00  0.00    -0.014 A 
ATOM     62  C   UNL A   1      43.836  32.577  33.023  1.00  0.00     0.009 A 
ATOM     63  C   UNL A   1      44.579  33.337  30.851  1.00  0.00     0.009 A 
ATOM     64  C   UNL A   1      44.072  33.849  33.547  1.00  0.00     0.001 A 
ATOM     65  C   UNL A   1      44.846  34.598  31.386  1.00  0.00     0.001 A 
ATOM     66  C   UNL A   1      44.583  34.857  32.730  1.00  0.00     0.000 A 
ENDBRANCH  47  61
BRANCH  48  67
ATOM     67  C   UNL A   1      42.062  23.395  27.636  1.00  0.00    -0.014 A 
ATOM     68  C   UNL A   1      42.332  23.164  26.278  1.00  0.00     0.009 A 
ATOM     69  C   UNL A   1      41.495  22.361  28.397  1.00  0.00     0.009 A 
ATOM     70  C   UNL A   1      42.005  21.942  25.687  1.00  0.00     0.001 A 
ATOM     71  C   UNL A   1      41.201  21.127  27.812  1.00  0.00     0.001 A 
ATOM     72  C   UNL A   1      41.443  20.923  26.455  1.00  0.00     0.000 A 
ENDBRANCH  48  67
BRANCH  60  73
ATOM     73  C   UNL A   1      47.749  26.225  30.481  1.00  0.00    -0.014 A 
ATOM     74  C   UNL A   1      48.739  26.225  29.487  1.00  0.00     0.009 A 
ATOM     75  C   UNL A   1      48.071  25.754  31.764  1.00  0.00     0.009 A 
ATOM     76  C   UNL A   1      50.016  25.731  29.765  1.00  0.00     0.001 A 
ATOM     77  C   UNL A   1      49.357  25.293  32.047  1.00  0.00     0.001 A 
ATOM     78  C   UNL A   1      50.325  25.273  31.046  1.00  0.00     0.000 A 
ENDBRANCH  60  73
ENDBRANCH  34  35
ENDBRANCH  26  29
ENDBRANCH  24  25
ENDBRANCH  23  24
ENDBRANCH  22  23
ENDBRANCH  21  22
ENDBRANCH   3  21
TORSDOF 19
ENDMDL
MODEL 3
REMARK VINA RESULT:      -9.4      5.151      9.999
REMARK SMILES C[C@@H](CO)CS[C@@H](C)C[C@@](C)([NH3+])C(=O)NCCCCNC(=O)c1ccc(-c2c3nc(c(-c4ccccc4)c4ccc([nH]4)c(-c4ccccc4)c4nc(c(-c5ccccc5)c5ccc2[nH]5)C=C4)C=C3)cc1
REMARK SMILES IDX 13 1 14 2 15 3 10 5 11 6 9 7 7 8 8 9 6 10 5 11 2 12 1 13
REMARK SMILES IDX 3 14 4 15 12 17 16 21 17 22 18 23 19 24 20 25 21 26 22 28
REMARK SMILES IDX 23 29 24 30 70 31 25 32 69 33 26 34 27 35 28 36 63 37 29 38
REMARK SMILES IDX 68 39 62 40 64 41 30 42 67 43 61 44 60 45 31 47 53 48 38 49
REMARK SMILES IDX 52 50 39 51 42 52 51 53 65 54 40 55 41 56 50 58 66 59 43 60
REMARK SMILES IDX 32 61 33 62 37 63 34 64 36 65 35 66 54 67 55 68 59 69 56 70
REMARK SMILES IDX 58 71 57 72 44 73 45 74 49 75 46 76 48 77 47 78
REMARK H PARENT 15 4 4 16 12 18 12 19 12 20 20 27 64 46 42 57
REMARK Flexibility Score: inf
ROOT
ATOM      1  C   UNL A   1      31.259  28.908  23.013  1.00  0.00     0.281 C 
ATOM      2  O   UNL A   1      30.631  29.522  22.156  1.00  0.00    -0.268 OA
ATOM      3  N   UNL A   1      31.271  29.553  24.211  1.00  0.00    -0.351 N 
ATOM      4  H   UNL A   1      30.426  30.003  24.441  1.00  0.00     0.163 HD
ENDROOT
BRANCH   1   5
ATOM      5  C   UNL A   1      32.040  27.573  22.766  1.00  0.00     0.172 C 
ATOM      6  C   UNL A   1      33.511  27.878  22.429  1.00  0.00     0.090 C 
BRANCH   5   7
ATOM      7  C   UNL A   1      32.008  26.491  23.897  1.00  0.00     0.093 C 
BRANCH   7   8
ATOM      8  C   UNL A   1      30.844  25.497  24.112  1.00  0.00     0.050 C 
ATOM      9  C   UNL A   1      30.017  25.923  25.334  1.00  0.00     0.019 C 
BRANCH   8  10
ATOM     10  S   UNL A   1      31.147  23.684  24.197  1.00  0.00    -0.158 SA
BRANCH  10  11
ATOM     11  C   UNL A   1      32.974  23.456  24.359  1.00  0.00     0.075 C 
BRANCH  11  12
ATOM     12  C   UNL A   1      33.922  23.699  23.158  1.00  0.00     0.021 C 
ATOM     13  C   UNL A   1      35.261  22.973  23.264  1.00  0.00     0.011 C 
BRANCH  12  14
ATOM     14  C   UNL A   1      33.246  23.269  21.846  1.00  0.00     0.160 C 
BRANCH  14  15
ATOM     15  O   UNL A   1      33.018  24.377  20.986  1.00  0.00    -0.396 OA
ATOM     16  H   UNL A   1      33.841  24.599  20.522  1.00  0.00     0.210 HD
ENDBRANCH  14  15
ENDBRANCH  12  14
ENDBRANCH  11  12
ENDBRANCH  10  11
ENDBRANCH   8  10
ENDBRANCH   7   8
ENDBRANCH   5   7
BRANCH   5  17
ATOM     17  N   UNL A   1      31.390  26.881  21.614  1.00  0.00    -0.345 N 
ATOM     18  H   UNL A   1      31.569  25.878  21.677  1.00  0.00     0.345 HD
ATOM     19  H   UNL A   1      31.775  27.241  20.740  1.00  0.00     0.345 HD
ATOM     20  H   UNL A   1      30.385  27.051  21.639  1.00  0.00     0.345 HD
ENDBRANCH   5  17
ENDBRANCH   1   5
BRANCH   3  21
ATOM     21  C   UNL A   1      32.313  29.691  25.205  1.00  0.00     0.116 C 
BRANCH  21  22
ATOM     22  C   UNL A   1      31.712  30.115  26.550  1.00  0.00     0.023 C 
BRANCH  22  23
ATOM     23  C   UNL A   1      31.504  31.625  26.718  1.00  0.00     0.023 C 
BRANCH  23  24
ATOM     24  C   UNL A   1      32.772  32.429  26.988  1.00  0.00     0.116 C 
BRANCH  24  25
ATOM     25  N   UNL A   1      32.489  33.762  27.496  1.00  0.00    -0.352 N 
ATOM     26  C   UNL A   1      33.135  34.468  28.478  1.00  0.00     0.251 C 
ATOM     27  H   UNL A   1      31.728  34.223  27.075  1.00  0.00     0.163 HD
ATOM     28  O   UNL A   1      32.676  35.534  28.879  1.00  0.00    -0.269 OA
BRANCH  26  29
ATOM     29  C   UNL A   1      34.369  33.922  29.073  1.00  0.00     0.039 A 
ATOM     30  C   UNL A   1      34.267  33.075  30.178  1.00  0.00     0.014 A 
ATOM     31  C   UNL A   1      35.618  34.225  28.526  1.00  0.00     0.014 A 
ATOM     32  C   UNL A   1      35.417  32.482  30.701  1.00  0.00     0.010 A 
ATOM     33  C   UNL A   1      36.752  33.573  28.997  1.00  0.00     0.010 A 
ATOM     34  C   UNL A   1      36.664  32.700  30.092  1.00  0.00    -0.014 A 
BRANCH  34  35
ATOM     35  C   UNL A   1      37.894  32.038  30.594  1.00  0.00     0.031 A 
ATOM     36  C   UNL A   1      38.665  32.652  31.729  1.00  0.00     0.074 A 
ATOM     37  C   UNL A   1      38.349  30.921  29.992  1.00  0.00     0.049 A 
ATOM     38  N   UNL A   1      39.802  32.276  32.254  1.00  0.00    -0.248 NA
ATOM     39  C   UNL A   1      38.094  33.866  32.339  1.00  0.00     0.031 C 
ATOM     40  C   UNL A   1      37.708  30.239  28.864  1.00  0.00     0.029 A 
ATOM     41  N   UNL A   1      39.468  30.166  30.242  1.00  0.00    -0.354 N 
ATOM     42  C   UNL A   1      40.088  33.211  33.242  1.00  0.00     0.074 A 
ATOM     43  C   UNL A   1      39.037  34.202  33.205  1.00  0.00     0.031 C 
ATOM     44  C   UNL A   1      38.428  29.154  28.539  1.00  0.00     0.029 A 
ATOM     45  C   UNL A   1      39.606  29.089  29.399  1.00  0.00     0.049 A 
ATOM     46  H   UNL A   1      40.111  30.377  30.956  1.00  0.00     0.167 HD
ATOM     47  C   UNL A   1      41.121  33.231  34.116  1.00  0.00     0.031 A 
ATOM     48  C   UNL A   1      40.577  28.159  29.323  1.00  0.00     0.031 A 
ATOM     49  C   UNL A   1      42.164  32.241  34.158  1.00  0.00     0.049 A 
ATOM     50  C   UNL A   1      41.736  28.230  30.281  1.00  0.00     0.074 A 
ATOM     51  C   UNL A   1      43.235  32.154  35.030  1.00  0.00     0.029 A 
ATOM     52  N   UNL A   1      42.267  31.168  33.287  1.00  0.00    -0.354 N 
ATOM     53  N   UNL A   1      41.962  29.089  31.245  1.00  0.00    -0.248 NA
ATOM     54  C   UNL A   1      42.769  27.192  30.145  1.00  0.00     0.031 C 
ATOM     55  C   UNL A   1      44.015  31.056  34.653  1.00  0.00     0.029 A 
ATOM     56  C   UNL A   1      43.393  30.424  33.589  1.00  0.00     0.049 A 
ATOM     57  H   UNL A   1      41.632  30.966  32.561  1.00  0.00     0.167 HD
ATOM     58  C   UNL A   1      43.139  28.673  31.854  1.00  0.00     0.074 A 
ATOM     59  C   UNL A   1      43.572  27.479  31.160  1.00  0.00     0.031 C 
ATOM     60  C   UNL A   1      43.801  29.229  32.898  1.00  0.00     0.031 A 
BRANCH  47  61
ATOM     61  C   UNL A   1      41.174  34.365  35.103  1.00  0.00    -0.014 A 
ATOM     62  C   UNL A   1      40.605  34.242  36.381  1.00  0.00     0.009 A 
ATOM     63  C   UNL A   1      41.835  35.556  34.767  1.00  0.00     0.009 A 
ATOM     64  C   UNL A   1      40.668  35.300  37.289  1.00  0.00     0.001 A 
ATOM     65  C   UNL A   1      41.925  36.600  35.689  1.00  0.00     0.001 A 
ATOM     66  C   UNL A   1      41.333  36.476  36.945  1.00  0.00     0.000 A 
ENDBRANCH  47  61
BRANCH  48  67
ATOM     67  C   UNL A   1      40.503  27.073  28.309  1.00  0.00    -0.014 A 
ATOM     68  C   UNL A   1      41.048  27.254  27.029  1.00  0.00     0.009 A 
ATOM     69  C   UNL A   1      39.856  25.862  28.603  1.00  0.00     0.009 A 
ATOM     70  C   UNL A   1      40.913  26.264  26.053  1.00  0.00     0.001 A 
ATOM     71  C   UNL A   1      39.753  24.859  27.636  1.00  0.00     0.001 A 
ATOM     72  C   UNL A   1      40.269  25.067  26.358  1.00  0.00     0.000 A 
ENDBRANCH  48  67
BRANCH  60  73
ATOM     73  C   UNL A   1      45.032  28.519  33.393  1.00  0.00    -0.014 A 
ATOM     74  C   UNL A   1      46.312  28.856  32.929  1.00  0.00     0.009 A 
ATOM     75  C   UNL A   1      44.904  27.528  34.379  1.00  0.00     0.009 A 
ATOM     76  C   UNL A   1      47.437  28.189  33.419  1.00  0.00     0.001 A 
ATOM     77  C   UNL A   1      46.033  26.887  34.891  1.00  0.00     0.001 A 
ATOM     78  C   UNL A   1      47.297  27.211  34.404  1.00  0.00     0.000 A 
ENDBRANCH  60  73
ENDBRANCH  34  35
ENDBRANCH  26  29
ENDBRANCH  24  25
ENDBRANCH  23  24
ENDBRANCH  22  23
ENDBRANCH  21  22
ENDBRANCH   3  21
TORSDOF 19
ENDMDL
