MODEL 1
REMARK VINA RESULT:     -10.2      0.000      0.000
REMARK SMILES C[C@](O)(c1cnccn1)[C@H](F)C(=O)NCCCCNC(=O)c1ccc(-c2c3nc(c(-c4ccccc4)c4ccc([nH]4)c(-c4ccccc4)c4nc(c(-c5ccccc5)c5ccc2[nH]5)C=C4)C=C3)cc1
REMARK SMILES IDX 16 1 15 2 14 3 12 4 13 5 10 7 11 8 2 9 1 10 4 11 5 12 9 13
REMARK SMILES IDX 6 14 8 15 7 16 3 17 17 19 18 20 19 21 20 22 21 24 22 25
REMARK SMILES IDX 23 26 69 27 24 28 68 29 25 30 26 31 27 32 62 33 28 34 67 35
REMARK SMILES IDX 61 36 63 37 29 38 66 39 60 40 59 41 30 43 52 44 37 45 51 46
REMARK SMILES IDX 38 47 41 48 50 49 64 50 39 51 40 52 49 54 65 55 42 56 31 57
REMARK SMILES IDX 32 58 36 59 33 60 35 61 34 62 53 63 54 64 58 65 55 66 57 67
REMARK SMILES IDX 56 68 43 69 44 70 48 71 45 72 47 73 46 74
REMARK H PARENT 14 6 3 18 19 23 63 42 41 53
REMARK Flexibility Score: inf
ROOT
ATOM      1  C   UNL A   1      33.820  27.123  25.153  1.00  0.00     0.023 C 
ENDROOT
BRANCH   1   2
ATOM      2  C   UNL A   1      32.382  26.698  24.887  1.00  0.00     0.116 C 
BRANCH   2   3
ATOM      3  N   UNL A   1      32.102  26.360  23.505  1.00  0.00    -0.353 N 
ATOM      4  C   UNL A   1      31.183  26.921  22.664  1.00  0.00     0.258 C 
ATOM      5  O   UNL A   1      31.287  26.669  21.460  1.00  0.00    -0.272 OA
ATOM      6  H   UNL A   1      32.644  25.632  23.124  1.00  0.00     0.163 HD
BRANCH   4   7
ATOM      7  C   UNL A   1      30.086  27.854  23.175  1.00  0.00     0.292 C 
ATOM      8  F   UNL A   1      29.558  27.445  24.371  1.00  0.00    -0.233 F 
BRANCH   7   9
ATOM      9  C   UNL A   1      30.506  29.343  23.258  1.00  0.00     0.145 C 
ATOM     10  C   UNL A   1      30.938  29.711  24.684  1.00  0.00     0.053 C 
BRANCH   9  11
ATOM     11  C   UNL A   1      29.476  30.290  22.655  1.00  0.00     0.094 A 
ATOM     12  C   UNL A   1      28.880  31.333  23.360  1.00  0.00     0.138 A 
ATOM     13  N   UNL A   1      29.162  30.089  21.339  1.00  0.00    -0.255 NA
ATOM     14  N   UNL A   1      27.960  32.169  22.816  1.00  0.00    -0.261 NA
ATOM     15  C   UNL A   1      28.248  30.930  20.795  1.00  0.00     0.131 A 
ATOM     16  C   UNL A   1      27.661  31.948  21.518  1.00  0.00     0.131 A 
ENDBRANCH   9  11
BRANCH   9  17
ATOM     17  O   UNL A   1      31.708  29.485  22.455  1.00  0.00    -0.380 OA
ATOM     18  H   UNL A   1      31.993  30.411  22.462  1.00  0.00     0.212 HD
ENDBRANCH   9  17
ENDBRANCH   7   9
ENDBRANCH   4   7
ENDBRANCH   2   3
ENDBRANCH   1   2
BRANCH   1  19
ATOM     19  C   UNL A   1      34.004  28.511  25.757  1.00  0.00     0.023 C 
BRANCH  19  20
ATOM     20  C   UNL A   1      33.556  28.677  27.205  1.00  0.00     0.116 C 
BRANCH  20  21
ATOM     21  N   UNL A   1      33.621  30.049  27.687  1.00  0.00    -0.352 N 
ATOM     22  C   UNL A   1      34.669  30.732  28.258  1.00  0.00     0.251 C 
ATOM     23  H   UNL A   1      32.789  30.566  27.589  1.00  0.00     0.163 HD
ATOM     24  O   UNL A   1      34.507  31.879  28.667  1.00  0.00    -0.269 OA
BRANCH  22  25
ATOM     25  C   UNL A   1      35.978  30.066  28.424  1.00  0.00     0.039 A 
ATOM     26  C   UNL A   1      36.902  30.125  27.377  1.00  0.00     0.014 A 
ATOM     27  C   UNL A   1      36.313  29.427  29.619  1.00  0.00     0.014 A 
ATOM     28  C   UNL A   1      38.195  29.631  27.566  1.00  0.00     0.010 A 
ATOM     29  C   UNL A   1      37.624  29.013  29.835  1.00  0.00     0.010 A 
ATOM     30  C   UNL A   1      38.582  29.118  28.814  1.00  0.00    -0.014 A 
BRANCH  30  31
ATOM     31  C   UNL A   1      39.983  28.704  29.083  1.00  0.00     0.031 A 
ATOM     32  C   UNL A   1      40.944  29.660  29.733  1.00  0.00     0.074 A 
ATOM     33  C   UNL A   1      40.417  27.496  28.668  1.00  0.00     0.049 A 
ATOM     34  N   UNL A   1      42.223  29.510  29.973  1.00  0.00    -0.248 NA
ATOM     35  C   UNL A   1      40.404  30.967  30.141  1.00  0.00     0.031 C 
ATOM     36  C   UNL A   1      39.603  26.488  27.983  1.00  0.00     0.029 A 
ATOM     37  N   UNL A   1      41.658  26.914  28.755  1.00  0.00    -0.354 N 
ATOM     38  C   UNL A   1      42.643  30.710  30.532  1.00  0.00     0.074 A 
ATOM     39  C   UNL A   1      41.496  31.592  30.556  1.00  0.00     0.031 C 
ATOM     40  C   UNL A   1      40.358  25.404  27.740  1.00  0.00     0.029 A 
ATOM     41  C   UNL A   1      41.715  25.654  28.212  1.00  0.00     0.049 A 
ATOM     42  H   UNL A   1      42.433  27.360  29.167  1.00  0.00     0.167 HD
ATOM     43  C   UNL A   1      43.869  31.045  31.002  1.00  0.00     0.031 A 
ATOM     44  C   UNL A   1      42.747  24.795  28.102  1.00  0.00     0.031 A 
ATOM     45  C   UNL A   1      45.005  30.164  31.004  1.00  0.00     0.049 A 
ATOM     46  C   UNL A   1      44.096  25.189  28.633  1.00  0.00     0.074 A 
ATOM     47  C   UNL A   1      46.268  30.390  31.523  1.00  0.00     0.029 A 
ATOM     48  N   UNL A   1      45.016  28.891  30.459  1.00  0.00    -0.354 N 
ATOM     49  N   UNL A   1      44.458  26.302  29.223  1.00  0.00    -0.248 NA
ATOM     50  C   UNL A   1      45.176  24.202  28.489  1.00  0.00     0.031 C 
ATOM     51  C   UNL A   1      47.058  29.266  31.253  1.00  0.00     0.029 A 
ATOM     52  C   UNL A   1      46.271  28.325  30.611  1.00  0.00     0.049 A 
ATOM     53  H   UNL A   1      44.246  28.453  30.029  1.00  0.00     0.167 HD
ATOM     54  C   UNL A   1      45.799  26.139  29.546  1.00  0.00     0.074 A 
ATOM     55  C   UNL A   1      46.182  24.816  29.098  1.00  0.00     0.031 C 
ATOM     56  C   UNL A   1      46.637  27.007  30.162  1.00  0.00     0.031 A 
BRANCH  43  57
ATOM     57  C   UNL A   1      44.039  32.432  31.554  1.00  0.00    -0.014 A 
ATOM     58  C   UNL A   1      44.420  33.502  30.729  1.00  0.00     0.009 A 
ATOM     59  C   UNL A   1      43.786  32.678  32.913  1.00  0.00     0.009 A 
ATOM     60  C   UNL A   1      44.583  34.783  31.262  1.00  0.00     0.001 A 
ATOM     61  C   UNL A   1      43.922  33.965  33.436  1.00  0.00     0.001 A 
ATOM     62  C   UNL A   1      44.329  35.014  32.613  1.00  0.00     0.000 A 
ENDBRANCH  43  57
BRANCH  44  63
ATOM     63  C   UNL A   1      42.542  23.460  27.481  1.00  0.00    -0.014 A 
ATOM     64  C   UNL A   1      42.136  22.370  28.266  1.00  0.00     0.009 A 
ATOM     65  C   UNL A   1      42.761  23.265  26.109  1.00  0.00     0.009 A 
ATOM     66  C   UNL A   1      41.978  21.105  27.694  1.00  0.00     0.001 A 
ATOM     67  C   UNL A   1      42.577  22.005  25.535  1.00  0.00     0.001 A 
ATOM     68  C   UNL A   1      42.194  20.925  26.328  1.00  0.00     0.000 A 
ENDBRANCH  44  63
BRANCH  56  69
ATOM     69  C   UNL A   1      48.041  26.541  30.419  1.00  0.00    -0.014 A 
ATOM     70  C   UNL A   1      49.067  26.772  29.491  1.00  0.00     0.009 A 
ATOM     71  C   UNL A   1      48.347  25.897  31.628  1.00  0.00     0.009 A 
ATOM     72  C   UNL A   1      50.368  26.340  29.756  1.00  0.00     0.001 A 
ATOM     73  C   UNL A   1      49.654  25.491  31.903  1.00  0.00     0.001 A 
ATOM     74  C   UNL A   1      50.661  25.705  30.963  1.00  0.00     0.000 A 
ENDBRANCH  56  69
ENDBRANCH  30  31
ENDBRANCH  22  25
ENDBRANCH  20  21
ENDBRANCH  19  20
ENDBRANCH   1  19
TORSDOF 14
ENDMDL
MODEL 2
REMARK VINA RESULT:     -10.2      3.814      6.125
REMARK SMILES C[C@](O)(c1cnccn1)[C@H](F)C(=O)NCCCCNC(=O)c1ccc(-c2c3nc(c(-c4ccccc4)c4ccc([nH]4)c(-c4ccccc4)c4nc(c(-c5ccccc5)c5ccc2[nH]5)C=C4)C=C3)cc1
REMARK SMILES IDX 16 1 15 2 14 3 12 4 13 5 10 7 11 8 2 9 1 10 4 11 5 12 9 13
REMARK SMILES IDX 6 14 8 15 7 16 3 17 17 19 18 20 19 21 20 22 21 24 22 25
REMARK SMILES IDX 23 26 69 27 24 28 68 29 25 30 26 31 27 32 62 33 28 34 67 35
REMARK SMILES IDX 61 36 63 37 29 38 66 39 60 40 59 41 30 43 52 44 37 45 51 46
REMARK SMILES IDX 38 47 41 48 50 49 64 50 39 51 40 52 49 54 65 55 42 56 31 57
REMARK SMILES IDX 32 58 36 59 33 60 35 61 34 62 53 63 54 64 58 65 55 66 57 67
REMARK SMILES IDX 56 68 43 69 44 70 48 71 45 72 47 73 46 74
REMARK H PARENT 14 6 3 18 19 23 63 42 41 53
REMARK Flexibility Score: inf
ROOT
ATOM      1  C   UNL A   1      37.709  33.377  29.178  1.00  0.00     0.023 C 
ENDROOT
BRANCH   1   2
ATOM      2  C   UNL A   1      38.070  34.284  30.346  1.00  0.00     0.116 C 
BRANCH   2   3
ATOM      3  N   UNL A   1      38.616  33.591  31.496  1.00  0.00    -0.353 N 
ATOM      4  C   UNL A   1      37.945  32.932  32.488  1.00  0.00     0.258 C 
ATOM      5  O   UNL A   1      38.604  32.191  33.224  1.00  0.00    -0.272 OA
ATOM      6  H   UNL A   1      39.598  33.597  31.573  1.00  0.00     0.163 HD
BRANCH   4   7
ATOM      7  C   UNL A   1      36.434  33.069  32.667  1.00  0.00     0.292 C 
ATOM      8  F   UNL A   1      35.852  31.926  33.149  1.00  0.00    -0.233 F 
BRANCH   7   9
ATOM      9  C   UNL A   1      36.003  34.289  33.519  1.00  0.00     0.145 C 
ATOM     10  C   UNL A   1      35.719  33.870  34.968  1.00  0.00     0.053 C 
BRANCH   9  11
ATOM     11  C   UNL A   1      34.888  35.105  32.876  1.00  0.00     0.094 A 
ATOM     12  C   UNL A   1      33.948  34.570  31.998  1.00  0.00     0.138 A 
ATOM     13  N   UNL A   1      34.823  36.425  33.223  1.00  0.00    -0.255 NA
ATOM     14  N   UNL A   1      32.962  35.305  31.426  1.00  0.00    -0.261 NA
ATOM     15  C   UNL A   1      33.832  37.157  32.657  1.00  0.00     0.131 A 
ATOM     16  C   UNL A   1      32.922  36.608  31.777  1.00  0.00     0.131 A 
ENDBRANCH   9  11
BRANCH   9  17
ATOM     17  O   UNL A   1      37.154  35.169  33.603  1.00  0.00    -0.380 OA
ATOM     18  H   UNL A   1      37.360  35.518  32.723  1.00  0.00     0.212 HD
ENDBRANCH   9  17
ENDBRANCH   7   9
ENDBRANCH   4   7
ENDBRANCH   2   3
ENDBRANCH   1   2
BRANCH   1  19
ATOM     19  C   UNL A   1      36.268  33.466  28.686  1.00  0.00     0.023 C 
BRANCH  19  20
ATOM     20  C   UNL A   1      35.226  32.733  29.524  1.00  0.00     0.116 C 
BRANCH  20  21
ATOM     21  N   UNL A   1      34.338  31.882  28.746  1.00  0.00    -0.352 N 
ATOM     22  C   UNL A   1      34.576  30.653  28.175  1.00  0.00     0.251 C 
ATOM     23  H   UNL A   1      33.432  32.239  28.607  1.00  0.00     0.163 HD
ATOM     24  O   UNL A   1      33.710  30.115  27.489  1.00  0.00    -0.269 OA
BRANCH  22  25
ATOM     25  C   UNL A   1      35.892  30.003  28.348  1.00  0.00     0.039 A 
ATOM     26  C   UNL A   1      36.828  30.091  27.315  1.00  0.00     0.014 A 
ATOM     27  C   UNL A   1      36.219  29.348  29.537  1.00  0.00     0.014 A 
ATOM     28  C   UNL A   1      38.125  29.611  27.514  1.00  0.00     0.010 A 
ATOM     29  C   UNL A   1      37.532  28.948  29.764  1.00  0.00     0.010 A 
ATOM     30  C   UNL A   1      38.502  29.082  28.759  1.00  0.00    -0.014 A 
BRANCH  30  31
ATOM     31  C   UNL A   1      39.905  28.683  29.040  1.00  0.00     0.031 A 
ATOM     32  C   UNL A   1      40.855  29.654  29.684  1.00  0.00     0.074 A 
ATOM     33  C   UNL A   1      40.351  27.474  28.641  1.00  0.00     0.049 A 
ATOM     34  N   UNL A   1      42.133  29.518  29.933  1.00  0.00    -0.248 NA
ATOM     35  C   UNL A   1      40.302  30.962  30.074  1.00  0.00     0.031 C 
ATOM     36  C   UNL A   1      39.549  26.452  27.963  1.00  0.00     0.029 A 
ATOM     37  N   UNL A   1      41.596  26.903  28.741  1.00  0.00    -0.354 N 
ATOM     38  C   UNL A   1      42.541  30.728  30.481  1.00  0.00     0.074 A 
ATOM     39  C   UNL A   1      41.387  31.600  30.488  1.00  0.00     0.031 C 
ATOM     40  C   UNL A   1      40.314  25.372  27.737  1.00  0.00     0.029 A 
ATOM     41  C   UNL A   1      41.667  25.638  28.214  1.00  0.00     0.049 A 
ATOM     42  H   UNL A   1      42.365  27.360  29.153  1.00  0.00     0.167 HD
ATOM     43  C   UNL A   1      43.761  31.077  30.953  1.00  0.00     0.031 A 
ATOM     44  C   UNL A   1      42.706  24.785  28.120  1.00  0.00     0.031 A 
ATOM     45  C   UNL A   1      44.905  30.206  30.971  1.00  0.00     0.049 A 
ATOM     46  C   UNL A   1      44.048  25.197  28.653  1.00  0.00     0.074 A 
ATOM     47  C   UNL A   1      46.163  30.448  31.494  1.00  0.00     0.029 A 
ATOM     48  N   UNL A   1      44.929  28.926  30.441  1.00  0.00    -0.354 N 
ATOM     49  N   UNL A   1      44.399  26.319  29.232  1.00  0.00    -0.248 NA
ATOM     50  C   UNL A   1      45.138  24.217  28.526  1.00  0.00     0.031 C 
ATOM     51  C   UNL A   1      46.963  29.328  31.242  1.00  0.00     0.029 A 
ATOM     52  C   UNL A   1      46.187  28.373  30.606  1.00  0.00     0.049 A 
ATOM     53  H   UNL A   1      44.165  28.478  30.012  1.00  0.00     0.167 HD
ATOM     54  C   UNL A   1      45.739  26.171  29.565  1.00  0.00     0.074 A 
ATOM     55  C   UNL A   1      46.135  24.846  29.134  1.00  0.00     0.031 C 
ATOM     56  C   UNL A   1      46.566  27.053  30.175  1.00  0.00     0.031 A 
BRANCH  43  57
ATOM     57  C   UNL A   1      43.918  32.472  31.490  1.00  0.00    -0.014 A 
ATOM     58  C   UNL A   1      44.359  33.523  30.670  1.00  0.00     0.009 A 
ATOM     59  C   UNL A   1      43.589  32.746  32.827  1.00  0.00     0.009 A 
ATOM     60  C   UNL A   1      44.508  34.811  31.189  1.00  0.00     0.001 A 
ATOM     61  C   UNL A   1      43.711  34.041  33.335  1.00  0.00     0.001 A 
ATOM     62  C   UNL A   1      44.179  35.069  32.519  1.00  0.00     0.000 A 
ENDBRANCH  43  57
BRANCH  44  63
ATOM     63  C   UNL A   1      42.515  23.442  27.512  1.00  0.00    -0.014 A 
ATOM     64  C   UNL A   1      42.763  23.244  26.145  1.00  0.00     0.009 A 
ATOM     65  C   UNL A   1      42.076  22.358  28.287  1.00  0.00     0.009 A 
ATOM     66  C   UNL A   1      42.549  21.993  25.561  1.00  0.00     0.001 A 
ATOM     67  C   UNL A   1      41.889  21.102  27.706  1.00  0.00     0.001 A 
ATOM     68  C   UNL A   1      42.117  20.922  26.343  1.00  0.00     0.000 A 
ENDBRANCH  44  63
BRANCH  56  69
ATOM     69  C   UNL A   1      47.973  26.601  30.445  1.00  0.00    -0.014 A 
ATOM     70  C   UNL A   1      48.996  26.804  29.508  1.00  0.00     0.009 A 
ATOM     71  C   UNL A   1      48.283  26.000  31.675  1.00  0.00     0.009 A 
ATOM     72  C   UNL A   1      50.299  26.387  29.785  1.00  0.00     0.001 A 
ATOM     73  C   UNL A   1      49.592  25.608  31.961  1.00  0.00     0.001 A 
ATOM     74  C   UNL A   1      50.596  25.794  31.012  1.00  0.00     0.000 A 
ENDBRANCH  56  69
ENDBRANCH  30  31
ENDBRANCH  22  25
ENDBRANCH  20  21
ENDBRANCH  19  20
ENDBRANCH   1  19
TORSDOF 14
ENDMDL
MODEL 3
REMARK VINA RESULT:     -10.1      3.572      8.017
REMARK SMILES C[C@](O)(c1cnccn1)[C@H](F)C(=O)NCCCCNC(=O)c1ccc(-c2c3nc(c(-c4ccccc4)c4ccc([nH]4)c(-c4ccccc4)c4nc(c(-c5ccccc5)c5ccc2[nH]5)C=C4)C=C3)cc1
REMARK SMILES IDX 16 1 15 2 14 3 12 4 13 5 10 7 11 8 2 9 1 10 4 11 5 12 9 13
REMARK SMILES IDX 6 14 8 15 7 16 3 17 17 19 18 20 19 21 20 22 21 24 22 25
REMARK SMILES IDX 23 26 69 27 24 28 68 29 25 30 26 31 27 32 62 33 28 34 67 35
REMARK SMILES IDX 61 36 63 37 29 38 66 39 60 40 59 41 30 43 52 44 37 45 51 46
REMARK SMILES IDX 38 47 41 48 50 49 64 50 39 51 40 52 49 54 65 55 42 56 31 57
REMARK SMILES IDX 32 58 36 59 33 60 35 61 34 62 53 63 54 64 58 65 55 66 57 67
REMARK SMILES IDX 56 68 43 69 44 70 48 71 45 72 47 73 46 74
REMARK H PARENT 14 6 3 18 19 23 63 42 41 53
REMARK Flexibility Score: inf
ROOT
ATOM      1  C   UNL A   1      37.073  21.612  24.400  1.00  0.00     0.023 C 
ENDROOT
BRANCH   1   2
ATOM      2  C   UNL A   1      36.714  22.672  25.431  1.00  0.00     0.116 C 
BRANCH   2   3
ATOM      3  N   UNL A   1      35.753  22.241  26.426  1.00  0.00    -0.353 N 
ATOM      4  C   UNL A   1      34.596  21.536  26.240  1.00  0.00     0.258 C 
ATOM      5  O   UNL A   1      34.063  21.046  27.239  1.00  0.00    -0.272 OA
ATOM      6  H   UNL A   1      35.959  22.488  27.356  1.00  0.00     0.163 HD
BRANCH   4   7
ATOM      7  C   UNL A   1      33.996  21.325  24.850  1.00  0.00     0.292 C 
ATOM      8  F   UNL A   1      34.163  20.046  24.389  1.00  0.00    -0.233 F 
BRANCH   7   9
ATOM      9  C   UNL A   1      32.510  21.746  24.729  1.00  0.00     0.145 C 
ATOM     10  C   UNL A   1      32.017  21.601  23.282  1.00  0.00     0.053 C 
BRANCH   9  11
ATOM     11  C   UNL A   1      32.220  23.105  25.354  1.00  0.00     0.094 A 
ATOM     12  C   UNL A   1      31.429  23.280  26.487  1.00  0.00     0.138 A 
ATOM     13  N   UNL A   1      32.804  24.186  24.757  1.00  0.00    -0.255 NA
ATOM     14  N   UNL A   1      31.172  24.494  27.035  1.00  0.00    -0.261 NA
ATOM     15  C   UNL A   1      32.553  25.398  25.309  1.00  0.00     0.131 A 
ATOM     16  C   UNL A   1      31.754  25.548  26.424  1.00  0.00     0.131 A 
ENDBRANCH   9  11
BRANCH   9  17
ATOM     17  O   UNL A   1      31.736  20.777  25.486  1.00  0.00    -0.380 OA
ATOM     18  H   UNL A   1      31.655  19.958  24.975  1.00  0.00     0.212 HD
ENDBRANCH   9  17
ENDBRANCH   7   9
ENDBRANCH   4   7
ENDBRANCH   2   3
ENDBRANCH   1   2
BRANCH   1  19
ATOM     19  C   UNL A   1      37.721  20.344  24.945  1.00  0.00     0.023 C 
BRANCH  19  20
ATOM     20  C   UNL A   1      38.870  20.546  25.928  1.00  0.00     0.116 C 
BRANCH  20  21
ATOM     21  N   UNL A   1      39.925  19.551  25.812  1.00  0.00    -0.352 N 
ATOM     22  C   UNL A   1      41.270  19.660  26.082  1.00  0.00     0.251 C 
ATOM     23  H   UNL A   1      39.634  18.668  25.491  1.00  0.00     0.163 HD
ATOM     24  O   UNL A   1      42.021  18.715  25.853  1.00  0.00    -0.269 OA
BRANCH  22  25
ATOM     25  C   UNL A   1      41.816  20.930  26.603  1.00  0.00     0.039 A 
ATOM     26  C   UNL A   1      42.262  21.895  25.695  1.00  0.00     0.014 A 
ATOM     27  C   UNL A   1      41.847  21.190  27.974  1.00  0.00     0.014 A 
ATOM     28  C   UNL A   1      42.645  23.156  26.158  1.00  0.00     0.010 A 
ATOM     29  C   UNL A   1      42.147  22.472  28.425  1.00  0.00     0.010 A 
ATOM     30  C   UNL A   1      42.541  23.472  27.523  1.00  0.00    -0.014 A 
BRANCH  30  31
ATOM     31  C   UNL A   1      42.819  24.841  28.026  1.00  0.00     0.031 A 
ATOM     32  C   UNL A   1      44.212  25.231  28.434  1.00  0.00     0.074 A 
ATOM     33  C   UNL A   1      41.803  25.713  28.194  1.00  0.00     0.049 A 
ATOM     34  N   UNL A   1      44.634  26.348  28.972  1.00  0.00    -0.248 NA
ATOM     35  C   UNL A   1      45.266  24.222  28.240  1.00  0.00     0.031 C 
ATOM     36  C   UNL A   1      40.395  25.450  27.882  1.00  0.00     0.029 A 
ATOM     37  N   UNL A   1      41.799  26.997  28.680  1.00  0.00    -0.354 N 
ATOM     38  C   UNL A   1      45.991  26.165  29.204  1.00  0.00     0.074 A 
ATOM     39  C   UNL A   1      46.314  24.817  28.791  1.00  0.00     0.031 C 
ATOM     40  C   UNL A   1      39.672  26.548  28.156  1.00  0.00     0.029 A 
ATOM     41  C   UNL A   1      40.553  27.575  28.700  1.00  0.00     0.049 A 
ATOM     42  H   UNL A   1      42.613  27.459  28.985  1.00  0.00     0.167 HD
ATOM     43  C   UNL A   1      46.894  27.046  29.699  1.00  0.00     0.031 A 
ATOM     44  C   UNL A   1      40.161  28.795  29.115  1.00  0.00     0.031 A 
ATOM     45  C   UNL A   1      46.583  28.395  30.088  1.00  0.00     0.049 A 
ATOM     46  C   UNL A   1      41.182  29.753  29.658  1.00  0.00     0.074 A 
ATOM     47  C   UNL A   1      47.444  29.382  30.534  1.00  0.00     0.029 A 
ATOM     48  N   UNL A   1      45.312  28.945  30.077  1.00  0.00    -0.354 N 
ATOM     49  N   UNL A   1      42.474  29.589  29.805  1.00  0.00    -0.248 NA
ATOM     50  C   UNL A   1      40.690  31.071  30.086  1.00  0.00     0.031 C 
ATOM     51  C   UNL A   1      46.687  30.519  30.835  1.00  0.00     0.029 A 
ATOM     52  C   UNL A   1      45.362  30.253  30.529  1.00  0.00     0.049 A 
ATOM     53  H   UNL A   1      44.495  28.476  29.791  1.00  0.00     0.167 HD
ATOM     54  C   UNL A   1      42.953  30.789  30.314  1.00  0.00     0.074 A 
ATOM     55  C   UNL A   1      41.816  31.676  30.439  1.00  0.00     0.031 C 
ATOM     56  C   UNL A   1      44.223  31.125  30.646  1.00  0.00     0.031 A 
BRANCH  43  57
ATOM     57  C   UNL A   1      48.311  26.567  29.850  1.00  0.00    -0.014 A 
ATOM     58  C   UNL A   1      49.260  26.773  28.836  1.00  0.00     0.009 A 
ATOM     59  C   UNL A   1      48.709  25.929  31.034  1.00  0.00     0.009 A 
ATOM     60  C   UNL A   1      50.569  26.313  28.989  1.00  0.00     0.001 A 
ATOM     61  C   UNL A   1      50.026  25.495  31.196  1.00  0.00     0.001 A 
ATOM     62  C   UNL A   1      50.952  25.679  30.171  1.00  0.00     0.000 A 
ENDBRANCH  43  57
BRANCH  44  63
ATOM     63  C   UNL A   1      38.733  29.194  29.012  1.00  0.00    -0.014 A 
ATOM     64  C   UNL A   1      37.889  29.092  30.130  1.00  0.00     0.009 A 
ATOM     65  C   UNL A   1      38.202  29.665  27.802  1.00  0.00     0.009 A 
ATOM     66  C   UNL A   1      36.537  29.430  30.030  1.00  0.00     0.001 A 
ATOM     67  C   UNL A   1      36.856  30.027  27.712  1.00  0.00     0.001 A 
ATOM     68  C   UNL A   1      36.024  29.901  28.822  1.00  0.00     0.000 A 
ENDBRANCH  44  63
BRANCH  56  69
ATOM     69  C   UNL A   1      44.456  32.524  31.142  1.00  0.00    -0.014 A 
ATOM     70  C   UNL A   1      44.727  33.575  30.253  1.00  0.00     0.009 A 
ATOM     71  C   UNL A   1      44.361  32.797  32.515  1.00  0.00     0.009 A 
ATOM     72  C   UNL A   1      44.929  34.870  30.735  1.00  0.00     0.001 A 
ATOM     73  C   UNL A   1      44.536  34.097  32.991  1.00  0.00     0.001 A 
ATOM     74  C   UNL A   1      44.829  35.130  32.102  1.00  0.00     0.000 A 
ENDBRANCH  56  69
ENDBRANCH  30  31
ENDBRANCH  22  25
ENDBRANCH  20  21
ENDBRANCH  19  20
ENDBRANCH   1  19
TORSDOF 14
ENDMDL
