MODEL 1
REMARK VINA RESULT:     -10.2      0.000      0.000
REMARK SMILES O=C(NCCCCNC(=O)[C@H]1[NH2+][C@@H]2CC[C@H]1CC2(F)F)c1ccc(-c2c3nc(c(-c4ccccc4)c4ccc([nH]4)c(-c4ccccc4)c4nc(c(-c5ccccc5)c5ccc2[nH]5)C=C4)C=C3)cc1
REMARK SMILES IDX 4 1 3 2 1 3 2 4 21 6 22 7 68 8 23 9 67 10 24 11 25 12 26 13
REMARK SMILES IDX 61 14 27 15 66 16 60 17 62 18 28 19 65 20 59 21 58 22 29 24
REMARK SMILES IDX 51 25 36 26 50 27 37 28 40 29 49 30 63 31 38 32 39 33 48 35
REMARK SMILES IDX 64 36 41 37 30 38 31 39 35 40 32 41 34 42 33 43 52 44 53 45
REMARK SMILES IDX 57 46 54 47 56 48 55 49 42 50 43 51 47 52 44 53 46 54 45 55
REMARK SMILES IDX 5 56 6 57 7 58 8 59 9 60 10 62 11 63 12 64 16 65 13 66 15 69
REMARK SMILES IDX 17 70 14 71 18 72 19 73 20 74
REMARK H PARENT 3 5 62 23 40 34 8 61 12 67 12 68
REMARK Flexibility Score: inf
ROOT
ATOM      1  C   UNL A   1      40.549  21.564  27.602  1.00  0.00     0.116 C 
ENDROOT
BRANCH   1   2
ATOM      2  N   UNL A   1      39.477  21.790  26.644  1.00  0.00    -0.352 N 
ATOM      3  O   UNL A   1      37.956  23.049  25.527  1.00  0.00    -0.269 OA
ATOM      4  C   UNL A   1      38.913  22.995  26.291  1.00  0.00     0.251 C 
ATOM      5  H   UNL A   1      39.114  20.991  26.198  1.00  0.00     0.163 HD
BRANCH   4   6
ATOM      6  C   UNL A   1      39.461  24.225  26.894  1.00  0.00     0.039 A 
ATOM      7  C   UNL A   1      39.226  24.500  28.242  1.00  0.00     0.014 A 
ATOM      8  C   UNL A   1      40.140  25.139  26.085  1.00  0.00     0.014 A 
ATOM      9  C   UNL A   1      39.535  25.755  28.744  1.00  0.00     0.010 A 
ATOM     10  C   UNL A   1      40.526  26.371  26.617  1.00  0.00     0.010 A 
ATOM     11  C   UNL A   1      40.194  26.702  27.940  1.00  0.00    -0.014 A 
BRANCH  11  12
ATOM     12  C   UNL A   1      40.569  28.004  28.541  1.00  0.00     0.031 A 
ATOM     13  C   UNL A   1      39.556  29.095  28.745  1.00  0.00     0.074 A 
ATOM     14  C   UNL A   1      41.835  28.159  28.972  1.00  0.00     0.049 A 
ATOM     15  N   UNL A   1      39.714  30.258  29.326  1.00  0.00    -0.248 NA
ATOM     16  C   UNL A   1      38.198  28.860  28.232  1.00  0.00     0.031 C 
ATOM     17  C   UNL A   1      42.903  27.166  28.822  1.00  0.00     0.029 A 
ATOM     18  N   UNL A   1      42.429  29.186  29.658  1.00  0.00    -0.354 N 
ATOM     19  C   UNL A   1      38.486  30.900  29.234  1.00  0.00     0.074 A 
ATOM     20  C   UNL A   1      37.595  30.005  28.526  1.00  0.00     0.031 C 
ATOM     21  C   UNL A   1      43.999  27.602  29.457  1.00  0.00     0.029 A 
ATOM     22  C   UNL A   1      43.731  28.925  30.006  1.00  0.00     0.049 A 
ATOM     23  H   UNL A   1      41.968  30.027  29.878  1.00  0.00     0.167 HD
ATOM     24  C   UNL A   1      38.136  32.123  29.698  1.00  0.00     0.031 A 
ATOM     25  C   UNL A   1      44.617  29.671  30.688  1.00  0.00     0.031 A 
ATOM     26  C   UNL A   1      39.024  33.010  30.403  1.00  0.00     0.049 A 
ATOM     27  C   UNL A   1      44.198  31.018  31.190  1.00  0.00     0.074 A 
ATOM     28  C   UNL A   1      38.760  34.270  30.915  1.00  0.00     0.029 A 
ATOM     29  N   UNL A   1      40.348  32.729  30.701  1.00  0.00    -0.354 N 
ATOM     30  N   UNL A   1      43.031  31.605  31.095  1.00  0.00    -0.248 NA
ATOM     31  C   UNL A   1      45.222  31.806  31.889  1.00  0.00     0.031 C 
ATOM     32  C   UNL A   1      39.935  34.764  31.492  1.00  0.00     0.029 A 
ATOM     33  C   UNL A   1      40.918  33.794  31.377  1.00  0.00     0.049 A 
ATOM     34  H   UNL A   1      40.814  31.894  30.467  1.00  0.00     0.167 HD
ATOM     35  C   UNL A   1      43.179  32.836  31.717  1.00  0.00     0.074 A 
ATOM     36  C   UNL A   1      44.537  32.893  32.219  1.00  0.00     0.031 C 
ATOM     37  C   UNL A   1      42.276  33.837  31.849  1.00  0.00     0.031 A 
BRANCH  24  38
ATOM     38  C   UNL A   1      36.731  32.591  29.442  1.00  0.00    -0.014 A 
ATOM     39  C   UNL A   1      35.736  32.472  30.424  1.00  0.00     0.009 A 
ATOM     40  C   UNL A   1      36.415  33.220  28.227  1.00  0.00     0.009 A 
ATOM     41  C   UNL A   1      34.447  32.958  30.187  1.00  0.00     0.001 A 
ATOM     42  C   UNL A   1      35.132  33.722  28.001  1.00  0.00     0.001 A 
ATOM     43  C   UNL A   1      34.148  33.587  28.979  1.00  0.00     0.000 A 
ENDBRANCH  24  38
BRANCH  25  44
ATOM     44  C   UNL A   1      45.991  29.156  30.915  1.00  0.00    -0.014 A 
ATOM     45  C   UNL A   1      46.294  28.408  32.062  1.00  0.00     0.009 A 
ATOM     46  C   UNL A   1      47.001  29.398  29.970  1.00  0.00     0.009 A 
ATOM     47  C   UNL A   1      47.589  27.926  32.265  1.00  0.00     0.001 A 
ATOM     48  C   UNL A   1      48.286  28.890  30.163  1.00  0.00     0.001 A 
ATOM     49  C   UNL A   1      48.582  28.162  31.314  1.00  0.00     0.000 A 
ENDBRANCH  25  44
BRANCH  37  50
ATOM     50  C   UNL A   1      42.744  35.069  32.565  1.00  0.00    -0.014 A 
ATOM     51  C   UNL A   1      42.492  35.242  33.935  1.00  0.00     0.009 A 
ATOM     52  C   UNL A   1      43.440  36.064  31.865  1.00  0.00     0.009 A 
ATOM     53  C   UNL A   1      42.894  36.411  34.582  1.00  0.00     0.001 A 
ATOM     54  C   UNL A   1      43.862  37.221  32.521  1.00  0.00     0.001 A 
ATOM     55  C   UNL A   1      43.580  37.398  33.876  1.00  0.00     0.000 A 
ENDBRANCH  37  50
ENDBRANCH  11  12
ENDBRANCH   4   6
ENDBRANCH   1   2
BRANCH   1  56
ATOM     56  C   UNL A   1      41.153  20.166  27.547  1.00  0.00     0.023 C 
BRANCH  56  57
ATOM     57  C   UNL A   1      41.327  19.591  26.141  1.00  0.00     0.023 C 
BRANCH  57  58
ATOM     58  C   UNL A   1      42.644  18.850  25.923  1.00  0.00     0.116 C 
BRANCH  58  59
ATOM     59  N   UNL A   1      43.494  19.523  24.963  1.00  0.00    -0.351 N 
ATOM     60  C   UNL A   1      44.181  20.693  24.962  1.00  0.00     0.278 C 
ATOM     61  H   UNL A   1      43.594  19.020  24.122  1.00  0.00     0.163 HD
ATOM     62  O   UNL A   1      44.839  20.914  23.934  1.00  0.00    -0.268 OA
BRANCH  60  63
ATOM     63  C   UNL A   1      44.256  21.714  26.122  1.00  0.00     0.276 C 
ATOM     64  N   UNL A   1      45.590  22.183  26.540  1.00  0.00    -0.328 N 
ATOM     65  C   UNL A   1      43.332  22.935  25.852  1.00  0.00     0.064 C 
ATOM     66  C   UNL A   1      45.747  23.645  26.351  1.00  0.00     0.253 C 
ATOM     67  H   UNL A   1      46.299  21.702  25.986  1.00  0.00     0.347 HD
ATOM     68  H   UNL A   1      45.700  21.979  27.534  1.00  0.00     0.347 HD
ATOM     69  C   UNL A   1      43.360  23.844  27.103  1.00  0.00     0.017 C 
ATOM     70  C   UNL A   1      43.875  23.746  24.656  1.00  0.00     0.094 C 
ATOM     71  C   UNL A   1      44.809  24.271  27.401  1.00  0.00     0.072 C 
ATOM     72  C   UNL A   1      45.300  24.193  24.965  1.00  0.00     0.298 C 
ATOM     73  F   UNL A   1      45.362  25.551  24.964  1.00  0.00    -0.200 F 
ATOM     74  F   UNL A   1      46.137  23.789  23.980  1.00  0.00    -0.200 F 
ENDBRANCH  60  63
ENDBRANCH  58  59
ENDBRANCH  57  58
ENDBRANCH  56  57
ENDBRANCH   1  56
TORSDOF 11
ENDMDL
MODEL 2
REMARK VINA RESULT:     -10.0      3.714     10.342
REMARK SMILES O=C(NCCCCNC(=O)[C@H]1[NH2+][C@@H]2CC[C@H]1CC2(F)F)c1ccc(-c2c3nc(c(-c4ccccc4)c4ccc([nH]4)c(-c4ccccc4)c4nc(c(-c5ccccc5)c5ccc2[nH]5)C=C4)C=C3)cc1
REMARK SMILES IDX 4 1 3 2 1 3 2 4 21 6 22 7 68 8 23 9 67 10 24 11 25 12 26 13
REMARK SMILES IDX 61 14 27 15 66 16 60 17 62 18 28 19 65 20 59 21 58 22 29 24
REMARK SMILES IDX 51 25 36 26 50 27 37 28 40 29 49 30 63 31 38 32 39 33 48 35
REMARK SMILES IDX 64 36 41 37 30 38 31 39 35 40 32 41 34 42 33 43 52 44 53 45
REMARK SMILES IDX 57 46 54 47 56 48 55 49 42 50 43 51 47 52 44 53 46 54 45 55
REMARK SMILES IDX 5 56 6 57 7 58 8 59 9 60 10 62 11 63 12 64 16 65 13 66 15 69
REMARK SMILES IDX 17 70 14 71 18 72 19 73 20 74
REMARK H PARENT 3 5 62 23 40 34 8 61 12 67 12 68
REMARK Flexibility Score: inf
ROOT
ATOM      1  C   UNL A   1      34.435  32.577  28.257  1.00  0.00     0.116 C 
ENDROOT
BRANCH   1   2
ATOM      2  N   UNL A   1      33.744  31.347  27.896  1.00  0.00    -0.352 N 
ATOM      3  O   UNL A   1      33.612  29.135  27.414  1.00  0.00    -0.269 OA
ATOM      4  C   UNL A   1      34.281  30.083  27.808  1.00  0.00     0.251 C 
ATOM      5  H   UNL A   1      32.785  31.429  27.690  1.00  0.00     0.163 HD
BRANCH   4   6
ATOM      6  C   UNL A   1      35.702  29.903  28.159  1.00  0.00     0.039 A 
ATOM      7  C   UNL A   1      36.687  30.118  27.194  1.00  0.00     0.014 A 
ATOM      8  C   UNL A   1      36.039  29.440  29.433  1.00  0.00     0.014 A 
ATOM      9  C   UNL A   1      37.991  29.724  27.453  1.00  0.00     0.010 A 
ATOM     10  C   UNL A   1      37.369  29.122  29.719  1.00  0.00     0.010 A 
ATOM     11  C   UNL A   1      38.348  29.229  28.719  1.00  0.00    -0.014 A 
BRANCH  11  12
ATOM     12  C   UNL A   1      39.769  28.889  28.972  1.00  0.00     0.031 A 
ATOM     13  C   UNL A   1      40.673  29.815  29.734  1.00  0.00     0.074 A 
ATOM     14  C   UNL A   1      40.213  27.685  28.563  1.00  0.00     0.049 A 
ATOM     15  N   UNL A   1      41.916  29.625  30.101  1.00  0.00    -0.248 NA
ATOM     16  C   UNL A   1      40.122  31.120  30.132  1.00  0.00     0.031 C 
ATOM     17  C   UNL A   1      39.422  26.707  27.811  1.00  0.00     0.029 A 
ATOM     18  N   UNL A   1      41.417  27.062  28.756  1.00  0.00    -0.354 N 
ATOM     19  C   UNL A   1      42.301  30.788  30.757  1.00  0.00     0.074 A 
ATOM     20  C   UNL A   1      41.168  31.687  30.723  1.00  0.00     0.031 C 
ATOM     21  C   UNL A   1      40.137  25.583  27.667  1.00  0.00     0.029 A 
ATOM     22  C   UNL A   1      41.452  25.781  28.261  1.00  0.00     0.049 A 
ATOM     23  H   UNL A   1      42.182  27.490  29.204  1.00  0.00     0.167 HD
ATOM     24  C   UNL A   1      43.493  31.076  31.333  1.00  0.00     0.031 A 
ATOM     25  C   UNL A   1      42.437  24.867  28.278  1.00  0.00     0.031 A 
ATOM     26  C   UNL A   1      44.619  30.179  31.366  1.00  0.00     0.049 A 
ATOM     27  C   UNL A   1      43.741  25.216  28.925  1.00  0.00     0.074 A 
ATOM     28  C   UNL A   1      45.868  30.381  31.929  1.00  0.00     0.029 A 
ATOM     29  N   UNL A   1      44.630  28.907  30.817  1.00  0.00    -0.354 N 
ATOM     30  N   UNL A   1      44.085  26.320  29.541  1.00  0.00    -0.248 NA
ATOM     31  C   UNL A   1      44.795  24.193  28.873  1.00  0.00     0.031 C 
ATOM     32  C   UNL A   1      46.646  29.242  31.690  1.00  0.00     0.029 A 
ATOM     33  C   UNL A   1      45.867  28.316  31.017  1.00  0.00     0.049 A 
ATOM     34  H   UNL A   1      43.870  28.484  30.356  1.00  0.00     0.167 HD
ATOM     35  C   UNL A   1      45.397  26.129  29.947  1.00  0.00     0.074 A 
ATOM     36  C   UNL A   1      45.773  24.790  29.541  1.00  0.00     0.031 C 
ATOM     37  C   UNL A   1      46.225  26.991  30.587  1.00  0.00     0.031 A 
BRANCH  24  38
ATOM     38  C   UNL A   1      43.655  32.432  31.962  1.00  0.00    -0.014 A 
ATOM     39  C   UNL A   1      43.364  32.641  33.318  1.00  0.00     0.009 A 
ATOM     40  C   UNL A   1      44.167  33.496  31.204  1.00  0.00     0.009 A 
ATOM     41  C   UNL A   1      43.568  33.896  33.899  1.00  0.00     0.001 A 
ATOM     42  C   UNL A   1      44.387  34.744  31.791  1.00  0.00     0.001 A 
ATOM     43  C   UNL A   1      44.083  34.944  33.137  1.00  0.00     0.000 A 
ENDBRANCH  24  38
BRANCH  25  44
ATOM     44  C   UNL A   1      42.220  23.542  27.645  1.00  0.00    -0.014 A 
ATOM     45  C   UNL A   1      41.632  22.492  28.365  1.00  0.00     0.009 A 
ATOM     46  C   UNL A   1      42.586  23.331  26.305  1.00  0.00     0.009 A 
ATOM     47  C   UNL A   1      41.431  21.250  27.759  1.00  0.00     0.001 A 
ATOM     48  C   UNL A   1      42.356  22.098  25.696  1.00  0.00     0.001 A 
ATOM     49  C   UNL A   1      41.787  21.056  26.424  1.00  0.00     0.000 A 
ENDBRANCH  25  44
BRANCH  37  50
ATOM     50  C   UNL A   1      47.610  26.496  30.878  1.00  0.00    -0.014 A 
ATOM     51  C   UNL A   1      47.909  25.879  32.103  1.00  0.00     0.009 A 
ATOM     52  C   UNL A   1      48.624  26.649  29.921  1.00  0.00     0.009 A 
ATOM     53  C   UNL A   1      49.211  25.461  32.380  1.00  0.00     0.001 A 
ATOM     54  C   UNL A   1      49.919  26.207  30.193  1.00  0.00     0.001 A 
ATOM     55  C   UNL A   1      50.214  25.624  31.425  1.00  0.00     0.000 A 
ENDBRANCH  37  50
ENDBRANCH  11  12
ENDBRANCH   4   6
ENDBRANCH   1   2
BRANCH   1  56
ATOM     56  C   UNL A   1      33.556  33.822  28.222  1.00  0.00     0.023 C 
BRANCH  56  57
ATOM     57  C   UNL A   1      34.182  35.073  28.839  1.00  0.00     0.023 C 
BRANCH  57  58
ATOM     58  C   UNL A   1      33.486  35.565  30.105  1.00  0.00     0.116 C 
BRANCH  58  59
ATOM     59  N   UNL A   1      33.460  34.553  31.140  1.00  0.00    -0.351 N 
ATOM     60  C   UNL A   1      34.376  34.073  32.019  1.00  0.00     0.278 C 
ATOM     61  H   UNL A   1      32.583  34.114  31.224  1.00  0.00     0.163 HD
ATOM     62  O   UNL A   1      33.954  33.201  32.793  1.00  0.00    -0.268 OA
BRANCH  60  63
ATOM     63  C   UNL A   1      35.841  34.549  32.170  1.00  0.00     0.276 C 
ATOM     64  N   UNL A   1      36.450  34.486  33.511  1.00  0.00    -0.328 N 
ATOM     65  C   UNL A   1      36.766  33.842  31.140  1.00  0.00     0.064 C 
ATOM     66  C   UNL A   1      37.619  33.576  33.545  1.00  0.00     0.253 C 
ATOM     67  H   UNL A   1      35.752  34.151  34.176  1.00  0.00     0.347 HD
ATOM     68  H   UNL A   1      36.771  35.423  33.757  1.00  0.00     0.347 HD
ATOM     69  C   UNL A   1      38.179  34.458  31.263  1.00  0.00     0.017 C 
ATOM     70  C   UNL A   1      36.866  32.339  31.474  1.00  0.00     0.094 C 
ATOM     71  C   UNL A   1      38.691  34.297  32.706  1.00  0.00     0.072 C 
ATOM     72  C   UNL A   1      37.402  32.180  32.894  1.00  0.00     0.298 C 
ATOM     73  F   UNL A   1      38.575  31.496  32.865  1.00  0.00    -0.200 F 
ATOM     74  F   UNL A   1      36.554  31.419  33.627  1.00  0.00    -0.200 F 
ENDBRANCH  60  63
ENDBRANCH  58  59
ENDBRANCH  57  58
ENDBRANCH  56  57
ENDBRANCH   1  56
TORSDOF 11
ENDMDL
MODEL 3
REMARK VINA RESULT:     -10.0      3.609      8.918
REMARK SMILES O=C(NCCCCNC(=O)[C@H]1[NH2+][C@@H]2CC[C@H]1CC2(F)F)c1ccc(-c2c3nc(c(-c4ccccc4)c4ccc([nH]4)c(-c4ccccc4)c4nc(c(-c5ccccc5)c5ccc2[nH]5)C=C4)C=C3)cc1
REMARK SMILES IDX 4 1 3 2 1 3 2 4 21 6 22 7 68 8 23 9 67 10 24 11 25 12 26 13
REMARK SMILES IDX 61 14 27 15 66 16 60 17 62 18 28 19 65 20 59 21 58 22 29 24
REMARK SMILES IDX 51 25 36 26 50 27 37 28 40 29 49 30 63 31 38 32 39 33 48 35
REMARK SMILES IDX 64 36 41 37 30 38 31 39 35 40 32 41 34 42 33 43 52 44 53 45
REMARK SMILES IDX 57 46 54 47 56 48 55 49 42 50 43 51 47 52 44 53 46 54 45 55
REMARK SMILES IDX 5 56 6 57 7 58 8 59 9 60 10 62 11 63 12 64 16 65 13 66 15 69
REMARK SMILES IDX 17 70 14 71 18 72 19 73 20 74
REMARK H PARENT 3 5 62 23 40 34 8 61 12 67 12 68
REMARK Flexibility Score: inf
ROOT
ATOM      1  C   UNL A   1      33.656  28.573  27.332  1.00  0.00     0.116 C 
ENDROOT
BRANCH   1   2
ATOM      2  N   UNL A   1      33.611  29.980  27.706  1.00  0.00    -0.352 N 
ATOM      3  O   UNL A   1      34.453  31.899  28.575  1.00  0.00    -0.269 OA
ATOM      4  C   UNL A   1      34.637  30.740  28.222  1.00  0.00     0.251 C 
ATOM      5  H   UNL A   1      32.751  30.439  27.577  1.00  0.00     0.163 HD
BRANCH   4   6
ATOM      6  C   UNL A   1      35.960  30.108  28.383  1.00  0.00     0.039 A 
ATOM      7  C   UNL A   1      36.303  29.520  29.602  1.00  0.00     0.014 A 
ATOM      8  C   UNL A   1      36.884  30.179  27.338  1.00  0.00     0.014 A 
ATOM      9  C   UNL A   1      37.618  29.140  29.828  1.00  0.00     0.010 A 
ATOM     10  C   UNL A   1      38.187  29.718  27.541  1.00  0.00     0.010 A 
ATOM     11  C   UNL A   1      38.572  29.229  28.799  1.00  0.00    -0.014 A 
BRANCH  11  12
ATOM     12  C   UNL A   1      39.947  28.744  29.065  1.00  0.00     0.031 A 
ATOM     13  C   UNL A   1      40.391  27.374  28.639  1.00  0.00     0.074 A 
ATOM     14  C   UNL A   1      40.819  29.597  29.637  1.00  0.00     0.049 A 
ATOM     15  N   UNL A   1      41.581  26.835  28.732  1.00  0.00    -0.248 NA
ATOM     16  C   UNL A   1      39.379  26.492  28.037  1.00  0.00     0.031 C 
ATOM     17  C   UNL A   1      40.494  30.951  30.094  1.00  0.00     0.029 A 
ATOM     18  N   UNL A   1      42.158  29.471  29.892  1.00  0.00    -0.354 N 
ATOM     19  C   UNL A   1      41.459  25.550  28.219  1.00  0.00     0.074 A 
ATOM     20  C   UNL A   1      40.075  25.381  27.831  1.00  0.00     0.031 C 
ATOM     21  C   UNL A   1      41.616  31.554  30.510  1.00  0.00     0.029 A 
ATOM     22  C   UNL A   1      42.723  30.613  30.405  1.00  0.00     0.049 A 
ATOM     23  H   UNL A   1      42.666  28.644  29.726  1.00  0.00     0.167 HD
ATOM     24  C   UNL A   1      42.415  24.600  28.085  1.00  0.00     0.031 A 
ATOM     25  C   UNL A   1      43.994  30.875  30.756  1.00  0.00     0.031 A 
ATOM     26  C   UNL A   1      43.792  24.772  28.470  1.00  0.00     0.049 A 
ATOM     27  C   UNL A   1      45.028  29.804  30.593  1.00  0.00     0.074 A 
ATOM     28  C   UNL A   1      44.836  23.867  28.371  1.00  0.00     0.029 A 
ATOM     29  N   UNL A   1      44.318  25.928  29.024  1.00  0.00    -0.354 N 
ATOM     30  N   UNL A   1      44.892  28.596  30.105  1.00  0.00    -0.248 NA
ATOM     31  C   UNL A   1      46.389  30.132  31.037  1.00  0.00     0.031 C 
ATOM     32  C   UNL A   1      45.987  24.465  28.897  1.00  0.00     0.029 A 
ATOM     33  C   UNL A   1      45.668  25.757  29.284  1.00  0.00     0.049 A 
ATOM     34  H   UNL A   1      43.808  26.750  29.205  1.00  0.00     0.167 HD
ATOM     35  C   UNL A   1      46.149  28.016  30.185  1.00  0.00     0.074 A 
ATOM     36  C   UNL A   1      47.041  29.018  30.734  1.00  0.00     0.031 C 
ATOM     37  C   UNL A   1      46.530  26.760  29.849  1.00  0.00     0.031 A 
BRANCH  24  38
ATOM     38  C   UNL A   1      42.005  23.272  27.513  1.00  0.00    -0.014 A 
ATOM     39  C   UNL A   1      42.251  22.953  26.169  1.00  0.00     0.009 A 
ATOM     40  C   UNL A   1      41.426  22.302  28.346  1.00  0.00     0.009 A 
ATOM     41  C   UNL A   1      41.908  21.695  25.666  1.00  0.00     0.001 A 
ATOM     42  C   UNL A   1      41.102  21.039  27.846  1.00  0.00     0.001 A 
ATOM     43  C   UNL A   1      41.339  20.739  26.506  1.00  0.00     0.000 A 
ENDBRANCH  24  38
BRANCH  25  44
ATOM     44  C   UNL A   1      44.343  32.206  31.313  1.00  0.00    -0.014 A 
ATOM     45  C   UNL A   1      44.766  33.245  30.470  1.00  0.00     0.009 A 
ATOM     46  C   UNL A   1      44.235  32.446  32.692  1.00  0.00     0.009 A 
ATOM     47  C   UNL A   1      45.090  34.494  31.003  1.00  0.00     0.001 A 
ATOM     48  C   UNL A   1      44.532  33.704  33.216  1.00  0.00     0.001 A 
ATOM     49  C   UNL A   1      44.967  34.724  32.373  1.00  0.00     0.000 A 
ENDBRANCH  25  44
BRANCH  37  50
ATOM     50  C   UNL A   1      47.973  26.417  30.071  1.00  0.00    -0.014 A 
ATOM     51  C   UNL A   1      48.924  26.625  29.060  1.00  0.00     0.009 A 
ATOM     52  C   UNL A   1      48.384  25.881  31.300  1.00  0.00     0.009 A 
ATOM     53  C   UNL A   1      50.257  26.263  29.263  1.00  0.00     0.001 A 
ATOM     54  C   UNL A   1      49.722  25.542  31.507  1.00  0.00     0.001 A 
ATOM     55  C   UNL A   1      50.654  25.724  30.486  1.00  0.00     0.000 A 
ENDBRANCH  37  50
ENDBRANCH  11  12
ENDBRANCH   4   6
ENDBRANCH   1   2
BRANCH   1  56
ATOM     56  C   UNL A   1      32.823  28.226  26.104  1.00  0.00     0.023 C 
BRANCH  56  57
ATOM     57  C   UNL A   1      33.563  27.441  25.021  1.00  0.00     0.023 C 
BRANCH  57  58
ATOM     58  C   UNL A   1      32.663  26.563  24.155  1.00  0.00     0.116 C 
BRANCH  58  59
ATOM     59  N   UNL A   1      33.426  25.694  23.284  1.00  0.00    -0.351 N 
ATOM     60  C   UNL A   1      33.938  24.443  23.405  1.00  0.00     0.278 C 
ATOM     61  H   UNL A   1      33.619  26.103  22.409  1.00  0.00     0.163 HD
ATOM     62  O   UNL A   1      34.523  24.016  22.399  1.00  0.00    -0.268 OA
BRANCH  60  63
ATOM     63  C   UNL A   1      33.808  23.514  24.636  1.00  0.00     0.276 C 
ATOM     64  N   UNL A   1      33.997  22.066  24.427  1.00  0.00    -0.328 N 
ATOM     65  C   UNL A   1      34.717  23.999  25.800  1.00  0.00     0.064 C 
ATOM     66  C   UNL A   1      35.150  21.542  25.198  1.00  0.00     0.253 C 
ATOM     67  H   UNL A   1      34.159  21.894  23.434  1.00  0.00     0.347 HD
ATOM     68  H   UNL A   1      33.157  21.587  24.751  1.00  0.00     0.347 HD
ATOM     69  C   UNL A   1      34.439  23.103  27.030  1.00  0.00     0.017 C 
ATOM     70  C   UNL A   1      36.201  23.831  25.410  1.00  0.00     0.094 C 
ATOM     71  C   UNL A   1      34.701  21.630  26.668  1.00  0.00     0.072 C 
ATOM     72  C   UNL A   1      36.465  22.365  25.079  1.00  0.00     0.298 C 
ATOM     73  F   UNL A   1      37.400  21.868  25.932  1.00  0.00    -0.200 F 
ATOM     74  F   UNL A   1      37.006  22.259  23.843  1.00  0.00    -0.200 F 
ENDBRANCH  60  63
ENDBRANCH  58  59
ENDBRANCH  57  58
ENDBRANCH  56  57
ENDBRANCH   1  56
TORSDOF 11
ENDMDL
