MODEL 1
REMARK VINA RESULT:     -12.0      0.000      0.000
REMARK SMILES CS(=O)(=O)c1ccc(-c2cc(Cl)cc3c2O[C@H](C(F)(F)F)C(C(=O)NCCCCNC(=O)c2ccc(-c4c5nc(c(-c6ccccc6)c6ccc([nH]6)c(-c6ccccc6)c6nc(c(-c7ccccc7)c7ccc4[nH]7)C=C6)C=C5)cc2)=C3)cc1
REMARK SMILES IDX 27 1 26 2 25 3 23 4 24 5 22 7 9 8 10 9 15 10 11 11 14 12
REMARK SMILES IDX 16 13 12 14 13 15 81 16 17 17 8 18 5 19 6 20 83 21 7 22
REMARK SMILES IDX 82 23 2 24 1 25 3 26 4 27 18 28 19 29 20 30 21 31 28 32
REMARK SMILES IDX 29 33 30 34 31 35 32 37 33 38 34 39 80 40 35 41 79 42 36 43
REMARK SMILES IDX 37 44 38 45 73 46 39 47 78 48 72 49 74 50 40 51 77 52 71 53
REMARK SMILES IDX 70 54 41 56 63 57 48 58 62 59 49 60 52 61 61 62 75 63 50 64
REMARK SMILES IDX 51 65 60 67 76 68 53 69 42 70 43 71 47 72 44 73 46 74 45 75
REMARK SMILES IDX 64 76 65 77 69 78 66 79 68 80 67 81 54 82 55 83 59 84 56 85
REMARK SMILES IDX 58 86 57 87
REMARK H PARENT 25 6 30 36 74 55 52 66
REMARK Flexibility Score: inf
ROOT
ATOM      1  C   UNL A   1      31.651  30.017  25.410  1.00  0.00     0.023 C 
ENDROOT
BRANCH   1   2
ATOM      2  C   UNL A   1      33.027  29.335  25.356  1.00  0.00     0.116 C 
BRANCH   2   3
ATOM      3  N   UNL A   1      33.024  28.172  26.215  1.00  0.00    -0.352 N 
ATOM      4  C   UNL A   1      32.251  27.062  26.185  1.00  0.00     0.251 C 
ATOM      5  O   UNL A   1      32.057  26.474  27.244  1.00  0.00    -0.270 OA
ATOM      6  H   UNL A   1      33.690  28.190  26.939  1.00  0.00     0.163 HD
BRANCH   4   7
ATOM      7  C   UNL A   1      31.782  26.540  24.866  1.00  0.00     0.067 C 
ATOM      8  C   UNL A   1      33.228  22.736  25.155  1.00  0.00     0.026 A 
ATOM      9  C   UNL A   1      34.570  22.853  25.610  1.00  0.00     0.033 A 
ATOM     10  C   UNL A   1      32.622  23.927  24.703  1.00  0.00     0.135 A 
ATOM     11  C   UNL A   1      35.316  24.020  25.476  1.00  0.00     0.042 A 
ATOM     12  C   UNL A   1      33.438  25.064  24.457  1.00  0.00     0.019 A 
ATOM     13  O   UNL A   1      31.250  24.081  24.541  1.00  0.00    -0.475 OA
ATOM     14  Cl  UNL A   1      36.911  24.093  26.109  1.00  0.00    -0.084 Cl
ATOM     15  C   UNL A   1      34.780  25.110  24.825  1.00  0.00     0.032 A 
ATOM     16  C   UNL A   1      32.785  26.309  23.997  1.00  0.00     0.025 C 
ATOM     17  C   UNL A   1      30.733  25.436  24.929  1.00  0.00     0.314 C 
BRANCH   8  18
ATOM     18  C   UNL A   1      32.741  21.328  25.049  1.00  0.00    -0.015 A 
ATOM     19  C   UNL A   1      32.904  18.513  24.651  1.00  0.00     0.067 A 
ATOM     20  C   UNL A   1      33.018  19.034  25.935  1.00  0.00     0.021 A 
ATOM     21  C   UNL A   1      32.616  19.370  23.581  1.00  0.00     0.021 A 
ATOM     22  C   UNL A   1      32.911  20.425  26.128  1.00  0.00     0.010 A 
ATOM     23  C   UNL A   1      32.524  20.760  23.781  1.00  0.00     0.010 A 
BRANCH  19  24
ATOM     24  S   UNL A   1      33.188  16.790  24.280  1.00  0.00     0.175 S 
ATOM     25  C   UNL A   1      34.754  16.310  24.957  1.00  0.00     0.163 C 
ATOM     26  O   UNL A   1      33.313  16.692  22.839  1.00  0.00    -0.224 OA
ATOM     27  O   UNL A   1      32.161  16.049  24.992  1.00  0.00    -0.224 OA
ENDBRANCH  19  24
ENDBRANCH   8  18
BRANCH  17  28
ATOM     28  C   UNL A   1      29.535  25.876  24.055  1.00  0.00     0.429 C 
ATOM     29  F   UNL A   1      29.725  27.080  23.472  1.00  0.00    -0.167 F 
ATOM     30  F   UNL A   1      29.284  24.976  23.075  1.00  0.00    -0.167 F 
ATOM     31  F   UNL A   1      28.381  25.976  24.773  1.00  0.00    -0.167 F 
ENDBRANCH  17  28
ENDBRANCH   4   7
ENDBRANCH   2   3
ENDBRANCH   1   2
BRANCH   1  32
ATOM     32  C   UNL A   1      31.473  31.047  26.536  1.00  0.00     0.023 C 
BRANCH  32  33
ATOM     33  C   UNL A   1      32.728  31.833  26.895  1.00  0.00     0.116 C 
BRANCH  33  34
ATOM     34  N   UNL A   1      32.424  33.210  27.242  1.00  0.00    -0.352 N 
ATOM     35  C   UNL A   1      33.046  34.039  28.144  1.00  0.00     0.251 C 
ATOM     36  H   UNL A   1      31.662  33.609  26.761  1.00  0.00     0.163 HD
ATOM     37  O   UNL A   1      32.528  35.106  28.457  1.00  0.00    -0.269 OA
BRANCH  35  38
ATOM     38  C   UNL A   1      34.330  33.633  28.758  1.00  0.00     0.039 A 
ATOM     39  C   UNL A   1      34.307  32.863  29.923  1.00  0.00     0.014 A 
ATOM     40  C   UNL A   1      35.550  34.012  28.193  1.00  0.00     0.014 A 
ATOM     41  C   UNL A   1      35.507  32.417  30.484  1.00  0.00     0.010 A 
ATOM     42  C   UNL A   1      36.741  33.504  28.708  1.00  0.00     0.010 A 
ATOM     43  C   UNL A   1      36.733  32.702  29.859  1.00  0.00    -0.014 A 
BRANCH  43  44
ATOM     44  C   UNL A   1      38.011  32.160  30.392  1.00  0.00     0.031 A 
ATOM     45  C   UNL A   1      38.607  30.906  29.810  1.00  0.00     0.074 A 
ATOM     46  C   UNL A   1      38.605  32.763  31.442  1.00  0.00     0.049 A 
ATOM     47  N   UNL A   1      39.685  30.258  30.177  1.00  0.00    -0.248 NA
ATOM     48  C   UNL A   1      37.891  30.284  28.683  1.00  0.00     0.031 C 
ATOM     49  C   UNL A   1      38.109  33.959  32.127  1.00  0.00     0.029 A 
ATOM     50  N   UNL A   1      39.752  32.445  32.126  1.00  0.00    -0.354 N 
ATOM     51  C   UNL A   1      39.759  29.145  29.349  1.00  0.00     0.074 A 
ATOM     52  C   UNL A   1      38.601  29.182  28.483  1.00  0.00     0.031 C 
ATOM     53  C   UNL A   1      38.958  34.287  33.114  1.00  0.00     0.029 A 
ATOM     54  C   UNL A   1      40.033  33.301  33.164  1.00  0.00     0.049 A 
ATOM     55  H   UNL A   1      40.321  31.675  31.894  1.00  0.00     0.167 HD
ATOM     56  C   UNL A   1      40.713  28.186  29.302  1.00  0.00     0.031 A 
ATOM     57  C   UNL A   1      41.035  33.289  34.065  1.00  0.00     0.031 A 
ATOM     58  C   UNL A   1      41.879  28.161  30.145  1.00  0.00     0.049 A 
ATOM     59  C   UNL A   1      42.074  32.202  33.991  1.00  0.00     0.074 A 
ATOM     60  C   UNL A   1      42.942  27.274  30.113  1.00  0.00     0.029 A 
ATOM     61  N   UNL A   1      42.133  29.055  31.172  1.00  0.00    -0.354 N 
ATOM     62  N   UNL A   1      42.179  31.215  33.137  1.00  0.00    -0.248 NA
ATOM     63  C   UNL A   1      43.140  32.237  35.003  1.00  0.00     0.031 C 
ATOM     64  C   UNL A   1      43.805  27.592  31.165  1.00  0.00     0.029 A 
ATOM     65  C   UNL A   1      43.316  28.717  31.806  1.00  0.00     0.049 A 
ATOM     66  H   UNL A   1      41.556  29.816  31.415  1.00  0.00     0.167 HD
ATOM     67  C   UNL A   1      43.341  30.536  33.485  1.00  0.00     0.074 A 
ATOM     68  C   UNL A   1      43.914  31.235  34.614  1.00  0.00     0.031 C 
ATOM     69  C   UNL A   1      43.883  29.430  32.920  1.00  0.00     0.031 A 
BRANCH  56  70
ATOM     70  C   UNL A   1      40.543  27.065  28.313  1.00  0.00    -0.014 A 
ATOM     71  C   UNL A   1      41.073  27.147  27.017  1.00  0.00     0.009 A 
ATOM     72  C   UNL A   1      39.919  25.875  28.718  1.00  0.00     0.009 A 
ATOM     73  C   UNL A   1      40.963  26.065  26.139  1.00  0.00     0.001 A 
ATOM     74  C   UNL A   1      39.835  24.786  27.850  1.00  0.00     0.001 A 
ATOM     75  C   UNL A   1      40.353  24.884  26.559  1.00  0.00     0.000 A 
ENDBRANCH  56  70
BRANCH  57  76
ATOM     76  C   UNL A   1      41.111  34.325  35.132  1.00  0.00    -0.014 A 
ATOM     77  C   UNL A   1      41.912  35.466  34.966  1.00  0.00     0.009 A 
ATOM     78  C   UNL A   1      40.429  34.150  36.346  1.00  0.00     0.009 A 
ATOM     79  C   UNL A   1      42.068  36.381  36.011  1.00  0.00     0.001 A 
ATOM     80  C   UNL A   1      40.557  35.085  37.375  1.00  0.00     0.001 A 
ATOM     81  C   UNL A   1      41.389  36.191  37.213  1.00  0.00     0.000 A 
ENDBRANCH  57  76
BRANCH  69  82
ATOM     82  C   UNL A   1      45.189  28.936  33.480  1.00  0.00    -0.014 A 
ATOM     83  C   UNL A   1      45.234  28.054  34.571  1.00  0.00     0.009 A 
ATOM     84  C   UNL A   1      46.392  29.333  32.875  1.00  0.00     0.009 A 
ATOM     85  C   UNL A   1      46.461  27.611  35.068  1.00  0.00     0.001 A 
ATOM     86  C   UNL A   1      47.615  28.860  33.352  1.00  0.00     0.001 A 
ATOM     87  C   UNL A   1      47.650  28.009  34.455  1.00  0.00     0.000 A 
ENDBRANCH  69  82
ENDBRANCH  43  44
ENDBRANCH  35  38
ENDBRANCH  33  34
ENDBRANCH  32  33
ENDBRANCH   1  32
TORSDOF 14
ENDMDL
MODEL 2
REMARK VINA RESULT:     -11.8      2.945      6.548
REMARK SMILES CS(=O)(=O)c1ccc(-c2cc(Cl)cc3c2O[C@H](C(F)(F)F)C(C(=O)NCCCCNC(=O)c2ccc(-c4c5nc(c(-c6ccccc6)c6ccc([nH]6)c(-c6ccccc6)c6nc(c(-c7ccccc7)c7ccc4[nH]7)C=C6)C=C5)cc2)=C3)cc1
REMARK SMILES IDX 27 1 26 2 25 3 23 4 24 5 22 7 9 8 10 9 15 10 11 11 14 12
REMARK SMILES IDX 16 13 12 14 13 15 81 16 17 17 8 18 5 19 6 20 83 21 7 22
REMARK SMILES IDX 82 23 2 24 1 25 3 26 4 27 18 28 19 29 20 30 21 31 28 32
REMARK SMILES IDX 29 33 30 34 31 35 32 37 33 38 34 39 80 40 35 41 79 42 36 43
REMARK SMILES IDX 37 44 38 45 73 46 39 47 78 48 72 49 74 50 40 51 77 52 71 53
REMARK SMILES IDX 70 54 41 56 63 57 48 58 62 59 49 60 52 61 61 62 75 63 50 64
REMARK SMILES IDX 51 65 60 67 76 68 53 69 42 70 43 71 47 72 44 73 46 74 45 75
REMARK SMILES IDX 64 76 65 77 69 78 66 79 68 80 67 81 54 82 55 83 59 84 56 85
REMARK SMILES IDX 58 86 57 87
REMARK H PARENT 25 6 30 36 74 55 52 66
REMARK Flexibility Score: inf
ROOT
ATOM      1  C   UNL A   1      31.238  28.752  24.098  1.00  0.00     0.023 C 
ENDROOT
BRANCH   1   2
ATOM      2  C   UNL A   1      30.113  27.707  24.157  1.00  0.00     0.116 C 
BRANCH   2   3
ATOM      3  N   UNL A   1      30.597  26.446  23.639  1.00  0.00    -0.352 N 
ATOM      4  C   UNL A   1      31.770  25.805  23.850  1.00  0.00     0.251 C 
ATOM      5  O   UNL A   1      32.179  25.060  22.965  1.00  0.00    -0.270 OA
ATOM      6  H   UNL A   1      29.975  25.979  23.037  1.00  0.00     0.163 HD
BRANCH   4   7
ATOM      7  C   UNL A   1      32.438  25.932  25.180  1.00  0.00     0.067 C 
ATOM      8  C   UNL A   1      35.185  22.942  24.782  1.00  0.00     0.026 A 
ATOM      9  C   UNL A   1      34.479  21.816  24.275  1.00  0.00     0.033 A 
ATOM     10  C   UNL A   1      34.391  24.000  25.274  1.00  0.00     0.135 A 
ATOM     11  C   UNL A   1      33.099  21.671  24.394  1.00  0.00     0.042 A 
ATOM     12  C   UNL A   1      33.007  23.773  25.502  1.00  0.00     0.019 A 
ATOM     13  O   UNL A   1      34.871  25.286  25.494  1.00  0.00    -0.475 OA
ATOM     14  Cl  UNL A   1      32.320  20.308  23.698  1.00  0.00    -0.084 Cl
ATOM     15  C   UNL A   1      32.364  22.614  25.081  1.00  0.00     0.032 A 
ATOM     16  C   UNL A   1      32.187  24.898  26.004  1.00  0.00     0.025 C 
ATOM     17  C   UNL A   1      33.897  26.373  25.145  1.00  0.00     0.314 C 
BRANCH   8  18
ATOM     18  C   UNL A   1      36.661  22.737  24.890  1.00  0.00    -0.015 A 
ATOM     19  C   UNL A   1      39.134  22.026  26.109  1.00  0.00     0.067 A 
ATOM     20  C   UNL A   1      38.429  21.076  25.378  1.00  0.00     0.021 A 
ATOM     21  C   UNL A   1      38.668  23.346  26.158  1.00  0.00     0.021 A 
ATOM     22  C   UNL A   1      37.219  21.442  24.756  1.00  0.00     0.010 A 
ATOM     23  C   UNL A   1      37.450  23.699  25.545  1.00  0.00     0.010 A 
BRANCH  19  24
ATOM     24  S   UNL A   1      40.585  21.623  27.067  1.00  0.00     0.175 S 
ATOM     25  C   UNL A   1      41.993  21.597  25.990  1.00  0.00     0.163 C 
ATOM     26  O   UNL A   1      40.403  20.264  27.540  1.00  0.00    -0.224 OA
ATOM     27  O   UNL A   1      40.771  22.720  28.000  1.00  0.00    -0.224 OA
ENDBRANCH  19  24
ENDBRANCH   8  18
BRANCH  17  28
ATOM     28  C   UNL A   1      34.038  27.603  26.073  1.00  0.00     0.429 C 
ATOM     29  F   UNL A   1      34.157  28.764  25.392  1.00  0.00    -0.167 F 
ATOM     30  F   UNL A   1      32.974  27.718  26.903  1.00  0.00    -0.167 F 
ATOM     31  F   UNL A   1      35.132  27.518  26.880  1.00  0.00    -0.167 F 
ENDBRANCH  17  28
ENDBRANCH   4   7
ENDBRANCH   2   3
ENDBRANCH   1   2
BRANCH   1  32
ATOM     32  C   UNL A   1      30.899  30.118  24.713  1.00  0.00     0.023 C 
BRANCH  32  33
ATOM     33  C   UNL A   1      31.703  30.482  25.955  1.00  0.00     0.116 C 
BRANCH  33  34
ATOM     34  N   UNL A   1      31.603  31.897  26.270  1.00  0.00    -0.352 N 
ATOM     35  C   UNL A   1      32.369  32.656  27.120  1.00  0.00     0.251 C 
ATOM     36  H   UNL A   1      30.882  32.383  25.807  1.00  0.00     0.163 HD
ATOM     37  O   UNL A   1      32.013  33.791  27.420  1.00  0.00    -0.269 OA
BRANCH  35  38
ATOM     38  C   UNL A   1      33.612  32.096  27.696  1.00  0.00     0.039 A 
ATOM     39  C   UNL A   1      34.656  32.965  28.023  1.00  0.00     0.014 A 
ATOM     40  C   UNL A   1      33.750  30.723  27.911  1.00  0.00     0.014 A 
ATOM     41  C   UNL A   1      35.813  32.463  28.625  1.00  0.00     0.010 A 
ATOM     42  C   UNL A   1      34.870  30.235  28.582  1.00  0.00     0.010 A 
ATOM     43  C   UNL A   1      35.914  31.099  28.945  1.00  0.00    -0.014 A 
BRANCH  43  44
ATOM     44  C   UNL A   1      37.098  30.564  29.667  1.00  0.00     0.031 A 
ATOM     45  C   UNL A   1      37.315  30.891  31.122  1.00  0.00     0.074 A 
ATOM     46  C   UNL A   1      38.015  29.836  28.998  1.00  0.00     0.049 A 
ATOM     47  N   UNL A   1      38.313  30.558  31.901  1.00  0.00    -0.248 NA
ATOM     48  C   UNL A   1      36.289  31.716  31.782  1.00  0.00     0.031 C 
ATOM     49  C   UNL A   1      37.948  29.484  27.577  1.00  0.00     0.029 A 
ATOM     50  N   UNL A   1      39.190  29.266  29.422  1.00  0.00    -0.354 N 
ATOM     51  C   UNL A   1      38.049  31.152  33.129  1.00  0.00     0.074 A 
ATOM     52  C   UNL A   1      36.817  31.896  32.985  1.00  0.00     0.031 C 
ATOM     53  C   UNL A   1      39.019  28.740  27.255  1.00  0.00     0.029 A 
ATOM     54  C   UNL A   1      39.872  28.600  28.431  1.00  0.00     0.049 A 
ATOM     55  H   UNL A   1      39.514  29.328  30.350  1.00  0.00     0.167 HD
ATOM     56  C   UNL A   1      38.760  31.073  34.279  1.00  0.00     0.031 A 
ATOM     57  C   UNL A   1      41.057  27.959  28.459  1.00  0.00     0.031 A 
ATOM     58  C   UNL A   1      39.972  30.312  34.431  1.00  0.00     0.049 A 
ATOM     59  C   UNL A   1      41.827  27.899  29.752  1.00  0.00     0.074 A 
ATOM     60  C   UNL A   1      40.717  30.107  35.580  1.00  0.00     0.029 A 
ATOM     61  N   UNL A   1      40.619  29.641  33.407  1.00  0.00    -0.354 N 
ATOM     62  N   UNL A   1      41.510  28.384  30.927  1.00  0.00    -0.248 NA
ATOM     63  C   UNL A   1      43.115  27.191  29.721  1.00  0.00     0.031 C 
ATOM     64  C   UNL A   1      41.851  29.367  35.237  1.00  0.00     0.029 A 
ATOM     65  C   UNL A   1      41.776  29.052  33.890  1.00  0.00     0.049 A 
ATOM     66  H   UNL A   1      40.304  29.591  32.476  1.00  0.00     0.167 HD
ATOM     67  C   UNL A   1      42.540  28.008  31.781  1.00  0.00     0.074 A 
ATOM     68  C   UNL A   1      43.478  27.238  30.994  1.00  0.00     0.031 C 
ATOM     69  C   UNL A   1      42.695  28.277  33.100  1.00  0.00     0.031 A 
BRANCH  56  70
ATOM     70  C   UNL A   1      38.261  31.837  35.474  1.00  0.00    -0.014 A 
ATOM     71  C   UNL A   1      37.807  31.177  36.627  1.00  0.00     0.009 A 
ATOM     72  C   UNL A   1      38.329  33.239  35.477  1.00  0.00     0.009 A 
ATOM     73  C   UNL A   1      37.414  31.908  37.750  1.00  0.00     0.001 A 
ATOM     74  C   UNL A   1      37.962  33.965  36.611  1.00  0.00     0.001 A 
ATOM     75  C   UNL A   1      37.500  33.299  37.745  1.00  0.00     0.000 A 
ENDBRANCH  56  70
BRANCH  57  76
ATOM     76  C   UNL A   1      41.610  27.329  27.229  1.00  0.00    -0.014 A 
ATOM     77  C   UNL A   1      41.339  25.984  26.928  1.00  0.00     0.009 A 
ATOM     78  C   UNL A   1      42.461  28.053  26.379  1.00  0.00     0.009 A 
ATOM     79  C   UNL A   1      41.949  25.366  25.834  1.00  0.00     0.001 A 
ATOM     80  C   UNL A   1      43.039  27.443  25.264  1.00  0.00     0.001 A 
ATOM     81  C   UNL A   1      42.796  26.095  25.002  1.00  0.00     0.000 A 
ENDBRANCH  57  76
BRANCH  69  82
ATOM     82  C   UNL A   1      43.897  27.693  33.789  1.00  0.00    -0.014 A 
ATOM     83  C   UNL A   1      43.869  26.409  34.353  1.00  0.00     0.009 A 
ATOM     84  C   UNL A   1      45.090  28.432  33.837  1.00  0.00     0.009 A 
ATOM     85  C   UNL A   1      45.001  25.892  34.986  1.00  0.00     0.001 A 
ATOM     86  C   UNL A   1      46.231  27.898  34.438  1.00  0.00     0.001 A 
ATOM     87  C   UNL A   1      46.182  26.633  35.022  1.00  0.00     0.000 A 
ENDBRANCH  69  82
ENDBRANCH  43  44
ENDBRANCH  35  38
ENDBRANCH  33  34
ENDBRANCH  32  33
ENDBRANCH   1  32
TORSDOF 14
ENDMDL
MODEL 3
REMARK VINA RESULT:     -11.8      6.072     11.542
REMARK SMILES CS(=O)(=O)c1ccc(-c2cc(Cl)cc3c2O[C@H](C(F)(F)F)C(C(=O)NCCCCNC(=O)c2ccc(-c4c5nc(c(-c6ccccc6)c6ccc([nH]6)c(-c6ccccc6)c6nc(c(-c7ccccc7)c7ccc4[nH]7)C=C6)C=C5)cc2)=C3)cc1
REMARK SMILES IDX 27 1 26 2 25 3 23 4 24 5 22 7 9 8 10 9 15 10 11 11 14 12
REMARK SMILES IDX 16 13 12 14 13 15 81 16 17 17 8 18 5 19 6 20 83 21 7 22
REMARK SMILES IDX 82 23 2 24 1 25 3 26 4 27 18 28 19 29 20 30 21 31 28 32
REMARK SMILES IDX 29 33 30 34 31 35 32 37 33 38 34 39 80 40 35 41 79 42 36 43
REMARK SMILES IDX 37 44 38 45 73 46 39 47 78 48 72 49 74 50 40 51 77 52 71 53
REMARK SMILES IDX 70 54 41 56 63 57 48 58 62 59 49 60 52 61 61 62 75 63 50 64
REMARK SMILES IDX 51 65 60 67 76 68 53 69 42 70 43 71 47 72 44 73 46 74 45 75
REMARK SMILES IDX 64 76 65 77 69 78 66 79 68 80 67 81 54 82 55 83 59 84 56 85
REMARK SMILES IDX 58 86 57 87
REMARK H PARENT 25 6 30 36 74 55 52 66
REMARK Flexibility Score: inf
ROOT
ATOM      1  C   UNL A   1      36.655  33.965  29.067  1.00  0.00     0.023 C 
ENDROOT
BRANCH   1   2
ATOM      2  C   UNL A   1      37.676  32.904  29.507  1.00  0.00     0.116 C 
BRANCH   2   3
ATOM      3  N   UNL A   1      38.415  33.391  30.652  1.00  0.00    -0.352 N 
ATOM      4  C   UNL A   1      37.978  33.846  31.848  1.00  0.00     0.251 C 
ATOM      5  O   UNL A   1      38.683  34.654  32.442  1.00  0.00    -0.270 OA
ATOM      6  H   UNL A   1      39.393  33.391  30.543  1.00  0.00     0.163 HD
BRANCH   4   7
ATOM      7  C   UNL A   1      36.738  33.258  32.439  1.00  0.00     0.067 C 
ATOM      8  C   UNL A   1      38.343  31.756  35.876  1.00  0.00     0.026 A 
ATOM      9  C   UNL A   1      39.528  31.068  35.496  1.00  0.00     0.033 A 
ATOM     10  C   UNL A   1      37.467  32.106  34.827  1.00  0.00     0.135 A 
ATOM     11  C   UNL A   1      39.757  30.613  34.200  1.00  0.00     0.042 A 
ATOM     12  C   UNL A   1      37.660  31.522  33.546  1.00  0.00     0.019 A 
ATOM     13  O   UNL A   1      36.453  33.049  34.951  1.00  0.00    -0.475 OA
ATOM     14  Cl  UNL A   1      41.245  29.847  33.814  1.00  0.00    -0.084 Cl
ATOM     15  C   UNL A   1      38.787  30.768  33.234  1.00  0.00     0.032 A 
ATOM     16  C   UNL A   1      36.741  31.911  32.454  1.00  0.00     0.025 C 
ATOM     17  C   UNL A   1      36.255  33.903  33.733  1.00  0.00     0.314 C 
BRANCH   8  18
ATOM     18  C   UNL A   1      38.125  31.823  37.353  1.00  0.00    -0.015 A 
ATOM     19  C   UNL A   1      36.751  32.381  39.784  1.00  0.00     0.067 A 
ATOM     20  C   UNL A   1      36.629  31.126  39.196  1.00  0.00     0.021 A 
ATOM     21  C   UNL A   1      37.623  33.323  39.224  1.00  0.00     0.021 A 
ATOM     22  C   UNL A   1      37.332  30.849  38.007  1.00  0.00     0.010 A 
ATOM     23  C   UNL A   1      38.311  33.043  38.028  1.00  0.00     0.010 A 
BRANCH  19  24
ATOM     24  S   UNL A   1      35.779  32.884  41.194  1.00  0.00     0.175 S 
ATOM     25  C   UNL A   1      36.028  31.719  42.506  1.00  0.00     0.163 C 
ATOM     26  O   UNL A   1      34.388  32.769  40.798  1.00  0.00    -0.224 OA
ATOM     27  O   UNL A   1      36.328  34.156  41.630  1.00  0.00    -0.224 OA
ENDBRANCH  19  24
ENDBRANCH   8  18
BRANCH  17  28
ATOM     28  C   UNL A   1      34.773  34.300  33.534  1.00  0.00     0.429 C 
ATOM     29  F   UNL A   1      33.913  33.323  33.897  1.00  0.00    -0.167 F 
ATOM     30  F   UNL A   1      34.461  35.411  34.244  1.00  0.00    -0.167 F 
ATOM     31  F   UNL A   1      34.488  34.598  32.235  1.00  0.00    -0.167 F 
ENDBRANCH  17  28
ENDBRANCH   4   7
ENDBRANCH   2   3
ENDBRANCH   1   2
BRANCH   1  32
ATOM     32  C   UNL A   1      35.347  33.414  28.478  1.00  0.00     0.023 C 
BRANCH  32  33
ATOM     33  C   UNL A   1      34.616  32.412  29.362  1.00  0.00     0.116 C 
BRANCH  33  34
ATOM     34  N   UNL A   1      34.023  31.336  28.586  1.00  0.00    -0.352 N 
ATOM     35  C   UNL A   1      34.626  30.247  28.004  1.00  0.00     0.251 C 
ATOM     36  H   UNL A   1      33.048  31.395  28.458  1.00  0.00     0.163 HD
ATOM     37  O   UNL A   1      34.001  29.549  27.212  1.00  0.00    -0.269 OA
BRANCH  35  38
ATOM     38  C   UNL A   1      36.038  29.930  28.312  1.00  0.00     0.039 A 
ATOM     39  C   UNL A   1      36.358  29.435  29.579  1.00  0.00     0.014 A 
ATOM     40  C   UNL A   1      37.043  30.123  27.361  1.00  0.00     0.014 A 
ATOM     41  C   UNL A   1      37.675  29.070  29.868  1.00  0.00     0.010 A 
ATOM     42  C   UNL A   1      38.340  29.688  27.625  1.00  0.00     0.010 A 
ATOM     43  C   UNL A   1      38.671  29.158  28.882  1.00  0.00    -0.014 A 
BRANCH  43  44
ATOM     44  C   UNL A   1      40.058  28.691  29.145  1.00  0.00     0.031 A 
ATOM     45  C   UNL A   1      41.061  29.610  29.791  1.00  0.00     0.074 A 
ATOM     46  C   UNL A   1      40.434  27.459  28.746  1.00  0.00     0.049 A 
ATOM     47  N   UNL A   1      42.327  29.396  30.052  1.00  0.00    -0.248 NA
ATOM     48  C   UNL A   1      40.590  30.952  30.174  1.00  0.00     0.031 C 
ATOM     49  C   UNL A   1      39.573  26.485  28.070  1.00  0.00     0.029 A 
ATOM     50  N   UNL A   1      41.644  26.817  28.841  1.00  0.00    -0.354 N 
ATOM     51  C   UNL A   1      42.806  30.579  30.602  1.00  0.00     0.074 A 
ATOM     52  C   UNL A   1      41.707  31.521  30.605  1.00  0.00     0.031 C 
ATOM     53  C   UNL A   1      40.273  25.364  27.836  1.00  0.00     0.029 A 
ATOM     54  C   UNL A   1      41.643  25.552  28.301  1.00  0.00     0.049 A 
ATOM     55  H   UNL A   1      42.438  27.223  29.259  1.00  0.00     0.167 HD
ATOM     56  C   UNL A   1      44.044  30.852  31.075  1.00  0.00     0.031 A 
ATOM     57  C   UNL A   1      42.637  24.650  28.179  1.00  0.00     0.031 A 
ATOM     58  C   UNL A   1      45.130  29.908  31.096  1.00  0.00     0.049 A 
ATOM     59  C   UNL A   1      44.005  24.990  28.708  1.00  0.00     0.074 A 
ATOM     60  C   UNL A   1      46.397  30.070  31.632  1.00  0.00     0.029 A 
ATOM     61  N   UNL A   1      45.083  28.635  30.553  1.00  0.00    -0.354 N 
ATOM     62  N   UNL A   1      44.411  26.078  29.315  1.00  0.00    -0.248 NA
ATOM     63  C   UNL A   1      45.050  23.969  28.543  1.00  0.00     0.031 C 
ATOM     64  C   UNL A   1      47.137  28.918  31.353  1.00  0.00     0.029 A 
ATOM     65  C   UNL A   1      46.311  28.015  30.707  1.00  0.00     0.049 A 
ATOM     66  H   UNL A   1      44.295  28.233  30.121  1.00  0.00     0.167 HD
ATOM     67  C   UNL A   1      45.744  25.857  29.636  1.00  0.00     0.074 A 
ATOM     68  C   UNL A   1      46.072  24.525  29.176  1.00  0.00     0.031 C 
ATOM     69  C   UNL A   1      46.620  26.684  30.257  1.00  0.00     0.031 A 
BRANCH  56  70
ATOM     70  C   UNL A   1      44.310  32.234  31.607  1.00  0.00    -0.014 A 
ATOM     71  C   UNL A   1      44.714  33.278  30.761  1.00  0.00     0.009 A 
ATOM     72  C   UNL A   1      44.067  32.512  32.961  1.00  0.00     0.009 A 
ATOM     73  C   UNL A   1      44.888  34.569  31.266  1.00  0.00     0.001 A 
ATOM     74  C   UNL A   1      44.213  33.809  33.457  1.00  0.00     0.001 A 
ATOM     75  C   UNL A   1      44.629  34.835  32.610  1.00  0.00     0.000 A 
ENDBRANCH  56  70
BRANCH  57  76
ATOM     76  C   UNL A   1      42.395  23.338  27.519  1.00  0.00    -0.014 A 
ATOM     77  C   UNL A   1      41.903  22.246  28.253  1.00  0.00     0.009 A 
ATOM     78  C   UNL A   1      42.711  23.153  26.164  1.00  0.00     0.009 A 
ATOM     79  C   UNL A   1      41.782  20.988  27.657  1.00  0.00     0.001 A 
ATOM     80  C   UNL A   1      42.553  21.903  25.561  1.00  0.00     0.001 A 
ATOM     81  C   UNL A   1      42.105  20.818  26.312  1.00  0.00     0.000 A 
ENDBRANCH  57  76
BRANCH  69  82
ATOM     82  C   UNL A   1      48.003  26.155  30.521  1.00  0.00    -0.014 A 
ATOM     83  C   UNL A   1      48.993  26.156  29.525  1.00  0.00     0.009 A 
ATOM     84  C   UNL A   1      48.328  25.685  31.804  1.00  0.00     0.009 A 
ATOM     85  C   UNL A   1      50.269  25.660  29.800  1.00  0.00     0.001 A 
ATOM     86  C   UNL A   1      49.615  25.224  32.085  1.00  0.00     0.001 A 
ATOM     87  C   UNL A   1      50.581  25.201  31.080  1.00  0.00     0.000 A 
ENDBRANCH  69  82
ENDBRANCH  43  44
ENDBRANCH  35  38
ENDBRANCH  33  34
ENDBRANCH  32  33
ENDBRANCH   1  32
TORSDOF 14
ENDMDL
