MODEL 1
REMARK VINA RESULT:     -11.8      0.000      0.000
REMARK SMILES CCOC(=O)c1ccc(NC(=O)[C@H]2CC=CC[C@@]2(C)C(=O)NCCCCNC(=O)c2ccc(-c3c4nc(c(-c5ccccc5)c5ccc([nH]5)c(-c5ccccc5)c5nc(c(-c6ccccc6)c6ccc3[nH]6)C=C5)C=C4)cc2)cc1
REMARK SMILES IDX 23 1 22 2 20 3 21 4 18 6 13 7 14 8 15 9 17 10 19 11 16 12
REMARK SMILES IDX 11 13 10 14 12 16 9 17 6 18 7 19 79 20 8 21 78 22 4 23 5 24
REMARK SMILES IDX 3 25 2 26 1 27 24 28 25 29 26 30 27 31 28 32 29 34 30 35
REMARK SMILES IDX 31 36 77 37 32 38 76 39 33 40 34 41 35 42 70 43 36 44 75 45
REMARK SMILES IDX 69 46 71 47 37 48 74 49 68 50 67 51 38 53 60 54 45 55 59 56
REMARK SMILES IDX 46 57 49 58 58 59 72 60 47 61 48 62 57 64 73 65 50 66 39 67
REMARK SMILES IDX 40 68 44 69 41 70 43 71 42 72 61 73 62 74 66 75 63 76 65 77
REMARK SMILES IDX 64 78 51 79 52 80 56 81 53 82 55 83 54 84
REMARK H PARENT 22 5 10 15 27 33 71 52 49 63
REMARK Flexibility Score: inf
ROOT
ATOM      1  C   UNL A   1      35.460  22.255  25.992  1.00  0.00     0.116 C 
ENDROOT
BRANCH   1   2
ATOM      2  N   UNL A   1      34.719  23.497  26.044  1.00  0.00    -0.356 N 
ATOM      3  C   UNL A   1      33.441  23.823  25.718  1.00  0.00     0.227 C 
ATOM      4  O   UNL A   1      33.119  24.980  26.014  1.00  0.00    -0.274 OA
ATOM      5  H   UNL A   1      35.246  24.256  26.383  1.00  0.00     0.163 HD
BRANCH   3   6
ATOM      6  C   UNL A   1      32.440  22.860  25.018  1.00  0.00     0.062 C 
ATOM      7  C   UNL A   1      32.532  22.910  23.441  1.00  0.00     0.098 C 
ATOM      8  C   UNL A   1      32.218  21.623  22.664  1.00  0.00     0.041 C 
ATOM      9  C   UNL A   1      32.428  20.347  23.411  1.00  0.00    -0.030 C 
ATOM     10  C   UNL A   1      32.472  21.443  25.662  1.00  0.00     0.044 C 
ATOM     11  C   UNL A   1      31.020  23.420  25.388  1.00  0.00     0.023 C 
ATOM     12  C   UNL A   1      32.575  20.273  24.738  1.00  0.00    -0.030 C 
BRANCH   7  13
ATOM     13  C   UNL A   1      33.526  23.911  22.828  1.00  0.00     0.228 C 
ATOM     14  N   UNL A   1      33.441  25.249  22.663  1.00  0.00    -0.326 N 
ATOM     15  H   UNL A   1      34.293  25.602  22.319  1.00  0.00     0.169 HD
ATOM     16  O   UNL A   1      34.605  23.447  22.416  1.00  0.00    -0.274 OA
BRANCH  14  17
ATOM     17  C   UNL A   1      32.521  26.295  22.827  1.00  0.00     0.041 A 
ATOM     18  C   UNL A   1      30.826  28.544  22.838  1.00  0.00     0.060 A 
ATOM     19  C   UNL A   1      30.290  27.261  22.894  1.00  0.00     0.018 A 
ATOM     20  C   UNL A   1      32.207  28.726  22.802  1.00  0.00     0.018 A 
ATOM     21  C   UNL A   1      31.142  26.153  22.858  1.00  0.00     0.027 A 
ATOM     22  C   UNL A   1      33.047  27.603  22.823  1.00  0.00     0.027 A 
BRANCH  18  23
ATOM     23  C   UNL A   1      29.891  29.678  22.769  1.00  0.00     0.338 C 
ATOM     24  O   UNL A   1      29.612  30.380  23.717  1.00  0.00    -0.246 OA
BRANCH  23  25
ATOM     25  O   UNL A   1      29.332  29.675  21.533  1.00  0.00    -0.462 OA
BRANCH  25  26
ATOM     26  C   UNL A   1      28.075  30.364  21.426  1.00  0.00     0.230 C 
ATOM     27  C   UNL A   1      28.254  31.764  20.865  1.00  0.00     0.049 C 
ENDBRANCH  25  26
ENDBRANCH  23  25
ENDBRANCH  18  23
ENDBRANCH  14  17
ENDBRANCH   7  13
ENDBRANCH   3   6
ENDBRANCH   1   2
BRANCH   1  28
ATOM     28  C   UNL A   1      36.560  22.296  24.945  1.00  0.00     0.023 C 
BRANCH  28  29
ATOM     29  C   UNL A   1      37.488  21.106  24.848  1.00  0.00     0.023 C 
BRANCH  29  30
ATOM     30  C   UNL A   1      38.717  21.190  25.728  1.00  0.00     0.116 C 
BRANCH  30  31
ATOM     31  N   UNL A   1      39.602  20.031  25.643  1.00  0.00    -0.352 N 
ATOM     32  C   UNL A   1      40.922  19.910  26.015  1.00  0.00     0.251 C 
ATOM     33  H   UNL A   1      39.196  19.218  25.264  1.00  0.00     0.163 HD
ATOM     34  O   UNL A   1      41.535  18.860  25.860  1.00  0.00    -0.269 OA
BRANCH  32  35
ATOM     35  C   UNL A   1      41.616  21.085  26.568  1.00  0.00     0.039 A 
ATOM     36  C   UNL A   1      42.104  22.061  25.697  1.00  0.00     0.014 A 
ATOM     37  C   UNL A   1      41.680  21.261  27.948  1.00  0.00     0.014 A 
ATOM     38  C   UNL A   1      42.563  23.270  26.218  1.00  0.00     0.010 A 
ATOM     39  C   UNL A   1      42.009  22.507  28.452  1.00  0.00     0.010 A 
ATOM     40  C   UNL A   1      42.465  23.521  27.595  1.00  0.00    -0.014 A 
BRANCH  40  41
ATOM     41  C   UNL A   1      42.878  24.810  28.198  1.00  0.00     0.031 A 
ATOM     42  C   UNL A   1      41.828  25.860  28.445  1.00  0.00     0.074 A 
ATOM     43  C   UNL A   1      44.179  25.075  28.422  1.00  0.00     0.049 A 
ATOM     44  N   UNL A   1      41.975  27.117  28.775  1.00  0.00    -0.248 NA
ATOM     45  C   UNL A   1      40.426  25.453  28.240  1.00  0.00     0.031 C 
ATOM     46  C   UNL A   1      45.295  24.153  28.186  1.00  0.00     0.029 A 
ATOM     47  N   UNL A   1      44.786  26.213  28.889  1.00  0.00    -0.354 N 
ATOM     48  C   UNL A   1      40.694  27.653  28.768  1.00  0.00     0.074 A 
ATOM     49  C   UNL A   1      39.792  26.609  28.343  1.00  0.00     0.031 C 
ATOM     50  C   UNL A   1      46.443  24.753  28.543  1.00  0.00     0.029 A 
ATOM     51  C   UNL A   1      46.153  26.112  28.982  1.00  0.00     0.049 A 
ATOM     52  H   UNL A   1      44.288  27.026  29.135  1.00  0.00     0.167 HD
ATOM     53  C   UNL A   1      40.298  28.899  29.116  1.00  0.00     0.031 A 
ATOM     54  C   UNL A   1      47.066  27.023  29.369  1.00  0.00     0.031 A 
ATOM     55  C   UNL A   1      41.191  29.916  29.589  1.00  0.00     0.049 A 
ATOM     56  C   UNL A   1      46.598  28.395  29.772  1.00  0.00     0.074 A 
ATOM     57  C   UNL A   1      40.892  31.194  30.025  1.00  0.00     0.029 A 
ATOM     58  N   UNL A   1      42.563  29.757  29.711  1.00  0.00    -0.354 N 
ATOM     59  N   UNL A   1      45.379  28.877  29.798  1.00  0.00    -0.248 NA
ATOM     60  C   UNL A   1      47.631  29.344  30.209  1.00  0.00     0.031 C 
ATOM     61  C   UNL A   1      42.090  31.820  30.383  1.00  0.00     0.029 A 
ATOM     62  C   UNL A   1      43.127  30.916  30.212  1.00  0.00     0.049 A 
ATOM     63  H   UNL A   1      43.061  28.942  29.474  1.00  0.00     0.167 HD
ATOM     64  C   UNL A   1      45.495  30.173  30.282  1.00  0.00     0.074 A 
ATOM     65  C   UNL A   1      46.901  30.396  30.550  1.00  0.00     0.031 C 
ATOM     66  C   UNL A   1      44.527  31.099  30.486  1.00  0.00     0.031 A 
BRANCH  53  67
ATOM     67  C   UNL A   1      38.832  29.212  29.006  1.00  0.00    -0.014 A 
ATOM     68  C   UNL A   1      38.280  29.689  27.805  1.00  0.00     0.009 A 
ATOM     69  C   UNL A   1      37.989  29.018  30.109  1.00  0.00     0.009 A 
ATOM     70  C   UNL A   1      36.923  30.004  27.725  1.00  0.00     0.001 A 
ATOM     71  C   UNL A   1      36.626  29.303  30.017  1.00  0.00     0.001 A 
ATOM     72  C   UNL A   1      36.096  29.806  28.830  1.00  0.00     0.000 A 
ENDBRANCH  53  67
BRANCH  54  73
ATOM     73  C   UNL A   1      48.511  26.671  29.419  1.00  0.00    -0.014 A 
ATOM     74  C   UNL A   1      49.054  26.079  30.571  1.00  0.00     0.009 A 
ATOM     75  C   UNL A   1      49.357  26.942  28.334  1.00  0.00     0.009 A 
ATOM     76  C   UNL A   1      50.421  25.797  30.647  1.00  0.00     0.001 A 
ATOM     77  C   UNL A   1      50.718  26.633  28.402  1.00  0.00     0.001 A 
ATOM     78  C   UNL A   1      51.250  26.072  29.563  1.00  0.00     0.000 A 
ENDBRANCH  54  73
BRANCH  66  79
ATOM     79  C   UNL A   1      44.949  32.414  31.075  1.00  0.00    -0.014 A 
ATOM     80  C   UNL A   1      45.399  33.464  30.262  1.00  0.00     0.009 A 
ATOM     81  C   UNL A   1      44.837  32.617  32.459  1.00  0.00     0.009 A 
ATOM     82  C   UNL A   1      45.758  34.687  30.829  1.00  0.00     0.001 A 
ATOM     83  C   UNL A   1      45.170  33.849  33.020  1.00  0.00     0.001 A 
ATOM     84  C   UNL A   1      45.637  34.881  32.207  1.00  0.00     0.000 A 
ENDBRANCH  66  79
ENDBRANCH  40  41
ENDBRANCH  32  35
ENDBRANCH  30  31
ENDBRANCH  29  30
ENDBRANCH  28  29
ENDBRANCH   1  28
TORSDOF 16
ENDMDL
MODEL 2
REMARK VINA RESULT:     -11.7      3.207      8.904
REMARK SMILES CCOC(=O)c1ccc(NC(=O)[C@H]2CC=CC[C@@]2(C)C(=O)NCCCCNC(=O)c2ccc(-c3c4nc(c(-c5ccccc5)c5ccc([nH]5)c(-c5ccccc5)c5nc(c(-c6ccccc6)c6ccc3[nH]6)C=C5)C=C4)cc2)cc1
REMARK SMILES IDX 23 1 22 2 20 3 21 4 18 6 13 7 14 8 15 9 17 10 19 11 16 12
REMARK SMILES IDX 11 13 10 14 12 16 9 17 6 18 7 19 79 20 8 21 78 22 4 23 5 24
REMARK SMILES IDX 3 25 2 26 1 27 24 28 25 29 26 30 27 31 28 32 29 34 30 35
REMARK SMILES IDX 31 36 77 37 32 38 76 39 33 40 34 41 35 42 70 43 36 44 75 45
REMARK SMILES IDX 69 46 71 47 37 48 74 49 68 50 67 51 38 53 60 54 45 55 59 56
REMARK SMILES IDX 46 57 49 58 58 59 72 60 47 61 48 62 57 64 73 65 50 66 39 67
REMARK SMILES IDX 40 68 44 69 41 70 43 71 42 72 61 73 62 74 66 75 63 76 65 77
REMARK SMILES IDX 64 78 51 79 52 80 56 81 53 82 55 83 54 84
REMARK H PARENT 22 5 10 15 27 33 71 52 49 63
REMARK Flexibility Score: inf
ROOT
ATOM      1  C   UNL A   1      33.161  29.542  25.472  1.00  0.00     0.116 C 
ENDROOT
BRANCH   1   2
ATOM      2  N   UNL A   1      33.698  28.204  25.596  1.00  0.00    -0.356 N 
ATOM      3  C   UNL A   1      33.424  27.037  24.958  1.00  0.00     0.227 C 
ATOM      4  O   UNL A   1      34.182  26.105  25.251  1.00  0.00    -0.274 OA
ATOM      5  H   UNL A   1      34.402  28.124  26.279  1.00  0.00     0.163 HD
BRANCH   3   6
ATOM      6  C   UNL A   1      32.257  26.842  23.948  1.00  0.00     0.062 C 
ATOM      7  C   UNL A   1      30.937  26.296  24.625  1.00  0.00     0.098 C 
ATOM      8  C   UNL A   1      29.592  26.723  24.018  1.00  0.00     0.041 C 
ATOM      9  C   UNL A   1      29.600  28.016  23.269  1.00  0.00    -0.030 C 
ATOM     10  C   UNL A   1      32.091  28.086  23.026  1.00  0.00     0.044 C 
ATOM     11  C   UNL A   1      32.750  25.708  22.980  1.00  0.00     0.023 C 
ATOM     12  C   UNL A   1      30.711  28.636  22.860  1.00  0.00    -0.030 C 
BRANCH   7  13
ATOM     13  C   UNL A   1      30.997  25.987  26.130  1.00  0.00     0.228 C 
ATOM     14  N   UNL A   1      31.438  24.894  26.789  1.00  0.00    -0.326 N 
ATOM     15  H   UNL A   1      31.423  25.055  27.760  1.00  0.00     0.169 HD
ATOM     16  O   UNL A   1      30.590  26.877  26.900  1.00  0.00    -0.274 OA
BRANCH  14  17
ATOM     17  C   UNL A   1      31.911  23.600  26.526  1.00  0.00     0.041 A 
ATOM     18  C   UNL A   1      32.818  21.090  25.625  1.00  0.00     0.060 A 
ATOM     19  C   UNL A   1      33.595  21.845  26.500  1.00  0.00     0.018 A 
ATOM     20  C   UNL A   1      31.574  21.560  25.209  1.00  0.00     0.018 A 
ATOM     21  C   UNL A   1      33.145  23.102  26.915  1.00  0.00     0.027 A 
ATOM     22  C   UNL A   1      31.117  22.799  25.680  1.00  0.00     0.027 A 
BRANCH  18  23
ATOM     23  C   UNL A   1      33.376  19.823  25.129  1.00  0.00     0.338 C 
ATOM     24  O   UNL A   1      34.540  19.671  24.825  1.00  0.00    -0.246 OA
BRANCH  23  25
ATOM     25  O   UNL A   1      32.344  18.960  24.954  1.00  0.00    -0.462 OA
BRANCH  25  26
ATOM     26  C   UNL A   1      32.626  17.827  24.116  1.00  0.00     0.230 C 
ATOM     27  C   UNL A   1      32.375  18.141  22.652  1.00  0.00     0.049 C 
ENDBRANCH  25  26
ENDBRANCH  23  25
ENDBRANCH  18  23
ENDBRANCH  14  17
ENDBRANCH   7  13
ENDBRANCH   3   6
ENDBRANCH   1   2
BRANCH   1  28
ATOM     28  C   UNL A   1      32.111  29.831  26.531  1.00  0.00     0.023 C 
BRANCH  28  29
ATOM     29  C   UNL A   1      31.740  31.274  26.785  1.00  0.00     0.023 C 
BRANCH  29  30
ATOM     30  C   UNL A   1      32.909  32.177  27.120  1.00  0.00     0.116 C 
BRANCH  30  31
ATOM     31  N   UNL A   1      32.530  33.506  27.593  1.00  0.00    -0.352 N 
ATOM     32  C   UNL A   1      33.185  34.341  28.471  1.00  0.00     0.251 C 
ATOM     33  H   UNL A   1      31.684  33.856  27.233  1.00  0.00     0.163 HD
ATOM     34  O   UNL A   1      32.720  35.431  28.782  1.00  0.00    -0.269 OA
BRANCH  32  35
ATOM     35  C   UNL A   1      34.447  33.885  29.078  1.00  0.00     0.039 A 
ATOM     36  C   UNL A   1      34.405  33.113  30.241  1.00  0.00     0.014 A 
ATOM     37  C   UNL A   1      35.654  34.138  28.430  1.00  0.00     0.014 A 
ATOM     38  C   UNL A   1      35.574  32.501  30.694  1.00  0.00     0.010 A 
ATOM     39  C   UNL A   1      36.778  33.423  28.802  1.00  0.00     0.010 A 
ATOM     40  C   UNL A   1      36.755  32.608  29.945  1.00  0.00    -0.014 A 
BRANCH  40  41
ATOM     41  C   UNL A   1      38.010  31.928  30.342  1.00  0.00     0.031 A 
ATOM     42  C   UNL A   1      38.937  32.627  31.301  1.00  0.00     0.074 A 
ATOM     43  C   UNL A   1      38.364  30.759  29.775  1.00  0.00     0.049 A 
ATOM     44  N   UNL A   1      40.163  32.323  31.637  1.00  0.00    -0.248 NA
ATOM     45  C   UNL A   1      38.431  33.863  31.924  1.00  0.00     0.031 C 
ATOM     46  C   UNL A   1      37.569  30.002  28.802  1.00  0.00     0.029 A 
ATOM     47  N   UNL A   1      39.499  30.005  29.929  1.00  0.00    -0.354 N 
ATOM     48  C   UNL A   1      40.585  33.353  32.468  1.00  0.00     0.074 A 
ATOM     49  C   UNL A   1      39.512  34.318  32.535  1.00  0.00     0.031 C 
ATOM     50  C   UNL A   1      38.228  28.878  28.475  1.00  0.00     0.029 A 
ATOM     51  C   UNL A   1      39.509  28.858  29.172  1.00  0.00     0.049 A 
ATOM     52  H   UNL A   1      40.238  30.261  30.526  1.00  0.00     0.167 HD
ATOM     53  C   UNL A   1      41.752  33.472  33.141  1.00  0.00     0.031 A 
ATOM     54  C   UNL A   1      40.453  27.906  29.050  1.00  0.00     0.031 A 
ATOM     55  C   UNL A   1      42.792  32.484  33.113  1.00  0.00     0.049 A 
ATOM     56  C   UNL A   1      41.733  28.050  29.827  1.00  0.00     0.074 A 
ATOM     57  C   UNL A   1      43.991  32.472  33.802  1.00  0.00     0.029 A 
ATOM     58  N   UNL A   1      42.741  31.316  32.368  1.00  0.00    -0.354 N 
ATOM     59  N   UNL A   1      42.104  29.011  30.639  1.00  0.00    -0.248 NA
ATOM     60  C   UNL A   1      42.722  26.972  29.678  1.00  0.00     0.031 C 
ATOM     61  C   UNL A   1      44.680  31.308  33.450  1.00  0.00     0.029 A 
ATOM     62  C   UNL A   1      43.890  30.576  32.578  1.00  0.00     0.049 A 
ATOM     63  H   UNL A   1      41.999  31.054  31.777  1.00  0.00     0.167 HD
ATOM     64  C   UNL A   1      43.351  28.639  31.120  1.00  0.00     0.074 A 
ATOM     65  C   UNL A   1      43.668  27.359  30.521  1.00  0.00     0.031 C 
ATOM     66  C   UNL A   1      44.166  29.296  31.981  1.00  0.00     0.031 A 
BRANCH  53  67
ATOM     67  C   UNL A   1      41.947  34.709  33.971  1.00  0.00    -0.014 A 
ATOM     68  C   UNL A   1      42.552  35.856  33.432  1.00  0.00     0.009 A 
ATOM     69  C   UNL A   1      41.509  34.736  35.303  1.00  0.00     0.009 A 
ATOM     70  C   UNL A   1      42.753  36.989  34.222  1.00  0.00     0.001 A 
ATOM     71  C   UNL A   1      41.682  35.881  36.082  1.00  0.00     0.001 A 
ATOM     72  C   UNL A   1      42.314  37.002  35.545  1.00  0.00     0.000 A 
ENDBRANCH  53  67
BRANCH  54  73
ATOM     73  C   UNL A   1      40.224  26.721  28.181  1.00  0.00    -0.014 A 
ATOM     74  C   UNL A   1      40.742  26.691  26.876  1.00  0.00     0.009 A 
ATOM     75  C   UNL A   1      39.471  25.628  28.634  1.00  0.00     0.009 A 
ATOM     76  C   UNL A   1      40.483  25.606  26.034  1.00  0.00     0.001 A 
ATOM     77  C   UNL A   1      39.237  24.532  27.800  1.00  0.00     0.001 A 
ATOM     78  C   UNL A   1      39.733  24.528  26.497  1.00  0.00     0.000 A 
ENDBRANCH  54  73
BRANCH  66  79
ATOM     79  C   UNL A   1      45.449  28.618  32.365  1.00  0.00    -0.014 A 
ATOM     80  C   UNL A   1      46.635  28.851  31.654  1.00  0.00     0.009 A 
ATOM     81  C   UNL A   1      45.476  27.779  33.490  1.00  0.00     0.009 A 
ATOM     82  C   UNL A   1      47.822  28.231  32.049  1.00  0.00     0.001 A 
ATOM     83  C   UNL A   1      46.669  27.184  33.898  1.00  0.00     0.001 A 
ATOM     84  C   UNL A   1      47.839  27.404  33.173  1.00  0.00     0.000 A 
ENDBRANCH  66  79
ENDBRANCH  40  41
ENDBRANCH  32  35
ENDBRANCH  30  31
ENDBRANCH  29  30
ENDBRANCH  28  29
ENDBRANCH   1  28
TORSDOF 16
ENDMDL
MODEL 3
REMARK VINA RESULT:     -11.7      2.402      8.151
REMARK SMILES CCOC(=O)c1ccc(NC(=O)[C@H]2CC=CC[C@@]2(C)C(=O)NCCCCNC(=O)c2ccc(-c3c4nc(c(-c5ccccc5)c5ccc([nH]5)c(-c5ccccc5)c5nc(c(-c6ccccc6)c6ccc3[nH]6)C=C5)C=C4)cc2)cc1
REMARK SMILES IDX 23 1 22 2 20 3 21 4 18 6 13 7 14 8 15 9 17 10 19 11 16 12
REMARK SMILES IDX 11 13 10 14 12 16 9 17 6 18 7 19 79 20 8 21 78 22 4 23 5 24
REMARK SMILES IDX 3 25 2 26 1 27 24 28 25 29 26 30 27 31 28 32 29 34 30 35
REMARK SMILES IDX 31 36 77 37 32 38 76 39 33 40 34 41 35 42 70 43 36 44 75 45
REMARK SMILES IDX 69 46 71 47 37 48 74 49 68 50 67 51 38 53 60 54 45 55 59 56
REMARK SMILES IDX 46 57 49 58 58 59 72 60 47 61 48 62 57 64 73 65 50 66 39 67
REMARK SMILES IDX 40 68 44 69 41 70 43 71 42 72 61 73 62 74 66 75 63 76 65 77
REMARK SMILES IDX 64 78 51 79 52 80 56 81 53 82 55 83 54 84
REMARK H PARENT 22 5 10 15 27 33 71 52 49 63
REMARK Flexibility Score: inf
ROOT
ATOM      1  C   UNL A   1      31.146  26.771  26.353  1.00  0.00     0.116 C 
ENDROOT
BRANCH   1   2
ATOM      2  N   UNL A   1      31.712  25.466  26.615  1.00  0.00    -0.356 N 
ATOM      3  C   UNL A   1      32.746  24.780  26.062  1.00  0.00     0.227 C 
ATOM      4  O   UNL A   1      33.019  23.719  26.635  1.00  0.00    -0.274 OA
ATOM      5  H   UNL A   1      31.257  24.977  27.338  1.00  0.00     0.163 HD
BRANCH   3   6
ATOM      6  C   UNL A   1      33.536  25.247  24.806  1.00  0.00     0.062 C 
ATOM      7  C   UNL A   1      32.764  24.979  23.453  1.00  0.00     0.098 C 
ATOM      8  C   UNL A   1      32.996  25.957  22.292  1.00  0.00     0.041 C 
ATOM      9  C   UNL A   1      33.425  27.335  22.679  1.00  0.00    -0.030 C 
ATOM     10  C   UNL A   1      34.109  26.682  24.997  1.00  0.00     0.044 C 
ATOM     11  C   UNL A   1      34.809  24.327  24.769  1.00  0.00     0.023 C 
ATOM     12  C   UNL A   1      33.885  27.661  23.890  1.00  0.00    -0.030 C 
BRANCH   7  13
ATOM     13  C   UNL A   1      31.405  24.267  23.550  1.00  0.00     0.228 C 
ATOM     14  N   UNL A   1      31.101  22.953  23.617  1.00  0.00    -0.326 N 
ATOM     15  H   UNL A   1      30.135  22.837  23.765  1.00  0.00     0.169 HD
ATOM     16  O   UNL A   1      30.394  24.994  23.591  1.00  0.00    -0.274 OA
BRANCH  14  17
ATOM     17  C   UNL A   1      31.728  21.701  23.540  1.00  0.00     0.041 A 
ATOM     18  C   UNL A   1      32.728  19.071  23.645  1.00  0.00     0.060 A 
ATOM     19  C   UNL A   1      32.380  19.641  22.424  1.00  0.00     0.018 A 
ATOM     20  C   UNL A   1      32.609  19.806  24.822  1.00  0.00     0.018 A 
ATOM     21  C   UNL A   1      31.857  20.937  22.391  1.00  0.00     0.027 A 
ATOM     22  C   UNL A   1      32.134  21.125  24.761  1.00  0.00     0.027 A 
BRANCH  18  23
ATOM     23  C   UNL A   1      33.173  17.668  23.647  1.00  0.00     0.338 C 
ATOM     24  O   UNL A   1      33.421  17.038  22.642  1.00  0.00    -0.246 OA
BRANCH  23  25
ATOM     25  O   UNL A   1      33.105  17.218  24.925  1.00  0.00    -0.462 OA
BRANCH  25  26
ATOM     26  C   UNL A   1      33.570  15.873  25.128  1.00  0.00     0.230 C 
ATOM     27  C   UNL A   1      32.471  14.981  25.678  1.00  0.00     0.049 C 
ENDBRANCH  25  26
ENDBRANCH  23  25
ENDBRANCH  18  23
ENDBRANCH  14  17
ENDBRANCH   7  13
ENDBRANCH   3   6
ENDBRANCH   1   2
BRANCH   1  28
ATOM     28  C   UNL A   1      31.608  27.803  27.368  1.00  0.00     0.023 C 
BRANCH  28  29
ATOM     29  C   UNL A   1      32.118  29.128  26.848  1.00  0.00     0.023 C 
BRANCH  29  30
ATOM     30  C   UNL A   1      33.530  29.472  27.272  1.00  0.00     0.116 C 
BRANCH  30  31
ATOM     31  N   UNL A   1      33.654  30.737  27.992  1.00  0.00    -0.352 N 
ATOM     32  C   UNL A   1      34.738  31.259  28.662  1.00  0.00     0.251 C 
ATOM     33  H   UNL A   1      32.845  31.298  27.999  1.00  0.00     0.163 HD
ATOM     34  O   UNL A   1      34.674  32.339  29.236  1.00  0.00    -0.269 OA
BRANCH  32  35
ATOM     35  C   UNL A   1      35.982  30.473  28.722  1.00  0.00     0.039 A 
ATOM     36  C   UNL A   1      36.874  30.523  27.649  1.00  0.00     0.014 A 
ATOM     37  C   UNL A   1      36.302  29.779  29.887  1.00  0.00     0.014 A 
ATOM     38  C   UNL A   1      38.141  29.960  27.791  1.00  0.00     0.010 A 
ATOM     39  C   UNL A   1      37.602  29.343  30.073  1.00  0.00     0.010 A 
ATOM     40  C   UNL A   1      38.532  29.416  29.024  1.00  0.00    -0.014 A 
BRANCH  40  41
ATOM     41  C   UNL A   1      39.887  28.862  29.253  1.00  0.00     0.031 A 
ATOM     42  C   UNL A   1      40.936  29.751  29.866  1.00  0.00     0.074 A 
ATOM     43  C   UNL A   1      40.201  27.625  28.825  1.00  0.00     0.049 A 
ATOM     44  N   UNL A   1      42.224  29.555  29.980  1.00  0.00    -0.248 NA
ATOM     45  C   UNL A   1      40.480  31.059  30.370  1.00  0.00     0.031 C 
ATOM     46  C   UNL A   1      39.282  26.681  28.180  1.00  0.00     0.029 A 
ATOM     47  N   UNL A   1      41.395  26.951  28.857  1.00  0.00    -0.354 N 
ATOM     48  C   UNL A   1      42.730  30.729  30.522  1.00  0.00     0.074 A 
ATOM     49  C   UNL A   1      41.628  31.653  30.655  1.00  0.00     0.031 C 
ATOM     50  C   UNL A   1      39.940  25.541  27.912  1.00  0.00     0.029 A 
ATOM     51  C   UNL A   1      41.333  25.689  28.315  1.00  0.00     0.049 A 
ATOM     52  H   UNL A   1      42.219  27.334  29.234  1.00  0.00     0.167 HD
ATOM     53  C   UNL A   1      43.998  31.006  30.904  1.00  0.00     0.031 A 
ATOM     54  C   UNL A   1      42.299  24.764  28.155  1.00  0.00     0.031 A 
ATOM     55  C   UNL A   1      45.079  30.066  30.819  1.00  0.00     0.049 A 
ATOM     56  C   UNL A   1      43.696  25.088  28.608  1.00  0.00     0.074 A 
ATOM     57  C   UNL A   1      46.390  30.218  31.231  1.00  0.00     0.029 A 
ATOM     58  N   UNL A   1      44.962  28.784  30.305  1.00  0.00    -0.354 N 
ATOM     59  N   UNL A   1      44.153  26.189  29.154  1.00  0.00    -0.248 NA
ATOM     60  C   UNL A   1      44.708  24.037  28.433  1.00  0.00     0.031 C 
ATOM     61  C   UNL A   1      47.075  29.035  30.938  1.00  0.00     0.029 A 
ATOM     62  C   UNL A   1      46.179  28.134  30.386  1.00  0.00     0.049 A 
ATOM     63  H   UNL A   1      44.136  28.396  29.936  1.00  0.00     0.167 HD
ATOM     64  C   UNL A   1      45.496  25.953  29.415  1.00  0.00     0.074 A 
ATOM     65  C   UNL A   1      45.775  24.599  28.981  1.00  0.00     0.031 C 
ATOM     66  C   UNL A   1      46.419  26.780  29.964  1.00  0.00     0.031 A 
BRANCH  53  67
ATOM     67  C   UNL A   1      44.268  32.376  31.458  1.00  0.00    -0.014 A 
ATOM     68  C   UNL A   1      44.167  32.634  32.835  1.00  0.00     0.009 A 
ATOM     69  C   UNL A   1      44.639  33.420  30.598  1.00  0.00     0.009 A 
ATOM     70  C   UNL A   1      44.391  33.918  33.334  1.00  0.00     0.001 A 
ATOM     71  C   UNL A   1      44.894  34.696  31.103  1.00  0.00     0.001 A 
ATOM     72  C   UNL A   1      44.760  34.947  32.468  1.00  0.00     0.000 A 
ENDBRANCH  53  67
BRANCH  54  73
ATOM     73  C   UNL A   1      41.983  23.438  27.561  1.00  0.00    -0.014 A 
ATOM     74  C   UNL A   1      42.213  23.203  26.196  1.00  0.00     0.009 A 
ATOM     75  C   UNL A   1      41.432  22.411  28.341  1.00  0.00     0.009 A 
ATOM     76  C   UNL A   1      41.866  21.978  25.618  1.00  0.00     0.001 A 
ATOM     77  C   UNL A   1      41.113  21.177  27.767  1.00  0.00     0.001 A 
ATOM     78  C   UNL A   1      41.320  20.967  26.404  1.00  0.00     0.000 A 
ENDBRANCH  54  73
BRANCH  66  79
ATOM     79  C   UNL A   1      47.798  26.225  30.173  1.00  0.00    -0.014 A 
ATOM     80  C   UNL A   1      48.250  25.861  31.449  1.00  0.00     0.009 A 
ATOM     81  C   UNL A   1      48.631  26.014  29.063  1.00  0.00     0.009 A 
ATOM     82  C   UNL A   1      49.526  25.320  31.614  1.00  0.00     0.001 A 
ATOM     83  C   UNL A   1      49.895  25.447  29.228  1.00  0.00     0.001 A 
ATOM     84  C   UNL A   1      50.344  25.108  30.503  1.00  0.00     0.000 A 
ENDBRANCH  66  79
ENDBRANCH  40  41
ENDBRANCH  32  35
ENDBRANCH  30  31
ENDBRANCH  29  30
ENDBRANCH  28  29
ENDBRANCH   1  28
TORSDOF 16
ENDMDL
