MODEL 1
REMARK VINA RESULT:     -11.6      0.000      0.000
REMARK SMILES C=C(C)COc1cc2oc(=O)c(CC(=O)N3CCC[C@H](C(=O)NCCCCNC(=O)c4ccc(-c5c6nc(c(-c7ccccc7)c7ccc([nH]7)c(-c7ccccc7)c7nc(c(-c8ccccc8)c8ccc5[nH]8)C=C7)C=C6)cc4)C3)c(C)c2cc1Cl
REMARK SMILES IDX 21 1 22 2 23 3 20 5 16 6 17 7 79 8 18 9 19 10 14 11 15 12
REMARK SMILES IDX 13 13 12 14 6 15 7 16 84 17 8 18 83 19 85 20 9 21 82 22
REMARK SMILES IDX 10 23 80 24 11 25 81 26 5 27 4 28 2 29 1 30 3 31 24 32 25 33
REMARK SMILES IDX 26 34 27 35 28 36 29 37 30 39 31 40 32 41 78 42 33 43 77 44
REMARK SMILES IDX 34 45 35 46 36 47 71 48 37 49 76 50 70 51 72 52 38 53 75 54
REMARK SMILES IDX 69 55 68 56 39 58 61 59 46 60 60 61 47 62 50 63 59 64 73 65
REMARK SMILES IDX 48 66 49 67 58 69 74 70 51 71 40 72 41 73 45 74 42 75 44 76
REMARK SMILES IDX 43 77 62 78 63 79 67 80 64 81 66 82 65 83 52 84 53 85 57 86
REMARK SMILES IDX 54 87 56 88 55 89
REMARK H PARENT 23 4 28 38 72 57 50 68
REMARK Flexibility Score: inf
ROOT
ATOM      1  C   UNL A   1      37.388  21.854  25.467  1.00  0.00     0.224 C 
ATOM      2  O   UNL A   1      36.738  20.816  25.288  1.00  0.00    -0.275 OA
ATOM      3  N   UNL A   1      38.463  21.748  26.288  1.00  0.00    -0.356 N 
ATOM      4  H   UNL A   1      38.510  20.901  26.788  1.00  0.00     0.163 HD
ENDROOT
BRANCH   1   5
ATOM      5  C   UNL A   1      36.952  23.141  24.750  1.00  0.00     0.098 C 
ATOM      6  N   UNL A   1      34.568  23.752  25.204  1.00  0.00    -0.342 N 
ATOM      7  C   UNL A   1      34.267  23.840  23.771  1.00  0.00     0.119 C 
ATOM      8  C   UNL A   1      35.963  23.996  25.544  1.00  0.00     0.133 C 
ATOM      9  C   UNL A   1      35.153  22.949  22.905  1.00  0.00     0.022 C 
ATOM     10  C   UNL A   1      36.633  23.011  23.261  1.00  0.00     0.017 C 
BRANCH   6  11
ATOM     11  C   UNL A   1      33.550  23.390  26.077  1.00  0.00     0.227 C 
ATOM     12  O   UNL A   1      33.829  22.829  27.146  1.00  0.00    -0.275 OA
BRANCH  11  13
ATOM     13  C   UNL A   1      32.057  23.522  25.716  1.00  0.00     0.143 C 
BRANCH  13  14
ATOM     14  C   UNL A   1      31.543  24.744  25.007  1.00  0.00     0.051 A 
ATOM     15  C   UNL A   1      30.444  29.183  22.846  1.00  0.00     0.142 A 
ATOM     16  C   UNL A   1      30.428  27.858  22.422  1.00  0.00     0.096 A 
ATOM     17  C   UNL A   1      30.718  29.476  24.185  1.00  0.00     0.083 A 
ATOM     18  C   UNL A   1      30.759  26.849  23.328  1.00  0.00     0.142 A 
ATOM     19  C   UNL A   1      31.078  28.451  25.070  1.00  0.00     0.036 A 
ATOM     20  Cl  UNL A   1      30.614  31.080  24.813  1.00  0.00    -0.080 Cl
ATOM     21  O   UNL A   1      30.691  25.536  22.845  1.00  0.00    -0.422 OA
ATOM     22  C   UNL A   1      31.125  27.116  24.646  1.00  0.00     0.023 A 
ATOM     23  C   UNL A   1      30.984  24.454  23.654  1.00  0.00     0.340 A 
ATOM     24  C   UNL A   1      31.580  26.002  25.501  1.00  0.00    -0.029 A 
ATOM     25  O   UNL A   1      30.856  23.308  23.235  1.00  0.00    -0.246 OA
ATOM     26  C   UNL A   1      32.147  26.355  26.853  1.00  0.00     0.046 C 
BRANCH  15  27
ATOM     27  O   UNL A   1      30.112  30.163  21.950  1.00  0.00    -0.488 OA
BRANCH  27  28
ATOM     28  C   UNL A   1      28.687  30.317  21.836  1.00  0.00     0.260 C 
BRANCH  28  29
ATOM     29  C   UNL A   1      28.342  31.746  21.490  1.00  0.00    -0.043 C 
ATOM     30  C   UNL A   1      27.874  32.089  20.277  1.00  0.00     0.011 C 
ATOM     31  C   UNL A   1      28.510  32.758  22.586  1.00  0.00     0.042 C 
ENDBRANCH  28  29
ENDBRANCH  27  28
ENDBRANCH  15  27
ENDBRANCH  13  14
ENDBRANCH  11  13
ENDBRANCH   6  11
ENDBRANCH   1   5
BRANCH   3  32
ATOM     32  C   UNL A   1      39.551  22.659  26.554  1.00  0.00     0.116 C 
BRANCH  32  33
ATOM     33  C   UNL A   1      40.914  22.129  26.118  1.00  0.00     0.023 C 
BRANCH  33  34
ATOM     34  C   UNL A   1      41.128  20.642  26.372  1.00  0.00     0.023 C 
BRANCH  34  35
ATOM     35  C   UNL A   1      42.581  20.208  26.542  1.00  0.00     0.116 C 
BRANCH  35  36
ATOM     36  N   UNL A   1      43.141  19.461  25.421  1.00  0.00    -0.352 N 
ATOM     37  C   UNL A   1      44.133  19.870  24.550  1.00  0.00     0.251 C 
ATOM     38  H   UNL A   1      42.769  18.564  25.268  1.00  0.00     0.163 HD
ATOM     39  O   UNL A   1      44.482  19.180  23.604  1.00  0.00    -0.269 OA
BRANCH  37  40
ATOM     40  C   UNL A   1      44.728  21.207  24.761  1.00  0.00     0.039 A 
ATOM     41  C   UNL A   1      45.473  21.455  25.914  1.00  0.00     0.014 A 
ATOM     42  C   UNL A   1      44.405  22.242  23.882  1.00  0.00     0.014 A 
ATOM     43  C   UNL A   1      45.702  22.769  26.300  1.00  0.00     0.010 A 
ATOM     44  C   UNL A   1      44.724  23.557  24.227  1.00  0.00     0.010 A 
ATOM     45  C   UNL A   1      45.309  23.837  25.473  1.00  0.00    -0.014 A 
BRANCH  45  46
ATOM     46  C   UNL A   1      45.483  25.231  25.959  1.00  0.00     0.031 A 
ATOM     47  C   UNL A   1      44.351  25.963  26.632  1.00  0.00     0.074 A 
ATOM     48  C   UNL A   1      46.696  25.809  25.866  1.00  0.00     0.049 A 
ATOM     49  N   UNL A   1      44.341  27.172  27.137  1.00  0.00    -0.248 NA
ATOM     50  C   UNL A   1      43.066  25.256  26.759  1.00  0.00     0.031 C 
ATOM     51  C   UNL A   1      47.880  25.191  25.266  1.00  0.00     0.029 A 
ATOM     52  N   UNL A   1      47.144  27.027  26.311  1.00  0.00    -0.354 N 
ATOM     53  C   UNL A   1      43.051  27.380  27.610  1.00  0.00     0.074 A 
ATOM     54  C   UNL A   1      42.298  26.180  27.320  1.00  0.00     0.031 C 
ATOM     55  C   UNL A   1      48.933  26.000  25.444  1.00  0.00     0.029 A 
ATOM     56  C   UNL A   1      48.486  27.224  26.100  1.00  0.00     0.049 A 
ATOM     57  H   UNL A   1      46.560  27.694  26.738  1.00  0.00     0.167 HD
ATOM     58  C   UNL A   1      42.542  28.470  28.232  1.00  0.00     0.031 A 
ATOM     59  C   UNL A   1      49.276  28.275  26.389  1.00  0.00     0.031 A 
ATOM     60  C   UNL A   1      43.297  29.654  28.543  1.00  0.00     0.049 A 
ATOM     61  C   UNL A   1      48.679  29.483  27.046  1.00  0.00     0.074 A 
ATOM     62  C   UNL A   1      42.866  30.802  29.186  1.00  0.00     0.029 A 
ATOM     63  N   UNL A   1      44.636  29.840  28.244  1.00  0.00    -0.354 N 
ATOM     64  N   UNL A   1      47.451  29.669  27.465  1.00  0.00    -0.248 NA
ATOM     65  C   UNL A   1      49.571  30.631  27.260  1.00  0.00     0.031 C 
ATOM     66  C   UNL A   1      43.933  31.702  29.235  1.00  0.00     0.029 A 
ATOM     67  C   UNL A   1      45.043  31.094  28.670  1.00  0.00     0.049 A 
ATOM     68  H   UNL A   1      45.213  29.181  27.796  1.00  0.00     0.167 HD
ATOM     69  C   UNL A   1      47.421  30.952  27.990  1.00  0.00     0.074 A 
ATOM     70  C   UNL A   1      48.759  31.491  27.862  1.00  0.00     0.031 C 
ATOM     71  C   UNL A   1      46.373  31.623  28.526  1.00  0.00     0.031 A 
BRANCH  58  72
ATOM     72  C   UNL A   1      41.087  28.455  28.608  1.00  0.00    -0.014 A 
ATOM     73  C   UNL A   1      40.693  27.892  29.833  1.00  0.00     0.009 A 
ATOM     74  C   UNL A   1      40.100  28.902  27.718  1.00  0.00     0.009 A 
ATOM     75  C   UNL A   1      39.340  27.768  30.156  1.00  0.00     0.001 A 
ATOM     76  C   UNL A   1      38.747  28.799  28.053  1.00  0.00     0.001 A 
ATOM     77  C   UNL A   1      38.368  28.225  29.267  1.00  0.00     0.000 A 
ENDBRANCH  58  72
BRANCH  59  78
ATOM     78  C   UNL A   1      50.718  28.215  26.040  1.00  0.00    -0.014 A 
ATOM     79  C   UNL A   1      51.661  27.784  26.987  1.00  0.00     0.009 A 
ATOM     80  C   UNL A   1      51.165  28.652  24.785  1.00  0.00     0.009 A 
ATOM     81  C   UNL A   1      53.024  27.821  26.697  1.00  0.00     0.001 A 
ATOM     82  C   UNL A   1      52.529  28.662  24.488  1.00  0.00     0.001 A 
ATOM     83  C   UNL A   1      53.458  28.258  25.447  1.00  0.00     0.000 A 
ENDBRANCH  59  78
BRANCH  71  84
ATOM     84  C   UNL A   1      46.620  33.020  29.017  1.00  0.00    -0.014 A 
ATOM     85  C   UNL A   1      46.988  33.235  30.354  1.00  0.00     0.009 A 
ATOM     86  C   UNL A   1      46.402  34.125  28.181  1.00  0.00     0.009 A 
ATOM     87  C   UNL A   1      47.123  34.533  30.849  1.00  0.00     0.001 A 
ATOM     88  C   UNL A   1      46.560  35.421  28.673  1.00  0.00     0.001 A 
ATOM     89  C   UNL A   1      46.913  35.624  30.008  1.00  0.00     0.000 A 
ENDBRANCH  71  84
ENDBRANCH  45  46
ENDBRANCH  37  40
ENDBRANCH  35  36
ENDBRANCH  34  35
ENDBRANCH  33  34
ENDBRANCH  32  33
ENDBRANCH   3  32
TORSDOF 17
ENDMDL
MODEL 2
REMARK VINA RESULT:     -11.4      4.223      6.460
REMARK SMILES C=C(C)COc1cc2oc(=O)c(CC(=O)N3CCC[C@H](C(=O)NCCCCNC(=O)c4ccc(-c5c6nc(c(-c7ccccc7)c7ccc([nH]7)c(-c7ccccc7)c7nc(c(-c8ccccc8)c8ccc5[nH]8)C=C7)C=C6)cc4)C3)c(C)c2cc1Cl
REMARK SMILES IDX 21 1 22 2 23 3 20 5 16 6 17 7 79 8 18 9 19 10 14 11 15 12
REMARK SMILES IDX 13 13 12 14 6 15 7 16 84 17 8 18 83 19 85 20 9 21 82 22
REMARK SMILES IDX 10 23 80 24 11 25 81 26 5 27 4 28 2 29 1 30 3 31 24 32 25 33
REMARK SMILES IDX 26 34 27 35 28 36 29 37 30 39 31 40 32 41 78 42 33 43 77 44
REMARK SMILES IDX 34 45 35 46 36 47 71 48 37 49 76 50 70 51 72 52 38 53 75 54
REMARK SMILES IDX 69 55 68 56 39 58 61 59 46 60 60 61 47 62 50 63 59 64 73 65
REMARK SMILES IDX 48 66 49 67 58 69 74 70 51 71 40 72 41 73 45 74 42 75 44 76
REMARK SMILES IDX 43 77 62 78 63 79 67 80 64 81 66 82 65 83 52 84 53 85 57 86
REMARK SMILES IDX 54 87 56 88 55 89
REMARK H PARENT 23 4 28 38 72 57 50 68
REMARK Flexibility Score: inf
ROOT
ATOM      1  C   UNL A   1      37.882  23.139  25.777  1.00  0.00     0.224 C 
ATOM      2  O   UNL A   1      37.451  24.096  26.433  1.00  0.00    -0.275 OA
ATOM      3  N   UNL A   1      39.075  22.634  26.179  1.00  0.00    -0.356 N 
ATOM      4  H   UNL A   1      39.552  23.189  26.837  1.00  0.00     0.163 HD
ENDROOT
BRANCH   1   5
ATOM      5  C   UNL A   1      37.046  22.599  24.606  1.00  0.00     0.098 C 
ATOM      6  N   UNL A   1      34.582  22.729  25.026  1.00  0.00    -0.342 N 
ATOM      7  C   UNL A   1      34.406  21.306  24.721  1.00  0.00     0.119 C 
ATOM      8  C   UNL A   1      35.732  23.347  24.379  1.00  0.00     0.133 C 
ATOM      9  C   UNL A   1      35.646  20.463  25.003  1.00  0.00     0.022 C 
ATOM     10  C   UNL A   1      36.944  21.078  24.493  1.00  0.00     0.017 C 
BRANCH   6  11
ATOM     11  C   UNL A   1      33.711  23.331  25.925  1.00  0.00     0.227 C 
ATOM     12  O   UNL A   1      34.125  23.687  27.037  1.00  0.00    -0.275 OA
BRANCH  11  13
ATOM     13  C   UNL A   1      32.197  23.452  25.663  1.00  0.00     0.143 C 
BRANCH  13  14
ATOM     14  C   UNL A   1      31.636  24.634  24.922  1.00  0.00     0.051 A 
ATOM     15  C   UNL A   1      30.350  28.982  22.680  1.00  0.00     0.142 A 
ATOM     16  C   UNL A   1      30.442  27.657  22.264  1.00  0.00     0.096 A 
ATOM     17  C   UNL A   1      30.537  29.297  24.028  1.00  0.00     0.083 A 
ATOM     18  C   UNL A   1      30.796  26.676  23.193  1.00  0.00     0.142 A 
ATOM     19  C   UNL A   1      30.922  28.302  24.936  1.00  0.00     0.036 A 
ATOM     20  Cl  UNL A   1      30.297  30.893  24.639  1.00  0.00    -0.080 Cl
ATOM     21  O   UNL A   1      30.840  25.359  22.715  1.00  0.00    -0.422 OA
ATOM     22  C   UNL A   1      31.079  26.972  24.525  1.00  0.00     0.023 A 
ATOM     23  C   UNL A   1      31.164  24.302  23.545  1.00  0.00     0.340 A 
ATOM     24  C   UNL A   1      31.566  25.894  25.408  1.00  0.00    -0.029 A 
ATOM     25  O   UNL A   1      31.135  23.149  23.128  1.00  0.00    -0.246 OA
ATOM     26  C   UNL A   1      32.042  26.289  26.783  1.00  0.00     0.046 C 
BRANCH  15  27
ATOM     27  O   UNL A   1      29.996  29.934  21.762  1.00  0.00    -0.488 OA
BRANCH  27  28
ATOM     28  C   UNL A   1      28.588  30.219  21.809  1.00  0.00     0.260 C 
BRANCH  28  29
ATOM     29  C   UNL A   1      28.338  31.671  21.476  1.00  0.00    -0.043 C 
ATOM     30  C   UNL A   1      28.425  32.638  22.406  1.00  0.00     0.011 C 
ATOM     31  C   UNL A   1      28.028  31.983  20.040  1.00  0.00     0.042 C 
ENDBRANCH  28  29
ENDBRANCH  27  28
ENDBRANCH  15  27
ENDBRANCH  13  14
ENDBRANCH  11  13
ENDBRANCH   6  11
ENDBRANCH   1   5
BRANCH   3  32
ATOM     32  C   UNL A   1      39.768  21.421  25.810  1.00  0.00     0.116 C 
BRANCH  32  33
ATOM     33  C   UNL A   1      40.879  21.032  26.780  1.00  0.00     0.023 C 
BRANCH  33  34
ATOM     34  C   UNL A   1      42.279  21.037  26.179  1.00  0.00     0.023 C 
BRANCH  34  35
ATOM     35  C   UNL A   1      42.643  22.280  25.374  1.00  0.00     0.116 C 
BRANCH  35  36
ATOM     36  N   UNL A   1      44.054  22.650  25.407  1.00  0.00    -0.352 N 
ATOM     37  C   UNL A   1      44.623  23.738  26.041  1.00  0.00     0.251 C 
ATOM     38  H   UNL A   1      44.670  22.057  24.921  1.00  0.00     0.163 HD
ATOM     39  O   UNL A   1      45.817  23.983  25.948  1.00  0.00    -0.269 OA
BRANCH  37  40
ATOM     40  C   UNL A   1      43.730  24.642  26.796  1.00  0.00     0.039 A 
ATOM     41  C   UNL A   1      43.865  26.023  26.650  1.00  0.00     0.014 A 
ATOM     42  C   UNL A   1      42.875  24.105  27.760  1.00  0.00     0.014 A 
ATOM     43  C   UNL A   1      43.316  26.860  27.611  1.00  0.00     0.010 A 
ATOM     44  C   UNL A   1      42.246  24.960  28.668  1.00  0.00     0.010 A 
ATOM     45  C   UNL A   1      42.520  26.337  28.646  1.00  0.00    -0.014 A 
BRANCH  45  46
ATOM     46  C   UNL A   1      42.027  27.248  29.712  1.00  0.00     0.031 A 
ATOM     47  C   UNL A   1      40.755  28.036  29.530  1.00  0.00     0.074 A 
ATOM     48  C   UNL A   1      42.686  27.300  30.885  1.00  0.00     0.049 A 
ATOM     49  N   UNL A   1      40.170  28.855  30.368  1.00  0.00    -0.248 NA
ATOM     50  C   UNL A   1      40.045  27.890  28.248  1.00  0.00     0.031 C 
ATOM     51  C   UNL A   1      43.910  26.560  31.196  1.00  0.00     0.029 A 
ATOM     52  N   UNL A   1      42.399  27.974  32.045  1.00  0.00    -0.354 N 
ATOM     53  C   UNL A   1      39.048  29.343  29.708  1.00  0.00     0.074 A 
ATOM     54  C   UNL A   1      39.038  28.741  28.393  1.00  0.00     0.031 C 
ATOM     55  C   UNL A   1      44.228  26.761  32.483  1.00  0.00     0.029 A 
ATOM     56  C   UNL A   1      43.278  27.703  33.065  1.00  0.00     0.049 A 
ATOM     57  H   UNL A   1      41.638  28.591  32.137  1.00  0.00     0.167 HD
ATOM     58  C   UNL A   1      38.110  30.209  30.159  1.00  0.00     0.031 A 
ATOM     59  C   UNL A   1      43.328  28.166  34.327  1.00  0.00     0.031 A 
ATOM     60  C   UNL A   1      38.105  30.789  31.476  1.00  0.00     0.049 A 
ATOM     61  C   UNL A   1      42.298  29.152  34.789  1.00  0.00     0.074 A 
ATOM     62  C   UNL A   1      37.184  31.666  32.024  1.00  0.00     0.029 A 
ATOM     63  N   UNL A   1      39.057  30.544  32.452  1.00  0.00    -0.354 N 
ATOM     64  N   UNL A   1      41.258  29.618  34.143  1.00  0.00    -0.248 NA
ATOM     65  C   UNL A   1      42.452  29.686  36.150  1.00  0.00     0.031 C 
ATOM     66  C   UNL A   1      37.605  31.988  33.316  1.00  0.00     0.029 A 
ATOM     67  C   UNL A   1      38.758  31.271  33.592  1.00  0.00     0.049 A 
ATOM     68  H   UNL A   1      39.831  29.944  32.350  1.00  0.00     0.167 HD
ATOM     69  C   UNL A   1      40.635  30.500  35.014  1.00  0.00     0.074 A 
ATOM     70  C   UNL A   1      41.398  30.484  36.245  1.00  0.00     0.031 C 
ATOM     71  C   UNL A   1      39.531  31.257  34.806  1.00  0.00     0.031 A 
BRANCH  58  72
ATOM     72  C   UNL A   1      37.008  30.612  29.219  1.00  0.00    -0.014 A 
ATOM     73  C   UNL A   1      36.919  31.944  28.784  1.00  0.00     0.009 A 
ATOM     74  C   UNL A   1      36.005  29.706  28.843  1.00  0.00     0.009 A 
ATOM     75  C   UNL A   1      35.844  32.365  28.000  1.00  0.00     0.001 A 
ATOM     76  C   UNL A   1      34.942  30.124  28.038  1.00  0.00     0.001 A 
ATOM     77  C   UNL A   1      34.858  31.454  27.625  1.00  0.00     0.000 A 
ENDBRANCH  58  72
BRANCH  59  78
ATOM     78  C   UNL A   1      44.410  27.695  35.229  1.00  0.00    -0.014 A 
ATOM     79  C   UNL A   1      44.205  26.588  36.067  1.00  0.00     0.009 A 
ATOM     80  C   UNL A   1      45.625  28.390  35.305  1.00  0.00     0.009 A 
ATOM     81  C   UNL A   1      45.181  26.204  36.986  1.00  0.00     0.001 A 
ATOM     82  C   UNL A   1      46.612  27.986  36.207  1.00  0.00     0.001 A 
ATOM     83  C   UNL A   1      46.386  26.902  37.055  1.00  0.00     0.000 A 
ENDBRANCH  59  78
BRANCH  71  84
ATOM     84  C   UNL A   1      39.072  32.140  35.929  1.00  0.00    -0.014 A 
ATOM     85  C   UNL A   1      38.154  31.651  36.871  1.00  0.00     0.009 A 
ATOM     86  C   UNL A   1      39.480  33.479  36.003  1.00  0.00     0.009 A 
ATOM     87  C   UNL A   1      37.642  32.491  37.861  1.00  0.00     0.001 A 
ATOM     88  C   UNL A   1      38.985  34.311  37.009  1.00  0.00     0.001 A 
ATOM     89  C   UNL A   1      38.062  33.819  37.931  1.00  0.00     0.000 A 
ENDBRANCH  71  84
ENDBRANCH  45  46
ENDBRANCH  37  40
ENDBRANCH  35  36
ENDBRANCH  34  35
ENDBRANCH  33  34
ENDBRANCH  32  33
ENDBRANCH   3  32
TORSDOF 17
ENDMDL
MODEL 3
REMARK VINA RESULT:     -11.4      0.384      5.585
REMARK SMILES C=C(C)COc1cc2oc(=O)c(CC(=O)N3CCC[C@H](C(=O)NCCCCNC(=O)c4ccc(-c5c6nc(c(-c7ccccc7)c7ccc([nH]7)c(-c7ccccc7)c7nc(c(-c8ccccc8)c8ccc5[nH]8)C=C7)C=C6)cc4)C3)c(C)c2cc1Cl
REMARK SMILES IDX 21 1 22 2 23 3 20 5 16 6 17 7 79 8 18 9 19 10 14 11 15 12
REMARK SMILES IDX 13 13 12 14 6 15 7 16 84 17 8 18 83 19 85 20 9 21 82 22
REMARK SMILES IDX 10 23 80 24 11 25 81 26 5 27 4 28 2 29 1 30 3 31 24 32 25 33
REMARK SMILES IDX 26 34 27 35 28 36 29 37 30 39 31 40 32 41 78 42 33 43 77 44
REMARK SMILES IDX 34 45 35 46 36 47 71 48 37 49 76 50 70 51 72 52 38 53 75 54
REMARK SMILES IDX 69 55 68 56 39 58 61 59 46 60 60 61 47 62 50 63 59 64 73 65
REMARK SMILES IDX 48 66 49 67 58 69 74 70 51 71 40 72 41 73 45 74 42 75 44 76
REMARK SMILES IDX 43 77 62 78 63 79 67 80 64 81 66 82 65 83 52 84 53 85 57 86
REMARK SMILES IDX 54 87 56 88 55 89
REMARK H PARENT 23 4 28 38 72 57 50 68
REMARK Flexibility Score: inf
ROOT
ATOM      1  C   UNL A   1      37.337  21.693  25.430  1.00  0.00     0.224 C 
ATOM      2  O   UNL A   1      36.641  20.687  25.240  1.00  0.00    -0.275 OA
ATOM      3  N   UNL A   1      38.463  21.507  26.162  1.00  0.00    -0.356 N 
ATOM      4  H   UNL A   1      38.518  20.631  26.609  1.00  0.00     0.163 HD
ENDROOT
BRANCH   1   5
ATOM      5  C   UNL A   1      36.895  23.032  24.820  1.00  0.00     0.098 C 
ATOM      6  N   UNL A   1      34.458  23.499  25.154  1.00  0.00    -0.342 N 
ATOM      7  C   UNL A   1      34.256  23.730  23.720  1.00  0.00     0.119 C 
ATOM      8  C   UNL A   1      35.813  23.758  25.623  1.00  0.00     0.133 C 
ATOM      9  C   UNL A   1      35.241  22.971  22.835  1.00  0.00     0.022 C 
ATOM     10  C   UNL A   1      36.688  23.051  23.306  1.00  0.00     0.017 C 
BRANCH   6  11
ATOM     11  C   UNL A   1      33.399  23.007  25.905  1.00  0.00     0.227 C 
ATOM     12  O   UNL A   1      33.625  22.279  26.882  1.00  0.00    -0.275 OA
BRANCH  11  13
ATOM     13  C   UNL A   1      31.925  23.204  25.497  1.00  0.00     0.143 C 
BRANCH  13  14
ATOM     14  C   UNL A   1      31.469  24.490  24.864  1.00  0.00     0.051 A 
ATOM     15  C   UNL A   1      30.590  29.093  22.961  1.00  0.00     0.142 A 
ATOM     16  C   UNL A   1      30.483  27.795  22.470  1.00  0.00     0.096 A 
ATOM     17  C   UNL A   1      30.911  29.299  24.305  1.00  0.00     0.083 A 
ATOM     18  C   UNL A   1      30.775  26.723  23.316  1.00  0.00     0.142 A 
ATOM     19  C   UNL A   1      31.230  28.210  25.127  1.00  0.00     0.036 A 
ATOM     20  Cl  UNL A   1      30.919  30.871  25.015  1.00  0.00    -0.080 Cl
ATOM     21  O   UNL A   1      30.617  25.442  22.768  1.00  0.00    -0.422 OA
ATOM     22  C   UNL A   1      31.187  26.899  24.635  1.00  0.00     0.023 A 
ATOM     23  C   UNL A   1      30.863  24.304  23.513  1.00  0.00     0.340 A 
ATOM     24  C   UNL A   1      31.594  25.716  25.421  1.00  0.00    -0.029 A 
ATOM     25  O   UNL A   1      30.657  23.192  23.040  1.00  0.00    -0.246 OA
ATOM     26  C   UNL A   1      32.212  25.964  26.773  1.00  0.00     0.046 C 
BRANCH  15  27
ATOM     27  O   UNL A   1      30.296  30.136  22.124  1.00  0.00    -0.488 OA
BRANCH  27  28
ATOM     28  C   UNL A   1      28.883  30.237  21.878  1.00  0.00     0.260 C 
BRANCH  28  29
ATOM     29  C   UNL A   1      28.487  31.683  21.693  1.00  0.00    -0.043 C 
ATOM     30  C   UNL A   1      28.726  32.611  22.636  1.00  0.00     0.011 C 
ATOM     31  C   UNL A   1      27.850  32.037  20.381  1.00  0.00     0.042 C 
ENDBRANCH  28  29
ENDBRANCH  27  28
ENDBRANCH  15  27
ENDBRANCH  13  14
ENDBRANCH  11  13
ENDBRANCH   6  11
ENDBRANCH   1   5
BRANCH   3  32
ATOM     32  C   UNL A   1      39.598  22.368  26.400  1.00  0.00     0.116 C 
BRANCH  32  33
ATOM     33  C   UNL A   1      40.924  21.776  25.933  1.00  0.00     0.023 C 
BRANCH  33  34
ATOM     34  C   UNL A   1      41.197  20.361  26.426  1.00  0.00     0.023 C 
BRANCH  34  35
ATOM     35  C   UNL A   1      42.667  19.958  26.486  1.00  0.00     0.116 C 
BRANCH  35  36
ATOM     36  N   UNL A   1      43.193  19.347  25.270  1.00  0.00    -0.352 N 
ATOM     37  C   UNL A   1      44.118  19.881  24.393  1.00  0.00     0.251 C 
ATOM     38  H   UNL A   1      42.849  18.453  25.049  1.00  0.00     0.163 HD
ATOM     39  O   UNL A   1      44.441  19.299  23.368  1.00  0.00    -0.269 OA
BRANCH  37  40
ATOM     40  C   UNL A   1      44.672  21.216  24.702  1.00  0.00     0.039 A 
ATOM     41  C   UNL A   1      45.484  21.382  25.824  1.00  0.00     0.014 A 
ATOM     42  C   UNL A   1      44.247  22.318  23.958  1.00  0.00     0.014 A 
ATOM     43  C   UNL A   1      45.685  22.660  26.328  1.00  0.00     0.010 A 
ATOM     44  C   UNL A   1      44.535  23.605  24.416  1.00  0.00     0.010 A 
ATOM     45  C   UNL A   1      45.193  23.785  25.644  1.00  0.00    -0.014 A 
BRANCH  45  46
ATOM     46  C   UNL A   1      45.344  25.130  26.259  1.00  0.00     0.031 A 
ATOM     47  C   UNL A   1      46.661  25.861  26.209  1.00  0.00     0.074 A 
ATOM     48  C   UNL A   1      44.263  25.731  26.792  1.00  0.00     0.049 A 
ATOM     49  N   UNL A   1      46.957  27.050  26.672  1.00  0.00    -0.248 NA
ATOM     50  C   UNL A   1      47.791  25.178  25.558  1.00  0.00     0.031 C 
ATOM     51  C   UNL A   1      42.925  25.141  26.871  1.00  0.00     0.029 A 
ATOM     52  N   UNL A   1      44.108  26.983  27.331  1.00  0.00    -0.354 N 
ATOM     53  C   UNL A   1      48.306  27.243  26.398  1.00  0.00     0.074 A 
ATOM     54  C   UNL A   1      48.778  26.044  25.741  1.00  0.00     0.031 C 
ATOM     55  C   UNL A   1      42.073  26.054  27.356  1.00  0.00     0.029 A 
ATOM     56  C   UNL A   1      42.814  27.264  27.695  1.00  0.00     0.049 A 
ATOM     57  H   UNL A   1      44.852  27.617  27.445  1.00  0.00     0.167 HD
ATOM     58  C   UNL A   1      49.079  28.322  26.666  1.00  0.00     0.031 A 
ATOM     59  C   UNL A   1      42.278  28.365  28.252  1.00  0.00     0.031 A 
ATOM     60  C   UNL A   1      48.605  29.525  27.296  1.00  0.00     0.049 A 
ATOM     61  C   UNL A   1      43.163  29.532  28.571  1.00  0.00     0.074 A 
ATOM     62  C   UNL A   1      49.315  30.676  27.593  1.00  0.00     0.029 A 
ATOM     63  N   UNL A   1      47.303  29.737  27.717  1.00  0.00    -0.354 N 
ATOM     64  N   UNL A   1      44.441  29.686  28.325  1.00  0.00    -0.248 NA
ATOM     65  C   UNL A   1      42.538  30.673  29.254  1.00  0.00     0.031 C 
ATOM     66  C   UNL A   1      48.453  31.567  28.236  1.00  0.00     0.029 A 
ATOM     67  C   UNL A   1      47.193  30.993  28.292  1.00  0.00     0.049 A 
ATOM     68  H   UNL A   1      46.565  29.092  27.622  1.00  0.00     0.167 HD
ATOM     69  C   UNL A   1      44.774  30.937  28.823  1.00  0.00     0.074 A 
ATOM     70  C   UNL A   1      43.559  31.512  29.362  1.00  0.00     0.031 C 
ATOM     71  C   UNL A   1      45.983  31.549  28.835  1.00  0.00     0.031 A 
BRANCH  58  72
ATOM     72  C   UNL A   1      50.536  28.258  26.300  1.00  0.00    -0.014 A 
ATOM     73  C   UNL A   1      50.936  28.566  24.990  1.00  0.00     0.009 A 
ATOM     74  C   UNL A   1      51.497  27.800  27.213  1.00  0.00     0.009 A 
ATOM     75  C   UNL A   1      52.267  28.409  24.597  1.00  0.00     0.001 A 
ATOM     76  C   UNL A   1      52.832  27.666  26.825  1.00  0.00     0.001 A 
ATOM     77  C   UNL A   1      53.214  27.962  25.516  1.00  0.00     0.000 A 
ENDBRANCH  58  72
BRANCH  59  78
ATOM     78  C   UNL A   1      40.823  28.392  28.546  1.00  0.00    -0.014 A 
ATOM     79  C   UNL A   1      39.931  29.022  27.662  1.00  0.00     0.009 A 
ATOM     80  C   UNL A   1      40.328  27.852  29.741  1.00  0.00     0.009 A 
ATOM     81  C   UNL A   1      38.579  29.137  27.983  1.00  0.00     0.001 A 
ATOM     82  C   UNL A   1      38.968  27.944  30.047  1.00  0.00     0.001 A 
ATOM     83  C   UNL A   1      38.097  28.597  29.174  1.00  0.00     0.000 A 
ENDBRANCH  59  78
BRANCH  71  84
ATOM     84  C   UNL A   1      46.064  32.915  29.452  1.00  0.00    -0.014 A 
ATOM     85  C   UNL A   1      46.328  33.048  30.823  1.00  0.00     0.009 A 
ATOM     86  C   UNL A   1      45.791  34.063  28.693  1.00  0.00     0.009 A 
ATOM     87  C   UNL A   1      46.307  34.305  31.428  1.00  0.00     0.001 A 
ATOM     88  C   UNL A   1      45.794  35.322  29.297  1.00  0.00     0.001 A 
ATOM     89  C   UNL A   1      46.044  35.440  30.664  1.00  0.00     0.000 A 
ENDBRANCH  71  84
ENDBRANCH  45  46
ENDBRANCH  37  40
ENDBRANCH  35  36
ENDBRANCH  34  35
ENDBRANCH  33  34
ENDBRANCH  32  33
ENDBRANCH   3  32
TORSDOF 17
ENDMDL
