MODEL 1
REMARK VINA RESULT:     -10.6      0.000      0.000
REMARK SMILES O=C(Cc1csc(NC(=O)CS[C@@H]2CCS(=O)(=O)C2)n1)NCCCCNC(=O)c1ccc(-c2c3nc(c(-c4ccccc4)c4ccc([nH]4)c(-c4ccccc4)c4nc(c(-c5ccccc5)c5ccc2[nH]5)C=C4)C=C3)cc1
REMARK SMILES IDX 22 1 21 2 1 3 2 4 3 6 4 7 5 8 20 9 6 10 7 11 8 12 9 13 10 15
REMARK SMILES IDX 11 16 12 17 13 18 14 19 19 20 15 21 16 22 17 23 18 24 23 25
REMARK SMILES IDX 24 26 25 27 26 28 27 29 28 31 29 32 30 33 76 34 31 35 75 36
REMARK SMILES IDX 32 37 33 38 34 39 69 40 35 41 74 42 68 43 70 44 36 45 73 46
REMARK SMILES IDX 67 47 66 48 37 50 59 51 44 52 58 53 45 54 48 55 57 56 71 57
REMARK SMILES IDX 46 58 47 59 56 61 72 62 49 63 38 64 39 65 43 66 40 67 42 68
REMARK SMILES IDX 41 69 60 70 61 71 65 72 62 73 64 74 63 75 50 76 51 77 55 78
REMARK SMILES IDX 52 79 54 80 53 81
REMARK H PARENT 21 5 8 14 26 30 70 49 48 60
REMARK Flexibility Score: inf
ROOT
ATOM      1  C   UNL A   1      30.882  26.826  26.843  1.00  0.00     0.116 C 
ENDROOT
BRANCH   1   2
ATOM      2  N   UNL A   1      31.772  25.785  26.364  1.00  0.00    -0.356 N 
ATOM      3  O   UNL A   1      30.519  24.028  27.134  1.00  0.00    -0.275 OA
ATOM      4  C   UNL A   1      31.517  24.441  26.547  1.00  0.00     0.226 C 
ATOM      5  H   UNL A   1      32.592  26.050  25.887  1.00  0.00     0.163 HD
BRANCH   4   6
ATOM      6  C   UNL A   1      32.621  23.505  26.084  1.00  0.00     0.157 C 
BRANCH   6   7
ATOM      7  C   UNL A   1      32.941  23.624  24.629  1.00  0.00     0.063 A 
ATOM      8  C   UNL A   1      32.865  22.625  23.674  1.00  0.00     0.093 A 
ATOM      9  N   UNL A   1      33.272  24.869  24.114  1.00  0.00    -0.224 NA
ATOM     10  S   UNL A   1      33.247  23.256  22.131  1.00  0.00    -0.105 S 
ATOM     11  C   UNL A   1      33.518  24.782  22.830  1.00  0.00     0.189 A 
BRANCH  11  12
ATOM     12  N   UNL A   1      33.800  25.893  22.090  1.00  0.00    -0.301 N 
ATOM     13  C   UNL A   1      33.490  27.202  22.252  1.00  0.00     0.236 C 
ATOM     14  H   UNL A   1      34.332  25.708  21.283  1.00  0.00     0.172 HD
ATOM     15  O   UNL A   1      34.166  28.013  21.606  1.00  0.00    -0.274 OA
BRANCH  13  16
ATOM     16  C   UNL A   1      32.356  27.712  23.125  1.00  0.00     0.170 C 
BRANCH  16  17
ATOM     17  S   UNL A   1      30.700  27.612  22.358  1.00  0.00    -0.148 SA
BRANCH  17  18
ATOM     18  C   UNL A   1      29.542  28.425  23.527  1.00  0.00     0.063 C 
ATOM     19  C   UNL A   1      28.130  27.846  23.637  1.00  0.00     0.031 C 
ATOM     20  C   UNL A   1      29.463  29.943  23.458  1.00  0.00     0.151 C 
ATOM     21  C   UNL A   1      27.146  28.730  22.887  1.00  0.00     0.138 C 
ATOM     22  S   UNL A   1      27.886  30.343  22.751  1.00  0.00     0.151 S 
ATOM     23  O   UNL A   1      28.090  30.659  21.353  1.00  0.00    -0.229 OA
ATOM     24  O   UNL A   1      27.200  31.246  23.650  1.00  0.00    -0.229 OA
ENDBRANCH  17  18
ENDBRANCH  16  17
ENDBRANCH  13  16
ENDBRANCH  11  12
ENDBRANCH   6   7
ENDBRANCH   4   6
ENDBRANCH   1   2
BRANCH   1  25
ATOM     25  C   UNL A   1      31.633  28.132  27.104  1.00  0.00     0.023 C 
BRANCH  25  26
ATOM     26  C   UNL A   1      33.158  28.041  27.000  1.00  0.00     0.023 C 
BRANCH  26  27
ATOM     27  C   UNL A   1      33.827  29.150  26.192  1.00  0.00     0.116 C 
BRANCH  27  28
ATOM     28  N   UNL A   1      33.733  30.450  26.834  1.00  0.00    -0.352 N 
ATOM     29  C   UNL A   1      34.545  31.025  27.780  1.00  0.00     0.251 C 
ATOM     30  H   UNL A   1      32.971  31.003  26.546  1.00  0.00     0.163 HD
ATOM     31  O   UNL A   1      34.211  32.079  28.314  1.00  0.00    -0.269 OA
BRANCH  29  32
ATOM     32  C   UNL A   1      35.809  30.369  28.186  1.00  0.00     0.039 A 
ATOM     33  C   UNL A   1      36.900  30.413  27.314  1.00  0.00     0.014 A 
ATOM     34  C   UNL A   1      35.923  29.704  29.410  1.00  0.00     0.014 A 
ATOM     35  C   UNL A   1      38.122  29.855  27.697  1.00  0.00     0.010 A 
ATOM     36  C   UNL A   1      37.162  29.218  29.824  1.00  0.00     0.010 A 
ATOM     37  C   UNL A   1      38.277  29.289  28.974  1.00  0.00    -0.014 A 
BRANCH  37  38
ATOM     38  C   UNL A   1      39.595  28.782  29.436  1.00  0.00     0.031 A 
ATOM     39  C   UNL A   1      40.454  29.606  30.356  1.00  0.00     0.074 A 
ATOM     40  C   UNL A   1      40.051  27.597  28.980  1.00  0.00     0.049 A 
ATOM     41  N   UNL A   1      41.653  29.351  30.817  1.00  0.00    -0.248 NA
ATOM     42  C   UNL A   1      39.903  30.898  30.798  1.00  0.00     0.031 C 
ATOM     43  C   UNL A   1      39.337  26.712  28.058  1.00  0.00     0.029 A 
ATOM     44  N   UNL A   1      41.230  26.937  29.227  1.00  0.00    -0.354 N 
ATOM     45  C   UNL A   1      42.002  30.451  31.592  1.00  0.00     0.074 A 
ATOM     46  C   UNL A   1      40.914  31.398  31.492  1.00  0.00     0.031 C 
ATOM     47  C   UNL A   1      40.079  25.614  27.838  1.00  0.00     0.029 A 
ATOM     48  C   UNL A   1      41.339  25.738  28.564  1.00  0.00     0.049 A 
ATOM     49  H   UNL A   1      41.931  27.289  29.822  1.00  0.00     0.167 HD
ATOM     50  C   UNL A   1      43.117  30.648  32.336  1.00  0.00     0.031 A 
ATOM     51  C   UNL A   1      42.343  24.841  28.532  1.00  0.00     0.031 A 
ATOM     52  C   UNL A   1      44.204  29.707  32.434  1.00  0.00     0.049 A 
ATOM     53  C   UNL A   1      43.587  25.099  29.336  1.00  0.00     0.074 A 
ATOM     54  C   UNL A   1      45.355  29.799  33.196  1.00  0.00     0.029 A 
ATOM     55  N   UNL A   1      44.276  28.508  31.743  1.00  0.00    -0.354 N 
ATOM     56  N   UNL A   1      43.872  26.115  30.114  1.00  0.00    -0.248 NA
ATOM     57  C   UNL A   1      44.643  24.079  29.266  1.00  0.00     0.031 C 
ATOM     58  C   UNL A   1      46.153  28.684  32.919  1.00  0.00     0.029 A 
ATOM     59  C   UNL A   1      45.467  27.864  32.038  1.00  0.00     0.049 A 
ATOM     60  H   UNL A   1      43.584  28.165  31.133  1.00  0.00     0.167 HD
ATOM     61  C   UNL A   1      45.125  25.842  30.649  1.00  0.00     0.074 A 
ATOM     62  C   UNL A   1      45.536  24.558  30.121  1.00  0.00     0.031 C 
ATOM     63  C   UNL A   1      45.868  26.588  31.504  1.00  0.00     0.031 A 
BRANCH  50  64
ATOM     64  C   UNL A   1      43.222  31.941  33.098  1.00  0.00    -0.014 A 
ATOM     65  C   UNL A   1      43.779  33.090  32.512  1.00  0.00     0.009 A 
ATOM     66  C   UNL A   1      42.726  32.025  34.409  1.00  0.00     0.009 A 
ATOM     67  C   UNL A   1      43.875  34.280  33.236  1.00  0.00     0.001 A 
ATOM     68  C   UNL A   1      42.793  33.225  35.118  1.00  0.00     0.001 A 
ATOM     69  C   UNL A   1      43.378  34.348  34.536  1.00  0.00     0.000 A 
ENDBRANCH  50  64
BRANCH  51  70
ATOM     70  C   UNL A   1      42.216  23.609  27.707  1.00  0.00    -0.014 A 
ATOM     71  C   UNL A   1      41.641  22.446  28.243  1.00  0.00     0.009 A 
ATOM     72  C   UNL A   1      42.675  23.588  26.381  1.00  0.00     0.009 A 
ATOM     73  C   UNL A   1      41.559  21.280  27.477  1.00  0.00     0.001 A 
ATOM     74  C   UNL A   1      42.560  22.431  25.608  1.00  0.00     0.001 A 
ATOM     75  C   UNL A   1      42.013  21.275  26.160  1.00  0.00     0.000 A 
ENDBRANCH  51  70
BRANCH  63  76
ATOM     76  C   UNL A   1      47.185  26.018  31.953  1.00  0.00    -0.014 A 
ATOM     77  C   UNL A   1      47.300  25.283  33.143  1.00  0.00     0.009 A 
ATOM     78  C   UNL A   1      48.324  26.187  31.147  1.00  0.00     0.009 A 
ATOM     79  C   UNL A   1      48.537  24.762  33.535  1.00  0.00     0.001 A 
ATOM     80  C   UNL A   1      49.550  25.637  31.524  1.00  0.00     0.001 A 
ATOM     81  C   UNL A   1      49.657  24.934  32.723  1.00  0.00     0.000 A 
ENDBRANCH  63  76
ENDBRANCH  37  38
ENDBRANCH  29  32
ENDBRANCH  27  28
ENDBRANCH  26  27
ENDBRANCH  25  26
ENDBRANCH   1  25
TORSDOF 16
ENDMDL
MODEL 2
REMARK VINA RESULT:     -10.5      2.864      5.665
REMARK SMILES O=C(Cc1csc(NC(=O)CS[C@@H]2CCS(=O)(=O)C2)n1)NCCCCNC(=O)c1ccc(-c2c3nc(c(-c4ccccc4)c4ccc([nH]4)c(-c4ccccc4)c4nc(c(-c5ccccc5)c5ccc2[nH]5)C=C4)C=C3)cc1
REMARK SMILES IDX 22 1 21 2 1 3 2 4 3 6 4 7 5 8 20 9 6 10 7 11 8 12 9 13 10 15
REMARK SMILES IDX 11 16 12 17 13 18 14 19 19 20 15 21 16 22 17 23 18 24 23 25
REMARK SMILES IDX 24 26 25 27 26 28 27 29 28 31 29 32 30 33 76 34 31 35 75 36
REMARK SMILES IDX 32 37 33 38 34 39 69 40 35 41 74 42 68 43 70 44 36 45 73 46
REMARK SMILES IDX 67 47 66 48 37 50 59 51 44 52 58 53 45 54 48 55 57 56 71 57
REMARK SMILES IDX 46 58 47 59 56 61 72 62 49 63 38 64 39 65 43 66 40 67 42 68
REMARK SMILES IDX 41 69 60 70 61 71 65 72 62 73 64 74 63 75 50 76 51 77 55 78
REMARK SMILES IDX 52 79 54 80 53 81
REMARK H PARENT 21 5 8 14 26 30 70 49 48 60
REMARK Flexibility Score: inf
ROOT
ATOM      1  C   UNL A   1      32.761  30.181  25.940  1.00  0.00     0.116 C 
ENDROOT
BRANCH   1   2
ATOM      2  N   UNL A   1      32.629  28.871  25.332  1.00  0.00    -0.356 N 
ATOM      3  O   UNL A   1      33.815  29.368  23.435  1.00  0.00    -0.275 OA
ATOM      4  C   UNL A   1      33.177  28.558  24.104  1.00  0.00     0.226 C 
ATOM      5  H   UNL A   1      32.126  28.176  25.815  1.00  0.00     0.163 HD
BRANCH   4   6
ATOM      6  C   UNL A   1      32.830  27.177  23.575  1.00  0.00     0.157 C 
BRANCH   6   7
ATOM      7  C   UNL A   1      31.469  26.703  23.973  1.00  0.00     0.063 A 
ATOM      8  C   UNL A   1      30.278  26.939  23.311  1.00  0.00     0.093 A 
ATOM      9  N   UNL A   1      31.346  25.861  25.069  1.00  0.00    -0.224 NA
ATOM     10  S   UNL A   1      28.996  26.123  24.096  1.00  0.00    -0.105 S 
ATOM     11  C   UNL A   1      30.089  25.548  25.266  1.00  0.00     0.189 A 
BRANCH  11  12
ATOM     12  N   UNL A   1      29.726  24.675  26.249  1.00  0.00    -0.301 N 
ATOM     13  C   UNL A   1      30.188  23.450  26.600  1.00  0.00     0.236 C 
ATOM     14  H   UNL A   1      28.985  24.996  26.811  1.00  0.00     0.172 HD
ATOM     15  O   UNL A   1      29.891  23.053  27.734  1.00  0.00    -0.274 OA
BRANCH  13  16
ATOM     16  C   UNL A   1      30.993  22.544  25.684  1.00  0.00     0.170 C 
BRANCH  16  17
ATOM     17  S   UNL A   1      32.767  22.422  26.102  1.00  0.00    -0.148 SA
BRANCH  17  18
ATOM     18  C   UNL A   1      33.543  21.428  24.768  1.00  0.00     0.063 C 
ATOM     19  C   UNL A   1      32.709  21.160  23.514  1.00  0.00     0.031 C 
ATOM     20  C   UNL A   1      34.240  20.145  25.196  1.00  0.00     0.151 C 
ATOM     21  C   UNL A   1      32.183  19.733  23.534  1.00  0.00     0.138 C 
ATOM     22  S   UNL A   1      33.237  18.799  24.622  1.00  0.00     0.151 S 
ATOM     23  O   UNL A   1      32.458  18.313  25.741  1.00  0.00    -0.229 OA
ATOM     24  O   UNL A   1      34.065  17.921  23.824  1.00  0.00    -0.229 OA
ENDBRANCH  17  18
ENDBRANCH  16  17
ENDBRANCH  13  16
ENDBRANCH  11  12
ENDBRANCH   6   7
ENDBRANCH   4   6
ENDBRANCH   1   2
BRANCH   1  25
ATOM     25  C   UNL A   1      31.437  30.945  25.928  1.00  0.00     0.023 C 
BRANCH  25  26
ATOM     26  C   UNL A   1      31.345  32.107  26.922  1.00  0.00     0.023 C 
BRANCH  26  27
ATOM     27  C   UNL A   1      32.647  32.868  27.162  1.00  0.00     0.116 C 
BRANCH  27  28
ATOM     28  N   UNL A   1      32.428  34.213  27.665  1.00  0.00    -0.352 N 
ATOM     29  C   UNL A   1      33.098  34.906  28.643  1.00  0.00     0.251 C 
ATOM     30  H   UNL A   1      31.688  34.703  27.239  1.00  0.00     0.163 HD
ATOM     31  O   UNL A   1      32.663  35.986  29.034  1.00  0.00    -0.269 OA
BRANCH  29  32
ATOM     32  C   UNL A   1      34.326  34.349  29.254  1.00  0.00     0.039 A 
ATOM     33  C   UNL A   1      34.214  33.616  30.439  1.00  0.00     0.014 A 
ATOM     34  C   UNL A   1      35.583  34.552  28.678  1.00  0.00     0.014 A 
ATOM     35  C   UNL A   1      35.348  33.027  31.005  1.00  0.00     0.010 A 
ATOM     36  C   UNL A   1      36.700  33.900  29.199  1.00  0.00     0.010 A 
ATOM     37  C   UNL A   1      36.595  33.129  30.367  1.00  0.00    -0.014 A 
BRANCH  37  38
ATOM     38  C   UNL A   1      37.792  32.426  30.900  1.00  0.00     0.031 A 
ATOM     39  C   UNL A   1      38.535  32.971  32.088  1.00  0.00     0.074 A 
ATOM     40  C   UNL A   1      38.250  31.322  30.275  1.00  0.00     0.049 A 
ATOM     41  N   UNL A   1      39.628  32.527  32.655  1.00  0.00    -0.248 NA
ATOM     42  C   UNL A   1      37.992  34.192  32.708  1.00  0.00     0.031 C 
ATOM     43  C   UNL A   1      37.646  30.705  29.092  1.00  0.00     0.029 A 
ATOM     44  N   UNL A   1      39.336  30.525  30.546  1.00  0.00    -0.354 N 
ATOM     45  C   UNL A   1      39.908  33.414  33.688  1.00  0.00     0.074 A 
ATOM     46  C   UNL A   1      38.904  34.453  33.633  1.00  0.00     0.031 C 
ATOM     47  C   UNL A   1      38.352  29.613  28.757  1.00  0.00     0.029 A 
ATOM     48  C   UNL A   1      39.484  29.478  29.668  1.00  0.00     0.049 A 
ATOM     49  H   UNL A   1      39.949  30.689  31.299  1.00  0.00     0.167 HD
ATOM     50  C   UNL A   1      40.897  33.360  34.612  1.00  0.00     0.031 A 
ATOM     51  C   UNL A   1      40.429  28.523  29.595  1.00  0.00     0.031 A 
ATOM     52  C   UNL A   1      41.901  32.328  34.667  1.00  0.00     0.049 A 
ATOM     53  C   UNL A   1      41.539  28.505  30.609  1.00  0.00     0.074 A 
ATOM     54  C   UNL A   1      42.918  32.164  35.590  1.00  0.00     0.029 A 
ATOM     55  N   UNL A   1      42.018  31.290  33.755  1.00  0.00    -0.354 N 
ATOM     56  N   UNL A   1      41.751  29.315  31.617  1.00  0.00    -0.248 NA
ATOM     57  C   UNL A   1      42.535  27.431  30.479  1.00  0.00     0.031 C 
ATOM     58  C   UNL A   1      43.688  31.063  35.204  1.00  0.00     0.029 A 
ATOM     59  C   UNL A   1      43.108  30.498  34.078  1.00  0.00     0.049 A 
ATOM     60  H   UNL A   1      41.415  31.137  32.992  1.00  0.00     0.167 HD
ATOM     61  C   UNL A   1      42.885  28.833  32.260  1.00  0.00     0.074 A 
ATOM     62  C   UNL A   1      43.303  27.650  31.537  1.00  0.00     0.031 C 
ATOM     63  C   UNL A   1      43.520  29.325  33.351  1.00  0.00     0.031 A 
BRANCH  50  64
ATOM     64  C   UNL A   1      40.949  34.461  35.636  1.00  0.00    -0.014 A 
ATOM     65  C   UNL A   1      40.236  34.370  36.842  1.00  0.00     0.009 A 
ATOM     66  C   UNL A   1      41.749  35.592  35.409  1.00  0.00     0.009 A 
ATOM     67  C   UNL A   1      40.289  35.405  37.778  1.00  0.00     0.001 A 
ATOM     68  C   UNL A   1      41.827  36.610  36.361  1.00  0.00     0.001 A 
ATOM     69  C   UNL A   1      41.089  36.521  37.539  1.00  0.00     0.000 A 
ENDBRANCH  50  64
BRANCH  51  70
ATOM     70  C   UNL A   1      40.369  27.497  28.518  1.00  0.00    -0.014 A 
ATOM     71  C   UNL A   1      40.998  27.719  27.283  1.00  0.00     0.009 A 
ATOM     72  C   UNL A   1      39.676  26.293  28.718  1.00  0.00     0.009 A 
ATOM     73  C   UNL A   1      40.906  26.770  26.262  1.00  0.00     0.001 A 
ATOM     74  C   UNL A   1      39.614  25.332  27.707  1.00  0.00     0.001 A 
ATOM     75  C   UNL A   1      40.220  25.576  26.476  1.00  0.00     0.000 A 
ENDBRANCH  51  70
BRANCH  63  76
ATOM     76  C   UNL A   1      44.714  28.564  33.857  1.00  0.00    -0.014 A 
ATOM     77  C   UNL A   1      44.579  27.513  34.779  1.00  0.00     0.009 A 
ATOM     78  C   UNL A   1      45.994  28.881  33.371  1.00  0.00     0.009 A 
ATOM     79  C   UNL A   1      45.707  26.821  35.230  1.00  0.00     0.001 A 
ATOM     80  C   UNL A   1      47.113  28.165  33.799  1.00  0.00     0.001 A 
ATOM     81  C   UNL A   1      46.970  27.143  34.735  1.00  0.00     0.000 A 
ENDBRANCH  63  76
ENDBRANCH  37  38
ENDBRANCH  29  32
ENDBRANCH  27  28
ENDBRANCH  26  27
ENDBRANCH  25  26
ENDBRANCH   1  25
TORSDOF 16
ENDMDL
MODEL 3
REMARK VINA RESULT:     -10.4      3.657      6.412
REMARK SMILES O=C(Cc1csc(NC(=O)CS[C@@H]2CCS(=O)(=O)C2)n1)NCCCCNC(=O)c1ccc(-c2c3nc(c(-c4ccccc4)c4ccc([nH]4)c(-c4ccccc4)c4nc(c(-c5ccccc5)c5ccc2[nH]5)C=C4)C=C3)cc1
REMARK SMILES IDX 22 1 21 2 1 3 2 4 3 6 4 7 5 8 20 9 6 10 7 11 8 12 9 13 10 15
REMARK SMILES IDX 11 16 12 17 13 18 14 19 19 20 15 21 16 22 17 23 18 24 23 25
REMARK SMILES IDX 24 26 25 27 26 28 27 29 28 31 29 32 30 33 76 34 31 35 75 36
REMARK SMILES IDX 32 37 33 38 34 39 69 40 35 41 74 42 68 43 70 44 36 45 73 46
REMARK SMILES IDX 67 47 66 48 37 50 59 51 44 52 58 53 45 54 48 55 57 56 71 57
REMARK SMILES IDX 46 58 47 59 56 61 72 62 49 63 38 64 39 65 43 66 40 67 42 68
REMARK SMILES IDX 41 69 60 70 61 71 65 72 62 73 64 74 63 75 50 76 51 77 55 78
REMARK SMILES IDX 52 79 54 80 53 81
REMARK H PARENT 21 5 8 14 26 30 70 49 48 60
REMARK Flexibility Score: inf
ROOT
ATOM      1  C   UNL A   1      34.611  32.548  28.039  1.00  0.00     0.116 C 
ENDROOT
BRANCH   1   2
ATOM      2  N   UNL A   1      33.682  31.438  27.960  1.00  0.00    -0.356 N 
ATOM      3  O   UNL A   1      35.195  29.919  27.150  1.00  0.00    -0.275 OA
ATOM      4  C   UNL A   1      34.052  30.184  27.516  1.00  0.00     0.226 C 
ATOM      5  H   UNL A   1      32.748  31.584  28.237  1.00  0.00     0.163 HD
BRANCH   4   6
ATOM      6  C   UNL A   1      32.916  29.183  27.389  1.00  0.00     0.157 C 
BRANCH   6   7
ATOM      7  C   UNL A   1      32.526  28.889  25.976  1.00  0.00     0.063 A 
ATOM      8  C   UNL A   1      31.482  29.453  25.265  1.00  0.00     0.093 A 
ATOM      9  N   UNL A   1      33.315  28.027  25.228  1.00  0.00    -0.224 NA
ATOM     10  S   UNL A   1      31.481  28.868  23.658  1.00  0.00    -0.105 S 
ATOM     11  C   UNL A   1      32.825  27.890  24.021  1.00  0.00     0.189 A 
BRANCH  11  12
ATOM     12  N   UNL A   1      33.468  27.142  23.079  1.00  0.00    -0.301 N 
ATOM     13  C   UNL A   1      33.513  25.808  22.845  1.00  0.00     0.236 C 
ATOM     14  H   UNL A   1      34.004  27.674  22.448  1.00  0.00     0.172 HD
ATOM     15  O   UNL A   1      33.903  25.457  21.725  1.00  0.00    -0.274 OA
BRANCH  13  16
ATOM     16  C   UNL A   1      33.160  24.747  23.873  1.00  0.00     0.170 C 
BRANCH  16  17
ATOM     17  S   UNL A   1      34.556  24.209  24.922  1.00  0.00    -0.148 SA
BRANCH  17  18
ATOM     18  C   UNL A   1      33.992  22.696  25.795  1.00  0.00     0.063 C 
ATOM     19  C   UNL A   1      34.938  21.494  25.804  1.00  0.00     0.031 C 
ATOM     20  C   UNL A   1      32.578  22.225  25.490  1.00  0.00     0.151 C 
ATOM     21  C   UNL A   1      34.460  20.448  24.808  1.00  0.00     0.138 C 
ATOM     22  S   UNL A   1      32.727  20.740  24.530  1.00  0.00     0.151 S 
ATOM     23  O   UNL A   1      32.516  21.084  23.140  1.00  0.00    -0.229 OA
ATOM     24  O   UNL A   1      31.970  19.696  25.186  1.00  0.00    -0.229 OA
ENDBRANCH  17  18
ENDBRANCH  16  17
ENDBRANCH  13  16
ENDBRANCH  11  12
ENDBRANCH   6   7
ENDBRANCH   4   6
ENDBRANCH   1   2
BRANCH   1  25
ATOM     25  C   UNL A   1      34.264  33.493  29.190  1.00  0.00     0.023 C 
BRANCH  25  26
ATOM     26  C   UNL A   1      33.203  34.550  28.869  1.00  0.00     0.023 C 
BRANCH  26  27
ATOM     27  C   UNL A   1      33.420  35.914  29.519  1.00  0.00     0.116 C 
BRANCH  27  28
ATOM     28  N   UNL A   1      32.545  36.142  30.656  1.00  0.00    -0.352 N 
ATOM     29  C   UNL A   1      32.660  35.709  31.955  1.00  0.00     0.251 C 
ATOM     30  H   UNL A   1      31.750  36.691  30.468  1.00  0.00     0.163 HD
ATOM     31  O   UNL A   1      31.731  35.881  32.740  1.00  0.00    -0.269 OA
BRANCH  29  32
ATOM     32  C   UNL A   1      33.882  35.009  32.410  1.00  0.00     0.039 A 
ATOM     33  C   UNL A   1      33.763  33.713  32.921  1.00  0.00     0.014 A 
ATOM     34  C   UNL A   1      35.137  35.620  32.348  1.00  0.00     0.014 A 
ATOM     35  C   UNL A   1      34.907  33.006  33.301  1.00  0.00     0.010 A 
ATOM     36  C   UNL A   1      36.283  34.888  32.653  1.00  0.00     0.010 A 
ATOM     37  C   UNL A   1      36.182  33.572  33.132  1.00  0.00    -0.014 A 
BRANCH  37  38
ATOM     38  C   UNL A   1      37.414  32.798  33.436  1.00  0.00     0.031 A 
ATOM     39  C   UNL A   1      38.180  33.045  34.707  1.00  0.00     0.074 A 
ATOM     40  C   UNL A   1      37.881  31.906  32.538  1.00  0.00     0.049 A 
ATOM     41  N   UNL A   1      39.303  32.508  35.113  1.00  0.00    -0.248 NA
ATOM     42  C   UNL A   1      37.624  34.046  35.632  1.00  0.00     0.031 C 
ATOM     43  C   UNL A   1      37.255  31.593  31.251  1.00  0.00     0.029 A 
ATOM     44  N   UNL A   1      38.996  31.105  32.568  1.00  0.00    -0.354 N 
ATOM     45  C   UNL A   1      39.592  33.110  36.332  1.00  0.00     0.074 A 
ATOM     46  C   UNL A   1      38.558  34.093  36.571  1.00  0.00     0.031 C 
ATOM     47  C   UNL A   1      37.980  30.649  30.629  1.00  0.00     0.029 A 
ATOM     48  C   UNL A   1      39.144  30.324  31.447  1.00  0.00     0.049 A 
ATOM     49  H   UNL A   1      39.629  31.092  33.322  1.00  0.00     0.167 HD
ATOM     50  C   UNL A   1      40.612  32.855  37.186  1.00  0.00     0.031 A 
ATOM     51  C   UNL A   1      40.112  29.452  31.107  1.00  0.00     0.031 A 
ATOM     52  C   UNL A   1      41.644  31.879  36.949  1.00  0.00     0.049 A 
ATOM     53  C   UNL A   1      41.254  29.214  32.055  1.00  0.00     0.074 A 
ATOM     54  C   UNL A   1      42.695  31.519  37.774  1.00  0.00     0.029 A 
ATOM     55  N   UNL A   1      41.760  31.114  35.799  1.00  0.00    -0.354 N 
ATOM     56  N   UNL A   1      41.477  29.745  33.232  1.00  0.00    -0.248 NA
ATOM     57  C   UNL A   1      42.274  28.244  31.629  1.00  0.00     0.031 C 
ATOM     58  C   UNL A   1      43.481  30.581  37.099  1.00  0.00     0.029 A 
ATOM     59  C   UNL A   1      42.881  30.304  35.881  1.00  0.00     0.049 A 
ATOM     60  H   UNL A   1      41.137  31.141  35.037  1.00  0.00     0.167 HD
ATOM     61  C   UNL A   1      42.643  29.154  33.701  1.00  0.00     0.074 A 
ATOM     62  C   UNL A   1      43.070  28.210  32.689  1.00  0.00     0.031 C 
ATOM     63  C   UNL A   1      43.300  29.371  34.866  1.00  0.00     0.031 A 
BRANCH  50  64
ATOM     64  C   UNL A   1      40.667  33.658  38.458  1.00  0.00    -0.014 A 
ATOM     65  C   UNL A   1      41.358  34.878  38.521  1.00  0.00     0.009 A 
ATOM     66  C   UNL A   1      39.990  33.205  39.602  1.00  0.00     0.009 A 
ATOM     67  C   UNL A   1      41.406  35.606  39.712  1.00  0.00     0.001 A 
ATOM     68  C   UNL A   1      40.011  33.952  40.781  1.00  0.00     0.001 A 
ATOM     69  C   UNL A   1      40.728  35.145  40.839  1.00  0.00     0.000 A 
ENDBRANCH  50  64
BRANCH  51  70
ATOM     70  C   UNL A   1      40.044  28.735  29.805  1.00  0.00    -0.014 A 
ATOM     71  C   UNL A   1      40.554  29.325  28.637  1.00  0.00     0.009 A 
ATOM     72  C   UNL A   1      39.462  27.461  29.722  1.00  0.00     0.009 A 
ATOM     73  C   UNL A   1      40.454  28.664  27.410  1.00  0.00     0.001 A 
ATOM     74  C   UNL A   1      39.394  26.790  28.499  1.00  0.00     0.001 A 
ATOM     75  C   UNL A   1      39.880  27.396  27.343  1.00  0.00     0.000 A 
ENDBRANCH  51  70
BRANCH  63  76
ATOM     76  C   UNL A   1      44.531  28.548  35.130  1.00  0.00    -0.014 A 
ATOM     77  C   UNL A   1      44.454  27.289  35.747  1.00  0.00     0.009 A 
ATOM     78  C   UNL A   1      45.786  29.026  34.718  1.00  0.00     0.009 A 
ATOM     79  C   UNL A   1      45.613  26.544  35.977  1.00  0.00     0.001 A 
ATOM     80  C   UNL A   1      46.938  28.264  34.919  1.00  0.00     0.001 A 
ATOM     81  C   UNL A   1      46.852  27.029  35.558  1.00  0.00     0.000 A 
ENDBRANCH  63  76
ENDBRANCH  37  38
ENDBRANCH  29  32
ENDBRANCH  27  28
ENDBRANCH  26  27
ENDBRANCH  25  26
ENDBRANCH   1  25
TORSDOF 16
ENDMDL
