MODEL 1
REMARK VINA RESULT:     -10.5      0.000      0.000
REMARK SMILES O=C(NCCCCNC(=O)c1ccnc(-n2cnnn2)c1)c1ccc(-c2c3nc(c(-c4ccccc4)c4ccc([nH]4)c(-c4ccccc4)c4nc(c(-c5ccccc5)c5ccc2[nH]5)C=C4)C=C3)cc1
REMARK SMILES IDX 5 1 4 2 3 3 1 4 2 5 22 7 23 8 69 9 24 10 68 11 25 12 26 13
REMARK SMILES IDX 27 14 62 15 28 16 67 17 61 18 63 19 29 20 66 21 60 22 59 23
REMARK SMILES IDX 30 25 52 26 37 27 51 28 38 29 41 30 50 31 64 32 39 33 40 34
REMARK SMILES IDX 49 36 65 37 42 38 31 39 32 40 36 41 33 42 35 43 34 44 53 45
REMARK SMILES IDX 54 46 58 47 55 48 57 49 56 50 43 51 44 52 48 53 45 54 47 55
REMARK SMILES IDX 46 56 6 57 7 58 8 59 9 60 10 62 11 63 12 64 21 65 13 66
REMARK SMILES IDX 15 67 14 68 16 69 17 70 20 71 18 72 19 73
REMARK H PARENT 3 6 63 24 41 35 8 61
REMARK Flexibility Score: inf
ROOT
ATOM      1  C   UNL A   1      32.775  36.914  31.149  1.00  0.00     0.023 C 
ENDROOT
BRANCH   1   2
ATOM      2  C   UNL A   1      33.139  37.059  29.670  1.00  0.00     0.116 C 
BRANCH   2   3
ATOM      3  N   UNL A   1      32.671  35.978  28.830  1.00  0.00    -0.352 N 
ATOM      4  O   UNL A   1      32.356  33.990  27.923  1.00  0.00    -0.269 OA
ATOM      5  C   UNL A   1      33.125  34.720  28.554  1.00  0.00     0.251 C 
ATOM      6  H   UNL A   1      31.840  36.198  28.351  1.00  0.00     0.163 HD
BRANCH   5   7
ATOM      7  C   UNL A   1      34.484  34.211  28.880  1.00  0.00     0.039 A 
ATOM      8  C   UNL A   1      35.687  34.701  28.367  1.00  0.00     0.014 A 
ATOM      9  C   UNL A   1      34.523  33.097  29.738  1.00  0.00     0.014 A 
ATOM     10  C   UNL A   1      36.880  34.025  28.597  1.00  0.00     0.010 A 
ATOM     11  C   UNL A   1      35.713  32.430  29.991  1.00  0.00     0.010 A 
ATOM     12  C   UNL A   1      36.881  32.870  29.375  1.00  0.00    -0.014 A 
BRANCH  12  13
ATOM     13  C   UNL A   1      38.156  32.213  29.642  1.00  0.00     0.031 A 
ATOM     14  C   UNL A   1      38.179  30.747  29.352  1.00  0.00     0.074 A 
ATOM     15  C   UNL A   1      39.265  32.913  29.950  1.00  0.00     0.049 A 
ATOM     16  N   UNL A   1      38.559  29.777  30.119  1.00  0.00    -0.248 NA
ATOM     17  C   UNL A   1      37.626  30.303  28.059  1.00  0.00     0.031 C 
ATOM     18  C   UNL A   1      39.424  34.370  29.979  1.00  0.00     0.029 A 
ATOM     19  N   UNL A   1      40.534  32.464  30.165  1.00  0.00    -0.354 N 
ATOM     20  C   UNL A   1      38.451  28.614  29.355  1.00  0.00     0.074 A 
ATOM     21  C   UNL A   1      37.759  28.980  28.146  1.00  0.00     0.031 C 
ATOM     22  C   UNL A   1      40.741  34.675  29.938  1.00  0.00     0.029 A 
ATOM     23  C   UNL A   1      41.508  33.444  30.013  1.00  0.00     0.049 A 
ATOM     24  H   UNL A   1      40.742  31.533  30.406  1.00  0.00     0.167 HD
ATOM     25  C   UNL A   1      39.129  27.476  29.664  1.00  0.00     0.031 A 
ATOM     26  C   UNL A   1      42.843  33.252  29.868  1.00  0.00     0.031 A 
ATOM     27  C   UNL A   1      39.541  27.449  31.039  1.00  0.00     0.049 A 
ATOM     28  C   UNL A   1      43.155  31.881  30.328  1.00  0.00     0.074 A 
ATOM     29  C   UNL A   1      38.888  27.460  32.255  1.00  0.00     0.029 A 
ATOM     30  N   UNL A   1      40.851  27.751  31.316  1.00  0.00    -0.354 N 
ATOM     31  N   UNL A   1      43.063  31.499  31.569  1.00  0.00    -0.248 NA
ATOM     32  C   UNL A   1      43.142  30.812  29.341  1.00  0.00     0.031 C 
ATOM     33  C   UNL A   1      39.715  28.252  33.105  1.00  0.00     0.029 A 
ATOM     34  C   UNL A   1      40.845  28.621  32.373  1.00  0.00     0.049 A 
ATOM     35  H   UNL A   1      41.644  27.408  30.845  1.00  0.00     0.167 HD
ATOM     36  C   UNL A   1      42.543  30.216  31.503  1.00  0.00     0.074 A 
ATOM     37  C   UNL A   1      42.705  29.810  30.108  1.00  0.00     0.031 C 
ATOM     38  C   UNL A   1      41.778  29.714  32.517  1.00  0.00     0.031 A 
BRANCH  25  39
ATOM     39  C   UNL A   1      39.785  26.603  28.616  1.00  0.00    -0.014 A 
ATOM     40  C   UNL A   1      40.716  27.188  27.738  1.00  0.00     0.009 A 
ATOM     41  C   UNL A   1      39.299  25.329  28.263  1.00  0.00     0.009 A 
ATOM     42  C   UNL A   1      41.055  26.579  26.523  1.00  0.00     0.001 A 
ATOM     43  C   UNL A   1      39.668  24.700  27.070  1.00  0.00     0.001 A 
ATOM     44  C   UNL A   1      40.519  25.341  26.183  1.00  0.00     0.000 A 
ENDBRANCH  25  39
BRANCH  26  45
ATOM     45  C   UNL A   1      43.799  34.047  29.065  1.00  0.00    -0.014 A 
ATOM     46  C   UNL A   1      43.787  33.994  27.661  1.00  0.00     0.009 A 
ATOM     47  C   UNL A   1      44.555  35.065  29.674  1.00  0.00     0.009 A 
ATOM     48  C   UNL A   1      44.482  34.945  26.899  1.00  0.00     0.001 A 
ATOM     49  C   UNL A   1      45.252  36.012  28.914  1.00  0.00     0.001 A 
ATOM     50  C   UNL A   1      45.204  35.959  27.526  1.00  0.00     0.000 A 
ENDBRANCH  26  45
BRANCH  38  51
ATOM     51  C   UNL A   1      41.679  30.512  33.793  1.00  0.00    -0.014 A 
ATOM     52  C   UNL A   1      40.910  31.685  33.901  1.00  0.00     0.009 A 
ATOM     53  C   UNL A   1      42.244  29.976  34.958  1.00  0.00     0.009 A 
ATOM     54  C   UNL A   1      40.735  32.315  35.137  1.00  0.00     0.001 A 
ATOM     55  C   UNL A   1      42.054  30.594  36.195  1.00  0.00     0.001 A 
ATOM     56  C   UNL A   1      41.304  31.765  36.284  1.00  0.00     0.000 A 
ENDBRANCH  38  51
ENDBRANCH  12  13
ENDBRANCH   5   7
ENDBRANCH   2   3
ENDBRANCH   1   2
BRANCH   1  57
ATOM     57  C   UNL A   1      33.841  37.404  32.134  1.00  0.00     0.023 C 
BRANCH  57  58
ATOM     58  C   UNL A   1      33.901  36.655  33.461  1.00  0.00     0.116 C 
BRANCH  58  59
ATOM     59  N   UNL A   1      33.390  35.301  33.344  1.00  0.00    -0.352 N 
ATOM     60  C   UNL A   1      34.081  34.119  33.305  1.00  0.00     0.251 C 
ATOM     61  H   UNL A   1      32.410  35.221  33.284  1.00  0.00     0.163 HD
ATOM     62  O   UNL A   1      33.517  33.078  33.002  1.00  0.00    -0.269 OA
BRANCH  60  63
ATOM     63  C   UNL A   1      35.523  34.092  33.616  1.00  0.00     0.045 A 
ATOM     64  C   UNL A   1      36.462  34.571  32.707  1.00  0.00     0.034 A 
ATOM     65  C   UNL A   1      35.914  33.665  34.886  1.00  0.00     0.063 A 
ATOM     66  C   UNL A   1      37.781  34.592  33.105  1.00  0.00     0.114 A 
ATOM     67  C   UNL A   1      37.262  33.739  35.208  1.00  0.00     0.157 A 
ATOM     68  N   UNL A   1      38.193  34.202  34.330  1.00  0.00    -0.237 NA
BRANCH  67  69
ATOM     69  N   UNL A   1      37.697  33.342  36.497  1.00  0.00    -0.182 N 
ATOM     70  C   UNL A   1      38.328  34.082  37.465  1.00  0.00     0.254 A 
ATOM     71  N   UNL A   1      37.531  32.087  36.974  1.00  0.00    -0.039 NA
ATOM     72  N   UNL A   1      38.617  33.307  38.483  1.00  0.00    -0.117 NA
ATOM     73  N   UNL A   1      38.132  32.068  38.156  1.00  0.00    -0.024 NA
ENDBRANCH  67  69
ENDBRANCH  60  63
ENDBRANCH  58  59
ENDBRANCH  57  58
ENDBRANCH   1  57
TORSDOF 12
ENDMDL
MODEL 2
REMARK VINA RESULT:     -10.4      4.986      9.387
REMARK SMILES O=C(NCCCCNC(=O)c1ccnc(-n2cnnn2)c1)c1ccc(-c2c3nc(c(-c4ccccc4)c4ccc([nH]4)c(-c4ccccc4)c4nc(c(-c5ccccc5)c5ccc2[nH]5)C=C4)C=C3)cc1
REMARK SMILES IDX 5 1 4 2 3 3 1 4 2 5 22 7 23 8 69 9 24 10 68 11 25 12 26 13
REMARK SMILES IDX 27 14 62 15 28 16 67 17 61 18 63 19 29 20 66 21 60 22 59 23
REMARK SMILES IDX 30 25 52 26 37 27 51 28 38 29 41 30 50 31 64 32 39 33 40 34
REMARK SMILES IDX 49 36 65 37 42 38 31 39 32 40 36 41 33 42 35 43 34 44 53 45
REMARK SMILES IDX 54 46 58 47 55 48 57 49 56 50 43 51 44 52 48 53 45 54 47 55
REMARK SMILES IDX 46 56 6 57 7 58 8 59 9 60 10 62 11 63 12 64 21 65 13 66
REMARK SMILES IDX 15 67 14 68 16 69 17 70 20 71 18 72 19 73
REMARK H PARENT 3 6 63 24 41 35 8 61
REMARK Flexibility Score: inf
ROOT
ATOM      1  C   UNL A   1      34.194  29.865  27.399  1.00  0.00     0.023 C 
ENDROOT
BRANCH   1   2
ATOM      2  C   UNL A   1      34.754  31.248  27.734  1.00  0.00     0.116 C 
BRANCH   2   3
ATOM      3  N   UNL A   1      34.571  31.650  29.112  1.00  0.00    -0.352 N 
ATOM      4  O   UNL A   1      34.936  32.265  31.201  1.00  0.00    -0.269 OA
ATOM      5  C   UNL A   1      35.378  31.669  30.215  1.00  0.00     0.251 C 
ATOM      6  H   UNL A   1      33.664  31.983  29.296  1.00  0.00     0.163 HD
BRANCH   5   7
ATOM      7  C   UNL A   1      36.683  30.965  30.331  1.00  0.00     0.039 A 
ATOM      8  C   UNL A   1      37.943  31.567  30.306  1.00  0.00     0.014 A 
ATOM      9  C   UNL A   1      36.608  29.563  30.410  1.00  0.00     0.014 A 
ATOM     10  C   UNL A   1      39.094  30.791  30.231  1.00  0.00     0.010 A 
ATOM     11  C   UNL A   1      37.754  28.782  30.359  1.00  0.00     0.010 A 
ATOM     12  C   UNL A   1      38.992  29.402  30.218  1.00  0.00    -0.014 A 
BRANCH  12  13
ATOM     13  C   UNL A   1      40.220  28.615  30.193  1.00  0.00     0.031 A 
ATOM     14  C   UNL A   1      40.904  28.475  31.514  1.00  0.00     0.074 A 
ATOM     15  C   UNL A   1      40.598  27.925  29.098  1.00  0.00     0.049 A 
ATOM     16  N   UNL A   1      42.141  28.710  31.813  1.00  0.00    -0.248 NA
ATOM     17  C   UNL A   1      40.071  28.102  32.672  1.00  0.00     0.031 C 
ATOM     18  C   UNL A   1      39.857  27.758  27.845  1.00  0.00     0.029 A 
ATOM     19  N   UNL A   1      41.671  27.100  28.930  1.00  0.00    -0.354 N 
ATOM     20  C   UNL A   1      42.287  28.358  33.156  1.00  0.00     0.074 A 
ATOM     21  C   UNL A   1      40.962  28.110  33.662  1.00  0.00     0.031 C 
ATOM     22  C   UNL A   1      40.361  26.703  27.166  1.00  0.00     0.029 A 
ATOM     23  C   UNL A   1      41.532  26.210  27.871  1.00  0.00     0.049 A 
ATOM     24  H   UNL A   1      42.469  27.133  29.504  1.00  0.00     0.167 HD
ATOM     25  C   UNL A   1      43.500  28.079  33.706  1.00  0.00     0.031 A 
ATOM     26  C   UNL A   1      42.270  25.096  27.640  1.00  0.00     0.031 A 
ATOM     27  C   UNL A   1      44.581  28.635  32.940  1.00  0.00     0.049 A 
ATOM     28  C   UNL A   1      43.514  25.205  28.434  1.00  0.00     0.074 A 
ATOM     29  C   UNL A   1      44.970  29.909  32.582  1.00  0.00     0.029 A 
ATOM     30  N   UNL A   1      45.278  27.786  32.117  1.00  0.00    -0.354 N 
ATOM     31  N   UNL A   1      44.447  26.079  28.192  1.00  0.00    -0.248 NA
ATOM     32  C   UNL A   1      43.521  24.634  29.772  1.00  0.00     0.031 C 
ATOM     33  C   UNL A   1      45.477  29.776  31.256  1.00  0.00     0.029 A 
ATOM     34  C   UNL A   1      45.420  28.424  30.913  1.00  0.00     0.049 A 
ATOM     35  H   UNL A   1      45.613  26.889  32.347  1.00  0.00     0.167 HD
ATOM     36  C   UNL A   1      44.872  26.494  29.445  1.00  0.00     0.074 A 
ATOM     37  C   UNL A   1      44.338  25.501  30.376  1.00  0.00     0.031 C 
ATOM     38  C   UNL A   1      45.374  27.749  29.638  1.00  0.00     0.031 A 
BRANCH  25  39
ATOM     39  C   UNL A   1      43.715  26.945  34.684  1.00  0.00    -0.014 A 
ATOM     40  C   UNL A   1      43.544  25.623  34.233  1.00  0.00     0.009 A 
ATOM     41  C   UNL A   1      43.766  27.133  36.079  1.00  0.00     0.009 A 
ATOM     42  C   UNL A   1      43.328  24.569  35.129  1.00  0.00     0.001 A 
ATOM     43  C   UNL A   1      43.593  26.076  36.976  1.00  0.00     0.001 A 
ATOM     44  C   UNL A   1      43.339  24.799  36.500  1.00  0.00     0.000 A 
ENDBRANCH  25  39
BRANCH  26  45
ATOM     45  C   UNL A   1      41.829  23.814  27.044  1.00  0.00    -0.014 A 
ATOM     46  C   UNL A   1      42.636  23.128  26.122  1.00  0.00     0.009 A 
ATOM     47  C   UNL A   1      40.726  23.129  27.585  1.00  0.00     0.009 A 
ATOM     48  C   UNL A   1      42.362  21.795  25.779  1.00  0.00     0.001 A 
ATOM     49  C   UNL A   1      40.450  21.801  27.241  1.00  0.00     0.001 A 
ATOM     50  C   UNL A   1      41.277  21.130  26.346  1.00  0.00     0.000 A 
ENDBRANCH  26  45
BRANCH  38  51
ATOM     51  C   UNL A   1      45.643  28.600  28.422  1.00  0.00    -0.014 A 
ATOM     52  C   UNL A   1      44.669  29.437  27.848  1.00  0.00     0.009 A 
ATOM     53  C   UNL A   1      46.958  28.683  27.946  1.00  0.00     0.009 A 
ATOM     54  C   UNL A   1      45.000  30.312  26.809  1.00  0.00     0.001 A 
ATOM     55  C   UNL A   1      47.293  29.571  26.922  1.00  0.00     0.001 A 
ATOM     56  C   UNL A   1      46.314  30.381  26.350  1.00  0.00     0.000 A 
ENDBRANCH  38  51
ENDBRANCH  12  13
ENDBRANCH   5   7
ENDBRANCH   2   3
ENDBRANCH   1   2
BRANCH   1  57
ATOM     57  C   UNL A   1      32.670  29.795  27.259  1.00  0.00     0.023 C 
BRANCH  57  58
ATOM     58  C   UNL A   1      32.110  30.308  25.936  1.00  0.00     0.116 C 
BRANCH  58  59
ATOM     59  N   UNL A   1      32.885  29.842  24.800  1.00  0.00    -0.352 N 
ATOM     60  C   UNL A   1      32.748  28.685  24.080  1.00  0.00     0.251 C 
ATOM     61  H   UNL A   1      33.611  30.440  24.507  1.00  0.00     0.163 HD
ATOM     62  O   UNL A   1      33.607  28.345  23.280  1.00  0.00    -0.269 OA
BRANCH  60  63
ATOM     63  C   UNL A   1      31.564  27.825  24.273  1.00  0.00     0.045 A 
ATOM     64  C   UNL A   1      30.417  28.002  23.506  1.00  0.00     0.034 A 
ATOM     65  C   UNL A   1      31.661  26.767  25.178  1.00  0.00     0.063 A 
ATOM     66  C   UNL A   1      29.386  27.105  23.685  1.00  0.00     0.114 A 
ATOM     67  C   UNL A   1      30.580  25.902  25.280  1.00  0.00     0.157 A 
ATOM     68  N   UNL A   1      29.450  26.063  24.540  1.00  0.00    -0.237 NA
BRANCH  67  69
ATOM     69  N   UNL A   1      30.648  24.799  26.168  1.00  0.00    -0.182 N 
ATOM     70  C   UNL A   1      31.729  24.022  26.501  1.00  0.00     0.254 A 
ATOM     71  N   UNL A   1      29.576  24.337  26.851  1.00  0.00    -0.039 NA
ATOM     72  N   UNL A   1      31.341  23.060  27.305  1.00  0.00    -0.117 NA
ATOM     73  N   UNL A   1      29.998  23.259  27.498  1.00  0.00    -0.024 NA
ENDBRANCH  67  69
ENDBRANCH  60  63
ENDBRANCH  58  59
ENDBRANCH  57  58
ENDBRANCH   1  57
TORSDOF 12
ENDMDL
MODEL 3
REMARK VINA RESULT:     -10.4      4.964      9.662
REMARK SMILES O=C(NCCCCNC(=O)c1ccnc(-n2cnnn2)c1)c1ccc(-c2c3nc(c(-c4ccccc4)c4ccc([nH]4)c(-c4ccccc4)c4nc(c(-c5ccccc5)c5ccc2[nH]5)C=C4)C=C3)cc1
REMARK SMILES IDX 5 1 4 2 3 3 1 4 2 5 22 7 23 8 69 9 24 10 68 11 25 12 26 13
REMARK SMILES IDX 27 14 62 15 28 16 67 17 61 18 63 19 29 20 66 21 60 22 59 23
REMARK SMILES IDX 30 25 52 26 37 27 51 28 38 29 41 30 50 31 64 32 39 33 40 34
REMARK SMILES IDX 49 36 65 37 42 38 31 39 32 40 36 41 33 42 35 43 34 44 53 45
REMARK SMILES IDX 54 46 58 47 55 48 57 49 56 50 43 51 44 52 48 53 45 54 47 55
REMARK SMILES IDX 46 56 6 57 7 58 8 59 9 60 10 62 11 63 12 64 21 65 13 66
REMARK SMILES IDX 15 67 14 68 16 69 17 70 20 71 18 72 19 73
REMARK H PARENT 3 6 63 24 41 35 8 61
REMARK Flexibility Score: inf
ROOT
ATOM      1  C   UNL A   1      32.211  30.498  26.827  1.00  0.00     0.023 C 
ENDROOT
BRANCH   1   2
ATOM      2  C   UNL A   1      33.678  30.635  27.238  1.00  0.00     0.116 C 
BRANCH   2   3
ATOM      3  N   UNL A   1      33.898  31.476  28.395  1.00  0.00    -0.352 N 
ATOM      4  O   UNL A   1      34.845  32.705  29.966  1.00  0.00    -0.269 OA
ATOM      5  C   UNL A   1      34.991  31.789  29.152  1.00  0.00     0.251 C 
ATOM      6  H   UNL A   1      33.077  31.920  28.707  1.00  0.00     0.163 HD
BRANCH   5   7
ATOM      7  C   UNL A   1      36.288  31.063  29.121  1.00  0.00     0.039 A 
ATOM      8  C   UNL A   1      36.452  29.685  28.964  1.00  0.00     0.014 A 
ATOM      9  C   UNL A   1      37.431  31.856  29.334  1.00  0.00     0.014 A 
ATOM     10  C   UNL A   1      37.699  29.096  29.141  1.00  0.00     0.010 A 
ATOM     11  C   UNL A   1      38.683  31.279  29.489  1.00  0.00     0.010 A 
ATOM     12  C   UNL A   1      38.802  29.892  29.442  1.00  0.00    -0.014 A 
BRANCH  12  13
ATOM     13  C   UNL A   1      40.107  29.253  29.570  1.00  0.00     0.031 A 
ATOM     14  C   UNL A   1      40.582  29.072  30.974  1.00  0.00     0.074 A 
ATOM     15  C   UNL A   1      40.739  28.710  28.510  1.00  0.00     0.049 A 
ATOM     16  N   UNL A   1      41.716  29.414  31.495  1.00  0.00    -0.248 NA
ATOM     17  C   UNL A   1      39.628  28.504  31.945  1.00  0.00     0.031 C 
ATOM     18  C   UNL A   1      40.234  28.576  27.140  1.00  0.00     0.029 A 
ATOM     19  N   UNL A   1      41.919  28.029  28.467  1.00  0.00    -0.354 N 
ATOM     20  C   UNL A   1      41.688  28.962  32.815  1.00  0.00     0.074 A 
ATOM     21  C   UNL A   1      40.341  28.523  33.071  1.00  0.00     0.031 C 
ATOM     22  C   UNL A   1      40.968  27.649  26.484  1.00  0.00     0.029 A 
ATOM     23  C   UNL A   1      42.063  27.228  27.340  1.00  0.00     0.049 A 
ATOM     24  H   UNL A   1      42.605  28.098  29.170  1.00  0.00     0.167 HD
ATOM     25  C   UNL A   1      42.823  28.771  33.542  1.00  0.00     0.031 A 
ATOM     26  C   UNL A   1      42.962  26.229  27.160  1.00  0.00     0.031 A 
ATOM     27  C   UNL A   1      43.934  29.510  33.012  1.00  0.00     0.049 A 
ATOM     28  C   UNL A   1      44.039  26.404  28.159  1.00  0.00     0.074 A 
ATOM     29  C   UNL A   1      44.214  30.847  32.816  1.00  0.00     0.029 A 
ATOM     30  N   UNL A   1      44.855  28.822  32.261  1.00  0.00    -0.354 N 
ATOM     31  N   UNL A   1      44.883  27.395  28.142  1.00  0.00    -0.248 NA
ATOM     32  C   UNL A   1      43.903  25.719  29.435  1.00  0.00     0.031 C 
ATOM     33  C   UNL A   1      44.939  30.891  31.589  1.00  0.00     0.029 A 
ATOM     34  C   UNL A   1      45.107  29.578  31.147  1.00  0.00     0.049 A 
ATOM     35  H   UNL A   1      45.258  27.951  32.481  1.00  0.00     0.167 HD
ATOM     36  C   UNL A   1      45.047  27.739  29.475  1.00  0.00     0.074 A 
ATOM     37  C   UNL A   1      44.498  26.613  30.229  1.00  0.00     0.031 C 
ATOM     38  C   UNL A   1      45.351  29.020  29.838  1.00  0.00     0.031 A 
BRANCH  25  39
ATOM     39  C   UNL A   1      43.018  27.584  34.460  1.00  0.00    -0.014 A 
ATOM     40  C   UNL A   1      43.331  26.335  33.891  1.00  0.00     0.009 A 
ATOM     41  C   UNL A   1      42.603  27.578  35.806  1.00  0.00     0.009 A 
ATOM     42  C   UNL A   1      43.134  25.142  34.598  1.00  0.00     0.001 A 
ATOM     43  C   UNL A   1      42.446  26.391  36.527  1.00  0.00     0.001 A 
ATOM     44  C   UNL A   1      42.678  25.171  35.912  1.00  0.00     0.000 A 
ENDBRANCH  25  39
BRANCH  26  45
ATOM     45  C   UNL A   1      42.786  24.965  26.410  1.00  0.00    -0.014 A 
ATOM     46  C   UNL A   1      43.561  24.683  25.273  1.00  0.00     0.009 A 
ATOM     47  C   UNL A   1      42.036  23.913  26.967  1.00  0.00     0.009 A 
ATOM     48  C   UNL A   1      43.603  23.388  24.735  1.00  0.00     0.001 A 
ATOM     49  C   UNL A   1      42.075  22.623  26.429  1.00  0.00     0.001 A 
ATOM     50  C   UNL A   1      42.870  22.357  25.319  1.00  0.00     0.000 A 
ENDBRANCH  26  45
BRANCH  38  51
ATOM     51  C   UNL A   1      45.702  30.002  28.749  1.00  0.00    -0.014 A 
ATOM     52  C   UNL A   1      47.017  30.192  28.289  1.00  0.00     0.009 A 
ATOM     53  C   UNL A   1      44.657  30.628  28.056  1.00  0.00     0.009 A 
ATOM     54  C   UNL A   1      47.279  31.008  27.184  1.00  0.00     0.001 A 
ATOM     55  C   UNL A   1      44.916  31.427  26.941  1.00  0.00     0.001 A 
ATOM     56  C   UNL A   1      46.226  31.621  26.508  1.00  0.00     0.000 A 
ENDBRANCH  38  51
ENDBRANCH  12  13
ENDBRANCH   5   7
ENDBRANCH   2   3
ENDBRANCH   1   2
BRANCH   1  57
ATOM     57  C   UNL A   1      31.977  29.891  25.440  1.00  0.00     0.023 C 
BRANCH  57  58
ATOM     58  C   UNL A   1      31.454  28.458  25.432  1.00  0.00     0.116 C 
BRANCH  58  59
ATOM     59  N   UNL A   1      31.747  27.778  24.183  1.00  0.00    -0.352 N 
ATOM     60  C   UNL A   1      30.924  27.548  23.113  1.00  0.00     0.251 C 
ATOM     61  H   UNL A   1      32.666  27.434  24.093  1.00  0.00     0.163 HD
ATOM     62  O   UNL A   1      31.263  26.785  22.220  1.00  0.00    -0.269 OA
BRANCH  60  63
ATOM     63  C   UNL A   1      29.607  28.210  23.033  1.00  0.00     0.045 A 
ATOM     64  C   UNL A   1      28.441  27.527  23.365  1.00  0.00     0.034 A 
ATOM     65  C   UNL A   1      29.573  29.567  22.711  1.00  0.00     0.063 A 
ATOM     66  C   UNL A   1      27.260  28.239  23.349  1.00  0.00     0.114 A 
ATOM     67  C   UNL A   1      28.341  30.207  22.738  1.00  0.00     0.157 A 
ATOM     68  N   UNL A   1      27.191  29.554  23.057  1.00  0.00    -0.237 NA
BRANCH  67  69
ATOM     69  N   UNL A   1      28.266  31.592  22.444  1.00  0.00    -0.182 N 
ATOM     70  C   UNL A   1      28.687  32.660  23.195  1.00  0.00     0.254 A 
ATOM     71  N   UNL A   1      27.731  32.072  21.298  1.00  0.00    -0.039 NA
ATOM     72  N   UNL A   1      28.362  33.775  22.583  1.00  0.00    -0.117 NA
ATOM     73  N   UNL A   1      27.754  33.393  21.416  1.00  0.00    -0.024 NA
ENDBRANCH  67  69
ENDBRANCH  60  63
ENDBRANCH  58  59
ENDBRANCH  57  58
ENDBRANCH   1  57
TORSDOF 12
ENDMDL
