MODEL 1
REMARK VINA RESULT:     -11.5      0.000      0.000
REMARK SMILES Cc1ccc(C(=O)N[C@@H]2C=C[C@H](C(=O)NCCCCNC(=O)c3ccc(-c4c5nc(c(-c6ccccc6)c6ccc([nH]6)c(-c6ccccc6)c6nc(c(-c7ccccc7)c7ccc4[nH]7)C=C6)C=C5)cc3)C2)c(F)c1
REMARK SMILES IDX 17 1 16 2 15 3 13 4 14 5 12 7 9 8 10 9 71 10 11 11 8 12 6 13
REMARK SMILES IDX 7 14 5 16 1 17 2 18 3 19 74 20 4 21 72 22 73 23 18 24 19 25
REMARK SMILES IDX 20 26 21 27 22 29 23 30 24 31 70 32 25 33 69 34 26 35 27 36
REMARK SMILES IDX 28 37 63 38 29 39 68 40 62 41 64 42 30 43 67 44 61 45 60 46
REMARK SMILES IDX 31 48 53 49 38 50 52 51 39 52 42 53 51 54 65 55 40 56 41 57
REMARK SMILES IDX 50 59 66 60 43 61 32 62 33 63 37 64 34 65 36 66 35 67 54 68
REMARK SMILES IDX 55 69 59 70 56 71 58 72 57 73 44 74 45 75 49 76 46 77 48 78
REMARK SMILES IDX 47 79
REMARK H PARENT 15 6 8 15 20 28 64 47 42 58
REMARK Flexibility Score: inf
ROOT
ATOM      1  C   UNL A   1      37.070  20.691  24.728  1.00  0.00     0.023 C 
ENDROOT
BRANCH   1   2
ATOM      2  C   UNL A   1      37.399  22.049  25.346  1.00  0.00     0.116 C 
BRANCH   2   3
ATOM      3  N   UNL A   1      36.400  22.506  26.294  1.00  0.00    -0.356 N 
ATOM      4  C   UNL A   1      35.231  23.182  26.050  1.00  0.00     0.227 C 
ATOM      5  O   UNL A   1      34.435  23.318  26.978  1.00  0.00    -0.274 OA
ATOM      6  H   UNL A   1      36.586  22.305  27.239  1.00  0.00     0.163 HD
BRANCH   4   7
ATOM      7  C   UNL A   1      35.014  23.778  24.657  1.00  0.00     0.103 C 
ATOM      8  C   UNL A   1      32.878  24.990  24.305  1.00  0.00     0.106 C 
ATOM      9  C   UNL A   1      32.927  23.683  23.574  1.00  0.00    -0.006 C 
ATOM     10  C   UNL A   1      34.327  25.139  24.799  1.00  0.00     0.047 C 
ATOM     11  C   UNL A   1      34.068  23.016  23.786  1.00  0.00    -0.016 C 
BRANCH   8  12
ATOM     12  N   UNL A   1      31.807  24.893  25.282  1.00  0.00    -0.346 N 
ATOM     13  C   UNL A   1      31.010  25.830  25.893  1.00  0.00     0.254 C 
ATOM     14  O   UNL A   1      29.959  25.478  26.421  1.00  0.00    -0.269 OA
ATOM     15  H   UNL A   1      31.612  23.969  25.561  1.00  0.00     0.164 HD
BRANCH  13  16
ATOM     16  C   UNL A   1      31.450  27.228  26.012  1.00  0.00     0.075 A 
ATOM     17  C   UNL A   1      31.697  31.485  26.492  1.00  0.00     0.044 C 
ATOM     18  C   UNL A   1      31.711  29.998  26.296  1.00  0.00    -0.048 A 
ATOM     19  C   UNL A   1      32.084  29.140  27.342  1.00  0.00     0.004 A 
ATOM     20  C   UNL A   1      31.349  29.450  25.063  1.00  0.00     0.043 A 
ATOM     21  C   UNL A   1      31.977  27.752  27.195  1.00  0.00     0.017 A 
ATOM     22  C   UNL A   1      31.210  28.072  24.928  1.00  0.00     0.136 A 
ATOM     23  F   UNL A   1      30.768  27.595  23.755  1.00  0.00    -0.206 F 
ENDBRANCH  13  16
ENDBRANCH   8  12
ENDBRANCH   4   7
ENDBRANCH   2   3
ENDBRANCH   1   2
BRANCH   1  24
ATOM     24  C   UNL A   1      38.110  19.590  24.938  1.00  0.00     0.023 C 
BRANCH  24  25
ATOM     25  C   UNL A   1      39.157  19.861  26.013  1.00  0.00     0.116 C 
BRANCH  25  26
ATOM     26  N   UNL A   1      40.408  19.162  25.777  1.00  0.00    -0.352 N 
ATOM     27  C   UNL A   1      41.703  19.596  25.931  1.00  0.00     0.251 C 
ATOM     28  H   UNL A   1      40.315  18.235  25.459  1.00  0.00     0.163 HD
ATOM     29  O   UNL A   1      42.626  18.884  25.550  1.00  0.00    -0.269 OA
BRANCH  27  30
ATOM     30  C   UNL A   1      41.996  20.922  26.526  1.00  0.00     0.039 A 
ATOM     31  C   UNL A   1      42.358  21.969  25.672  1.00  0.00     0.014 A 
ATOM     32  C   UNL A   1      41.955  21.136  27.905  1.00  0.00     0.014 A 
ATOM     33  C   UNL A   1      42.635  23.234  26.197  1.00  0.00     0.010 A 
ATOM     34  C   UNL A   1      42.146  22.417  28.419  1.00  0.00     0.010 A 
ATOM     35  C   UNL A   1      42.509  23.476  27.574  1.00  0.00    -0.014 A 
BRANCH  35  36
ATOM     36  C   UNL A   1      42.777  24.827  28.134  1.00  0.00     0.031 A 
ATOM     37  C   UNL A   1      44.167  25.217  28.560  1.00  0.00     0.074 A 
ATOM     38  C   UNL A   1      41.761  25.697  28.292  1.00  0.00     0.049 A 
ATOM     39  N   UNL A   1      44.594  26.359  29.041  1.00  0.00    -0.248 NA
ATOM     40  C   UNL A   1      45.208  24.182  28.463  1.00  0.00     0.031 C 
ATOM     41  C   UNL A   1      40.357  25.425  27.979  1.00  0.00     0.029 A 
ATOM     42  N   UNL A   1      41.755  26.989  28.755  1.00  0.00    -0.354 N 
ATOM     43  C   UNL A   1      45.942  26.172  29.318  1.00  0.00     0.074 A 
ATOM     44  C   UNL A   1      46.249  24.793  29.008  1.00  0.00     0.031 C 
ATOM     45  C   UNL A   1      39.631  26.526  28.227  1.00  0.00     0.029 A 
ATOM     46  C   UNL A   1      40.510  27.570  28.745  1.00  0.00     0.049 A 
ATOM     47  H   UNL A   1      42.565  27.454  29.065  1.00  0.00     0.167 HD
ATOM     48  C   UNL A   1      46.852  27.069  29.771  1.00  0.00     0.031 A 
ATOM     49  C   UNL A   1      40.118  28.805  29.109  1.00  0.00     0.031 A 
ATOM     50  C   UNL A   1      46.549  28.443  30.077  1.00  0.00     0.049 A 
ATOM     51  C   UNL A   1      41.145  29.793  29.586  1.00  0.00     0.074 A 
ATOM     52  C   UNL A   1      47.412  29.450  30.471  1.00  0.00     0.029 A 
ATOM     53  N   UNL A   1      45.279  28.999  30.033  1.00  0.00    -0.354 N 
ATOM     54  N   UNL A   1      42.435  29.630  29.748  1.00  0.00    -0.248 NA
ATOM     55  C   UNL A   1      40.662  31.144  29.905  1.00  0.00     0.031 C 
ATOM     56  C   UNL A   1      46.655  30.600  30.726  1.00  0.00     0.029 A 
ATOM     57  C   UNL A   1      45.331  30.328  30.423  1.00  0.00     0.049 A 
ATOM     58  H   UNL A   1      44.462  28.520  29.766  1.00  0.00     0.167 HD
ATOM     59  C   UNL A   1      42.924  30.862  30.164  1.00  0.00     0.074 A 
ATOM     60  C   UNL A   1      41.792  31.767  30.207  1.00  0.00     0.031 C 
ATOM     61  C   UNL A   1      44.196  31.215  30.478  1.00  0.00     0.031 A 
BRANCH  48  62
ATOM     62  C   UNL A   1      48.259  26.577  29.984  1.00  0.00    -0.014 A 
ATOM     63  C   UNL A   1      49.211  26.602  28.951  1.00  0.00     0.009 A 
ATOM     64  C   UNL A   1      48.642  26.087  31.242  1.00  0.00     0.009 A 
ATOM     65  C   UNL A   1      50.498  26.098  29.160  1.00  0.00     0.001 A 
ATOM     66  C   UNL A   1      49.939  25.616  31.458  1.00  0.00     0.001 A 
ATOM     67  C   UNL A   1      50.861  25.610  30.412  1.00  0.00     0.000 A 
ENDBRANCH  48  62
BRANCH  49  68
ATOM     68  C   UNL A   1      38.683  29.182  29.005  1.00  0.00    -0.014 A 
ATOM     69  C   UNL A   1      38.157  29.680  27.804  1.00  0.00     0.009 A 
ATOM     70  C   UNL A   1      37.828  29.025  30.107  1.00  0.00     0.009 A 
ATOM     71  C   UNL A   1      36.808  30.034  27.715  1.00  0.00     0.001 A 
ATOM     72  C   UNL A   1      36.474  29.350  30.006  1.00  0.00     0.001 A 
ATOM     73  C   UNL A   1      35.967  29.862  28.813  1.00  0.00     0.000 A 
ENDBRANCH  49  68
BRANCH  61  74
ATOM     74  C   UNL A   1      44.434  32.649  30.865  1.00  0.00    -0.014 A 
ATOM     75  C   UNL A   1      44.333  33.078  32.199  1.00  0.00     0.009 A 
ATOM     76  C   UNL A   1      44.784  33.584  29.878  1.00  0.00     0.009 A 
ATOM     77  C   UNL A   1      44.528  34.422  32.525  1.00  0.00     0.001 A 
ATOM     78  C   UNL A   1      45.012  34.918  30.212  1.00  0.00     0.001 A 
ATOM     79  C   UNL A   1      44.870  35.340  31.533  1.00  0.00     0.000 A 
ENDBRANCH  61  74
ENDBRANCH  35  36
ENDBRANCH  27  30
ENDBRANCH  25  26
ENDBRANCH  24  25
ENDBRANCH   1  24
TORSDOF 13
ENDMDL
MODEL 2
REMARK VINA RESULT:     -11.3      4.128      9.954
REMARK SMILES Cc1ccc(C(=O)N[C@@H]2C=C[C@H](C(=O)NCCCCNC(=O)c3ccc(-c4c5nc(c(-c6ccccc6)c6ccc([nH]6)c(-c6ccccc6)c6nc(c(-c7ccccc7)c7ccc4[nH]7)C=C6)C=C5)cc3)C2)c(F)c1
REMARK SMILES IDX 17 1 16 2 15 3 13 4 14 5 12 7 9 8 10 9 71 10 11 11 8 12 6 13
REMARK SMILES IDX 7 14 5 16 1 17 2 18 3 19 74 20 4 21 72 22 73 23 18 24 19 25
REMARK SMILES IDX 20 26 21 27 22 29 23 30 24 31 70 32 25 33 69 34 26 35 27 36
REMARK SMILES IDX 28 37 63 38 29 39 68 40 62 41 64 42 30 43 67 44 61 45 60 46
REMARK SMILES IDX 31 48 53 49 38 50 52 51 39 52 42 53 51 54 65 55 40 56 41 57
REMARK SMILES IDX 50 59 66 60 43 61 32 62 33 63 37 64 34 65 36 66 35 67 54 68
REMARK SMILES IDX 55 69 59 70 56 71 58 72 57 73 44 74 45 75 49 76 46 77 48 78
REMARK SMILES IDX 47 79
REMARK H PARENT 15 6 8 15 20 28 64 47 42 58
REMARK Flexibility Score: inf
ROOT
ATOM      1  C   UNL A   1      33.197  34.771  29.134  1.00  0.00     0.023 C 
ENDROOT
BRANCH   1   2
ATOM      2  C   UNL A   1      33.732  35.270  30.475  1.00  0.00     0.116 C 
BRANCH   2   3
ATOM      3  N   UNL A   1      33.672  34.270  31.525  1.00  0.00    -0.356 N 
ATOM      4  C   UNL A   1      34.707  33.673  32.201  1.00  0.00     0.227 C 
ATOM      5  O   UNL A   1      34.435  32.982  33.182  1.00  0.00    -0.274 OA
ATOM      6  H   UNL A   1      32.769  33.982  31.788  1.00  0.00     0.163 HD
BRANCH   4   7
ATOM      7  C   UNL A   1      36.127  33.851  31.659  1.00  0.00     0.103 C 
ATOM      8  C   UNL A   1      37.875  32.413  32.674  1.00  0.00     0.106 C 
ATOM      9  C   UNL A   1      38.007  33.851  33.073  1.00  0.00    -0.006 C 
ATOM     10  C   UNL A   1      36.803  32.480  31.573  1.00  0.00     0.047 C 
ATOM     11  C   UNL A   1      37.048  34.622  32.548  1.00  0.00    -0.016 C 
BRANCH   8  12
ATOM     12  N   UNL A   1      37.596  31.658  33.884  1.00  0.00    -0.346 N 
ATOM     13  C   UNL A   1      38.347  30.793  34.642  1.00  0.00     0.254 C 
ATOM     14  O   UNL A   1      38.008  30.548  35.795  1.00  0.00    -0.269 OA
ATOM     15  H   UNL A   1      36.685  31.795  34.231  1.00  0.00     0.164 HD
BRANCH  13  16
ATOM     16  C   UNL A   1      39.492  30.080  34.055  1.00  0.00     0.075 A 
ATOM     17  C   UNL A   1      42.833  27.502  33.280  1.00  0.00     0.044 C 
ATOM     18  C   UNL A   1      41.689  28.453  33.463  1.00  0.00    -0.048 A 
ATOM     19  C   UNL A   1      40.434  28.185  32.895  1.00  0.00     0.004 A 
ATOM     20  C   UNL A   1      41.862  29.624  34.207  1.00  0.00     0.043 A 
ATOM     21  C   UNL A   1      39.338  29.010  33.170  1.00  0.00     0.017 A 
ATOM     22  C   UNL A   1      40.766  30.425  34.509  1.00  0.00     0.136 A 
ATOM     23  F   UNL A   1      40.960  31.486  35.305  1.00  0.00    -0.206 F 
ENDBRANCH  13  16
ENDBRANCH   8  12
ENDBRANCH   4   7
ENDBRANCH   2   3
ENDBRANCH   1   2
BRANCH   1  24
ATOM     24  C   UNL A   1      34.248  34.436  28.075  1.00  0.00     0.023 C 
BRANCH  24  25
ATOM     25  C   UNL A   1      34.965  33.102  28.251  1.00  0.00     0.116 C 
BRANCH  25  26
ATOM     26  N   UNL A   1      34.113  31.958  27.981  1.00  0.00    -0.352 N 
ATOM     27  C   UNL A   1      34.429  30.623  27.893  1.00  0.00     0.251 C 
ATOM     28  H   UNL A   1      33.162  32.170  27.839  1.00  0.00     0.163 HD
ATOM     29  O   UNL A   1      33.575  29.824  27.525  1.00  0.00    -0.269 OA
BRANCH  27  30
ATOM     30  C   UNL A   1      35.795  30.143  28.213  1.00  0.00     0.039 A 
ATOM     31  C   UNL A   1      36.770  30.194  27.211  1.00  0.00     0.014 A 
ATOM     32  C   UNL A   1      36.117  29.613  29.464  1.00  0.00     0.014 A 
ATOM     33  C   UNL A   1      38.069  29.755  27.477  1.00  0.00     0.010 A 
ATOM     34  C   UNL A   1      37.432  29.257  29.756  1.00  0.00     0.010 A 
ATOM     35  C   UNL A   1      38.419  29.304  28.761  1.00  0.00    -0.014 A 
BRANCH  35  36
ATOM     36  C   UNL A   1      39.807  28.861  29.056  1.00  0.00     0.031 A 
ATOM     37  C   UNL A   1      40.769  29.778  29.761  1.00  0.00     0.074 A 
ATOM     38  C   UNL A   1      40.216  27.641  28.660  1.00  0.00     0.049 A 
ATOM     39  N   UNL A   1      42.007  29.554  30.129  1.00  0.00    -0.248 NA
ATOM     40  C   UNL A   1      40.291  31.136  30.068  1.00  0.00     0.031 C 
ATOM     41  C   UNL A   1      39.405  26.677  27.913  1.00  0.00     0.029 A 
ATOM     42  N   UNL A   1      41.419  27.002  28.832  1.00  0.00    -0.354 N 
ATOM     43  C   UNL A   1      42.457  30.742  30.690  1.00  0.00     0.074 A 
ATOM     44  C   UNL A   1      41.382  31.701  30.563  1.00  0.00     0.031 C 
ATOM     45  C   UNL A   1      40.121  25.558  27.721  1.00  0.00     0.029 A 
ATOM     46  C   UNL A   1      41.449  25.735  28.301  1.00  0.00     0.049 A 
ATOM     47  H   UNL A   1      42.186  27.413  29.291  1.00  0.00     0.167 HD
ATOM     48  C   UNL A   1      43.648  31.010  31.277  1.00  0.00     0.031 A 
ATOM     49  C   UNL A   1      42.433  24.816  28.284  1.00  0.00     0.031 A 
ATOM     50  C   UNL A   1      44.717  30.055  31.409  1.00  0.00     0.049 A 
ATOM     51  C   UNL A   1      43.738  25.123  28.962  1.00  0.00     0.074 A 
ATOM     52  C   UNL A   1      45.934  30.204  32.051  1.00  0.00     0.029 A 
ATOM     53  N   UNL A   1      44.701  28.775  30.876  1.00  0.00    -0.354 N 
ATOM     54  N   UNL A   1      44.113  26.219  29.576  1.00  0.00    -0.248 NA
ATOM     55  C   UNL A   1      44.747  24.055  28.964  1.00  0.00     0.031 C 
ATOM     56  C   UNL A   1      46.679  29.036  31.853  1.00  0.00     0.029 A 
ATOM     57  C   UNL A   1      45.899  28.133  31.149  1.00  0.00     0.049 A 
ATOM     58  H   UNL A   1      43.950  28.380  30.376  1.00  0.00     0.167 HD
ATOM     59  C   UNL A   1      45.390  25.965  30.061  1.00  0.00     0.074 A 
ATOM     60  C   UNL A   1      45.714  24.602  29.686  1.00  0.00     0.031 C 
ATOM     61  C   UNL A   1      46.218  26.783  30.756  1.00  0.00     0.031 A 
BRANCH  48  62
ATOM     62  C   UNL A   1      43.861  32.406  31.802  1.00  0.00    -0.014 A 
ATOM     63  C   UNL A   1      43.514  32.758  33.117  1.00  0.00     0.009 A 
ATOM     64  C   UNL A   1      44.424  33.384  30.968  1.00  0.00     0.009 A 
ATOM     65  C   UNL A   1      43.679  34.070  33.567  1.00  0.00     0.001 A 
ATOM     66  C   UNL A   1      44.620  34.687  31.432  1.00  0.00     0.001 A 
ATOM     67  C   UNL A   1      44.234  35.032  32.726  1.00  0.00     0.000 A 
ENDBRANCH  48  62
BRANCH  49  68
ATOM     68  C   UNL A   1      42.203  23.504  27.622  1.00  0.00    -0.014 A 
ATOM     69  C   UNL A   1      41.520  22.475  28.288  1.00  0.00     0.009 A 
ATOM     70  C   UNL A   1      42.651  23.284  26.311  1.00  0.00     0.009 A 
ATOM     71  C   UNL A   1      41.309  21.244  27.661  1.00  0.00     0.001 A 
ATOM     72  C   UNL A   1      42.412  22.064  25.676  1.00  0.00     0.001 A 
ATOM     73  C   UNL A   1      41.749  21.042  26.353  1.00  0.00     0.000 A 
ENDBRANCH  49  68
BRANCH  61  74
ATOM     74  C   UNL A   1      47.542  26.214  31.186  1.00  0.00    -0.014 A 
ATOM     75  C   UNL A   1      48.650  26.194  30.322  1.00  0.00     0.009 A 
ATOM     76  C   UNL A   1      47.689  25.704  32.485  1.00  0.00     0.009 A 
ATOM     77  C   UNL A   1      49.859  25.631  30.735  1.00  0.00     0.001 A 
ATOM     78  C   UNL A   1      48.908  25.174  32.907  1.00  0.00     0.001 A 
ATOM     79  C   UNL A   1      49.989  25.124  32.028  1.00  0.00     0.000 A 
ENDBRANCH  61  74
ENDBRANCH  35  36
ENDBRANCH  27  30
ENDBRANCH  25  26
ENDBRANCH  24  25
ENDBRANCH   1  24
TORSDOF 13
ENDMDL
MODEL 3
REMARK VINA RESULT:     -11.2      3.177      8.906
REMARK SMILES Cc1ccc(C(=O)N[C@@H]2C=C[C@H](C(=O)NCCCCNC(=O)c3ccc(-c4c5nc(c(-c6ccccc6)c6ccc([nH]6)c(-c6ccccc6)c6nc(c(-c7ccccc7)c7ccc4[nH]7)C=C6)C=C5)cc3)C2)c(F)c1
REMARK SMILES IDX 17 1 16 2 15 3 13 4 14 5 12 7 9 8 10 9 71 10 11 11 8 12 6 13
REMARK SMILES IDX 7 14 5 16 1 17 2 18 3 19 74 20 4 21 72 22 73 23 18 24 19 25
REMARK SMILES IDX 20 26 21 27 22 29 23 30 24 31 70 32 25 33 69 34 26 35 27 36
REMARK SMILES IDX 28 37 63 38 29 39 68 40 62 41 64 42 30 43 67 44 61 45 60 46
REMARK SMILES IDX 31 48 53 49 38 50 52 51 39 52 42 53 51 54 65 55 40 56 41 57
REMARK SMILES IDX 50 59 66 60 43 61 32 62 33 63 37 64 34 65 36 66 35 67 54 68
REMARK SMILES IDX 55 69 59 70 56 71 58 72 57 73 44 74 45 75 49 76 46 77 48 78
REMARK SMILES IDX 47 79
REMARK H PARENT 15 6 8 15 20 28 64 47 42 58
REMARK Flexibility Score: inf
ROOT
ATOM      1  C   UNL A   1      31.449  30.498  25.939  1.00  0.00     0.023 C 
ENDROOT
BRANCH   1   2
ATOM      2  C   UNL A   1      32.879  29.982  25.798  1.00  0.00     0.116 C 
BRANCH   2   3
ATOM      3  N   UNL A   1      33.062  29.097  24.663  1.00  0.00    -0.356 N 
ATOM      4  C   UNL A   1      33.018  27.726  24.629  1.00  0.00     0.227 C 
ATOM      5  O   UNL A   1      33.020  27.174  23.529  1.00  0.00    -0.274 OA
ATOM      6  H   UNL A   1      33.242  29.539  23.803  1.00  0.00     0.163 HD
BRANCH   4   7
ATOM      7  C   UNL A   1      33.032  26.965  25.956  1.00  0.00     0.103 C 
ATOM      8  C   UNL A   1      32.744  24.505  25.812  1.00  0.00     0.106 C 
ATOM      9  C   UNL A   1      31.545  25.194  26.390  1.00  0.00    -0.006 C 
ATOM     10  C   UNL A   1      33.779  25.642  25.765  1.00  0.00     0.047 C 
ATOM     11  C   UNL A   1      31.690  26.523  26.442  1.00  0.00    -0.016 C 
BRANCH   8  12
ATOM     12  N   UNL A   1      32.321  23.885  24.568  1.00  0.00    -0.346 N 
ATOM     13  C   UNL A   1      32.760  22.783  23.875  1.00  0.00     0.254 C 
ATOM     14  O   UNL A   1      32.030  22.269  23.032  1.00  0.00    -0.269 OA
ATOM     15  H   UNL A   1      31.568  24.348  24.135  1.00  0.00     0.164 HD
BRANCH  13  16
ATOM     16  C   UNL A   1      34.128  22.277  24.057  1.00  0.00     0.075 A 
ATOM     17  C   UNL A   1      38.159  21.552  25.338  1.00  0.00     0.044 C 
ATOM     18  C   UNL A   1      36.768  21.741  24.811  1.00  0.00    -0.048 A 
ATOM     19  C   UNL A   1      35.732  20.875  25.193  1.00  0.00     0.004 A 
ATOM     20  C   UNL A   1      36.489  22.788  23.928  1.00  0.00     0.043 A 
ATOM     21  C   UNL A   1      34.413  21.127  24.798  1.00  0.00     0.017 A 
ATOM     22  C   UNL A   1      35.174  23.059  23.564  1.00  0.00     0.136 A 
ATOM     23  F   UNL A   1      34.941  24.130  22.792  1.00  0.00    -0.206 F 
ENDBRANCH  13  16
ENDBRANCH   8  12
ENDBRANCH   4   7
ENDBRANCH   2   3
ENDBRANCH   1   2
BRANCH   1  24
ATOM     24  C   UNL A   1      31.298  31.907  26.515  1.00  0.00     0.023 C 
BRANCH  24  25
ATOM     25  C   UNL A   1      32.593  32.600  26.922  1.00  0.00     0.116 C 
BRANCH  25  26
ATOM     26  N   UNL A   1      32.371  33.820  27.679  1.00  0.00    -0.352 N 
ATOM     27  C   UNL A   1      33.129  34.391  28.673  1.00  0.00     0.251 C 
ATOM     28  H   UNL A   1      31.553  34.315  27.443  1.00  0.00     0.163 HD
ATOM     29  O   UNL A   1      32.694  35.365  29.279  1.00  0.00    -0.269 OA
BRANCH  27  30
ATOM     30  C   UNL A   1      34.451  33.828  29.040  1.00  0.00     0.039 A 
ATOM     31  C   UNL A   1      34.529  32.980  30.149  1.00  0.00     0.014 A 
ATOM     32  C   UNL A   1      35.611  34.153  28.333  1.00  0.00     0.014 A 
ATOM     33  C   UNL A   1      35.757  32.427  30.520  1.00  0.00     0.010 A 
ATOM     34  C   UNL A   1      36.819  33.533  28.651  1.00  0.00     0.010 A 
ATOM     35  C   UNL A   1      36.910  32.680  29.760  1.00  0.00    -0.014 A 
BRANCH  35  36
ATOM     36  C   UNL A   1      38.214  32.073  30.136  1.00  0.00     0.031 A 
ATOM     37  C   UNL A   1      39.141  32.778  31.089  1.00  0.00     0.074 A 
ATOM     38  C   UNL A   1      38.583  30.897  29.593  1.00  0.00     0.049 A 
ATOM     39  N   UNL A   1      40.302  32.387  31.554  1.00  0.00    -0.248 NA
ATOM     40  C   UNL A   1      38.725  34.109  31.560  1.00  0.00     0.031 C 
ATOM     41  C   UNL A   1      37.808  30.138  28.609  1.00  0.00     0.029 A 
ATOM     42  N   UNL A   1      39.705  30.133  29.794  1.00  0.00    -0.354 N 
ATOM     43  C   UNL A   1      40.760  33.428  32.352  1.00  0.00     0.074 A 
ATOM     44  C   UNL A   1      39.781  34.489  32.263  1.00  0.00     0.031 C 
ATOM     45  C   UNL A   1      38.462  29.002  28.317  1.00  0.00     0.029 A 
ATOM     46  C   UNL A   1      39.713  28.966  29.067  1.00  0.00     0.049 A 
ATOM     47  H   UNL A   1      40.435  30.395  30.400  1.00  0.00     0.167 HD
ATOM     48  C   UNL A   1      41.882  33.492  33.109  1.00  0.00     0.031 A 
ATOM     49  C   UNL A   1      40.623  27.976  29.011  1.00  0.00     0.031 A 
ATOM     50  C   UNL A   1      42.855  32.435  33.202  1.00  0.00     0.049 A 
ATOM     51  C   UNL A   1      41.850  28.054  29.876  1.00  0.00     0.074 A 
ATOM     52  C   UNL A   1      43.987  32.371  33.995  1.00  0.00     0.029 A 
ATOM     53  N   UNL A   1      42.816  31.260  32.466  1.00  0.00    -0.354 N 
ATOM     54  N   UNL A   1      42.219  29.002  30.702  1.00  0.00    -0.248 NA
ATOM     55  C   UNL A   1      42.771  26.911  29.818  1.00  0.00     0.031 C 
ATOM     56  C   UNL A   1      44.667  31.185  33.694  1.00  0.00     0.029 A 
ATOM     57  C   UNL A   1      43.921  30.478  32.765  1.00  0.00     0.049 A 
ATOM     58  H   UNL A   1      42.110  31.018  31.825  1.00  0.00     0.167 HD
ATOM     59  C   UNL A   1      43.402  28.560  31.281  1.00  0.00     0.074 A 
ATOM     60  C   UNL A   1      43.675  27.249  30.726  1.00  0.00     0.031 C 
ATOM     61  C   UNL A   1      44.191  29.182  32.194  1.00  0.00     0.031 A 
BRANCH  48  62
ATOM     62  C   UNL A   1      42.124  34.764  33.878  1.00  0.00    -0.014 A 
ATOM     63  C   UNL A   1      42.808  35.850  33.308  1.00  0.00     0.009 A 
ATOM     64  C   UNL A   1      41.655  34.879  35.196  1.00  0.00     0.009 A 
ATOM     65  C   UNL A   1      43.060  37.002  34.057  1.00  0.00     0.001 A 
ATOM     66  C   UNL A   1      41.878  36.046  35.931  1.00  0.00     0.001 A 
ATOM     67  C   UNL A   1      42.593  37.100  35.365  1.00  0.00     0.000 A 
ENDBRANCH  48  62
BRANCH  49  68
ATOM     68  C   UNL A   1      40.387  26.809  28.120  1.00  0.00    -0.014 A 
ATOM     69  C   UNL A   1      40.912  26.782  26.819  1.00  0.00     0.009 A 
ATOM     70  C   UNL A   1      39.649  25.706  28.577  1.00  0.00     0.009 A 
ATOM     71  C   UNL A   1      40.684  25.683  25.987  1.00  0.00     0.001 A 
ATOM     72  C   UNL A   1      39.449  24.597  27.754  1.00  0.00     0.001 A 
ATOM     73  C   UNL A   1      39.959  24.589  26.457  1.00  0.00     0.000 A 
ENDBRANCH  49  68
BRANCH  61  74
ATOM     74  C   UNL A   1      45.406  28.435  32.672  1.00  0.00    -0.014 A 
ATOM     75  C   UNL A   1      45.347  27.563  33.772  1.00  0.00     0.009 A 
ATOM     76  C   UNL A   1      46.627  28.595  31.999  1.00  0.00     0.009 A 
ATOM     77  C   UNL A   1      46.498  26.907  34.215  1.00  0.00     0.001 A 
ATOM     78  C   UNL A   1      47.767  27.911  32.423  1.00  0.00     0.001 A 
ATOM     79  C   UNL A   1      47.706  27.079  33.539  1.00  0.00     0.000 A 
ENDBRANCH  61  74
ENDBRANCH  35  36
ENDBRANCH  27  30
ENDBRANCH  25  26
ENDBRANCH  24  25
ENDBRANCH   1  24
TORSDOF 13
ENDMDL
