MODEL 1
REMARK VINA RESULT:     -11.6      0.000      0.000
REMARK SMILES C[C@@H]([C@H]1CC=CS1)n1nccc1NC(=O)CC1(CC(=O)NCCCCNC(=O)c2ccc(-c3c4nc(c(-c5ccccc5)c5ccc([nH]5)c(-c5ccccc5)c5nc(c(-c6ccccc6)c6ccc3[nH]6)C=C5)C=C4)cc2)CCCCC1
REMARK SMILES IDX 19 1 20 2 21 3 18 5 17 6 77 7 81 8 78 9 80 10 79 11 16 12
REMARK SMILES IDX 14 13 13 14 15 16 12 17 8 18 9 19 10 20 11 21 2 22 1 23 3 24
REMARK SMILES IDX 4 25 7 26 5 27 6 28 22 29 23 30 24 31 25 32 26 33 27 34
REMARK SMILES IDX 28 36 29 37 30 38 76 39 31 40 75 41 32 42 33 43 34 44 69 45
REMARK SMILES IDX 35 46 74 47 68 48 70 49 36 50 73 51 67 52 66 53 37 55 59 56
REMARK SMILES IDX 44 57 58 58 45 59 48 60 57 61 71 62 46 63 47 64 56 66 72 67
REMARK SMILES IDX 49 68 38 69 39 70 43 71 40 72 42 73 41 74 60 75 61 76 65 77
REMARK SMILES IDX 62 78 64 79 63 80 50 81 51 82 55 83 52 84 54 85 53 86
REMARK H PARENT 21 4 13 15 26 35 70 54 48 65
REMARK Flexibility Score: inf
ROOT
ATOM      1  C   UNL A   1      32.236  28.674  23.366  1.00  0.00     0.220 C 
ATOM      2  O   UNL A   1      33.135  28.658  22.522  1.00  0.00    -0.275 OA
ATOM      3  N   UNL A   1      32.228  29.704  24.250  1.00  0.00    -0.356 N 
ATOM      4  H   UNL A   1      32.974  30.337  24.144  1.00  0.00     0.163 HD
ENDROOT
BRANCH   1   5
ATOM      5  C   UNL A   1      31.177  27.578  23.362  1.00  0.00     0.107 C 
BRANCH   5   6
ATOM      6  C   UNL A   1      31.548  26.146  23.859  1.00  0.00    -0.012 C 
ATOM      7  C   UNL A   1      30.544  25.746  24.974  1.00  0.00     0.008 C 
ATOM      8  C   UNL A   1      32.934  26.067  24.553  1.00  0.00     0.008 C 
ATOM      9  C   UNL A   1      30.653  26.523  26.290  1.00  0.00     0.001 C 
ATOM     10  C   UNL A   1      33.079  26.909  25.817  1.00  0.00     0.001 C 
ATOM     11  C   UNL A   1      32.066  26.466  26.859  1.00  0.00     0.000 C 
BRANCH   6  12
ATOM     12  C   UNL A   1      31.602  25.107  22.683  1.00  0.00     0.108 C 
BRANCH  12  13
ATOM     13  C   UNL A   1      32.909  24.795  21.979  1.00  0.00     0.226 C 
ATOM     14  N   UNL A   1      33.635  23.574  22.174  1.00  0.00    -0.311 N 
ATOM     15  H   UNL A   1      34.449  23.453  21.634  1.00  0.00     0.171 HD
ATOM     16  O   UNL A   1      33.447  25.565  21.198  1.00  0.00    -0.275 OA
BRANCH  14  17
ATOM     17  C   UNL A   1      33.311  22.553  23.037  1.00  0.00     0.131 A 
ATOM     18  N   UNL A   1      33.949  22.226  24.220  1.00  0.00    -0.246 N 
ATOM     19  N   UNL A   1      33.564  21.002  24.662  1.00  0.00    -0.179 NA
ATOM     20  C   UNL A   1      32.516  20.689  23.901  1.00  0.00     0.137 A 
ATOM     21  C   UNL A   1      32.284  21.645  22.897  1.00  0.00     0.068 A 
BRANCH  18  22
ATOM     22  C   UNL A   1      34.789  23.067  25.075  1.00  0.00     0.120 C 
ATOM     23  C   UNL A   1      34.395  22.926  26.561  1.00  0.00     0.034 C 
BRANCH  22  24
ATOM     24  C   UNL A   1      36.328  22.936  24.966  1.00  0.00     0.079 C 
ATOM     25  C   UNL A   1      37.170  23.790  25.927  1.00  0.00     0.045 C 
ATOM     26  S   UNL A   1      37.042  21.246  25.050  1.00  0.00    -0.128 SA
ATOM     27  C   UNL A   1      38.483  23.090  26.121  1.00  0.00    -0.019 C 
ATOM     28  C   UNL A   1      38.526  21.814  25.729  1.00  0.00     0.037 C 
ENDBRANCH  22  24
ENDBRANCH  18  22
ENDBRANCH  14  17
ENDBRANCH  12  13
ENDBRANCH   6  12
ENDBRANCH   5   6
ENDBRANCH   1   5
BRANCH   3  29
ATOM     29  C   UNL A   1      31.311  30.033  25.324  1.00  0.00     0.116 C 
BRANCH  29  30
ATOM     30  C   UNL A   1      31.948  30.985  26.346  1.00  0.00     0.023 C 
BRANCH  30  31
ATOM     31  C   UNL A   1      33.031  30.412  27.259  1.00  0.00     0.023 C 
BRANCH  31  32
ATOM     32  C   UNL A   1      34.304  31.239  27.335  1.00  0.00     0.116 C 
BRANCH  32  33
ATOM     33  N   UNL A   1      34.404  32.063  28.541  1.00  0.00    -0.352 N 
ATOM     34  C   UNL A   1      35.270  31.866  29.611  1.00  0.00     0.251 C 
ATOM     35  H   UNL A   1      33.795  32.834  28.601  1.00  0.00     0.163 HD
ATOM     36  O   UNL A   1      35.069  32.329  30.707  1.00  0.00    -0.269 OA
BRANCH  34  37
ATOM     37  C   UNL A   1      36.480  31.077  29.323  1.00  0.00     0.039 A 
ATOM     38  C   UNL A   1      37.747  31.661  29.312  1.00  0.00     0.014 A 
ATOM     39  C   UNL A   1      36.307  29.698  29.269  1.00  0.00     0.014 A 
ATOM     40  C   UNL A   1      38.860  30.824  29.352  1.00  0.00     0.010 A 
ATOM     41  C   UNL A   1      37.399  28.890  29.467  1.00  0.00     0.010 A 
ATOM     42  C   UNL A   1      38.682  29.434  29.471  1.00  0.00    -0.014 A 
BRANCH  42  43
ATOM     43  C   UNL A   1      39.827  28.552  29.697  1.00  0.00     0.031 A 
ATOM     44  C   UNL A   1      40.297  28.422  31.108  1.00  0.00     0.074 A 
ATOM     45  C   UNL A   1      40.344  27.750  28.740  1.00  0.00     0.049 A 
ATOM     46  N   UNL A   1      41.417  28.836  31.601  1.00  0.00    -0.248 NA
ATOM     47  C   UNL A   1      39.389  27.841  32.111  1.00  0.00     0.031 C 
ATOM     48  C   UNL A   1      39.860  27.501  27.375  1.00  0.00     0.029 A 
ATOM     49  N   UNL A   1      41.392  26.890  28.841  1.00  0.00    -0.354 N 
ATOM     50  C   UNL A   1      41.442  28.433  32.934  1.00  0.00     0.074 A 
ATOM     51  C   UNL A   1      40.119  27.935  33.226  1.00  0.00     0.031 C 
ATOM     52  C   UNL A   1      40.447  26.389  26.879  1.00  0.00     0.029 A 
ATOM     53  C   UNL A   1      41.493  25.985  27.795  1.00  0.00     0.049 A 
ATOM     54  H   UNL A   1      42.026  26.908  29.594  1.00  0.00     0.167 HD
ATOM     55  C   UNL A   1      42.605  28.366  33.642  1.00  0.00     0.031 A 
ATOM     56  C   UNL A   1      42.383  24.974  27.679  1.00  0.00     0.031 A 
ATOM     57  C   UNL A   1      43.679  29.045  32.965  1.00  0.00     0.049 A 
ATOM     58  C   UNL A   1      43.530  25.301  28.555  1.00  0.00     0.074 A 
ATOM     59  C   UNL A   1      43.918  30.347  32.574  1.00  0.00     0.029 A 
ATOM     60  N   UNL A   1      44.551  28.268  32.240  1.00  0.00    -0.354 N 
ATOM     61  N   UNL A   1      44.324  26.310  28.339  1.00  0.00    -0.248 NA
ATOM     62  C   UNL A   1      43.529  24.782  29.911  1.00  0.00     0.031 C 
ATOM     63  C   UNL A   1      44.542  30.230  31.296  1.00  0.00     0.029 A 
ATOM     64  C   UNL A   1      44.709  28.871  31.020  1.00  0.00     0.049 A 
ATOM     65  H   UNL A   1      44.981  27.435  32.542  1.00  0.00     0.167 HD
ATOM     66  C   UNL A   1      44.588  26.827  29.599  1.00  0.00     0.074 A 
ATOM     67  C   UNL A   1      44.158  25.786  30.530  1.00  0.00     0.031 C 
ATOM     68  C   UNL A   1      44.869  28.153  29.775  1.00  0.00     0.031 A 
BRANCH  55  69
ATOM     69  C   UNL A   1      42.885  27.381  34.750  1.00  0.00    -0.014 A 
ATOM     70  C   UNL A   1      42.942  26.009  34.439  1.00  0.00     0.009 A 
ATOM     71  C   UNL A   1      42.808  27.717  36.114  1.00  0.00     0.009 A 
ATOM     72  C   UNL A   1      42.838  25.027  35.433  1.00  0.00     0.001 A 
ATOM     73  C   UNL A   1      42.744  26.739  37.112  1.00  0.00     0.001 A 
ATOM     74  C   UNL A   1      42.727  25.393  36.769  1.00  0.00     0.000 A 
ENDBRANCH  55  69
BRANCH  56  75
ATOM     75  C   UNL A   1      42.185  23.644  27.074  1.00  0.00    -0.014 A 
ATOM     76  C   UNL A   1      42.712  23.341  25.811  1.00  0.00     0.009 A 
ATOM     77  C   UNL A   1      41.716  22.579  27.866  1.00  0.00     0.009 A 
ATOM     78  C   UNL A   1      42.809  22.013  25.375  1.00  0.00     0.001 A 
ATOM     79  C   UNL A   1      41.813  21.253  27.431  1.00  0.00     0.001 A 
ATOM     80  C   UNL A   1      42.376  20.970  26.192  1.00  0.00     0.000 A 
ENDBRANCH  56  75
BRANCH  68  81
ATOM     81  C   UNL A   1      45.105  29.001  28.549  1.00  0.00    -0.014 A 
ATOM     82  C   UNL A   1      44.080  29.710  27.896  1.00  0.00     0.009 A 
ATOM     83  C   UNL A   1      46.431  29.240  28.158  1.00  0.00     0.009 A 
ATOM     84  C   UNL A   1      44.376  30.615  26.872  1.00  0.00     0.001 A 
ATOM     85  C   UNL A   1      46.727  30.158  27.150  1.00  0.00     0.001 A 
ATOM     86  C   UNL A   1      45.700  30.845  26.505  1.00  0.00     0.000 A 
ENDBRANCH  68  81
ENDBRANCH  42  43
ENDBRANCH  34  37
ENDBRANCH  32  33
ENDBRANCH  31  32
ENDBRANCH  30  31
ENDBRANCH  29  30
ENDBRANCH   3  29
TORSDOF 17
ENDMDL
MODEL 2
REMARK VINA RESULT:     -11.6      2.696      8.125
REMARK SMILES C[C@@H]([C@H]1CC=CS1)n1nccc1NC(=O)CC1(CC(=O)NCCCCNC(=O)c2ccc(-c3c4nc(c(-c5ccccc5)c5ccc([nH]5)c(-c5ccccc5)c5nc(c(-c6ccccc6)c6ccc3[nH]6)C=C5)C=C4)cc2)CCCCC1
REMARK SMILES IDX 19 1 20 2 21 3 18 5 17 6 77 7 81 8 78 9 80 10 79 11 16 12
REMARK SMILES IDX 14 13 13 14 15 16 12 17 8 18 9 19 10 20 11 21 2 22 1 23 3 24
REMARK SMILES IDX 4 25 7 26 5 27 6 28 22 29 23 30 24 31 25 32 26 33 27 34
REMARK SMILES IDX 28 36 29 37 30 38 76 39 31 40 75 41 32 42 33 43 34 44 69 45
REMARK SMILES IDX 35 46 74 47 68 48 70 49 36 50 73 51 67 52 66 53 37 55 59 56
REMARK SMILES IDX 44 57 58 58 45 59 48 60 57 61 71 62 46 63 47 64 56 66 72 67
REMARK SMILES IDX 49 68 38 69 39 70 43 71 40 72 42 73 41 74 60 75 61 76 65 77
REMARK SMILES IDX 62 78 64 79 63 80 50 81 51 82 55 83 52 84 54 85 53 86
REMARK H PARENT 21 4 13 15 26 35 70 54 48 65
REMARK Flexibility Score: inf
ROOT
ATOM      1  C   UNL A   1      36.506  23.112  23.947  1.00  0.00     0.220 C 
ATOM      2  O   UNL A   1      36.420  22.974  22.724  1.00  0.00    -0.275 OA
ATOM      3  N   UNL A   1      37.550  22.509  24.571  1.00  0.00    -0.356 N 
ATOM      4  H   UNL A   1      38.133  21.987  23.975  1.00  0.00     0.163 HD
ENDROOT
BRANCH   1   5
ATOM      5  C   UNL A   1      35.479  23.962  24.685  1.00  0.00     0.107 C 
BRANCH   5   6
ATOM      6  C   UNL A   1      33.998  23.475  24.776  1.00  0.00    -0.012 C 
ATOM      7  C   UNL A   1      33.480  23.769  26.210  1.00  0.00     0.008 C 
ATOM      8  C   UNL A   1      33.838  21.939  24.624  1.00  0.00     0.008 C 
ATOM      9  C   UNL A   1      34.105  22.939  27.337  1.00  0.00     0.001 C 
ATOM     10  C   UNL A   1      34.533  21.101  25.694  1.00  0.00     0.001 C 
ATOM     11  C   UNL A   1      33.980  21.444  27.066  1.00  0.00     0.000 C 
BRANCH   6  12
ATOM     12  C   UNL A   1      33.097  24.108  23.658  1.00  0.00     0.108 C 
BRANCH  12  13
ATOM     13  C   UNL A   1      33.568  25.313  22.866  1.00  0.00     0.226 C 
ATOM     14  N   UNL A   1      33.495  26.657  23.363  1.00  0.00    -0.311 N 
ATOM     15  H   UNL A   1      33.870  27.361  22.785  1.00  0.00     0.171 HD
ATOM     16  O   UNL A   1      34.037  25.231  21.742  1.00  0.00    -0.275 OA
BRANCH  14  17
ATOM     17  C   UNL A   1      32.958  27.064  24.562  1.00  0.00     0.131 A 
ATOM     18  N   UNL A   1      31.619  27.247  24.856  1.00  0.00    -0.246 N 
ATOM     19  N   UNL A   1      31.463  27.928  26.020  1.00  0.00    -0.179 NA
ATOM     20  C   UNL A   1      32.680  27.941  26.563  1.00  0.00     0.137 A 
ATOM     21  C   UNL A   1      33.646  27.373  25.714  1.00  0.00     0.068 A 
BRANCH  18  22
ATOM     22  C   UNL A   1      30.445  26.672  24.197  1.00  0.00     0.120 C 
ATOM     23  C   UNL A   1      29.529  25.952  25.211  1.00  0.00     0.034 C 
BRANCH  22  24
ATOM     24  C   UNL A   1      29.564  27.589  23.314  1.00  0.00     0.079 C 
ATOM     25  C   UNL A   1      28.044  27.513  23.528  1.00  0.00     0.045 C 
ATOM     26  S   UNL A   1      29.971  29.380  23.282  1.00  0.00    -0.128 SA
ATOM     27  C   UNL A   1      27.463  28.832  23.110  1.00  0.00    -0.019 C 
ATOM     28  C   UNL A   1      28.334  29.834  22.969  1.00  0.00     0.037 C 
ENDBRANCH  22  24
ENDBRANCH  18  22
ENDBRANCH  14  17
ENDBRANCH  12  13
ENDBRANCH   6  12
ENDBRANCH   5   6
ENDBRANCH   1   5
BRANCH   3  29
ATOM     29  C   UNL A   1      37.954  22.500  25.963  1.00  0.00     0.116 C 
BRANCH  29  30
ATOM     30  C   UNL A   1      39.461  22.259  26.118  1.00  0.00     0.023 C 
BRANCH  30  31
ATOM     31  C   UNL A   1      39.944  20.810  26.113  1.00  0.00     0.023 C 
BRANCH  31  32
ATOM     32  C   UNL A   1      41.164  20.541  26.979  1.00  0.00     0.116 C 
BRANCH  32  33
ATOM     33  N   UNL A   1      42.248  19.851  26.278  1.00  0.00    -0.352 N 
ATOM     34  C   UNL A   1      43.244  20.440  25.507  1.00  0.00     0.251 C 
ATOM     35  H   UNL A   1      42.275  18.870  26.362  1.00  0.00     0.163 HD
ATOM     36  O   UNL A   1      43.871  19.830  24.675  1.00  0.00    -0.269 OA
BRANCH  34  37
ATOM     37  C   UNL A   1      43.519  21.860  25.784  1.00  0.00     0.039 A 
ATOM     38  C   UNL A   1      43.005  22.874  24.975  1.00  0.00     0.014 A 
ATOM     39  C   UNL A   1      44.138  22.133  26.999  1.00  0.00     0.014 A 
ATOM     40  C   UNL A   1      43.028  24.180  25.460  1.00  0.00     0.010 A 
ATOM     41  C   UNL A   1      44.015  23.392  27.532  1.00  0.00     0.010 A 
ATOM     42  C   UNL A   1      43.499  24.432  26.761  1.00  0.00    -0.014 A 
BRANCH  42  43
ATOM     43  C   UNL A   1      43.367  25.761  27.358  1.00  0.00     0.031 A 
ATOM     44  C   UNL A   1      44.420  26.757  27.001  1.00  0.00     0.074 A 
ATOM     45  C   UNL A   1      42.278  26.154  28.054  1.00  0.00     0.049 A 
ATOM     46  N   UNL A   1      45.311  27.268  27.785  1.00  0.00    -0.248 NA
ATOM     47  C   UNL A   1      44.558  27.176  25.596  1.00  0.00     0.031 C 
ATOM     48  C   UNL A   1      41.010  25.445  28.276  1.00  0.00     0.029 A 
ATOM     49  N   UNL A   1      42.046  27.359  28.640  1.00  0.00    -0.354 N 
ATOM     50  C   UNL A   1      46.026  28.195  27.028  1.00  0.00     0.074 A 
ATOM     51  C   UNL A   1      45.602  28.007  25.662  1.00  0.00     0.031 C 
ATOM     52  C   UNL A   1      40.073  26.313  28.717  1.00  0.00     0.029 A 
ATOM     53  C   UNL A   1      40.726  27.571  29.012  1.00  0.00     0.049 A 
ATOM     54  H   UNL A   1      42.755  28.025  28.788  1.00  0.00     0.167 HD
ATOM     55  C   UNL A   1      46.773  29.173  27.613  1.00  0.00     0.031 A 
ATOM     56  C   UNL A   1      40.202  28.700  29.538  1.00  0.00     0.031 A 
ATOM     57  C   UNL A   1      46.975  28.922  29.016  1.00  0.00     0.049 A 
ATOM     58  C   UNL A   1      41.321  29.467  30.127  1.00  0.00     0.074 A 
ATOM     59  C   UNL A   1      47.587  27.928  29.752  1.00  0.00     0.029 A 
ATOM     60  N   UNL A   1      46.155  29.590  29.894  1.00  0.00    -0.354 N 
ATOM     61  N   UNL A   1      42.005  29.051  31.155  1.00  0.00    -0.248 NA
ATOM     62  C   UNL A   1      41.972  30.474  29.308  1.00  0.00     0.031 C 
ATOM     63  C   UNL A   1      46.732  27.735  30.877  1.00  0.00     0.029 A 
ATOM     64  C   UNL A   1      45.695  28.667  30.796  1.00  0.00     0.049 A 
ATOM     65  H   UNL A   1      45.939  30.551  29.877  1.00  0.00     0.167 HD
ATOM     66  C   UNL A   1      43.316  29.406  30.874  1.00  0.00     0.074 A 
ATOM     67  C   UNL A   1      43.218  30.368  29.778  1.00  0.00     0.031 C 
ATOM     68  C   UNL A   1      44.365  28.681  31.365  1.00  0.00     0.031 A 
BRANCH  55  69
ATOM     69  C   UNL A   1      47.010  30.544  27.027  1.00  0.00    -0.014 A 
ATOM     70  C   UNL A   1      48.305  31.094  27.092  1.00  0.00     0.009 A 
ATOM     71  C   UNL A   1      45.968  31.422  26.682  1.00  0.00     0.009 A 
ATOM     72  C   UNL A   1      48.529  32.464  26.907  1.00  0.00     0.001 A 
ATOM     73  C   UNL A   1      46.194  32.785  26.458  1.00  0.00     0.001 A 
ATOM     74  C   UNL A   1      47.471  33.312  26.602  1.00  0.00     0.000 A 
ENDBRANCH  55  69
BRANCH  56  75
ATOM     75  C   UNL A   1      38.858  29.270  29.329  1.00  0.00    -0.014 A 
ATOM     76  C   UNL A   1      38.404  29.592  28.042  1.00  0.00     0.009 A 
ATOM     77  C   UNL A   1      37.914  29.235  30.372  1.00  0.00     0.009 A 
ATOM     78  C   UNL A   1      37.043  29.824  27.800  1.00  0.00     0.001 A 
ATOM     79  C   UNL A   1      36.555  29.467  30.130  1.00  0.00     0.001 A 
ATOM     80  C   UNL A   1      36.119  29.744  28.840  1.00  0.00     0.000 A 
ENDBRANCH  56  75
BRANCH  68  81
ATOM     81  C   UNL A   1      44.078  27.620  32.399  1.00  0.00    -0.014 A 
ATOM     82  C   UNL A   1      44.066  26.245  32.105  1.00  0.00     0.009 A 
ATOM     83  C   UNL A   1      44.005  28.012  33.744  1.00  0.00     0.009 A 
ATOM     84  C   UNL A   1      43.966  25.294  33.126  1.00  0.00     0.001 A 
ATOM     85  C   UNL A   1      43.925  27.063  34.765  1.00  0.00     0.001 A 
ATOM     86  C   UNL A   1      43.904  25.705  34.457  1.00  0.00     0.000 A 
ENDBRANCH  68  81
ENDBRANCH  42  43
ENDBRANCH  34  37
ENDBRANCH  32  33
ENDBRANCH  31  32
ENDBRANCH  30  31
ENDBRANCH  29  30
ENDBRANCH   3  29
TORSDOF 17
ENDMDL
MODEL 3
REMARK VINA RESULT:     -11.3      2.656      7.835
REMARK SMILES C[C@@H]([C@H]1CC=CS1)n1nccc1NC(=O)CC1(CC(=O)NCCCCNC(=O)c2ccc(-c3c4nc(c(-c5ccccc5)c5ccc([nH]5)c(-c5ccccc5)c5nc(c(-c6ccccc6)c6ccc3[nH]6)C=C5)C=C4)cc2)CCCCC1
REMARK SMILES IDX 19 1 20 2 21 3 18 5 17 6 77 7 81 8 78 9 80 10 79 11 16 12
REMARK SMILES IDX 14 13 13 14 15 16 12 17 8 18 9 19 10 20 11 21 2 22 1 23 3 24
REMARK SMILES IDX 4 25 7 26 5 27 6 28 22 29 23 30 24 31 25 32 26 33 27 34
REMARK SMILES IDX 28 36 29 37 30 38 76 39 31 40 75 41 32 42 33 43 34 44 69 45
REMARK SMILES IDX 35 46 74 47 68 48 70 49 36 50 73 51 67 52 66 53 37 55 59 56
REMARK SMILES IDX 44 57 58 58 45 59 48 60 57 61 71 62 46 63 47 64 56 66 72 67
REMARK SMILES IDX 49 68 38 69 39 70 43 71 40 72 42 73 41 74 60 75 61 76 65 77
REMARK SMILES IDX 62 78 64 79 63 80 50 81 51 82 55 83 52 84 54 85 53 86
REMARK H PARENT 21 4 13 15 26 35 70 54 48 65
REMARK Flexibility Score: inf
ROOT
ATOM      1  C   UNL A   1      36.262  23.409  23.621  1.00  0.00     0.220 C 
ATOM      2  O   UNL A   1      36.265  22.985  22.463  1.00  0.00    -0.275 OA
ATOM      3  N   UNL A   1      37.425  23.328  24.318  1.00  0.00    -0.356 N 
ATOM      4  H   UNL A   1      38.165  22.905  23.826  1.00  0.00     0.163 HD
ENDROOT
BRANCH   1   5
ATOM      5  C   UNL A   1      34.992  24.021  24.199  1.00  0.00     0.107 C 
BRANCH   5   6
ATOM      6  C   UNL A   1      33.727  23.128  24.397  1.00  0.00    -0.012 C 
ATOM      7  C   UNL A   1      33.080  23.501  25.758  1.00  0.00     0.008 C 
ATOM      8  C   UNL A   1      34.048  21.616  24.533  1.00  0.00     0.008 C 
ATOM      9  C   UNL A   1      33.876  23.120  27.010  1.00  0.00     0.001 C 
ATOM     10  C   UNL A   1      34.915  21.238  25.731  1.00  0.00     0.001 C 
ATOM     11  C   UNL A   1      34.223  21.635  27.023  1.00  0.00     0.000 C 
BRANCH   6  12
ATOM     12  C   UNL A   1      32.728  23.242  23.192  1.00  0.00     0.108 C 
BRANCH  12  13
ATOM     13  C   UNL A   1      32.682  24.492  22.333  1.00  0.00     0.226 C 
ATOM     14  N   UNL A   1      31.968  25.678  22.709  1.00  0.00    -0.311 N 
ATOM     15  H   UNL A   1      32.040  26.448  22.099  1.00  0.00     0.171 HD
ATOM     16  O   UNL A   1      33.242  24.579  21.251  1.00  0.00    -0.275 OA
BRANCH  14  17
ATOM     17  C   UNL A   1      31.195  25.852  23.833  1.00  0.00     0.131 A 
ATOM     18  N   UNL A   1      31.385  26.779  24.841  1.00  0.00    -0.246 N 
ATOM     19  N   UNL A   1      30.627  26.485  25.927  1.00  0.00    -0.179 NA
ATOM     20  C   UNL A   1      29.792  25.537  25.502  1.00  0.00     0.137 A 
ATOM     21  C   UNL A   1      30.073  25.135  24.184  1.00  0.00     0.068 A 
BRANCH  18  22
ATOM     22  C   UNL A   1      32.117  28.047  24.798  1.00  0.00     0.120 C 
ATOM     23  C   UNL A   1      31.306  29.139  24.067  1.00  0.00     0.034 C 
BRANCH  22  24
ATOM     24  C   UNL A   1      32.648  28.644  26.125  1.00  0.00     0.079 C 
ATOM     25  C   UNL A   1      34.136  28.427  26.441  1.00  0.00     0.045 C 
ATOM     26  S   UNL A   1      32.329  30.424  26.441  1.00  0.00    -0.128 SA
ATOM     27  C   UNL A   1      34.575  29.547  27.338  1.00  0.00    -0.019 C 
ATOM     28  C   UNL A   1      33.754  30.597  27.402  1.00  0.00     0.037 C 
ENDBRANCH  22  24
ENDBRANCH  18  22
ENDBRANCH  14  17
ENDBRANCH  12  13
ENDBRANCH   6  12
ENDBRANCH   5   6
ENDBRANCH   1   5
BRANCH   3  29
ATOM     29  C   UNL A   1      37.765  23.757  25.660  1.00  0.00     0.116 C 
BRANCH  29  30
ATOM     30  C   UNL A   1      38.228  22.583  26.534  1.00  0.00     0.023 C 
BRANCH  30  31
ATOM     31  C   UNL A   1      39.257  21.626  25.935  1.00  0.00     0.023 C 
BRANCH  31  32
ATOM     32  C   UNL A   1      40.526  21.459  26.755  1.00  0.00     0.116 C 
BRANCH  32  33
ATOM     33  N   UNL A   1      41.751  21.786  26.023  1.00  0.00    -0.352 N 
ATOM     34  C   UNL A   1      42.270  23.057  25.802  1.00  0.00     0.251 C 
ATOM     35  H   UNL A   1      42.258  21.029  25.650  1.00  0.00     0.163 HD
ATOM     36  O   UNL A   1      43.049  23.297  24.911  1.00  0.00    -0.269 OA
BRANCH  34  37
ATOM     37  C   UNL A   1      41.839  24.103  26.745  1.00  0.00     0.039 A 
ATOM     38  C   UNL A   1      42.430  24.241  28.001  1.00  0.00     0.014 A 
ATOM     39  C   UNL A   1      40.966  25.058  26.234  1.00  0.00     0.014 A 
ATOM     40  C   UNL A   1      42.210  25.423  28.706  1.00  0.00     0.010 A 
ATOM     41  C   UNL A   1      40.883  26.275  26.862  1.00  0.00     0.010 A 
ATOM     42  C   UNL A   1      41.466  26.459  28.115  1.00  0.00    -0.014 A 
BRANCH  42  43
ATOM     43  C   UNL A   1      41.373  27.771  28.755  1.00  0.00     0.031 A 
ATOM     44  C   UNL A   1      42.373  28.793  28.323  1.00  0.00     0.074 A 
ATOM     45  C   UNL A   1      40.351  28.130  29.563  1.00  0.00     0.049 A 
ATOM     46  N   UNL A   1      43.328  29.299  29.030  1.00  0.00    -0.248 NA
ATOM     47  C   UNL A   1      42.367  29.247  26.923  1.00  0.00     0.031 C 
ATOM     48  C   UNL A   1      39.122  27.394  29.889  1.00  0.00     0.029 A 
ATOM     49  N   UNL A   1      40.161  29.316  30.199  1.00  0.00    -0.354 N 
ATOM     50  C   UNL A   1      43.953  30.255  28.231  1.00  0.00     0.074 A 
ATOM     51  C   UNL A   1      43.401  30.094  26.908  1.00  0.00     0.031 C 
ATOM     52  C   UNL A   1      38.219  28.236  30.440  1.00  0.00     0.029 A 
ATOM     53  C   UNL A   1      38.880  29.497  30.702  1.00  0.00     0.049 A 
ATOM     54  H   UNL A   1      40.871  29.990  30.295  1.00  0.00     0.167 HD
ATOM     55  C   UNL A   1      44.740  31.232  28.765  1.00  0.00     0.031 A 
ATOM     56  C   UNL A   1      38.393  30.605  31.304  1.00  0.00     0.031 A 
ATOM     57  C   UNL A   1      45.080  30.951  30.135  1.00  0.00     0.049 A 
ATOM     58  C   UNL A   1      39.554  31.376  31.802  1.00  0.00     0.074 A 
ATOM     59  C   UNL A   1      45.775  29.950  30.783  1.00  0.00     0.029 A 
ATOM     60  N   UNL A   1      44.340  31.584  31.105  1.00  0.00    -0.354 N 
ATOM     61  N   UNL A   1      40.340  30.947  32.748  1.00  0.00    -0.248 NA
ATOM     62  C   UNL A   1      40.108  32.412  30.949  1.00  0.00     0.031 C 
ATOM     63  C   UNL A   1      45.036  29.716  31.981  1.00  0.00     0.029 A 
ATOM     64  C   UNL A   1      43.983  30.633  32.024  1.00  0.00     0.049 A 
ATOM     65  H   UNL A   1      44.109  32.541  31.134  1.00  0.00     0.167 HD
ATOM     66  C   UNL A   1      41.612  31.330  32.351  1.00  0.00     0.074 A 
ATOM     67  C   UNL A   1      41.395  32.316  31.294  1.00  0.00     0.031 C 
ATOM     68  C   UNL A   1      42.715  30.611  32.719  1.00  0.00     0.031 A 
BRANCH  55  69
ATOM     69  C   UNL A   1      44.899  32.620  28.194  1.00  0.00    -0.014 A 
ATOM     70  C   UNL A   1      43.833  33.532  28.322  1.00  0.00     0.009 A 
ATOM     71  C   UNL A   1      45.923  32.968  27.296  1.00  0.00     0.009 A 
ATOM     72  C   UNL A   1      43.756  34.684  27.530  1.00  0.00     0.001 A 
ATOM     73  C   UNL A   1      45.868  34.138  26.531  1.00  0.00     0.001 A 
ATOM     74  C   UNL A   1      44.769  34.981  26.625  1.00  0.00     0.000 A 
ENDBRANCH  55  69
BRANCH  56  75
ATOM     75  C   UNL A   1      37.028  31.157  31.241  1.00  0.00    -0.014 A 
ATOM     76  C   UNL A   1      36.332  31.492  32.411  1.00  0.00     0.009 A 
ATOM     77  C   UNL A   1      36.516  31.617  30.013  1.00  0.00     0.009 A 
ATOM     78  C   UNL A   1      35.189  32.301  32.356  1.00  0.00     0.001 A 
ATOM     79  C   UNL A   1      35.375  32.426  29.960  1.00  0.00     0.001 A 
ATOM     80  C   UNL A   1      34.722  32.781  31.134  1.00  0.00     0.000 A 
ENDBRANCH  56  75
BRANCH  68  81
ATOM     81  C   UNL A   1      42.544  29.521  33.749  1.00  0.00    -0.014 A 
ATOM     82  C   UNL A   1      42.244  28.189  33.415  1.00  0.00     0.009 A 
ATOM     83  C   UNL A   1      42.883  29.811  35.079  1.00  0.00     0.009 A 
ATOM     84  C   UNL A   1      42.266  27.183  34.386  1.00  0.00     0.001 A 
ATOM     85  C   UNL A   1      42.924  28.805  36.045  1.00  0.00     0.001 A 
ATOM     86  C   UNL A   1      42.614  27.491  35.700  1.00  0.00     0.000 A 
ENDBRANCH  68  81
ENDBRANCH  42  43
ENDBRANCH  34  37
ENDBRANCH  32  33
ENDBRANCH  31  32
ENDBRANCH  30  31
ENDBRANCH  29  30
ENDBRANCH   3  29
TORSDOF 17
ENDMDL
