MODEL 1
REMARK VINA RESULT:     -13.9      0.000      0.000
REMARK SMILES Cc1cccc(N2C(=O)/C(=C/c3ccc(C(=O)NCCCCNC(=O)c4ccc(-c5c6nc(c(-c7ccccc7)c7ccc([nH]7)c(-c7ccccc7)c7nc(c(-c8ccccc8)c8ccc5[nH]8)C=C7)C=C6)cc4)cc3)c3ccccc3C2=O)c1
REMARK SMILES IDX 20 1 19 2 18 3 16 4 17 5 15 7 12 8 13 9 75 10 14 11 74 12
REMARK SMILES IDX 11 13 7 14 8 15 82 16 9 17 10 18 81 19 83 20 76 21 80 22
REMARK SMILES IDX 77 23 79 24 78 25 6 26 1 27 2 28 3 29 84 30 4 31 5 32 21 33
REMARK SMILES IDX 22 34 23 35 24 36 25 38 26 39 27 40 73 41 28 42 72 43 29 44
REMARK SMILES IDX 30 45 31 46 66 47 32 48 71 49 65 50 67 51 33 52 70 53 64 54
REMARK SMILES IDX 63 55 34 57 56 58 41 59 55 60 42 61 45 62 54 63 68 64 43 65
REMARK SMILES IDX 44 66 53 68 69 69 46 70 35 71 36 72 40 73 37 74 39 75 38 76
REMARK SMILES IDX 57 77 58 78 62 79 59 80 61 81 60 82 47 83 48 84 52 85 49 86
REMARK SMILES IDX 51 87 50 88
REMARK H PARENT 18 6 23 37 67 56 45 67
REMARK Flexibility Score: inf
ROOT
ATOM      1  C   UNL A   1      40.451  22.172  27.348  1.00  0.00     0.023 C 
ENDROOT
BRANCH   1   2
ATOM      2  C   UNL A   1      39.527  22.392  26.145  1.00  0.00     0.116 C 
BRANCH   2   3
ATOM      3  N   UNL A   1      38.769  21.209  25.757  1.00  0.00    -0.352 N 
ATOM      4  C   UNL A   1      37.535  21.082  25.162  1.00  0.00     0.251 C 
ATOM      5  O   UNL A   1      37.045  19.966  25.009  1.00  0.00    -0.269 OA
ATOM      6  H   UNL A   1      39.217  20.355  25.955  1.00  0.00     0.163 HD
BRANCH   4   7
ATOM      7  C   UNL A   1      36.764  22.276  24.762  1.00  0.00     0.039 A 
ATOM      8  C   UNL A   1      35.038  24.316  23.957  1.00  0.00    -0.025 A 
ATOM      9  C   UNL A   1      35.640  23.493  23.000  1.00  0.00     0.009 A 
ATOM     10  C   UNL A   1      35.423  24.210  25.301  1.00  0.00     0.009 A 
ATOM     11  C   UNL A   1      36.505  22.472  23.402  1.00  0.00     0.014 A 
ATOM     12  C   UNL A   1      36.291  23.194  25.702  1.00  0.00     0.014 A 
BRANCH   8  13
ATOM     13  C   UNL A   1      33.976  25.238  23.536  1.00  0.00     0.022 C 
ATOM     14  N   UNL A   1      30.704  26.604  24.170  1.00  0.00    -0.242 N 
ATOM     15  C   UNL A   1      31.810  26.295  23.350  1.00  0.00     0.265 C 
ATOM     16  C   UNL A   1      30.459  25.893  25.364  1.00  0.00     0.265 C 
ATOM     17  O   UNL A   1      32.184  26.915  22.355  1.00  0.00    -0.268 OA
ATOM     18  C   UNL A   1      32.656  25.140  23.819  1.00  0.00     0.049 C 
ATOM     19  C   UNL A   1      30.963  24.501  25.440  1.00  0.00     0.048 A 
ATOM     20  O   UNL A   1      29.846  26.281  26.356  1.00  0.00    -0.268 OA
ATOM     21  C   UNL A   1      32.007  24.096  24.616  1.00  0.00    -0.000 A 
ATOM     22  C   UNL A   1      30.359  23.593  26.324  1.00  0.00     0.014 A 
ATOM     23  C   UNL A   1      32.363  22.738  24.603  1.00  0.00     0.010 A 
ATOM     24  C   UNL A   1      30.766  22.261  26.352  1.00  0.00     0.001 A 
ATOM     25  C   UNL A   1      31.757  21.829  25.475  1.00  0.00     0.001 A 
BRANCH  14  26
ATOM     26  C   UNL A   1      29.866  27.755  23.825  1.00  0.00     0.053 A 
ATOM     27  C   UNL A   1      29.934  31.585  24.162  1.00  0.00     0.044 C 
ATOM     28  C   UNL A   1      29.480  30.199  23.806  1.00  0.00    -0.049 A 
ATOM     29  C   UNL A   1      28.266  30.017  23.148  1.00  0.00     0.003 A 
ATOM     30  C   UNL A   1      30.272  29.076  24.116  1.00  0.00     0.030 A 
ATOM     31  C   UNL A   1      27.848  28.734  22.823  1.00  0.00     0.002 A 
ATOM     32  C   UNL A   1      28.636  27.624  23.161  1.00  0.00     0.027 A 
ENDBRANCH  14  26
ENDBRANCH   8  13
ENDBRANCH   4   7
ENDBRANCH   2   3
ENDBRANCH   1   2
BRANCH   1  33
ATOM     33  C   UNL A   1      40.929  20.738  27.576  1.00  0.00     0.023 C 
BRANCH  33  34
ATOM     34  C   UNL A   1      42.442  20.549  27.588  1.00  0.00     0.116 C 
BRANCH  34  35
ATOM     35  N   UNL A   1      43.000  19.941  26.388  1.00  0.00    -0.352 N 
ATOM     36  C   UNL A   1      43.690  20.533  25.332  1.00  0.00     0.251 C 
ATOM     37  H   UNL A   1      42.869  18.969  26.312  1.00  0.00     0.163 HD
ATOM     38  O   UNL A   1      44.045  19.866  24.387  1.00  0.00    -0.269 OA
BRANCH  36  39
ATOM     39  C   UNL A   1      44.112  21.958  25.442  1.00  0.00     0.039 A 
ATOM     40  C   UNL A   1      45.156  22.258  26.325  1.00  0.00     0.014 A 
ATOM     41  C   UNL A   1      43.373  22.987  24.868  1.00  0.00     0.014 A 
ATOM     42  C   UNL A   1      45.264  23.547  26.842  1.00  0.00     0.010 A 
ATOM     43  C   UNL A   1      43.407  24.237  25.451  1.00  0.00     0.010 A 
ATOM     44  C   UNL A   1      44.298  24.489  26.497  1.00  0.00    -0.014 A 
BRANCH  44  45
ATOM     45  C   UNL A   1      44.033  25.683  27.290  1.00  0.00     0.031 A 
ATOM     46  C   UNL A   1      42.715  26.342  27.261  1.00  0.00     0.074 A 
ATOM     47  C   UNL A   1      44.998  26.150  28.112  1.00  0.00     0.049 A 
ATOM     48  N   UNL A   1      42.515  27.575  27.585  1.00  0.00    -0.248 NA
ATOM     49  C   UNL A   1      41.513  25.669  26.781  1.00  0.00     0.031 C 
ATOM     50  C   UNL A   1      44.867  27.126  29.189  1.00  0.00     0.029 A 
ATOM     51  N   UNL A   1      46.369  25.976  27.979  1.00  0.00    -0.354 N 
ATOM     52  C   UNL A   1      41.155  27.766  27.658  1.00  0.00     0.074 A 
ATOM     53  C   UNL A   1      40.586  26.599  27.025  1.00  0.00     0.031 C 
ATOM     54  C   UNL A   1      46.080  27.633  29.466  1.00  0.00     0.029 A 
ATOM     55  C   UNL A   1      47.006  27.122  28.468  1.00  0.00     0.049 A 
ATOM     56  H   UNL A   1      46.816  25.183  27.605  1.00  0.00     0.167 HD
ATOM     57  C   UNL A   1      40.668  28.811  28.384  1.00  0.00     0.031 A 
ATOM     58  C   UNL A   1      47.763  27.905  27.642  1.00  0.00     0.031 A 
ATOM     59  C   UNL A   1      41.740  29.709  28.825  1.00  0.00     0.049 A 
ATOM     60  C   UNL A   1      47.223  29.310  27.469  1.00  0.00     0.074 A 
ATOM     61  C   UNL A   1      42.372  29.902  30.042  1.00  0.00     0.029 A 
ATOM     62  N   UNL A   1      42.503  30.379  27.874  1.00  0.00    -0.354 N 
ATOM     63  N   UNL A   1      46.011  29.673  27.783  1.00  0.00    -0.248 NA
ATOM     64  C   UNL A   1      47.994  30.404  26.881  1.00  0.00     0.031 C 
ATOM     65  C   UNL A   1      43.575  30.621  29.802  1.00  0.00     0.029 A 
ATOM     66  C   UNL A   1      43.649  30.895  28.448  1.00  0.00     0.049 A 
ATOM     67  H   UNL A   1      42.261  30.472  26.924  1.00  0.00     0.167 HD
ATOM     68  C   UNL A   1      45.820  30.986  27.446  1.00  0.00     0.074 A 
ATOM     69  C   UNL A   1      47.097  31.407  26.900  1.00  0.00     0.031 C 
ATOM     70  C   UNL A   1      44.620  31.610  27.629  1.00  0.00     0.031 A 
BRANCH  57  71
ATOM     71  C   UNL A   1      39.258  28.877  28.938  1.00  0.00    -0.014 A 
ATOM     72  C   UNL A   1      38.227  29.416  28.145  1.00  0.00     0.009 A 
ATOM     73  C   UNL A   1      38.885  28.518  30.245  1.00  0.00     0.009 A 
ATOM     74  C   UNL A   1      36.939  29.654  28.650  1.00  0.00     0.001 A 
ATOM     75  C   UNL A   1      37.606  28.763  30.764  1.00  0.00     0.001 A 
ATOM     76  C   UNL A   1      36.633  29.345  29.968  1.00  0.00     0.000 A 
ENDBRANCH  57  71
BRANCH  58  77
ATOM     77  C   UNL A   1      48.468  27.139  26.577  1.00  0.00    -0.014 A 
ATOM     78  C   UNL A   1      48.361  27.590  25.245  1.00  0.00     0.009 A 
ATOM     79  C   UNL A   1      49.491  26.234  26.896  1.00  0.00     0.009 A 
ATOM     80  C   UNL A   1      49.319  27.239  24.290  1.00  0.00     0.001 A 
ATOM     81  C   UNL A   1      50.442  25.875  25.931  1.00  0.00     0.001 A 
ATOM     82  C   UNL A   1      50.376  26.404  24.641  1.00  0.00     0.000 A 
ENDBRANCH  58  77
BRANCH  70  83
ATOM     83  C   UNL A   1      44.248  32.976  27.110  1.00  0.00    -0.014 A 
ATOM     84  C   UNL A   1      44.090  33.290  25.754  1.00  0.00     0.009 A 
ATOM     85  C   UNL A   1      43.898  33.983  28.038  1.00  0.00     0.009 A 
ATOM     86  C   UNL A   1      43.649  34.557  25.346  1.00  0.00     0.001 A 
ATOM     87  C   UNL A   1      43.416  35.232  27.638  1.00  0.00     0.001 A 
ATOM     88  C   UNL A   1      43.302  35.523  26.287  1.00  0.00     0.000 A 
ENDBRANCH  70  83
ENDBRANCH  44  45
ENDBRANCH  36  39
ENDBRANCH  34  35
ENDBRANCH  33  34
ENDBRANCH   1  33
TORSDOF 13
ENDMDL
MODEL 2
REMARK VINA RESULT:     -13.8      4.960     10.317
REMARK SMILES Cc1cccc(N2C(=O)/C(=C/c3ccc(C(=O)NCCCCNC(=O)c4ccc(-c5c6nc(c(-c7ccccc7)c7ccc([nH]7)c(-c7ccccc7)c7nc(c(-c8ccccc8)c8ccc5[nH]8)C=C7)C=C6)cc4)cc3)c3ccccc3C2=O)c1
REMARK SMILES IDX 20 1 19 2 18 3 16 4 17 5 15 7 12 8 13 9 75 10 14 11 74 12
REMARK SMILES IDX 11 13 7 14 8 15 82 16 9 17 10 18 81 19 83 20 76 21 80 22
REMARK SMILES IDX 77 23 79 24 78 25 6 26 1 27 2 28 3 29 84 30 4 31 5 32 21 33
REMARK SMILES IDX 22 34 23 35 24 36 25 38 26 39 27 40 73 41 28 42 72 43 29 44
REMARK SMILES IDX 30 45 31 46 66 47 32 48 71 49 65 50 67 51 33 52 70 53 64 54
REMARK SMILES IDX 63 55 34 57 56 58 41 59 55 60 42 61 45 62 54 63 68 64 43 65
REMARK SMILES IDX 44 66 53 68 69 69 46 70 35 71 36 72 40 73 37 74 39 75 38 76
REMARK SMILES IDX 57 77 58 78 62 79 59 80 61 81 60 82 47 83 48 84 52 85 49 86
REMARK SMILES IDX 51 87 50 88
REMARK H PARENT 18 6 23 37 67 56 45 67
REMARK Flexibility Score: inf
ROOT
ATOM      1  C   UNL A   1      35.582  31.505  29.432  1.00  0.00     0.023 C 
ENDROOT
BRANCH   1   2
ATOM      2  C   UNL A   1      35.098  31.259  27.998  1.00  0.00     0.116 C 
BRANCH   2   3
ATOM      3  N   UNL A   1      33.816  31.882  27.692  1.00  0.00    -0.352 N 
ATOM      4  C   UNL A   1      32.666  31.361  27.147  1.00  0.00     0.251 C 
ATOM      5  O   UNL A   1      31.723  32.104  26.890  1.00  0.00    -0.269 OA
ATOM      6  H   UNL A   1      33.766  32.840  27.914  1.00  0.00     0.163 HD
BRANCH   4   7
ATOM      7  C   UNL A   1      32.575  29.926  26.809  1.00  0.00     0.039 A 
ATOM      8  C   UNL A   1      32.664  27.167  26.396  1.00  0.00    -0.025 A 
ATOM      9  C   UNL A   1      33.602  27.997  25.772  1.00  0.00     0.009 A 
ATOM     10  C   UNL A   1      31.595  27.739  27.099  1.00  0.00     0.009 A 
ATOM     11  C   UNL A   1      33.557  29.378  25.977  1.00  0.00     0.014 A 
ATOM     12  C   UNL A   1      31.547  29.119  27.300  1.00  0.00     0.014 A 
BRANCH   8  13
ATOM     13  C   UNL A   1      32.853  25.712  26.341  1.00  0.00     0.022 C 
ATOM     14  N   UNL A   1      33.594  22.813  24.337  1.00  0.00    -0.242 N 
ATOM     15  C   UNL A   1      33.064  23.468  25.469  1.00  0.00     0.265 C 
ATOM     16  C   UNL A   1      33.790  23.502  23.121  1.00  0.00     0.265 C 
ATOM     17  O   UNL A   1      32.955  23.003  26.604  1.00  0.00    -0.268 OA
ATOM     18  C   UNL A   1      32.691  24.912  25.261  1.00  0.00     0.049 C 
ATOM     19  C   UNL A   1      32.918  24.670  22.854  1.00  0.00     0.048 A 
ATOM     20  O   UNL A   1      34.589  23.232  22.227  1.00  0.00    -0.268 OA
ATOM     21  C   UNL A   1      32.303  25.332  23.912  1.00  0.00    -0.000 A 
ATOM     22  C   UNL A   1      32.696  25.082  21.530  1.00  0.00     0.014 A 
ATOM     23  C   UNL A   1      31.369  26.339  23.621  1.00  0.00     0.010 A 
ATOM     24  C   UNL A   1      31.818  26.128  21.257  1.00  0.00     0.001 A 
ATOM     25  C   UNL A   1      31.139  26.744  22.304  1.00  0.00     0.001 A 
BRANCH  14  26
ATOM     26  C   UNL A   1      34.045  21.426  24.467  1.00  0.00     0.053 A 
ATOM     27  C   UNL A   1      32.625  17.875  24.071  1.00  0.00     0.044 C 
ATOM     28  C   UNL A   1      33.585  18.999  24.332  1.00  0.00    -0.049 A 
ATOM     29  C   UNL A   1      34.899  18.715  24.694  1.00  0.00     0.003 A 
ATOM     30  C   UNL A   1      33.180  20.342  24.203  1.00  0.00     0.030 A 
ATOM     31  C   UNL A   1      35.784  19.756  24.937  1.00  0.00     0.002 A 
ATOM     32  C   UNL A   1      35.359  21.087  24.828  1.00  0.00     0.027 A 
ENDBRANCH  14  26
ENDBRANCH   8  13
ENDBRANCH   4   7
ENDBRANCH   2   3
ENDBRANCH   1   2
BRANCH   1  33
ATOM     33  C   UNL A   1      34.962  32.699  30.157  1.00  0.00     0.023 C 
BRANCH  33  34
ATOM     34  C   UNL A   1      34.710  32.500  31.647  1.00  0.00     0.116 C 
BRANCH  34  35
ATOM     35  N   UNL A   1      34.265  33.687  32.364  1.00  0.00    -0.352 N 
ATOM     36  C   UNL A   1      34.968  34.509  33.242  1.00  0.00     0.251 C 
ATOM     37  H   UNL A   1      33.329  33.945  32.205  1.00  0.00     0.163 HD
ATOM     38  O   UNL A   1      34.413  35.438  33.782  1.00  0.00    -0.269 OA
BRANCH  36  39
ATOM     39  C   UNL A   1      36.439  34.324  33.398  1.00  0.00     0.039 A 
ATOM     40  C   UNL A   1      37.266  34.831  32.389  1.00  0.00     0.014 A 
ATOM     41  C   UNL A   1      36.973  33.498  34.381  1.00  0.00     0.014 A 
ATOM     42  C   UNL A   1      38.536  34.287  32.208  1.00  0.00     0.010 A 
ATOM     43  C   UNL A   1      38.184  32.880  34.147  1.00  0.00     0.010 A 
ATOM     44  C   UNL A   1      38.926  33.218  33.013  1.00  0.00    -0.014 A 
BRANCH  44  45
ATOM     45  C   UNL A   1      39.988  32.291  32.643  1.00  0.00     0.031 A 
ATOM     46  C   UNL A   1      39.719  31.126  31.782  1.00  0.00     0.074 A 
ATOM     47  C   UNL A   1      41.251  32.547  33.049  1.00  0.00     0.049 A 
ATOM     48  N   UNL A   1      40.461  30.070  31.740  1.00  0.00    -0.248 NA
ATOM     49  C   UNL A   1      38.528  31.027  30.946  1.00  0.00     0.031 C 
ATOM     50  C   UNL A   1      42.489  31.942  32.571  1.00  0.00     0.029 A 
ATOM     51  N   UNL A   1      41.641  33.282  34.161  1.00  0.00    -0.354 N 
ATOM     52  C   UNL A   1      40.036  29.311  30.675  1.00  0.00     0.074 A 
ATOM     53  C   UNL A   1      38.762  29.880  30.304  1.00  0.00     0.031 C 
ATOM     54  C   UNL A   1      43.450  32.132  33.490  1.00  0.00     0.029 A 
ATOM     55  C   UNL A   1      42.823  32.724  34.662  1.00  0.00     0.049 A 
ATOM     56  H   UNL A   1      41.168  34.061  34.533  1.00  0.00     0.167 HD
ATOM     57  C   UNL A   1      40.884  28.392  30.134  1.00  0.00     0.031 A 
ATOM     58  C   UNL A   1      42.860  32.182  35.916  1.00  0.00     0.031 A 
ATOM     59  C   UNL A   1      42.095  28.229  30.944  1.00  0.00     0.049 A 
ATOM     60  C   UNL A   1      43.152  30.695  35.931  1.00  0.00     0.074 A 
ATOM     61  C   UNL A   1      43.399  28.673  30.797  1.00  0.00     0.029 A 
ATOM     62  N   UNL A   1      41.985  27.754  32.246  1.00  0.00    -0.354 N 
ATOM     63  N   UNL A   1      43.057  29.920  34.886  1.00  0.00    -0.248 NA
ATOM     64  C   UNL A   1      43.526  29.958  37.136  1.00  0.00     0.031 C 
ATOM     65  C   UNL A   1      44.050  28.542  32.053  1.00  0.00     0.029 A 
ATOM     66  C   UNL A   1      43.153  27.985  32.947  1.00  0.00     0.049 A 
ATOM     67  H   UNL A   1      41.186  27.314  32.617  1.00  0.00     0.167 HD
ATOM     68  C   UNL A   1      43.325  28.626  35.246  1.00  0.00     0.074 A 
ATOM     69  C   UNL A   1      43.631  28.703  36.663  1.00  0.00     0.031 C 
ATOM     70  C   UNL A   1      43.255  27.600  34.349  1.00  0.00     0.031 A 
BRANCH  57  71
ATOM     71  C   UNL A   1      40.755  27.844  28.725  1.00  0.00    -0.014 A 
ATOM     72  C   UNL A   1      40.276  26.533  28.534  1.00  0.00     0.009 A 
ATOM     73  C   UNL A   1      41.165  28.511  27.557  1.00  0.00     0.009 A 
ATOM     74  C   UNL A   1      40.282  25.909  27.276  1.00  0.00     0.001 A 
ATOM     75  C   UNL A   1      41.188  27.892  26.299  1.00  0.00     0.001 A 
ATOM     76  C   UNL A   1      40.758  26.583  26.160  1.00  0.00     0.000 A 
ENDBRANCH  57  71
BRANCH  58  77
ATOM     77  C   UNL A   1      41.969  32.872  36.890  1.00  0.00    -0.014 A 
ATOM     78  C   UNL A   1      42.367  34.131  37.385  1.00  0.00     0.009 A 
ATOM     79  C   UNL A   1      40.629  32.487  37.041  1.00  0.00     0.009 A 
ATOM     80  C   UNL A   1      41.427  35.025  37.909  1.00  0.00     0.001 A 
ATOM     81  C   UNL A   1      39.694  33.382  37.579  1.00  0.00     0.001 A 
ATOM     82  C   UNL A   1      40.086  34.660  37.978  1.00  0.00     0.000 A 
ENDBRANCH  58  77
BRANCH  70  83
ATOM     83  C   UNL A   1      43.329  26.131  34.683  1.00  0.00    -0.014 A 
ATOM     84  C   UNL A   1      42.276  25.392  35.237  1.00  0.00     0.009 A 
ATOM     85  C   UNL A   1      44.476  25.403  34.291  1.00  0.00     0.009 A 
ATOM     86  C   UNL A   1      42.381  24.008  35.434  1.00  0.00     0.001 A 
ATOM     87  C   UNL A   1      44.568  24.018  34.444  1.00  0.00     0.001 A 
ATOM     88  C   UNL A   1      43.521  23.320  35.027  1.00  0.00     0.000 A 
ENDBRANCH  70  83
ENDBRANCH  44  45
ENDBRANCH  36  39
ENDBRANCH  34  35
ENDBRANCH  33  34
ENDBRANCH   1  33
TORSDOF 13
ENDMDL
MODEL 3
REMARK VINA RESULT:     -13.1      5.607      9.015
REMARK SMILES Cc1cccc(N2C(=O)/C(=C/c3ccc(C(=O)NCCCCNC(=O)c4ccc(-c5c6nc(c(-c7ccccc7)c7ccc([nH]7)c(-c7ccccc7)c7nc(c(-c8ccccc8)c8ccc5[nH]8)C=C7)C=C6)cc4)cc3)c3ccccc3C2=O)c1
REMARK SMILES IDX 20 1 19 2 18 3 16 4 17 5 15 7 12 8 13 9 75 10 14 11 74 12
REMARK SMILES IDX 11 13 7 14 8 15 82 16 9 17 10 18 81 19 83 20 76 21 80 22
REMARK SMILES IDX 77 23 79 24 78 25 6 26 1 27 2 28 3 29 84 30 4 31 5 32 21 33
REMARK SMILES IDX 22 34 23 35 24 36 25 38 26 39 27 40 73 41 28 42 72 43 29 44
REMARK SMILES IDX 30 45 31 46 66 47 32 48 71 49 65 50 67 51 33 52 70 53 64 54
REMARK SMILES IDX 63 55 34 57 56 58 41 59 55 60 42 61 45 62 54 63 68 64 43 65
REMARK SMILES IDX 44 66 53 68 69 69 46 70 35 71 36 72 40 73 37 74 39 75 38 76
REMARK SMILES IDX 57 77 58 78 62 79 59 80 61 81 60 82 47 83 48 84 52 85 49 86
REMARK SMILES IDX 51 87 50 88
REMARK H PARENT 18 6 23 37 67 56 45 67
REMARK Flexibility Score: inf
ROOT
ATOM      1  C   UNL A   1      43.846  24.374  30.223  1.00  0.00     0.023 C 
ENDROOT
BRANCH   1   2
ATOM      2  C   UNL A   1      44.640  24.428  31.532  1.00  0.00     0.116 C 
BRANCH   2   3
ATOM      3  N   UNL A   1      44.150  23.516  32.559  1.00  0.00    -0.352 N 
ATOM      4  C   UNL A   1      43.657  23.758  33.820  1.00  0.00     0.251 C 
ATOM      5  O   UNL A   1      43.384  22.814  34.558  1.00  0.00    -0.269 OA
ATOM      6  H   UNL A   1      44.178  22.565  32.305  1.00  0.00     0.163 HD
BRANCH   4   7
ATOM      7  C   UNL A   1      43.510  25.140  34.321  1.00  0.00     0.039 A 
ATOM      8  C   UNL A   1      43.101  27.827  34.954  1.00  0.00    -0.025 A 
ATOM      9  C   UNL A   1      44.213  27.450  34.192  1.00  0.00     0.009 A 
ATOM     10  C   UNL A   1      42.287  26.838  35.523  1.00  0.00     0.009 A 
ATOM     11  C   UNL A   1      44.419  26.105  33.876  1.00  0.00     0.014 A 
ATOM     12  C   UNL A   1      42.495  25.494  35.211  1.00  0.00     0.014 A 
BRANCH   8  13
ATOM     13  C   UNL A   1      42.786  29.253  35.096  1.00  0.00     0.022 C 
ATOM     14  N   UNL A   1      40.270  31.831  35.075  1.00  0.00    -0.242 N 
ATOM     15  C   UNL A   1      41.594  31.352  34.973  1.00  0.00     0.265 C 
ATOM     16  C   UNL A   1      39.167  30.979  34.851  1.00  0.00     0.265 C 
ATOM     17  O   UNL A   1      42.623  31.967  35.253  1.00  0.00    -0.268 OA
ATOM     18  C   UNL A   1      41.727  29.908  34.566  1.00  0.00     0.049 C 
ATOM     19  C   UNL A   1      39.377  29.819  33.954  1.00  0.00     0.048 A 
ATOM     20  O   UNL A   1      38.027  31.098  35.294  1.00  0.00    -0.268 OA
ATOM     21  C   UNL A   1      40.661  29.327  33.745  1.00  0.00    -0.000 A 
ATOM     22  C   UNL A   1      38.278  29.243  33.297  1.00  0.00     0.014 A 
ATOM     23  C   UNL A   1      40.847  28.326  32.779  1.00  0.00     0.010 A 
ATOM     24  C   UNL A   1      38.467  28.203  32.389  1.00  0.00     0.001 A 
ATOM     25  C   UNL A   1      39.756  27.758  32.116  1.00  0.00     0.001 A 
BRANCH  14  26
ATOM     26  C   UNL A   1      40.047  33.205  35.529  1.00  0.00     0.053 A 
ATOM     27  C   UNL A   1      39.135  35.068  38.767  1.00  0.00     0.044 C 
ATOM     28  C   UNL A   1      39.500  34.806  37.334  1.00  0.00    -0.049 A 
ATOM     29  C   UNL A   1      39.626  35.872  36.447  1.00  0.00     0.003 A 
ATOM     30  C   UNL A   1      39.731  33.495  36.874  1.00  0.00     0.030 A 
ATOM     31  C   UNL A   1      39.962  35.626  35.123  1.00  0.00     0.002 A 
ATOM     32  C   UNL A   1      40.164  34.314  34.675  1.00  0.00     0.027 A 
ENDBRANCH  14  26
ENDBRANCH   8  13
ENDBRANCH   4   7
ENDBRANCH   2   3
ENDBRANCH   1   2
BRANCH   1  33
ATOM     33  C   UNL A   1      44.099  23.160  29.330  1.00  0.00     0.023 C 
BRANCH  33  34
ATOM     34  C   UNL A   1      44.419  23.474  27.873  1.00  0.00     0.116 C 
BRANCH  34  35
ATOM     35  N   UNL A   1      43.660  22.710  26.894  1.00  0.00    -0.352 N 
ATOM     36  C   UNL A   1      42.380  22.936  26.390  1.00  0.00     0.251 C 
ATOM     37  H   UNL A   1      44.118  21.917  26.535  1.00  0.00     0.163 HD
ATOM     38  O   UNL A   1      41.890  22.158  25.603  1.00  0.00    -0.269 OA
BRANCH  36  39
ATOM     39  C   UNL A   1      41.680  24.211  26.716  1.00  0.00     0.039 A 
ATOM     40  C   UNL A   1      42.024  25.346  25.973  1.00  0.00     0.014 A 
ATOM     41  C   UNL A   1      40.879  24.338  27.846  1.00  0.00     0.014 A 
ATOM     42  C   UNL A   1      41.809  26.610  26.519  1.00  0.00     0.010 A 
ATOM     43  C   UNL A   1      40.757  25.578  28.439  1.00  0.00     0.010 A 
ATOM     44  C   UNL A   1      41.297  26.702  27.811  1.00  0.00    -0.014 A 
BRANCH  44  45
ATOM     45  C   UNL A   1      41.451  27.889  28.644  1.00  0.00     0.031 A 
ATOM     46  C   UNL A   1      40.341  28.839  28.833  1.00  0.00     0.074 A 
ATOM     47  C   UNL A   1      42.615  28.079  29.302  1.00  0.00     0.049 A 
ATOM     48  N   UNL A   1      40.494  30.069  29.192  1.00  0.00    -0.248 NA
ATOM     49  C   UNL A   1      38.953  28.489  28.549  1.00  0.00     0.031 C 
ATOM     50  C   UNL A   1      42.890  29.009  30.392  1.00  0.00     0.029 A 
ATOM     51  N   UNL A   1      43.868  27.594  28.948  1.00  0.00    -0.354 N 
ATOM     52  C   UNL A   1      39.247  30.570  29.485  1.00  0.00     0.074 A 
ATOM     53  C   UNL A   1      38.325  29.599  28.945  1.00  0.00     0.031 C 
ATOM     54  C   UNL A   1      44.217  29.205  30.473  1.00  0.00     0.029 A 
ATOM     55  C   UNL A   1      44.828  28.536  29.336  1.00  0.00     0.049 A 
ATOM     56  H   UNL A   1      44.048  26.735  28.502  1.00  0.00     0.167 HD
ATOM     57  C   UNL A   1      39.143  31.668  30.286  1.00  0.00     0.031 A 
ATOM     58  C   UNL A   1      45.612  29.154  28.403  1.00  0.00     0.031 A 
ATOM     59  C   UNL A   1      40.453  32.268  30.554  1.00  0.00     0.049 A 
ATOM     60  C   UNL A   1      45.404  30.654  28.328  1.00  0.00     0.074 A 
ATOM     61  C   UNL A   1      41.295  32.253  31.654  1.00  0.00     0.029 A 
ATOM     62  N   UNL A   1      41.197  32.781  29.497  1.00  0.00    -0.354 N 
ATOM     63  N   UNL A   1      44.377  31.276  28.836  1.00  0.00    -0.248 NA
ATOM     64  C   UNL A   1      46.312  31.561  27.630  1.00  0.00     0.031 C 
ATOM     65  C   UNL A   1      42.581  32.679  31.227  1.00  0.00     0.029 A 
ATOM     66  C   UNL A   1      42.508  32.989  29.881  1.00  0.00     0.049 A 
ATOM     67  H   UNL A   1      40.840  32.971  28.599  1.00  0.00     0.167 HD
ATOM     68  C   UNL A   1      44.455  32.612  28.542  1.00  0.00     0.074 A 
ATOM     69  C   UNL A   1      45.695  32.744  27.799  1.00  0.00     0.031 C 
ATOM     70  C   UNL A   1      43.483  33.491  28.921  1.00  0.00     0.031 A 
BRANCH  57  71
ATOM     71  C   UNL A   1      37.893  32.038  31.061  1.00  0.00    -0.014 A 
ATOM     72  C   UNL A   1      37.963  33.035  32.053  1.00  0.00     0.009 A 
ATOM     73  C   UNL A   1      36.647  31.398  30.939  1.00  0.00     0.009 A 
ATOM     74  C   UNL A   1      36.889  33.314  32.913  1.00  0.00     0.001 A 
ATOM     75  C   UNL A   1      35.573  31.659  31.802  1.00  0.00     0.001 A 
ATOM     76  C   UNL A   1      35.699  32.610  32.801  1.00  0.00     0.000 A 
ENDBRANCH  57  71
BRANCH  58  77
ATOM     77  C   UNL A   1      45.940  28.292  27.233  1.00  0.00    -0.014 A 
ATOM     78  C   UNL A   1      46.796  27.190  27.432  1.00  0.00     0.009 A 
ATOM     79  C   UNL A   1      45.161  28.332  26.067  1.00  0.00     0.009 A 
ATOM     80  C   UNL A   1      46.786  26.106  26.550  1.00  0.00     0.001 A 
ATOM     81  C   UNL A   1      45.165  27.248  25.179  1.00  0.00     0.001 A 
ATOM     82  C   UNL A   1      45.948  26.123  25.439  1.00  0.00     0.000 A 
ENDBRANCH  58  77
BRANCH  70  83
ATOM     83  C   UNL A   1      43.372  34.928  28.477  1.00  0.00    -0.014 A 
ATOM     84  C   UNL A   1      43.199  35.333  27.147  1.00  0.00     0.009 A 
ATOM     85  C   UNL A   1      43.296  35.939  29.462  1.00  0.00     0.009 A 
ATOM     86  C   UNL A   1      43.007  36.682  26.815  1.00  0.00     0.001 A 
ATOM     87  C   UNL A   1      43.060  37.278  29.140  1.00  0.00     0.001 A 
ATOM     88  C   UNL A   1      42.927  37.652  27.811  1.00  0.00     0.000 A 
ENDBRANCH  70  83
ENDBRANCH  44  45
ENDBRANCH  36  39
ENDBRANCH  34  35
ENDBRANCH  33  34
ENDBRANCH   1  33
TORSDOF 13
ENDMDL
