MODEL 1
REMARK VINA RESULT:     -10.4      0.000      0.000
REMARK SMILES CC[NH2+][C@@]1(C(=O)NCCCCNC(=O)c2ccc(-c3c4nc(c(-c5ccccc5)c5ccc([nH]5)c(-c5ccccc5)c5nc(c(-c6ccccc6)c6ccc3[nH]6)C=C5)C=C4)cc2)CCC[C@H]1CC[NH+]1CCCCC1
REMARK SMILES IDX 9 1 8 2 7 3 5 4 6 5 4 7 63 8 66 9 64 10 65 11 3 12 2 15 1 16
REMARK SMILES IDX 67 17 68 18 69 19 70 20 74 21 71 23 73 24 72 25 10 26 11 27
REMARK SMILES IDX 12 28 13 29 14 31 15 32 16 33 62 34 17 35 61 36 18 37 19 38
REMARK SMILES IDX 20 39 55 40 21 41 60 42 54 43 56 44 22 45 59 46 53 47 52 48
REMARK SMILES IDX 23 50 45 51 30 52 44 53 31 54 34 55 43 56 57 57 32 58 33 59
REMARK SMILES IDX 42 61 58 62 35 63 24 64 25 65 29 66 26 67 28 68 27 69 46 70
REMARK SMILES IDX 47 71 51 72 48 73 50 74 49 75 36 76 37 77 41 78 38 79 40 80
REMARK SMILES IDX 39 81
REMARK H PARENT 7 6 3 13 3 14 69 22 12 30 56 49 34 60
REMARK Flexibility Score: inf
ROOT
ATOM      1  C   UNL A   1      34.447  30.745  27.461  1.00  0.00     0.023 C 
ENDROOT
BRANCH   1   2
ATOM      2  C   UNL A   1      34.215  29.257  27.202  1.00  0.00     0.116 C 
BRANCH   2   3
ATOM      3  N   UNL A   1      32.982  28.812  27.803  1.00  0.00    -0.351 N 
ATOM      4  C   UNL A   1      32.032  27.913  27.443  1.00  0.00     0.281 C 
ATOM      5  O   UNL A   1      31.027  27.937  28.176  1.00  0.00    -0.268 OA
ATOM      6  H   UNL A   1      32.786  29.257  28.658  1.00  0.00     0.163 HD
BRANCH   4   7
ATOM      7  C   UNL A   1      32.093  26.915  26.182  1.00  0.00     0.178 C 
ATOM      8  C   UNL A   1      33.532  26.461  25.864  1.00  0.00     0.079 C 
ATOM      9  C   UNL A   1      31.578  27.705  24.923  1.00  0.00     0.066 C 
ATOM     10  C   UNL A   1      33.906  27.037  24.503  1.00  0.00     0.008 C 
ATOM     11  C   UNL A   1      32.858  28.079  24.148  1.00  0.00     0.011 C 
BRANCH   7  12
ATOM     12  N   UNL A   1      31.278  25.780  26.667  1.00  0.00    -0.334 N 
ATOM     13  H   UNL A   1      31.104  25.960  27.656  1.00  0.00     0.347 HD
ATOM     14  H   UNL A   1      30.499  25.788  26.007  1.00  0.00     0.347 HD
BRANCH  12  15
ATOM     15  C   UNL A   1      31.721  24.408  26.581  1.00  0.00     0.257 C 
ATOM     16  C   UNL A   1      30.959  23.686  25.470  1.00  0.00     0.071 C 
ENDBRANCH  12  15
ENDBRANCH   7  12
BRANCH   9  17
ATOM     17  C   UNL A   1      30.614  27.056  23.904  1.00  0.00     0.072 C 
BRANCH  17  18
ATOM     18  C   UNL A   1      30.547  27.661  22.499  1.00  0.00     0.262 C 
BRANCH  18  19
ATOM     19  N   UNL A   1      29.460  28.632  22.295  1.00  0.00    -0.335 N 
ATOM     20  C   UNL A   1      28.310  28.308  23.159  1.00  0.00     0.262 C 
ATOM     21  C   UNL A   1      29.967  29.989  22.574  1.00  0.00     0.262 C 
ATOM     22  H   UNL A   1      29.138  28.587  21.328  1.00  0.00     0.348 HD
ATOM     23  C   UNL A   1      27.186  29.340  23.041  1.00  0.00     0.062 C 
ATOM     24  C   UNL A   1      28.886  31.058  22.436  1.00  0.00     0.062 C 
ATOM     25  C   UNL A   1      27.695  30.746  23.329  1.00  0.00     0.012 C 
ENDBRANCH  18  19
ENDBRANCH  17  18
ENDBRANCH   9  17
ENDBRANCH   4   7
ENDBRANCH   2   3
ENDBRANCH   1   2
BRANCH   1  26
ATOM     26  C   UNL A   1      33.168  31.535  27.737  1.00  0.00     0.023 C 
BRANCH  26  27
ATOM     27  C   UNL A   1      33.117  32.917  27.092  1.00  0.00     0.116 C 
BRANCH  27  28
ATOM     28  N   UNL A   1      32.627  33.962  27.977  1.00  0.00    -0.352 N 
ATOM     29  C   UNL A   1      33.215  34.459  29.118  1.00  0.00     0.251 C 
ATOM     30  H   UNL A   1      31.764  34.365  27.728  1.00  0.00     0.163 HD
ATOM     31  O   UNL A   1      32.635  35.278  29.813  1.00  0.00    -0.269 OA
BRANCH  29  32
ATOM     32  C   UNL A   1      34.546  33.952  29.510  1.00  0.00     0.039 A 
ATOM     33  C   UNL A   1      34.643  33.103  30.614  1.00  0.00     0.014 A 
ATOM     34  C   UNL A   1      35.680  34.277  28.762  1.00  0.00     0.014 A 
ATOM     35  C   UNL A   1      35.876  32.532  30.932  1.00  0.00     0.010 A 
ATOM     36  C   UNL A   1      36.885  33.637  29.026  1.00  0.00     0.010 A 
ATOM     37  C   UNL A   1      36.999  32.770  30.122  1.00  0.00    -0.014 A 
BRANCH  37  38
ATOM     38  C   UNL A   1      38.306  32.140  30.428  1.00  0.00     0.031 A 
ATOM     39  C   UNL A   1      39.263  32.811  31.375  1.00  0.00     0.074 A 
ATOM     40  C   UNL A   1      38.650  30.986  29.823  1.00  0.00     0.049 A 
ATOM     41  N   UNL A   1      40.447  32.416  31.770  1.00  0.00    -0.248 NA
ATOM     42  C   UNL A   1      38.849  34.111  31.929  1.00  0.00     0.031 C 
ATOM     43  C   UNL A   1      37.838  30.265  28.840  1.00  0.00     0.029 A 
ATOM     44  N   UNL A   1      39.777  30.213  29.953  1.00  0.00    -0.354 N 
ATOM     45  C   UNL A   1      40.921  33.424  32.600  1.00  0.00     0.074 A 
ATOM     46  C   UNL A   1      39.929  34.475  32.603  1.00  0.00     0.031 C 
ATOM     47  C   UNL A   1      38.473  29.135  28.488  1.00  0.00     0.029 A 
ATOM     48  C   UNL A   1      39.747  29.068  29.196  1.00  0.00     0.049 A 
ATOM     49  H   UNL A   1      40.533  30.457  30.533  1.00  0.00     0.167 HD
ATOM     50  C   UNL A   1      42.066  33.461  33.323  1.00  0.00     0.031 A 
ATOM     51  C   UNL A   1      40.644  28.069  29.092  1.00  0.00     0.031 A 
ATOM     52  C   UNL A   1      43.044  32.407  33.336  1.00  0.00     0.049 A 
ATOM     53  C   UNL A   1      41.901  28.124  29.916  1.00  0.00     0.074 A 
ATOM     54  C   UNL A   1      44.209  32.320  34.078  1.00  0.00     0.029 A 
ATOM     55  N   UNL A   1      42.970  31.257  32.567  1.00  0.00    -0.354 N 
ATOM     56  N   UNL A   1      42.296  29.046  30.760  1.00  0.00    -0.248 NA
ATOM     57  C   UNL A   1      42.825  26.989  29.785  1.00  0.00     0.031 C 
ATOM     58  C   UNL A   1      44.863  31.136  33.724  1.00  0.00     0.029 A 
ATOM     59  C   UNL A   1      44.078  30.460  32.803  1.00  0.00     0.049 A 
ATOM     60  H   UNL A   1      42.239  31.038  31.945  1.00  0.00     0.167 HD
ATOM     61  C   UNL A   1      43.499  28.589  31.283  1.00  0.00     0.074 A 
ATOM     62  C   UNL A   1      43.756  27.300  30.675  1.00  0.00     0.031 C 
ATOM     63  C   UNL A   1      44.318  29.182  32.186  1.00  0.00     0.031 A 
BRANCH  50  64
ATOM     64  C   UNL A   1      42.312  34.685  34.160  1.00  0.00    -0.014 A 
ATOM     65  C   UNL A   1      42.951  35.816  33.624  1.00  0.00     0.009 A 
ATOM     66  C   UNL A   1      41.886  34.717  35.496  1.00  0.00     0.009 A 
ATOM     67  C   UNL A   1      43.196  36.936  34.422  1.00  0.00     0.001 A 
ATOM     68  C   UNL A   1      42.103  35.850  36.282  1.00  0.00     0.001 A 
ATOM     69  C   UNL A   1      42.768  36.954  35.748  1.00  0.00     0.000 A 
ENDBRANCH  50  64
BRANCH  51  70
ATOM     70  C   UNL A   1      40.371  26.908  28.204  1.00  0.00    -0.014 A 
ATOM     71  C   UNL A   1      40.906  26.864  26.907  1.00  0.00     0.009 A 
ATOM     72  C   UNL A   1      39.567  25.845  28.642  1.00  0.00     0.009 A 
ATOM     73  C   UNL A   1      40.615  25.796  26.055  1.00  0.00     0.001 A 
ATOM     74  C   UNL A   1      39.301  24.764  27.799  1.00  0.00     0.001 A 
ATOM     75  C   UNL A   1      39.816  24.745  26.503  1.00  0.00     0.000 A 
ENDBRANCH  51  70
BRANCH  63  76
ATOM     76  C   UNL A   1      45.549  28.422  32.595  1.00  0.00    -0.014 A 
ATOM     77  C   UNL A   1      46.767  28.586  31.918  1.00  0.00     0.009 A 
ATOM     78  C   UNL A   1      45.490  27.544  33.688  1.00  0.00     0.009 A 
ATOM     79  C   UNL A   1      47.892  27.854  32.304  1.00  0.00     0.001 A 
ATOM     80  C   UNL A   1      46.624  26.839  34.092  1.00  0.00     0.001 A 
ATOM     81  C   UNL A   1      47.821  26.984  33.392  1.00  0.00     0.000 A 
ENDBRANCH  63  76
ENDBRANCH  37  38
ENDBRANCH  29  32
ENDBRANCH  27  28
ENDBRANCH  26  27
ENDBRANCH   1  26
TORSDOF 16
ENDMDL
MODEL 2
REMARK VINA RESULT:     -10.3      4.678      9.621
REMARK SMILES CC[NH2+][C@@]1(C(=O)NCCCCNC(=O)c2ccc(-c3c4nc(c(-c5ccccc5)c5ccc([nH]5)c(-c5ccccc5)c5nc(c(-c6ccccc6)c6ccc3[nH]6)C=C5)C=C4)cc2)CCC[C@H]1CC[NH+]1CCCCC1
REMARK SMILES IDX 9 1 8 2 7 3 5 4 6 5 4 7 63 8 66 9 64 10 65 11 3 12 2 15 1 16
REMARK SMILES IDX 67 17 68 18 69 19 70 20 74 21 71 23 73 24 72 25 10 26 11 27
REMARK SMILES IDX 12 28 13 29 14 31 15 32 16 33 62 34 17 35 61 36 18 37 19 38
REMARK SMILES IDX 20 39 55 40 21 41 60 42 54 43 56 44 22 45 59 46 53 47 52 48
REMARK SMILES IDX 23 50 45 51 30 52 44 53 31 54 34 55 43 56 57 57 32 58 33 59
REMARK SMILES IDX 42 61 58 62 35 63 24 64 25 65 29 66 26 67 28 68 27 69 46 70
REMARK SMILES IDX 47 71 51 72 48 73 50 74 49 75 36 76 37 77 41 78 38 79 40 80
REMARK SMILES IDX 39 81
REMARK H PARENT 7 6 3 13 3 14 69 22 12 30 56 49 34 60
REMARK Flexibility Score: inf
ROOT
ATOM      1  C   UNL A   1      38.872  22.847  26.303  1.00  0.00     0.023 C 
ENDROOT
BRANCH   1   2
ATOM      2  C   UNL A   1      37.626  23.608  25.855  1.00  0.00     0.116 C 
BRANCH   2   3
ATOM      3  N   UNL A   1      37.401  23.447  24.439  1.00  0.00    -0.351 N 
ATOM      4  C   UNL A   1      36.311  23.154  23.687  1.00  0.00     0.281 C 
ATOM      5  O   UNL A   1      36.577  22.951  22.489  1.00  0.00    -0.268 OA
ATOM      6  H   UNL A   1      38.216  23.577  23.902  1.00  0.00     0.163 HD
BRANCH   4   7
ATOM      7  C   UNL A   1      34.798  23.011  24.217  1.00  0.00     0.178 C 
ATOM      8  C   UNL A   1      34.546  23.835  25.496  1.00  0.00     0.079 C 
ATOM      9  C   UNL A   1      34.566  21.502  24.597  1.00  0.00     0.066 C 
ATOM     10  C   UNL A   1      34.266  22.852  26.628  1.00  0.00     0.008 C 
ATOM     11  C   UNL A   1      34.658  21.470  26.136  1.00  0.00     0.011 C 
BRANCH   7  12
ATOM     12  N   UNL A   1      34.035  23.562  23.077  1.00  0.00    -0.334 N 
ATOM     13  H   UNL A   1      34.725  23.972  22.447  1.00  0.00     0.347 HD
ATOM     14  H   UNL A   1      33.496  22.749  22.776  1.00  0.00     0.347 HD
BRANCH  12  15
ATOM     15  C   UNL A   1      32.999  24.556  23.239  1.00  0.00     0.257 C 
ATOM     16  C   UNL A   1      31.626  23.895  23.133  1.00  0.00     0.071 C 
ENDBRANCH  12  15
ENDBRANCH   7  12
BRANCH   9  17
ATOM     17  C   UNL A   1      33.262  20.766  24.212  1.00  0.00     0.072 C 
BRANCH  17  18
ATOM     18  C   UNL A   1      32.695  19.751  25.208  1.00  0.00     0.262 C 
BRANCH  18  19
ATOM     19  N   UNL A   1      32.696  18.357  24.736  1.00  0.00    -0.335 N 
ATOM     20  C   UNL A   1      33.942  18.059  24.009  1.00  0.00     0.262 C 
ATOM     21  C   UNL A   1      32.529  17.456  25.893  1.00  0.00     0.262 C 
ATOM     22  H   UNL A   1      31.921  18.215  24.089  1.00  0.00     0.348 HD
ATOM     23  C   UNL A   1      34.023  16.595  23.569  1.00  0.00     0.062 C 
ATOM     24  C   UNL A   1      32.570  15.982  25.499  1.00  0.00     0.062 C 
ATOM     25  C   UNL A   1      33.855  15.653  24.755  1.00  0.00     0.012 C 
ENDBRANCH  18  19
ENDBRANCH  17  18
ENDBRANCH   9  17
ENDBRANCH   4   7
ENDBRANCH   2   3
ENDBRANCH   1   2
BRANCH   1  26
ATOM     26  C   UNL A   1      38.978  21.434  25.731  1.00  0.00     0.023 C 
BRANCH  26  27
ATOM     27  C   UNL A   1      39.538  20.393  26.695  1.00  0.00     0.116 C 
BRANCH  27  28
ATOM     28  N   UNL A   1      40.595  19.570  26.124  1.00  0.00    -0.352 N 
ATOM     29  C   UNL A   1      41.911  19.905  25.904  1.00  0.00     0.251 C 
ATOM     30  H   UNL A   1      40.333  18.658  25.863  1.00  0.00     0.163 HD
ATOM     31  O   UNL A   1      42.663  19.135  25.327  1.00  0.00    -0.269 OA
BRANCH  29  32
ATOM     32  C   UNL A   1      42.390  21.233  26.341  1.00  0.00     0.039 A 
ATOM     33  C   UNL A   1      42.607  22.219  25.377  1.00  0.00     0.014 A 
ATOM     34  C   UNL A   1      42.576  21.511  27.697  1.00  0.00     0.014 A 
ATOM     35  C   UNL A   1      42.957  23.507  25.783  1.00  0.00     0.010 A 
ATOM     36  C   UNL A   1      42.835  22.814  28.103  1.00  0.00     0.010 A 
ATOM     37  C   UNL A   1      43.042  23.823  27.149  1.00  0.00    -0.014 A 
BRANCH  37  38
ATOM     38  C   UNL A   1      43.377  25.197  27.595  1.00  0.00     0.031 A 
ATOM     39  C   UNL A   1      42.279  26.159  27.959  1.00  0.00     0.074 A 
ATOM     40  C   UNL A   1      44.664  25.592  27.634  1.00  0.00     0.049 A 
ATOM     41  N   UNL A   1      42.371  27.398  28.374  1.00  0.00    -0.248 NA
ATOM     42  C   UNL A   1      40.896  25.679  27.808  1.00  0.00     0.031 C 
ATOM     43  C   UNL A   1      45.818  24.775  27.250  1.00  0.00     0.029 A 
ATOM     44  N   UNL A   1      45.219  26.786  28.023  1.00  0.00    -0.354 N 
ATOM     45  C   UNL A   1      41.064  27.844  28.516  1.00  0.00     0.074 A 
ATOM     46  C   UNL A   1      40.198  26.770  28.083  1.00  0.00     0.031 C 
ATOM     47  C   UNL A   1      46.944  25.475  27.463  1.00  0.00     0.029 A 
ATOM     48  C   UNL A   1      46.591  26.799  27.967  1.00  0.00     0.049 A 
ATOM     49  H   UNL A   1      44.684  27.559  28.313  1.00  0.00     0.167 HD
ATOM     50  C   UNL A   1      40.618  29.030  28.993  1.00  0.00     0.031 A 
ATOM     51  C   UNL A   1      47.467  27.766  28.296  1.00  0.00     0.031 A 
ATOM     52  C   UNL A   1      41.478  30.092  29.441  1.00  0.00     0.049 A 
ATOM     53  C   UNL A   1      46.950  29.070  28.838  1.00  0.00     0.074 A 
ATOM     54  C   UNL A   1      41.128  31.310  29.996  1.00  0.00     0.029 A 
ATOM     55  N   UNL A   1      42.862  30.060  29.382  1.00  0.00    -0.354 N 
ATOM     56  N   UNL A   1      45.711  29.446  29.045  1.00  0.00    -0.248 NA
ATOM     57  C   UNL A   1      47.956  30.074  29.211  1.00  0.00     0.031 C 
ATOM     58  C   UNL A   1      42.301  32.035  30.232  1.00  0.00     0.029 A 
ATOM     59  C   UNL A   1      43.382  31.245  29.875  1.00  0.00     0.049 A 
ATOM     60  H   UNL A   1      43.397  29.307  29.041  1.00  0.00     0.167 HD
ATOM     61  C   UNL A   1      45.789  30.717  29.598  1.00  0.00     0.074 A 
ATOM     62  C   UNL A   1      47.197  31.037  29.714  1.00  0.00     0.031 C 
ATOM     63  C   UNL A   1      44.786  31.546  29.979  1.00  0.00     0.031 A 
BRANCH  50  64
ATOM     64  C   UNL A   1      39.130  29.233  29.054  1.00  0.00    -0.014 A 
ATOM     65  C   UNL A   1      38.409  28.982  30.233  1.00  0.00     0.009 A 
ATOM     66  C   UNL A   1      38.440  29.696  27.923  1.00  0.00     0.009 A 
ATOM     67  C   UNL A   1      37.022  29.149  30.265  1.00  0.00     0.001 A 
ATOM     68  C   UNL A   1      37.059  29.894  27.968  1.00  0.00     0.001 A 
ATOM     69  C   UNL A   1      36.350  29.610  29.135  1.00  0.00     0.000 A 
ENDBRANCH  50  64
BRANCH  51  70
ATOM     70  C   UNL A   1      48.929  27.528  28.162  1.00  0.00    -0.014 A 
ATOM     71  C   UNL A   1      49.591  27.833  26.962  1.00  0.00     0.009 A 
ATOM     72  C   UNL A   1      49.666  26.987  29.225  1.00  0.00     0.009 A 
ATOM     73  C   UNL A   1      50.956  27.569  26.818  1.00  0.00     0.001 A 
ATOM     74  C   UNL A   1      51.036  26.752  29.089  1.00  0.00     0.001 A 
ATOM     75  C   UNL A   1      51.677  27.032  27.884  1.00  0.00     0.000 A 
ENDBRANCH  51  70
BRANCH  63  76
ATOM     76  C   UNL A   1      45.182  32.863  30.587  1.00  0.00    -0.014 A 
ATOM     77  C   UNL A   1      45.397  32.995  31.967  1.00  0.00     0.009 A 
ATOM     78  C   UNL A   1      45.362  33.982  29.760  1.00  0.00     0.009 A 
ATOM     79  C   UNL A   1      45.744  34.233  32.512  1.00  0.00     0.001 A 
ATOM     80  C   UNL A   1      45.741  35.210  30.302  1.00  0.00     0.001 A 
ATOM     81  C   UNL A   1      45.919  35.338  31.679  1.00  0.00     0.000 A 
ENDBRANCH  63  76
ENDBRANCH  37  38
ENDBRANCH  29  32
ENDBRANCH  27  28
ENDBRANCH  26  27
ENDBRANCH   1  26
TORSDOF 16
ENDMDL
MODEL 3
REMARK VINA RESULT:     -10.2      3.836      8.605
REMARK SMILES CC[NH2+][C@@]1(C(=O)NCCCCNC(=O)c2ccc(-c3c4nc(c(-c5ccccc5)c5ccc([nH]5)c(-c5ccccc5)c5nc(c(-c6ccccc6)c6ccc3[nH]6)C=C5)C=C4)cc2)CCC[C@H]1CC[NH+]1CCCCC1
REMARK SMILES IDX 9 1 8 2 7 3 5 4 6 5 4 7 63 8 66 9 64 10 65 11 3 12 2 15 1 16
REMARK SMILES IDX 67 17 68 18 69 19 70 20 74 21 71 23 73 24 72 25 10 26 11 27
REMARK SMILES IDX 12 28 13 29 14 31 15 32 16 33 62 34 17 35 61 36 18 37 19 38
REMARK SMILES IDX 20 39 55 40 21 41 60 42 54 43 56 44 22 45 59 46 53 47 52 48
REMARK SMILES IDX 23 50 45 51 30 52 44 53 31 54 34 55 43 56 57 57 32 58 33 59
REMARK SMILES IDX 42 61 58 62 35 63 24 64 25 65 29 66 26 67 28 68 27 69 46 70
REMARK SMILES IDX 47 71 51 72 48 73 50 74 49 75 36 76 37 77 41 78 38 79 40 80
REMARK SMILES IDX 39 81
REMARK H PARENT 7 6 3 13 3 14 69 22 12 30 56 49 34 60
REMARK Flexibility Score: inf
ROOT
ATOM      1  C   UNL A   1      38.729  22.571  26.179  1.00  0.00     0.023 C 
ENDROOT
BRANCH   1   2
ATOM      2  C   UNL A   1      37.444  23.281  25.760  1.00  0.00     0.116 C 
BRANCH   2   3
ATOM      3  N   UNL A   1      37.242  23.191  24.335  1.00  0.00    -0.351 N 
ATOM      4  C   UNL A   1      36.144  23.208  23.538  1.00  0.00     0.281 C 
ATOM      5  O   UNL A   1      36.395  22.943  22.348  1.00  0.00    -0.268 OA
ATOM      6  H   UNL A   1      38.082  23.095  23.832  1.00  0.00     0.163 HD
BRANCH   4   7
ATOM      7  C   UNL A   1      34.630  23.482  24.007  1.00  0.00     0.178 C 
ATOM      8  C   UNL A   1      34.107  22.389  24.962  1.00  0.00     0.079 C 
ATOM      9  C   UNL A   1      33.719  23.439  22.726  1.00  0.00     0.066 C 
ATOM     10  C   UNL A   1      32.983  21.652  24.244  1.00  0.00     0.008 C 
ATOM     11  C   UNL A   1      33.035  22.057  22.781  1.00  0.00     0.011 C 
BRANCH   7  12
ATOM     12  N   UNL A   1      34.771  24.774  24.712  1.00  0.00    -0.334 N 
ATOM     13  H   UNL A   1      35.768  24.887  24.899  1.00  0.00     0.347 HD
ATOM     14  H   UNL A   1      34.302  25.413  24.069  1.00  0.00     0.347 HD
BRANCH  12  15
ATOM     15  C   UNL A   1      34.095  25.062  25.957  1.00  0.00     0.257 C 
ATOM     16  C   UNL A   1      33.139  26.239  25.766  1.00  0.00     0.071 C 
ENDBRANCH  12  15
ENDBRANCH   7  12
BRANCH   9  17
ATOM     17  C   UNL A   1      32.599  24.481  22.499  1.00  0.00     0.072 C 
BRANCH  17  18
ATOM     18  C   UNL A   1      32.753  25.450  21.324  1.00  0.00     0.262 C 
BRANCH  18  19
ATOM     19  N   UNL A   1      32.420  26.851  21.631  1.00  0.00    -0.335 N 
ATOM     20  C   UNL A   1      31.161  26.927  22.392  1.00  0.00     0.262 C 
ATOM     21  C   UNL A   1      33.533  27.456  22.387  1.00  0.00     0.262 C 
ATOM     22  H   UNL A   1      32.286  27.368  20.762  1.00  0.00     0.348 HD
ATOM     23  C   UNL A   1      30.817  28.360  22.805  1.00  0.00     0.062 C 
ATOM     24  C   UNL A   1      33.250  28.900  22.792  1.00  0.00     0.062 C 
ATOM     25  C   UNL A   1      31.957  28.997  23.588  1.00  0.00     0.012 C 
ENDBRANCH  18  19
ENDBRANCH  17  18
ENDBRANCH   9  17
ENDBRANCH   4   7
ENDBRANCH   2   3
ENDBRANCH   1   2
BRANCH   1  26
ATOM     26  C   UNL A   1      38.954  21.229  25.485  1.00  0.00     0.023 C 
BRANCH  26  27
ATOM     27  C   UNL A   1      39.446  20.110  26.397  1.00  0.00     0.116 C 
BRANCH  27  28
ATOM     28  N   UNL A   1      40.590  19.380  25.869  1.00  0.00    -0.352 N 
ATOM     29  C   UNL A   1      41.906  19.779  25.817  1.00  0.00     0.251 C 
ATOM     30  H   UNL A   1      40.396  18.487  25.503  1.00  0.00     0.163 HD
ATOM     31  O   UNL A   1      42.745  19.092  25.256  1.00  0.00    -0.269 OA
BRANCH  29  32
ATOM     32  C   UNL A   1      42.279  21.077  26.416  1.00  0.00     0.039 A 
ATOM     33  C   UNL A   1      42.588  22.144  25.570  1.00  0.00     0.014 A 
ATOM     34  C   UNL A   1      42.276  21.249  27.802  1.00  0.00     0.014 A 
ATOM     35  C   UNL A   1      42.839  23.402  26.118  1.00  0.00     0.010 A 
ATOM     36  C   UNL A   1      42.436  22.520  28.339  1.00  0.00     0.010 A 
ATOM     37  C   UNL A   1      42.734  23.607  27.503  1.00  0.00    -0.014 A 
BRANCH  37  38
ATOM     38  C   UNL A   1      42.962  24.947  28.095  1.00  0.00     0.031 A 
ATOM     39  C   UNL A   1      44.345  25.358  28.521  1.00  0.00     0.074 A 
ATOM     40  C   UNL A   1      41.919  25.779  28.288  1.00  0.00     0.049 A 
ATOM     41  N   UNL A   1      44.744  26.487  29.052  1.00  0.00    -0.248 NA
ATOM     42  C   UNL A   1      45.416  24.362  28.355  1.00  0.00     0.031 C 
ATOM     43  C   UNL A   1      40.520  25.477  27.975  1.00  0.00     0.029 A 
ATOM     44  N   UNL A   1      41.878  27.054  28.793  1.00  0.00    -0.354 N 
ATOM     45  C   UNL A   1      46.102  26.326  29.297  1.00  0.00     0.074 A 
ATOM     46  C   UNL A   1      46.446  24.974  28.918  1.00  0.00     0.031 C 
ATOM     47  C   UNL A   1      39.765  26.552  28.253  1.00  0.00     0.029 A 
ATOM     48  C   UNL A   1      40.620  27.605  28.793  1.00  0.00     0.049 A 
ATOM     49  H   UNL A   1      42.674  27.529  29.123  1.00  0.00     0.167 HD
ATOM     50  C   UNL A   1      46.993  27.231  29.767  1.00  0.00     0.031 A 
ATOM     51  C   UNL A   1      40.204  28.826  29.175  1.00  0.00     0.031 A 
ATOM     52  C   UNL A   1      46.655  28.582  30.127  1.00  0.00     0.049 A 
ATOM     53  C   UNL A   1      41.214  29.820  29.680  1.00  0.00     0.074 A 
ATOM     54  C   UNL A   1      47.494  29.595  30.557  1.00  0.00     0.029 A 
ATOM     55  N   UNL A   1      45.373  29.105  30.099  1.00  0.00    -0.354 N 
ATOM     56  N   UNL A   1      42.509  29.680  29.828  1.00  0.00    -0.248 NA
ATOM     57  C   UNL A   1      40.704  31.147  30.050  1.00  0.00     0.031 C 
ATOM     58  C   UNL A   1      46.709  30.720  30.833  1.00  0.00     0.029 A 
ATOM     59  C   UNL A   1      45.392  30.423  30.521  1.00  0.00     0.049 A 
ATOM     60  H   UNL A   1      44.567  28.613  29.819  1.00  0.00     0.167 HD
ATOM     61  C   UNL A   1      42.973  30.908  30.280  1.00  0.00     0.074 A 
ATOM     62  C   UNL A   1      41.823  31.785  30.362  1.00  0.00     0.031 C 
ATOM     63  C   UNL A   1      44.237  31.279  30.599  1.00  0.00     0.031 A 
BRANCH  50  64
ATOM     64  C   UNL A   1      48.420  26.780  29.913  1.00  0.00    -0.014 A 
ATOM     65  C   UNL A   1      49.360  26.997  28.892  1.00  0.00     0.009 A 
ATOM     66  C   UNL A   1      48.836  26.145  31.093  1.00  0.00     0.009 A 
ATOM     67  C   UNL A   1      50.675  26.549  29.032  1.00  0.00     0.001 A 
ATOM     68  C   UNL A   1      50.159  25.727  31.244  1.00  0.00     0.001 A 
ATOM     69  C   UNL A   1      51.074  25.919  30.209  1.00  0.00     0.000 A 
ENDBRANCH  50  64
BRANCH  51  70
ATOM     70  C   UNL A   1      38.768  29.198  29.061  1.00  0.00    -0.014 A 
ATOM     71  C   UNL A   1      37.912  29.076  30.166  1.00  0.00     0.009 A 
ATOM     72  C   UNL A   1      38.245  29.663  27.845  1.00  0.00     0.009 A 
ATOM     73  C   UNL A   1      36.554  29.383  30.049  1.00  0.00     0.001 A 
ATOM     74  C   UNL A   1      36.893  29.997  27.738  1.00  0.00     0.001 A 
ATOM     75  C   UNL A   1      36.047  29.846  28.835  1.00  0.00     0.000 A 
ENDBRANCH  51  70
BRANCH  63  76
ATOM     76  C   UNL A   1      44.443  32.704  31.030  1.00  0.00    -0.014 A 
ATOM     77  C   UNL A   1      44.663  33.727  30.095  1.00  0.00     0.009 A 
ATOM     78  C   UNL A   1      44.394  33.029  32.394  1.00  0.00     0.009 A 
ATOM     79  C   UNL A   1      44.872  35.040  30.521  1.00  0.00     0.001 A 
ATOM     80  C   UNL A   1      44.570  34.347  32.816  1.00  0.00     0.001 A 
ATOM     81  C   UNL A   1      44.822  35.349  31.880  1.00  0.00     0.000 A 
ENDBRANCH  63  76
ENDBRANCH  37  38
ENDBRANCH  29  32
ENDBRANCH  27  28
ENDBRANCH  26  27
ENDBRANCH   1  26
TORSDOF 16
ENDMDL
