MODEL 1
REMARK VINA RESULT:     -11.6      0.000      0.000
REMARK SMILES C[C@@H](C(=O)NCCCCNC(=O)c1ccc(-c2c3nc(c(-c4ccccc4)c4ccc([nH]4)c(-c4ccccc4)c4nc(c(-c5ccccc5)c5ccc2[nH]5)C=C4)C=C3)cc1)N1C(=O)/C(=C/c2ccc(-c3ccc([N+](=O)[O-])cc3Cl)o2)SC1=S
REMARK SMILES IDX 6 1 5 2 3 3 4 4 2 6 1 7 61 8 62 9 82 10 63 11 64 12 81 13
REMARK SMILES IDX 83 14 65 15 66 16 67 17 80 18 68 19 69 20 70 21 71 22 78 23
REMARK SMILES IDX 72 24 77 25 79 26 73 27 74 28 75 29 76 30 7 31 8 32 9 33
REMARK SMILES IDX 10 34 11 35 12 37 13 38 14 39 60 40 15 41 59 42 16 43 17 44
REMARK SMILES IDX 18 45 53 46 19 47 58 48 52 49 54 50 20 51 57 52 51 53 50 54
REMARK SMILES IDX 21 56 43 57 28 58 42 59 29 60 32 61 41 62 55 63 30 64 31 65
REMARK SMILES IDX 40 67 56 68 33 69 22 70 23 71 27 72 24 73 26 74 25 75 44 76
REMARK SMILES IDX 45 77 49 78 46 79 48 80 47 81 34 82 35 83 39 84 36 85 38 86
REMARK SMILES IDX 37 87
REMARK H PARENT 5 5 10 36 54 55 32 66
REMARK Flexibility Score: inf
ROOT
ATOM      1  C   UNL A   1      35.141  33.775  31.883  1.00  0.00     0.116 C 
ENDROOT
BRANCH   1   2
ATOM      2  N   UNL A   1      33.875  34.327  31.435  1.00  0.00    -0.354 N 
ATOM      3  C   UNL A   1      33.548  34.860  30.215  1.00  0.00     0.242 C 
ATOM      4  O   UNL A   1      32.495  35.494  30.121  1.00  0.00    -0.273 OA
ATOM      5  H   UNL A   1      33.150  34.320  32.100  1.00  0.00     0.163 HD
BRANCH   3   6
ATOM      6  C   UNL A   1      34.506  34.659  29.016  1.00  0.00     0.178 C 
ATOM      7  C   UNL A   1      34.237  35.816  28.047  1.00  0.00     0.042 C 
BRANCH   6   8
ATOM      8  N   UNL A   1      34.312  33.296  28.454  1.00  0.00    -0.281 N 
ATOM      9  C   UNL A   1      33.145  32.929  27.809  1.00  0.00     0.267 C 
ATOM     10  C   UNL A   1      35.329  32.355  28.385  1.00  0.00     0.149 C 
ATOM     11  O   UNL A   1      32.204  33.647  27.500  1.00  0.00    -0.268 OA
ATOM     12  C   UNL A   1      33.172  31.494  27.437  1.00  0.00     0.084 C 
ATOM     13  S   UNL A   1      34.673  30.800  27.872  1.00  0.00    -0.054 SA
ATOM     14  S   UNL A   1      36.961  32.554  28.685  1.00  0.00    -0.052 S 
ATOM     15  C   UNL A   1      32.116  30.941  26.831  1.00  0.00     0.068 C 
BRANCH  15  16
ATOM     16  C   UNL A   1      32.011  29.559  26.550  1.00  0.00     0.128 A 
ATOM     17  C   UNL A   1      31.661  28.525  27.408  1.00  0.00     0.051 A 
ATOM     18  O   UNL A   1      32.187  29.026  25.295  1.00  0.00    -0.457 OA
ATOM     19  C   UNL A   1      31.639  27.331  26.656  1.00  0.00     0.051 A 
ATOM     20  C   UNL A   1      32.001  27.682  25.376  1.00  0.00     0.136 A 
BRANCH  20  21
ATOM     21  C   UNL A   1      32.182  26.920  24.150  1.00  0.00     0.036 A 
ATOM     22  C   UNL A   1      33.348  26.145  24.018  1.00  0.00     0.020 A 
ATOM     23  C   UNL A   1      31.281  26.984  23.072  1.00  0.00     0.058 A 
ATOM     24  C   UNL A   1      33.625  25.464  22.829  1.00  0.00     0.086 A 
ATOM     25  C   UNL A   1      31.553  26.306  21.877  1.00  0.00     0.106 A 
ATOM     26  Cl  UNL A   1      29.839  27.940  23.120  1.00  0.00    -0.083 Cl
ATOM     27  C   UNL A   1      32.731  25.559  21.759  1.00  0.00     0.270 A 
BRANCH  27  28
ATOM     28  N   UNL A   1      33.045  24.893  20.489  1.00  0.00     0.062 N 
ATOM     29  O   UNL A   1      33.373  23.699  20.533  1.00  0.00    -0.258 OA
ATOM     30  O   UNL A   1      32.973  25.566  19.452  1.00  0.00    -0.258 OA
ENDBRANCH  27  28
ENDBRANCH  20  21
ENDBRANCH  15  16
ENDBRANCH   6   8
ENDBRANCH   3   6
ENDBRANCH   1   2
BRANCH   1  31
ATOM     31  C   UNL A   1      35.063  33.375  33.360  1.00  0.00     0.023 C 
BRANCH  31  32
ATOM     32  C   UNL A   1      36.392  33.476  34.110  1.00  0.00     0.023 C 
BRANCH  32  33
ATOM     33  C   UNL A   1      37.530  32.684  33.484  1.00  0.00     0.116 C 
BRANCH  33  34
ATOM     34  N   UNL A   1      37.422  31.252  33.725  1.00  0.00    -0.352 N 
ATOM     35  C   UNL A   1      38.204  30.247  33.209  1.00  0.00     0.251 C 
ATOM     36  H   UNL A   1      36.701  30.969  34.332  1.00  0.00     0.163 HD
ATOM     37  O   UNL A   1      37.925  29.068  33.402  1.00  0.00    -0.269 OA
BRANCH  35  38
ATOM     38  C   UNL A   1      39.369  30.613  32.380  1.00  0.00     0.039 A 
ATOM     39  C   UNL A   1      39.292  30.465  30.994  1.00  0.00     0.014 A 
ATOM     40  C   UNL A   1      40.502  31.168  32.979  1.00  0.00     0.014 A 
ATOM     41  C   UNL A   1      40.330  30.946  30.194  1.00  0.00     0.010 A 
ATOM     42  C   UNL A   1      41.500  31.706  32.178  1.00  0.00     0.010 A 
ATOM     43  C   UNL A   1      41.422  31.603  30.780  1.00  0.00    -0.014 A 
BRANCH  43  44
ATOM     44  C   UNL A   1      42.513  32.193  29.969  1.00  0.00     0.031 A 
ATOM     45  C   UNL A   1      43.780  31.416  29.759  1.00  0.00     0.074 A 
ATOM     46  C   UNL A   1      42.416  33.463  29.532  1.00  0.00     0.049 A 
ATOM     47  N   UNL A   1      44.918  31.811  29.250  1.00  0.00    -0.248 NA
ATOM     48  C   UNL A   1      43.774  30.018  30.219  1.00  0.00     0.031 C 
ATOM     49  C   UNL A   1      41.252  34.335  29.703  1.00  0.00     0.029 A 
ATOM     50  N   UNL A   1      43.330  34.249  28.879  1.00  0.00    -0.354 N 
ATOM     51  C   UNL A   1      45.776  30.726  29.371  1.00  0.00     0.074 A 
ATOM     52  C   UNL A   1      45.037  29.670  30.027  1.00  0.00     0.031 C 
ATOM     53  C   UNL A   1      41.523  35.536  29.165  1.00  0.00     0.029 A 
ATOM     54  C   UNL A   1      42.890  35.530  28.652  1.00  0.00     0.049 A 
ATOM     55  H   UNL A   1      44.217  33.927  28.599  1.00  0.00     0.167 HD
ATOM     56  C   UNL A   1      47.062  30.617  28.965  1.00  0.00     0.031 A 
ATOM     57  C   UNL A   1      43.523  36.588  28.112  1.00  0.00     0.031 A 
ATOM     58  C   UNL A   1      47.787  31.659  28.289  1.00  0.00     0.049 A 
ATOM     59  C   UNL A   1      44.944  36.440  27.648  1.00  0.00     0.074 A 
ATOM     60  C   UNL A   1      49.071  31.623  27.774  1.00  0.00     0.029 A 
ATOM     61  N   UNL A   1      47.286  32.925  28.033  1.00  0.00    -0.354 N 
ATOM     62  N   UNL A   1      45.728  35.393  27.721  1.00  0.00    -0.248 NA
ATOM     63  C   UNL A   1      45.563  37.616  27.021  1.00  0.00     0.031 C 
ATOM     64  C   UNL A   1      49.359  32.882  27.238  1.00  0.00     0.029 A 
ATOM     65  C   UNL A   1      48.239  33.686  27.380  1.00  0.00     0.049 A 
ATOM     66  H   UNL A   1      46.384  33.237  28.278  1.00  0.00     0.167 HD
ATOM     67  C   UNL A   1      46.924  35.774  27.127  1.00  0.00     0.074 A 
ATOM     68  C   UNL A   1      46.760  37.147  26.694  1.00  0.00     0.031 C 
ATOM     69  C   UNL A   1      48.055  35.048  26.953  1.00  0.00     0.031 A 
BRANCH  56  70
ATOM     70  C   UNL A   1      47.766  29.325  29.265  1.00  0.00    -0.014 A 
ATOM     71  C   UNL A   1      47.675  28.223  28.399  1.00  0.00     0.009 A 
ATOM     72  C   UNL A   1      48.531  29.206  30.437  1.00  0.00     0.009 A 
ATOM     73  C   UNL A   1      48.294  27.015  28.723  1.00  0.00     0.001 A 
ATOM     74  C   UNL A   1      49.173  28.005  30.743  1.00  0.00     0.001 A 
ATOM     75  C   UNL A   1      49.044  26.908  29.895  1.00  0.00     0.000 A 
ENDBRANCH  56  70
BRANCH  57  76
ATOM     76  C   UNL A   1      42.804  37.880  27.972  1.00  0.00    -0.014 A 
ATOM     77  C   UNL A   1      42.869  38.840  28.993  1.00  0.00     0.009 A 
ATOM     78  C   UNL A   1      42.075  38.170  26.808  1.00  0.00     0.009 A 
ATOM     79  C   UNL A   1      42.207  40.062  28.856  1.00  0.00     0.001 A 
ATOM     80  C   UNL A   1      41.433  39.403  26.666  1.00  0.00     0.001 A 
ATOM     81  C   UNL A   1      41.495  40.344  27.691  1.00  0.00     0.000 A 
ENDBRANCH  57  76
BRANCH  69  82
ATOM     82  C   UNL A   1      49.192  35.708  26.227  1.00  0.00    -0.014 A 
ATOM     83  C   UNL A   1      49.206  35.805  24.828  1.00  0.00     0.009 A 
ATOM     84  C   UNL A   1      50.233  36.297  26.963  1.00  0.00     0.009 A 
ATOM     85  C   UNL A   1      50.252  36.462  24.178  1.00  0.00     0.001 A 
ATOM     86  C   UNL A   1      51.265  36.973  26.312  1.00  0.00     0.001 A 
ATOM     87  C   UNL A   1      51.276  37.050  24.920  1.00  0.00     0.000 A 
ENDBRANCH  69  82
ENDBRANCH  43  44
ENDBRANCH  35  38
ENDBRANCH  33  34
ENDBRANCH  32  33
ENDBRANCH  31  32
ENDBRANCH   1  31
TORSDOF 15
ENDMDL
MODEL 2
REMARK VINA RESULT:     -11.4      3.341      5.731
REMARK SMILES C[C@@H](C(=O)NCCCCNC(=O)c1ccc(-c2c3nc(c(-c4ccccc4)c4ccc([nH]4)c(-c4ccccc4)c4nc(c(-c5ccccc5)c5ccc2[nH]5)C=C4)C=C3)cc1)N1C(=O)/C(=C/c2ccc(-c3ccc([N+](=O)[O-])cc3Cl)o2)SC1=S
REMARK SMILES IDX 6 1 5 2 3 3 4 4 2 6 1 7 61 8 62 9 82 10 63 11 64 12 81 13
REMARK SMILES IDX 83 14 65 15 66 16 67 17 80 18 68 19 69 20 70 21 71 22 78 23
REMARK SMILES IDX 72 24 77 25 79 26 73 27 74 28 75 29 76 30 7 31 8 32 9 33
REMARK SMILES IDX 10 34 11 35 12 37 13 38 14 39 60 40 15 41 59 42 16 43 17 44
REMARK SMILES IDX 18 45 53 46 19 47 58 48 52 49 54 50 20 51 57 52 51 53 50 54
REMARK SMILES IDX 21 56 43 57 28 58 42 59 29 60 32 61 41 62 55 63 30 64 31 65
REMARK SMILES IDX 40 67 56 68 33 69 22 70 23 71 27 72 24 73 26 74 25 75 44 76
REMARK SMILES IDX 45 77 49 78 46 79 48 80 47 81 34 82 35 83 39 84 36 85 38 86
REMARK SMILES IDX 37 87
REMARK H PARENT 5 5 10 36 54 55 32 66
REMARK Flexibility Score: inf
ROOT
ATOM      1  C   UNL A   1      36.071  34.603  31.767  1.00  0.00     0.116 C 
ENDROOT
BRANCH   1   2
ATOM      2  N   UNL A   1      34.623  34.678  31.680  1.00  0.00    -0.354 N 
ATOM      3  C   UNL A   1      33.835  34.949  30.593  1.00  0.00     0.242 C 
ATOM      4  O   UNL A   1      32.645  35.205  30.785  1.00  0.00    -0.273 OA
ATOM      5  H   UNL A   1      34.139  34.510  32.521  1.00  0.00     0.163 HD
BRANCH   3   6
ATOM      6  C   UNL A   1      34.463  34.938  29.178  1.00  0.00     0.178 C 
ATOM      7  C   UNL A   1      33.789  36.072  28.394  1.00  0.00     0.042 C 
BRANCH   6   8
ATOM      8  N   UNL A   1      34.320  33.580  28.587  1.00  0.00    -0.281 N 
ATOM      9  C   UNL A   1      33.151  33.167  27.975  1.00  0.00     0.267 C 
ATOM     10  C   UNL A   1      35.382  32.697  28.457  1.00  0.00     0.149 C 
ATOM     11  O   UNL A   1      32.163  33.842  27.719  1.00  0.00    -0.268 OA
ATOM     12  C   UNL A   1      33.240  31.746  27.564  1.00  0.00     0.084 C 
ATOM     13  S   UNL A   1      34.790  31.123  27.927  1.00  0.00    -0.054 SA
ATOM     14  S   UNL A   1      37.011  32.977  28.703  1.00  0.00    -0.052 S 
ATOM     15  C   UNL A   1      32.192  31.151  26.981  1.00  0.00     0.068 C 
BRANCH  15  16
ATOM     16  C   UNL A   1      32.150  29.773  26.668  1.00  0.00     0.128 A 
ATOM     17  C   UNL A   1      31.770  28.712  27.479  1.00  0.00     0.051 A 
ATOM     18  O   UNL A   1      32.433  29.272  25.420  1.00  0.00    -0.457 OA
ATOM     19  C   UNL A   1      31.839  27.534  26.705  1.00  0.00     0.051 A 
ATOM     20  C   UNL A   1      32.283  27.921  25.462  1.00  0.00     0.136 A 
BRANCH  20  21
ATOM     21  C   UNL A   1      32.576  27.191  24.239  1.00  0.00     0.036 A 
ATOM     22  C   UNL A   1      31.850  27.519  23.081  1.00  0.00     0.020 A 
ATOM     23  C   UNL A   1      33.497  26.129  24.186  1.00  0.00     0.058 A 
ATOM     24  C   UNL A   1      32.019  26.794  21.898  1.00  0.00     0.086 A 
ATOM     25  C   UNL A   1      33.670  25.395  23.006  1.00  0.00     0.106 A 
ATOM     26  Cl  UNL A   1      34.410  25.620  25.566  1.00  0.00    -0.083 Cl
ATOM     27  C   UNL A   1      32.920  25.725  21.871  1.00  0.00     0.270 A 
BRANCH  27  28
ATOM     28  N   UNL A   1      33.059  24.924  20.649  1.00  0.00     0.062 N 
ATOM     29  O   UNL A   1      33.301  23.716  20.779  1.00  0.00    -0.258 OA
ATOM     30  O   UNL A   1      32.937  25.505  19.562  1.00  0.00    -0.258 OA
ENDBRANCH  27  28
ENDBRANCH  20  21
ENDBRANCH  15  16
ENDBRANCH   6   8
ENDBRANCH   3   6
ENDBRANCH   1   2
BRANCH   1  31
ATOM     31  C   UNL A   1      36.497  33.578  32.823  1.00  0.00     0.023 C 
BRANCH  31  32
ATOM     32  C   UNL A   1      37.937  33.087  32.678  1.00  0.00     0.023 C 
BRANCH  32  33
ATOM     33  C   UNL A   1      38.098  31.576  32.749  1.00  0.00     0.116 C 
BRANCH  33  34
ATOM     34  N   UNL A   1      36.895  30.860  32.345  1.00  0.00    -0.352 N 
ATOM     35  C   UNL A   1      36.767  29.913  31.358  1.00  0.00     0.251 C 
ATOM     36  H   UNL A   1      36.074  31.082  32.840  1.00  0.00     0.163 HD
ATOM     37  O   UNL A   1      35.664  29.477  31.042  1.00  0.00    -0.269 OA
BRANCH  35  38
ATOM     38  C   UNL A   1      37.980  29.457  30.654  1.00  0.00     0.039 A 
ATOM     39  C   UNL A   1      38.244  29.938  29.370  1.00  0.00     0.014 A 
ATOM     40  C   UNL A   1      38.885  28.613  31.302  1.00  0.00     0.014 A 
ATOM     41  C   UNL A   1      39.460  29.629  28.758  1.00  0.00     0.010 A 
ATOM     42  C   UNL A   1      40.120  28.364  30.720  1.00  0.00     0.010 A 
ATOM     43  C   UNL A   1      40.420  28.871  29.446  1.00  0.00    -0.014 A 
BRANCH  43  44
ATOM     44  C   UNL A   1      41.752  28.577  28.867  1.00  0.00     0.031 A 
ATOM     45  C   UNL A   1      42.045  27.198  28.351  1.00  0.00     0.074 A 
ATOM     46  C   UNL A   1      42.729  29.503  28.920  1.00  0.00     0.049 A 
ATOM     47  N   UNL A   1      43.187  26.678  27.982  1.00  0.00    -0.248 NA
ATOM     48  C   UNL A   1      40.905  26.271  28.277  1.00  0.00     0.031 C 
ATOM     49  C   UNL A   1      42.581  30.867  29.431  1.00  0.00     0.029 A 
ATOM     50  N   UNL A   1      44.051  29.420  28.565  1.00  0.00    -0.354 N 
ATOM     51  C   UNL A   1      42.910  25.353  27.676  1.00  0.00     0.074 A 
ATOM     52  C   UNL A   1      41.502  25.142  27.932  1.00  0.00     0.031 C 
ATOM     53  C   UNL A   1      43.767  31.493  29.353  1.00  0.00     0.029 A 
ATOM     54  C   UNL A   1      44.763  30.564  28.829  1.00  0.00     0.049 A 
ATOM     55  H   UNL A   1      44.452  28.617  28.160  1.00  0.00     0.167 HD
ATOM     56  C   UNL A   1      43.752  24.398  27.218  1.00  0.00     0.031 A 
ATOM     57  C   UNL A   1      46.075  30.828  28.686  1.00  0.00     0.031 A 
ATOM     58  C   UNL A   1      45.146  24.616  26.940  1.00  0.00     0.049 A 
ATOM     59  C   UNL A   1      46.989  29.762  28.155  1.00  0.00     0.074 A 
ATOM     60  C   UNL A   1      46.068  23.733  26.405  1.00  0.00     0.029 A 
ATOM     61  N   UNL A   1      45.816  25.806  27.172  1.00  0.00    -0.354 N 
ATOM     62  N   UNL A   1      46.705  28.526  27.820  1.00  0.00    -0.248 NA
ATOM     63  C   UNL A   1      48.401  30.128  27.974  1.00  0.00     0.031 C 
ATOM     64  C   UNL A   1      47.307  24.380  26.350  1.00  0.00     0.029 A 
ATOM     65  C   UNL A   1      47.144  25.678  26.807  1.00  0.00     0.049 A 
ATOM     66  H   UNL A   1      45.407  26.622  27.543  1.00  0.00     0.167 HD
ATOM     67  C   UNL A   1      47.896  27.975  27.366  1.00  0.00     0.074 A 
ATOM     68  C   UNL A   1      48.903  29.011  27.462  1.00  0.00     0.031 C 
ATOM     69  C   UNL A   1      48.130  26.722  26.906  1.00  0.00     0.031 A 
BRANCH  56  70
ATOM     70  C   UNL A   1      43.180  23.024  27.009  1.00  0.00    -0.014 A 
ATOM     71  C   UNL A   1      42.982  22.502  25.721  1.00  0.00     0.009 A 
ATOM     72  C   UNL A   1      42.830  22.242  28.121  1.00  0.00     0.009 A 
ATOM     73  C   UNL A   1      42.399  21.245  25.550  1.00  0.00     0.001 A 
ATOM     74  C   UNL A   1      42.275  20.973  27.946  1.00  0.00     0.001 A 
ATOM     75  C   UNL A   1      42.049  20.481  26.663  1.00  0.00     0.000 A 
ENDBRANCH  56  70
BRANCH  57  76
ATOM     76  C   UNL A   1      46.596  32.173  29.044  1.00  0.00    -0.014 A 
ATOM     77  C   UNL A   1      47.132  32.407  30.319  1.00  0.00     0.009 A 
ATOM     78  C   UNL A   1      46.585  33.216  28.106  1.00  0.00     0.009 A 
ATOM     79  C   UNL A   1      47.637  33.665  30.652  1.00  0.00     0.001 A 
ATOM     80  C   UNL A   1      47.112  34.467  28.436  1.00  0.00     0.001 A 
ATOM     81  C   UNL A   1      47.632  34.692  29.709  1.00  0.00     0.000 A 
ENDBRANCH  57  76
BRANCH  69  82
ATOM     82  C   UNL A   1      49.520  26.412  26.431  1.00  0.00    -0.014 A 
ATOM     83  C   UNL A   1      50.420  25.692  27.230  1.00  0.00     0.009 A 
ATOM     84  C   UNL A   1      49.910  26.792  25.137  1.00  0.00     0.009 A 
ATOM     85  C   UNL A   1      51.692  25.377  26.749  1.00  0.00     0.001 A 
ATOM     86  C   UNL A   1      51.173  26.456  24.650  1.00  0.00     0.001 A 
ATOM     87  C   UNL A   1      52.065  25.753  25.459  1.00  0.00     0.000 A 
ENDBRANCH  69  82
ENDBRANCH  43  44
ENDBRANCH  35  38
ENDBRANCH  33  34
ENDBRANCH  32  33
ENDBRANCH  31  32
ENDBRANCH   1  31
TORSDOF 15
ENDMDL
MODEL 3
REMARK VINA RESULT:     -11.0      5.437     11.275
REMARK SMILES C[C@@H](C(=O)NCCCCNC(=O)c1ccc(-c2c3nc(c(-c4ccccc4)c4ccc([nH]4)c(-c4ccccc4)c4nc(c(-c5ccccc5)c5ccc2[nH]5)C=C4)C=C3)cc1)N1C(=O)/C(=C/c2ccc(-c3ccc([N+](=O)[O-])cc3Cl)o2)SC1=S
REMARK SMILES IDX 6 1 5 2 3 3 4 4 2 6 1 7 61 8 62 9 82 10 63 11 64 12 81 13
REMARK SMILES IDX 83 14 65 15 66 16 67 17 80 18 68 19 69 20 70 21 71 22 78 23
REMARK SMILES IDX 72 24 77 25 79 26 73 27 74 28 75 29 76 30 7 31 8 32 9 33
REMARK SMILES IDX 10 34 11 35 12 37 13 38 14 39 60 40 15 41 59 42 16 43 17 44
REMARK SMILES IDX 18 45 53 46 19 47 58 48 52 49 54 50 20 51 57 52 51 53 50 54
REMARK SMILES IDX 21 56 43 57 28 58 42 59 29 60 32 61 41 62 55 63 30 64 31 65
REMARK SMILES IDX 40 67 56 68 33 69 22 70 23 71 27 72 24 73 26 74 25 75 44 76
REMARK SMILES IDX 45 77 49 78 46 79 48 80 47 81 34 82 35 83 39 84 36 85 38 86
REMARK SMILES IDX 37 87
REMARK H PARENT 5 5 10 36 54 55 32 66
REMARK Flexibility Score: inf
ROOT
ATOM      1  C   UNL A   1      37.177  32.041  32.505  1.00  0.00     0.116 C 
ENDROOT
BRANCH   1   2
ATOM      2  N   UNL A   1      38.193  32.896  33.092  1.00  0.00    -0.354 N 
ATOM      3  C   UNL A   1      38.821  32.785  34.305  1.00  0.00     0.242 C 
ATOM      4  O   UNL A   1      39.472  33.748  34.715  1.00  0.00    -0.273 OA
ATOM      5  H   UNL A   1      38.470  33.664  32.543  1.00  0.00     0.163 HD
BRANCH   3   6
ATOM      6  C   UNL A   1      38.683  31.473  35.115  1.00  0.00     0.178 C 
ATOM      7  C   UNL A   1      38.175  31.872  36.506  1.00  0.00     0.042 C 
BRANCH   6   8
ATOM      8  N   UNL A   1      39.978  30.742  35.093  1.00  0.00    -0.281 N 
ATOM      9  C   UNL A   1      40.293  29.838  34.095  1.00  0.00     0.267 C 
ATOM     10  C   UNL A   1      41.021  31.027  35.962  1.00  0.00     0.149 C 
ATOM     11  O   UNL A   1      39.663  29.607  33.072  1.00  0.00    -0.268 OA
ATOM     12  C   UNL A   1      41.593  29.180  34.365  1.00  0.00     0.084 C 
ATOM     13  S   UNL A   1      42.294  29.819  35.787  1.00  0.00    -0.054 SA
ATOM     14  S   UNL A   1      41.175  32.305  37.030  1.00  0.00    -0.052 S 
ATOM     15  C   UNL A   1      42.056  28.247  33.525  1.00  0.00     0.068 C 
BRANCH  15  16
ATOM     16  C   UNL A   1      43.224  27.488  33.769  1.00  0.00     0.128 A 
ATOM     17  C   UNL A   1      44.551  27.895  33.705  1.00  0.00     0.051 A 
ATOM     18  O   UNL A   1      43.203  26.181  34.194  1.00  0.00    -0.457 OA
ATOM     19  C   UNL A   1      45.355  26.801  34.087  1.00  0.00     0.051 A 
ATOM     20  C   UNL A   1      44.488  25.763  34.344  1.00  0.00     0.136 A 
BRANCH  20  21
ATOM     21  C   UNL A   1      44.685  24.383  34.755  1.00  0.00     0.036 A 
ATOM     22  C   UNL A   1      45.000  24.130  36.102  1.00  0.00     0.020 A 
ATOM     23  C   UNL A   1      44.645  23.304  33.853  1.00  0.00     0.058 A 
ATOM     24  C   UNL A   1      45.291  22.836  36.541  1.00  0.00     0.086 A 
ATOM     25  C   UNL A   1      44.937  22.004  34.284  1.00  0.00     0.106 A 
ATOM     26  Cl  UNL A   1      44.306  23.514  32.168  1.00  0.00    -0.083 Cl
ATOM     27  C   UNL A   1      45.270  21.780  35.624  1.00  0.00     0.270 A 
BRANCH  27  28
ATOM     28  N   UNL A   1      45.631  20.427  36.067  1.00  0.00     0.062 N 
ATOM     29  O   UNL A   1      45.391  19.487  35.297  1.00  0.00    -0.258 OA
ATOM     30  O   UNL A   1      46.144  20.306  37.188  1.00  0.00    -0.258 OA
ENDBRANCH  27  28
ENDBRANCH  20  21
ENDBRANCH  15  16
ENDBRANCH   6   8
ENDBRANCH   3   6
ENDBRANCH   1   2
BRANCH   1  31
ATOM     31  C   UNL A   1      35.780  32.628  32.730  1.00  0.00     0.023 C 
BRANCH  31  32
ATOM     32  C   UNL A   1      34.783  32.327  31.611  1.00  0.00     0.023 C 
BRANCH  32  33
ATOM     33  C   UNL A   1      35.324  32.556  30.208  1.00  0.00     0.116 C 
BRANCH  33  34
ATOM     34  N   UNL A   1      34.482  31.969  29.174  1.00  0.00    -0.352 N 
ATOM     35  C   UNL A   1      34.785  30.931  28.327  1.00  0.00     0.251 C 
ATOM     36  H   UNL A   1      33.587  32.365  29.070  1.00  0.00     0.163 HD
ATOM     37  O   UNL A   1      34.023  30.616  27.418  1.00  0.00    -0.269 OA
BRANCH  35  38
ATOM     38  C   UNL A   1      36.067  30.224  28.505  1.00  0.00     0.039 A 
ATOM     39  C   UNL A   1      37.020  30.275  27.486  1.00  0.00     0.014 A 
ATOM     40  C   UNL A   1      36.344  29.577  29.712  1.00  0.00     0.014 A 
ATOM     41  C   UNL A   1      38.289  29.736  27.705  1.00  0.00     0.010 A 
ATOM     42  C   UNL A   1      37.626  29.103  29.951  1.00  0.00     0.010 A 
ATOM     43  C   UNL A   1      38.610  29.181  28.953  1.00  0.00    -0.014 A 
BRANCH  43  44
ATOM     44  C   UNL A   1      39.964  28.661  29.258  1.00  0.00     0.031 A 
ATOM     45  C   UNL A   1      40.987  29.577  29.865  1.00  0.00     0.074 A 
ATOM     46  C   UNL A   1      40.309  27.416  28.877  1.00  0.00     0.049 A 
ATOM     47  N   UNL A   1      42.269  29.387  30.037  1.00  0.00    -0.248 NA
ATOM     48  C   UNL A   1      40.506  30.897  30.302  1.00  0.00     0.031 C 
ATOM     49  C   UNL A   1      39.418  26.442  28.245  1.00  0.00     0.029 A 
ATOM     50  N   UNL A   1      41.518  26.771  28.942  1.00  0.00    -0.354 N 
ATOM     51  C   UNL A   1      42.755  30.578  30.559  1.00  0.00     0.074 A 
ATOM     52  C   UNL A   1      41.637  31.492  30.646  1.00  0.00     0.031 C 
ATOM     53  C   UNL A   1      40.110  25.322  27.983  1.00  0.00     0.029 A 
ATOM     54  C   UNL A   1      41.500  25.515  28.389  1.00  0.00     0.049 A 
ATOM     55  H   UNL A   1      42.322  27.170  29.346  1.00  0.00     0.167 HD
ATOM     56  C   UNL A   1      44.019  30.881  30.937  1.00  0.00     0.031 A 
ATOM     57  C   UNL A   1      42.494  24.626  28.206  1.00  0.00     0.031 A 
ATOM     58  C   UNL A   1      45.123  29.963  30.874  1.00  0.00     0.049 A 
ATOM     59  C   UNL A   1      43.885  24.974  28.653  1.00  0.00     0.074 A 
ATOM     60  C   UNL A   1      46.426  30.150  31.300  1.00  0.00     0.029 A 
ATOM     61  N   UNL A   1      45.050  28.681  30.354  1.00  0.00    -0.354 N 
ATOM     62  N   UNL A   1      44.322  26.086  29.193  1.00  0.00    -0.248 NA
ATOM     63  C   UNL A   1      44.917  23.943  28.474  1.00  0.00     0.031 C 
ATOM     64  C   UNL A   1      47.151  28.992  31.002  1.00  0.00     0.029 A 
ATOM     65  C   UNL A   1      46.288  28.069  30.433  1.00  0.00     0.049 A 
ATOM     66  H   UNL A   1      44.237  28.267  29.984  1.00  0.00     0.167 HD
ATOM     67  C   UNL A   1      45.673  25.880  29.442  1.00  0.00     0.074 A 
ATOM     68  C   UNL A   1      45.982  24.536  28.999  1.00  0.00     0.031 C 
ATOM     69  C   UNL A   1      46.574  26.729  29.992  1.00  0.00     0.031 A 
BRANCH  56  70
ATOM     70  C   UNL A   1      44.266  32.277  31.435  1.00  0.00    -0.014 A 
ATOM     71  C   UNL A   1      44.141  32.601  32.796  1.00  0.00     0.009 A 
ATOM     72  C   UNL A   1      44.627  33.285  30.527  1.00  0.00     0.009 A 
ATOM     73  C   UNL A   1      44.324  33.915  33.229  1.00  0.00     0.001 A 
ATOM     74  C   UNL A   1      44.838  34.592  30.968  1.00  0.00     0.001 A 
ATOM     75  C   UNL A   1      44.674  34.909  32.315  1.00  0.00     0.000 A 
ENDBRANCH  56  70
BRANCH  57  76
ATOM     76  C   UNL A   1      42.199  23.313  27.578  1.00  0.00    -0.014 A 
ATOM     77  C   UNL A   1      41.638  22.276  28.338  1.00  0.00     0.009 A 
ATOM     78  C   UNL A   1      42.449  23.101  26.214  1.00  0.00     0.009 A 
ATOM     79  C   UNL A   1      41.343  21.047  27.745  1.00  0.00     0.001 A 
ATOM     80  C   UNL A   1      42.133  21.877  25.620  1.00  0.00     0.001 A 
ATOM     81  C   UNL A   1      41.586  20.850  26.387  1.00  0.00     0.000 A 
ENDBRANCH  57  76
BRANCH  69  82
ATOM     82  C   UNL A   1      47.973  26.218  30.186  1.00  0.00    -0.014 A 
ATOM     83  C   UNL A   1      48.923  26.285  29.157  1.00  0.00     0.009 A 
ATOM     84  C   UNL A   1      48.359  25.721  31.441  1.00  0.00     0.009 A 
ATOM     85  C   UNL A   1      50.229  25.844  29.375  1.00  0.00     0.001 A 
ATOM     86  C   UNL A   1      49.671  25.302  31.664  1.00  0.00     0.001 A 
ATOM     87  C   UNL A   1      50.603  25.359  30.628  1.00  0.00     0.000 A 
ENDBRANCH  69  82
ENDBRANCH  43  44
ENDBRANCH  35  38
ENDBRANCH  33  34
ENDBRANCH  32  33
ENDBRANCH  31  32
ENDBRANCH   1  31
TORSDOF 15
ENDMDL
