MODEL 1
REMARK VINA RESULT:     -10.3      0.000      0.000
REMARK SMILES CCCC[C@H](C(=O)NCCCCNC(=O)c1ccc(-c2c3nc(c(-c4ccccc4)c4ccc([nH]4)c(-c4ccccc4)c4nc(c(-c5ccccc5)c5ccc2[nH]5)C=C4)C=C3)cc1)[C@H](O)c1ccc(C(F)(F)F)cc1
REMARK SMILES IDX 10 1 9 2 8 3 6 4 7 5 5 7 4 8 3 9 2 10 1 11 64 12 66 13 67 14
REMARK SMILES IDX 75 15 68 16 74 17 69 18 70 19 71 20 72 21 73 22 65 23 11 25
REMARK SMILES IDX 12 26 13 27 14 28 15 30 16 31 17 32 63 33 18 34 62 35 19 36
REMARK SMILES IDX 20 37 21 38 56 39 22 40 61 41 55 42 57 43 23 44 60 45 54 46
REMARK SMILES IDX 53 47 24 49 46 50 31 51 45 52 32 53 35 54 44 55 58 56 33 57
REMARK SMILES IDX 34 58 43 60 59 61 36 62 25 63 26 64 30 65 27 66 29 67 28 68
REMARK SMILES IDX 47 69 48 70 52 71 49 72 51 73 50 74 37 75 38 76 42 77 39 78
REMARK SMILES IDX 41 79 40 80
REMARK H PARENT 8 6 65 24 13 29 57 48 35 59
REMARK Flexibility Score: inf
ROOT
ATOM      1  C   UNL A   1      36.291  20.044  25.030  1.00  0.00     0.023 C 
ENDROOT
BRANCH   1   2
ATOM      2  C   UNL A   1      35.468  21.297  25.303  1.00  0.00     0.116 C 
BRANCH   2   3
ATOM      3  N   UNL A   1      35.458  22.190  24.158  1.00  0.00    -0.356 N 
ATOM      4  C   UNL A   1      34.502  23.064  23.729  1.00  0.00     0.226 C 
ATOM      5  O   UNL A   1      34.771  23.751  22.743  1.00  0.00    -0.275 OA
ATOM      6  H   UNL A   1      36.270  22.161  23.603  1.00  0.00     0.163 HD
BRANCH   4   7
ATOM      7  C   UNL A   1      33.181  23.175  24.472  1.00  0.00     0.111 C 
BRANCH   7   8
ATOM      8  C   UNL A   1      33.217  24.139  25.672  1.00  0.00     0.016 C 
BRANCH   8   9
ATOM      9  C   UNL A   1      34.154  25.354  25.550  1.00  0.00     0.001 C 
BRANCH   9  10
ATOM     10  C   UNL A   1      33.532  26.754  25.621  1.00  0.00    -0.003 C 
ATOM     11  C   UNL A   1      32.237  26.851  26.410  1.00  0.00     0.004 C 
ENDBRANCH   9  10
ENDBRANCH   8   9
ENDBRANCH   7   8
BRANCH   7  12
ATOM     12  C   UNL A   1      32.017  23.425  23.478  1.00  0.00     0.157 C 
BRANCH  12  13
ATOM     13  C   UNL A   1      31.381  24.783  23.244  1.00  0.00    -0.019 A 
ATOM     14  C   UNL A   1      30.175  25.058  23.918  1.00  0.00     0.007 A 
ATOM     15  C   UNL A   1      31.905  25.784  22.421  1.00  0.00     0.007 A 
ATOM     16  C   UNL A   1      29.553  26.304  23.822  1.00  0.00     0.013 A 
ATOM     17  C   UNL A   1      31.295  27.040  22.335  1.00  0.00     0.013 A 
ATOM     18  C   UNL A   1      30.124  27.320  23.048  1.00  0.00     0.056 A 
BRANCH  18  19
ATOM     19  C   UNL A   1      29.479  28.682  22.988  1.00  0.00     0.416 C 
ATOM     20  F   UNL A   1      29.602  29.266  21.765  1.00  0.00    -0.166 F 
ATOM     21  F   UNL A   1      28.142  28.634  23.246  1.00  0.00    -0.166 F 
ATOM     22  F   UNL A   1      29.996  29.570  23.883  1.00  0.00    -0.166 F 
ENDBRANCH  18  19
ENDBRANCH  12  13
BRANCH  12  23
ATOM     23  O   UNL A   1      32.374  22.865  22.204  1.00  0.00    -0.388 OA
ATOM     24  H   UNL A   1      31.593  22.848  21.628  1.00  0.00     0.211 HD
ENDBRANCH  12  23
ENDBRANCH   7  12
ENDBRANCH   4   7
ENDBRANCH   2   3
ENDBRANCH   1   2
BRANCH   1  25
ATOM     25  C   UNL A   1      37.732  20.311  24.596  1.00  0.00     0.023 C 
BRANCH  25  26
ATOM     26  C   UNL A   1      38.723  20.513  25.737  1.00  0.00     0.116 C 
BRANCH  26  27
ATOM     27  N   UNL A   1      39.778  19.511  25.746  1.00  0.00    -0.352 N 
ATOM     28  C   UNL A   1      41.108  19.646  26.061  1.00  0.00     0.251 C 
ATOM     29  H   UNL A   1      39.498  18.604  25.487  1.00  0.00     0.163 HD
ATOM     30  O   UNL A   1      41.889  18.728  25.844  1.00  0.00    -0.269 OA
BRANCH  28  31
ATOM     31  C   UNL A   1      41.599  20.914  26.639  1.00  0.00     0.039 A 
ATOM     32  C   UNL A   1      42.102  21.892  25.779  1.00  0.00     0.014 A 
ATOM     33  C   UNL A   1      41.551  21.143  28.016  1.00  0.00     0.014 A 
ATOM     34  C   UNL A   1      42.493  23.127  26.295  1.00  0.00     0.010 A 
ATOM     35  C   UNL A   1      41.864  22.402  28.519  1.00  0.00     0.010 A 
ATOM     36  C   UNL A   1      42.338  23.407  27.665  1.00  0.00    -0.014 A 
BRANCH  36  37
ATOM     37  C   UNL A   1      42.637  24.761  28.195  1.00  0.00     0.031 A 
ATOM     38  C   UNL A   1      44.033  25.137  28.603  1.00  0.00     0.074 A 
ATOM     39  C   UNL A   1      41.629  25.642  28.349  1.00  0.00     0.049 A 
ATOM     40  N   UNL A   1      44.477  26.283  29.055  1.00  0.00    -0.248 NA
ATOM     41  C   UNL A   1      45.059  24.087  28.516  1.00  0.00     0.031 C 
ATOM     42  C   UNL A   1      40.220  25.379  28.051  1.00  0.00     0.029 A 
ATOM     43  N   UNL A   1      41.638  26.941  28.789  1.00  0.00    -0.354 N 
ATOM     44  C   UNL A   1      45.828  26.089  29.314  1.00  0.00     0.074 A 
ATOM     45  C   UNL A   1      46.118  24.703  29.023  1.00  0.00     0.031 C 
ATOM     46  C   UNL A   1      39.507  26.494  28.274  1.00  0.00     0.029 A 
ATOM     47  C   UNL A   1      40.400  27.537  28.766  1.00  0.00     0.049 A 
ATOM     48  H   UNL A   1      42.452  27.403  29.093  1.00  0.00     0.167 HD
ATOM     49  C   UNL A   1      46.749  26.988  29.738  1.00  0.00     0.031 A 
ATOM     50  C   UNL A   1      40.024  28.786  29.098  1.00  0.00     0.031 A 
ATOM     51  C   UNL A   1      46.459  28.367  30.030  1.00  0.00     0.049 A 
ATOM     52  C   UNL A   1      41.064  29.767  29.559  1.00  0.00     0.074 A 
ATOM     53  C   UNL A   1      47.334  29.373  30.404  1.00  0.00     0.029 A 
ATOM     54  N   UNL A   1      45.193  28.934  29.992  1.00  0.00    -0.354 N 
ATOM     55  N   UNL A   1      42.354  29.592  29.711  1.00  0.00    -0.248 NA
ATOM     56  C   UNL A   1      40.596  31.122  29.877  1.00  0.00     0.031 C 
ATOM     57  C   UNL A   1      46.590  30.532  30.651  1.00  0.00     0.029 A 
ATOM     58  C   UNL A   1      45.260  30.267  30.366  1.00  0.00     0.049 A 
ATOM     59  H   UNL A   1      44.369  28.459  29.738  1.00  0.00     0.167 HD
ATOM     60  C   UNL A   1      42.856  30.821  30.119  1.00  0.00     0.074 A 
ATOM     61  C   UNL A   1      41.734  31.736  30.166  1.00  0.00     0.031 C 
ATOM     62  C   UNL A   1      44.132  31.162  30.427  1.00  0.00     0.031 A 
BRANCH  49  63
ATOM     63  C   UNL A   1      48.160  26.498  29.921  1.00  0.00    -0.014 A 
ATOM     64  C   UNL A   1      48.587  25.935  31.136  1.00  0.00     0.009 A 
ATOM     65  C   UNL A   1      49.069  26.571  28.854  1.00  0.00     0.009 A 
ATOM     66  C   UNL A   1      49.904  25.497  31.291  1.00  0.00     0.001 A 
ATOM     67  C   UNL A   1      50.375  26.102  29.001  1.00  0.00     0.001 A 
ATOM     68  C   UNL A   1      50.795  25.577  30.222  1.00  0.00     0.000 A 
ENDBRANCH  49  63
BRANCH  50  69
ATOM     69  C   UNL A   1      38.597  29.187  28.977  1.00  0.00    -0.014 A 
ATOM     70  C   UNL A   1      37.735  29.095  30.081  1.00  0.00     0.009 A 
ATOM     71  C   UNL A   1      38.093  29.668  27.759  1.00  0.00     0.009 A 
ATOM     72  C   UNL A   1      36.390  29.454  29.959  1.00  0.00     0.001 A 
ATOM     73  C   UNL A   1      36.756  30.057  27.649  1.00  0.00     0.001 A 
ATOM     74  C   UNL A   1      35.903  29.940  28.746  1.00  0.00     0.000 A 
ENDBRANCH  50  69
BRANCH  62  75
ATOM     75  C   UNL A   1      44.380  32.593  30.817  1.00  0.00    -0.014 A 
ATOM     76  C   UNL A   1      44.670  33.575  29.856  1.00  0.00     0.009 A 
ATOM     77  C   UNL A   1      44.311  32.967  32.169  1.00  0.00     0.009 A 
ATOM     78  C   UNL A   1      44.934  34.889  30.245  1.00  0.00     0.001 A 
ATOM     79  C   UNL A   1      44.542  34.288  32.552  1.00  0.00     0.001 A 
ATOM     80  C   UNL A   1      44.867  35.245  31.592  1.00  0.00     0.000 A 
ENDBRANCH  62  75
ENDBRANCH  36  37
ENDBRANCH  28  31
ENDBRANCH  26  27
ENDBRANCH  25  26
ENDBRANCH   1  25
TORSDOF 18
ENDMDL
MODEL 2
REMARK VINA RESULT:     -10.3      3.019      3.852
REMARK SMILES CCCC[C@H](C(=O)NCCCCNC(=O)c1ccc(-c2c3nc(c(-c4ccccc4)c4ccc([nH]4)c(-c4ccccc4)c4nc(c(-c5ccccc5)c5ccc2[nH]5)C=C4)C=C3)cc1)[C@H](O)c1ccc(C(F)(F)F)cc1
REMARK SMILES IDX 10 1 9 2 8 3 6 4 7 5 5 7 4 8 3 9 2 10 1 11 64 12 66 13 67 14
REMARK SMILES IDX 75 15 68 16 74 17 69 18 70 19 71 20 72 21 73 22 65 23 11 25
REMARK SMILES IDX 12 26 13 27 14 28 15 30 16 31 17 32 63 33 18 34 62 35 19 36
REMARK SMILES IDX 20 37 21 38 56 39 22 40 61 41 55 42 57 43 23 44 60 45 54 46
REMARK SMILES IDX 53 47 24 49 46 50 31 51 45 52 32 53 35 54 44 55 58 56 33 57
REMARK SMILES IDX 34 58 43 60 59 61 36 62 25 63 26 64 30 65 27 66 29 67 28 68
REMARK SMILES IDX 47 69 48 70 52 71 49 72 51 73 50 74 37 75 38 76 42 77 39 78
REMARK SMILES IDX 41 79 40 80
REMARK H PARENT 8 6 65 24 13 29 57 48 35 59
REMARK Flexibility Score: inf
ROOT
ATOM      1  C   UNL A   1      36.250  21.086  24.953  1.00  0.00     0.023 C 
ENDROOT
BRANCH   1   2
ATOM      2  C   UNL A   1      36.427  22.533  24.508  1.00  0.00     0.116 C 
BRANCH   2   3
ATOM      3  N   UNL A   1      35.672  22.817  23.300  1.00  0.00    -0.356 N 
ATOM      4  C   UNL A   1      34.375  23.212  23.141  1.00  0.00     0.226 C 
ATOM      5  O   UNL A   1      33.994  23.438  21.992  1.00  0.00    -0.275 OA
ATOM      6  H   UNL A   1      36.176  22.707  22.462  1.00  0.00     0.163 HD
BRANCH   4   7
ATOM      7  C   UNL A   1      33.474  23.376  24.354  1.00  0.00     0.111 C 
BRANCH   7   8
ATOM      8  C   UNL A   1      33.030  24.828  24.611  1.00  0.00     0.016 C 
BRANCH   8   9
ATOM      9  C   UNL A   1      33.935  25.673  25.525  1.00  0.00     0.001 C 
BRANCH   9  10
ATOM     10  C   UNL A   1      33.319  26.893  26.219  1.00  0.00    -0.003 C 
ATOM     11  C   UNL A   1      33.869  28.239  25.777  1.00  0.00     0.004 C 
ENDBRANCH   9  10
ENDBRANCH   8   9
ENDBRANCH   7   8
BRANCH   7  12
ATOM     12  C   UNL A   1      32.318  22.343  24.316  1.00  0.00     0.157 C 
BRANCH  12  13
ATOM     13  C   UNL A   1      32.515  20.847  24.473  1.00  0.00    -0.019 A 
ATOM     14  C   UNL A   1      32.404  20.054  23.315  1.00  0.00     0.007 A 
ATOM     15  C   UNL A   1      32.809  20.197  25.676  1.00  0.00     0.007 A 
ATOM     16  C   UNL A   1      32.640  18.678  23.347  1.00  0.00     0.013 A 
ATOM     17  C   UNL A   1      33.062  18.822  25.711  1.00  0.00     0.013 A 
ATOM     18  C   UNL A   1      32.999  18.050  24.545  1.00  0.00     0.056 A 
BRANCH  18  19
ATOM     19  C   UNL A   1      33.303  16.574  24.566  1.00  0.00     0.416 C 
ATOM     20  F   UNL A   1      32.245  15.827  24.984  1.00  0.00    -0.166 F 
ATOM     21  F   UNL A   1      33.637  16.095  23.335  1.00  0.00    -0.166 F 
ATOM     22  F   UNL A   1      34.342  16.244  25.384  1.00  0.00    -0.166 F 
ENDBRANCH  18  19
ENDBRANCH  12  13
BRANCH  12  23
ATOM     23  O   UNL A   1      31.296  22.765  25.234  1.00  0.00    -0.388 OA
ATOM     24  H   UNL A   1      31.539  23.624  25.615  1.00  0.00     0.211 HD
ENDBRANCH  12  23
ENDBRANCH   7  12
ENDBRANCH   4   7
ENDBRANCH   2   3
ENDBRANCH   1   2
BRANCH   1  25
ATOM     25  C   UNL A   1      37.493  20.212  24.784  1.00  0.00     0.023 C 
BRANCH  25  26
ATOM     26  C   UNL A   1      38.684  20.609  25.650  1.00  0.00     0.116 C 
BRANCH  26  27
ATOM     27  N   UNL A   1      39.723  19.591  25.674  1.00  0.00    -0.352 N 
ATOM     28  C   UNL A   1      41.048  19.703  26.015  1.00  0.00     0.251 C 
ATOM     29  H   UNL A   1      39.433  18.689  25.405  1.00  0.00     0.163 HD
ATOM     30  O   UNL A   1      41.818  18.774  25.807  1.00  0.00    -0.269 OA
BRANCH  28  31
ATOM     31  C   UNL A   1      41.548  20.961  26.608  1.00  0.00     0.039 A 
ATOM     32  C   UNL A   1      42.061  21.943  25.759  1.00  0.00     0.014 A 
ATOM     33  C   UNL A   1      41.498  21.174  27.987  1.00  0.00     0.014 A 
ATOM     34  C   UNL A   1      42.461  23.169  26.290  1.00  0.00     0.010 A 
ATOM     35  C   UNL A   1      41.820  22.425  28.505  1.00  0.00     0.010 A 
ATOM     36  C   UNL A   1      42.304  23.436  27.662  1.00  0.00    -0.014 A 
BRANCH  36  37
ATOM     37  C   UNL A   1      42.613  24.781  28.209  1.00  0.00     0.031 A 
ATOM     38  C   UNL A   1      44.011  25.142  28.624  1.00  0.00     0.074 A 
ATOM     39  C   UNL A   1      41.612  25.669  28.370  1.00  0.00     0.049 A 
ATOM     40  N   UNL A   1      44.464  26.279  29.089  1.00  0.00    -0.248 NA
ATOM     41  C   UNL A   1      45.030  24.085  28.527  1.00  0.00     0.031 C 
ATOM     42  C   UNL A   1      40.201  25.420  28.066  1.00  0.00     0.029 A 
ATOM     43  N   UNL A   1      41.630  26.963  28.825  1.00  0.00    -0.354 N 
ATOM     44  C   UNL A   1      45.812  26.072  29.349  1.00  0.00     0.074 A 
ATOM     45  C   UNL A   1      46.092  24.686  29.043  1.00  0.00     0.031 C 
ATOM     46  C   UNL A   1      39.498  26.538  28.300  1.00  0.00     0.029 A 
ATOM     47  C   UNL A   1      40.397  27.569  28.806  1.00  0.00     0.049 A 
ATOM     48  H   UNL A   1      42.448  27.415  29.135  1.00  0.00     0.167 HD
ATOM     49  C   UNL A   1      46.740  26.959  29.784  1.00  0.00     0.031 A 
ATOM     50  C   UNL A   1      40.030  28.818  29.150  1.00  0.00     0.031 A 
ATOM     51  C   UNL A   1      46.460  28.337  30.092  1.00  0.00     0.049 A 
ATOM     52  C   UNL A   1      41.077  29.784  29.625  1.00  0.00     0.074 A 
ATOM     53  C   UNL A   1      47.342  29.331  30.478  1.00  0.00     0.029 A 
ATOM     54  N   UNL A   1      45.199  28.914  30.057  1.00  0.00    -0.354 N 
ATOM     55  N   UNL A   1      42.366  29.598  29.777  1.00  0.00    -0.248 NA
ATOM     56  C   UNL A   1      40.620  31.140  29.956  1.00  0.00     0.031 C 
ATOM     57  C   UNL A   1      46.607  30.493  30.737  1.00  0.00     0.029 A 
ATOM     58  C   UNL A   1      45.276  30.242  30.446  1.00  0.00     0.049 A 
ATOM     59  H   UNL A   1      44.372  28.448  29.796  1.00  0.00     0.167 HD
ATOM     60  C   UNL A   1      42.877  30.818  30.200  1.00  0.00     0.074 A 
ATOM     61  C   UNL A   1      41.762  31.741  30.255  1.00  0.00     0.031 C 
ATOM     62  C   UNL A   1      44.155  31.145  30.514  1.00  0.00     0.031 A 
BRANCH  49  63
ATOM     63  C   UNL A   1      48.146  26.454  29.965  1.00  0.00    -0.014 A 
ATOM     64  C   UNL A   1      48.577  25.912  31.188  1.00  0.00     0.009 A 
ATOM     65  C   UNL A   1      49.046  26.494  28.889  1.00  0.00     0.009 A 
ATOM     66  C   UNL A   1      49.891  25.462  31.340  1.00  0.00     0.001 A 
ATOM     67  C   UNL A   1      50.348  26.013  29.034  1.00  0.00     0.001 A 
ATOM     68  C   UNL A   1      50.773  25.508  30.262  1.00  0.00     0.000 A 
ENDBRANCH  49  63
BRANCH  50  69
ATOM     69  C   UNL A   1      38.608  29.231  29.031  1.00  0.00    -0.014 A 
ATOM     70  C   UNL A   1      37.752  29.171  30.142  1.00  0.00     0.009 A 
ATOM     71  C   UNL A   1      38.100  29.693  27.807  1.00  0.00     0.009 A 
ATOM     72  C   UNL A   1      36.410  29.542  30.022  1.00  0.00     0.001 A 
ATOM     73  C   UNL A   1      36.766  30.094  27.698  1.00  0.00     0.001 A 
ATOM     74  C   UNL A   1      35.920  30.008  28.802  1.00  0.00     0.000 A 
ENDBRANCH  50  69
BRANCH  62  75
ATOM     75  C   UNL A   1      44.413  32.570  30.920  1.00  0.00    -0.014 A 
ATOM     76  C   UNL A   1      44.713  33.560  29.971  1.00  0.00     0.009 A 
ATOM     77  C   UNL A   1      44.344  32.929  32.276  1.00  0.00     0.009 A 
ATOM     78  C   UNL A   1      44.988  34.868  30.376  1.00  0.00     0.001 A 
ATOM     79  C   UNL A   1      44.585  34.245  32.674  1.00  0.00     0.001 A 
ATOM     80  C   UNL A   1      44.920  35.209  31.727  1.00  0.00     0.000 A 
ENDBRANCH  62  75
ENDBRANCH  36  37
ENDBRANCH  28  31
ENDBRANCH  26  27
ENDBRANCH  25  26
ENDBRANCH   1  25
TORSDOF 18
ENDMDL
MODEL 3
REMARK VINA RESULT:     -10.1      3.291      7.763
REMARK SMILES CCCC[C@H](C(=O)NCCCCNC(=O)c1ccc(-c2c3nc(c(-c4ccccc4)c4ccc([nH]4)c(-c4ccccc4)c4nc(c(-c5ccccc5)c5ccc2[nH]5)C=C4)C=C3)cc1)[C@H](O)c1ccc(C(F)(F)F)cc1
REMARK SMILES IDX 10 1 9 2 8 3 6 4 7 5 5 7 4 8 3 9 2 10 1 11 64 12 66 13 67 14
REMARK SMILES IDX 75 15 68 16 74 17 69 18 70 19 71 20 72 21 73 22 65 23 11 25
REMARK SMILES IDX 12 26 13 27 14 28 15 30 16 31 17 32 63 33 18 34 62 35 19 36
REMARK SMILES IDX 20 37 21 38 56 39 22 40 61 41 55 42 57 43 23 44 60 45 54 46
REMARK SMILES IDX 53 47 24 49 46 50 31 51 45 52 32 53 35 54 44 55 58 56 33 57
REMARK SMILES IDX 34 58 43 60 59 61 36 62 25 63 26 64 30 65 27 66 29 67 28 68
REMARK SMILES IDX 47 69 48 70 52 71 49 72 51 73 50 74 37 75 38 76 42 77 39 78
REMARK SMILES IDX 41 79 40 80
REMARK H PARENT 8 6 65 24 13 29 57 48 35 59
REMARK Flexibility Score: inf
ROOT
ATOM      1  C   UNL A   1      32.434  29.949  25.425  1.00  0.00     0.023 C 
ENDROOT
BRANCH   1   2
ATOM      2  C   UNL A   1      31.375  29.083  24.755  1.00  0.00     0.116 C 
BRANCH   2   3
ATOM      3  N   UNL A   1      30.983  27.968  25.600  1.00  0.00    -0.356 N 
ATOM      4  C   UNL A   1      31.169  26.626  25.435  1.00  0.00     0.226 C 
ATOM      5  O   UNL A   1      30.779  25.889  26.341  1.00  0.00    -0.275 OA
ATOM      6  H   UNL A   1      30.507  28.221  26.424  1.00  0.00     0.163 HD
BRANCH   4   7
ATOM      7  C   UNL A   1      31.852  26.100  24.184  1.00  0.00     0.111 C 
BRANCH   7   8
ATOM      8  C   UNL A   1      33.375  25.926  24.329  1.00  0.00     0.016 C 
BRANCH   8   9
ATOM      9  C   UNL A   1      33.872  25.267  25.628  1.00  0.00     0.001 C 
BRANCH   9  10
ATOM     10  C   UNL A   1      34.891  24.128  25.515  1.00  0.00    -0.003 C 
ATOM     11  C   UNL A   1      34.750  23.023  26.549  1.00  0.00     0.004 C 
ENDBRANCH   9  10
ENDBRANCH   8   9
ENDBRANCH   7   8
BRANCH   7  12
ATOM     12  C   UNL A   1      31.108  24.852  23.641  1.00  0.00     0.157 C 
BRANCH  12  13
ATOM     13  C   UNL A   1      31.505  23.424  23.965  1.00  0.00    -0.019 A 
ATOM     14  C   UNL A   1      32.212  22.709  22.979  1.00  0.00     0.007 A 
ATOM     15  C   UNL A   1      31.234  22.768  25.169  1.00  0.00     0.007 A 
ATOM     16  C   UNL A   1      32.682  21.415  23.211  1.00  0.00     0.013 A 
ATOM     17  C   UNL A   1      31.717  21.478  25.414  1.00  0.00     0.013 A 
ATOM     18  C   UNL A   1      32.461  20.794  24.446  1.00  0.00     0.056 A 
BRANCH  18  19
ATOM     19  C   UNL A   1      33.015  19.418  24.713  1.00  0.00     0.416 C 
ATOM     20  F   UNL A   1      32.607  18.913  25.908  1.00  0.00    -0.166 F 
ATOM     21  F   UNL A   1      32.627  18.511  23.772  1.00  0.00    -0.166 F 
ATOM     22  F   UNL A   1      34.377  19.372  24.730  1.00  0.00    -0.166 F 
ENDBRANCH  18  19
ENDBRANCH  12  13
BRANCH  12  23
ATOM     23  O   UNL A   1      29.704  25.004  23.907  1.00  0.00    -0.388 OA
ATOM     24  H   UNL A   1      29.297  24.129  24.006  1.00  0.00     0.211 HD
ENDBRANCH  12  23
ENDBRANCH   7  12
ENDBRANCH   4   7
ENDBRANCH   2   3
ENDBRANCH   1   2
BRANCH   1  25
ATOM     25  C   UNL A   1      33.711  29.204  25.815  1.00  0.00     0.023 C 
BRANCH  25  26
ATOM     26  C   UNL A   1      33.926  29.031  27.315  1.00  0.00     0.116 C 
BRANCH  26  27
ATOM     27  N   UNL A   1      33.937  30.299  28.029  1.00  0.00    -0.352 N 
ATOM     28  C   UNL A   1      34.920  30.852  28.813  1.00  0.00     0.251 C 
ATOM     29  H   UNL A   1      33.120  30.840  27.938  1.00  0.00     0.163 HD
ATOM     30  O   UNL A   1      34.687  31.852  29.480  1.00  0.00    -0.269 OA
BRANCH  28  31
ATOM     31  C   UNL A   1      36.254  30.218  28.870  1.00  0.00     0.039 A 
ATOM     32  C   UNL A   1      37.076  30.284  27.743  1.00  0.00     0.014 A 
ATOM     33  C   UNL A   1      36.696  29.577  30.029  1.00  0.00     0.014 A 
ATOM     34  C   UNL A   1      38.369  29.766  27.804  1.00  0.00     0.010 A 
ATOM     35  C   UNL A   1      38.012  29.134  30.115  1.00  0.00     0.010 A 
ATOM     36  C   UNL A   1      38.862  29.224  29.004  1.00  0.00    -0.014 A 
BRANCH  36  37
ATOM     37  C   UNL A   1      40.277  28.785  29.107  1.00  0.00     0.031 A 
ATOM     38  C   UNL A   1      40.685  27.399  28.694  1.00  0.00     0.074 A 
ATOM     39  C   UNL A   1      41.191  29.633  29.618  1.00  0.00     0.049 A 
ATOM     40  N   UNL A   1      41.879  26.861  28.687  1.00  0.00    -0.248 NA
ATOM     41  C   UNL A   1      39.615  26.491  28.255  1.00  0.00     0.031 C 
ATOM     42  C   UNL A   1      40.912  30.982  30.115  1.00  0.00     0.029 A 
ATOM     43  N   UNL A   1      42.543  29.486  29.799  1.00  0.00    -0.354 N 
ATOM     44  C   UNL A   1      41.702  25.554  28.253  1.00  0.00     0.074 A 
ATOM     45  C   UNL A   1      40.281  25.362  28.061  1.00  0.00     0.031 C 
ATOM     46  C   UNL A   1      42.062  31.554  30.502  1.00  0.00     0.029 A 
ATOM     47  C   UNL A   1      43.151  30.603  30.318  1.00  0.00     0.049 A 
ATOM     48  H   UNL A   1      43.031  28.660  29.579  1.00  0.00     0.167 HD
ATOM     49  C   UNL A   1      42.639  24.603  28.017  1.00  0.00     0.031 A 
ATOM     50  C   UNL A   1      44.445  30.840  30.608  1.00  0.00     0.031 A 
ATOM     51  C   UNL A   1      44.052  24.793  28.212  1.00  0.00     0.049 A 
ATOM     52  C   UNL A   1      45.465  29.772  30.332  1.00  0.00     0.074 A 
ATOM     53  C   UNL A   1      45.087  23.914  27.941  1.00  0.00     0.029 A 
ATOM     54  N   UNL A   1      44.630  25.940  28.736  1.00  0.00    -0.354 N 
ATOM     55  N   UNL A   1      45.291  28.572  29.835  1.00  0.00    -0.248 NA
ATOM     56  C   UNL A   1      46.862  30.102  30.641  1.00  0.00     0.031 C 
ATOM     57  C   UNL A   1      46.284  24.505  28.358  1.00  0.00     0.029 A 
ATOM     58  C   UNL A   1      46.004  25.779  28.826  1.00  0.00     0.049 A 
ATOM     59  H   UNL A   1      44.137  26.748  29.005  1.00  0.00     0.167 HD
ATOM     60  C   UNL A   1      46.559  28.011  29.749  1.00  0.00     0.074 A 
ATOM     61  C   UNL A   1      47.492  29.014  30.223  1.00  0.00     0.031 C 
ATOM     62  C   UNL A   1      46.919  26.777  29.316  1.00  0.00     0.031 A 
BRANCH  49  63
ATOM     63  C   UNL A   1      42.155  23.263  27.532  1.00  0.00    -0.014 A 
ATOM     64  C   UNL A   1      41.586  22.328  28.413  1.00  0.00     0.009 A 
ATOM     65  C   UNL A   1      42.242  22.941  26.169  1.00  0.00     0.009 A 
ATOM     66  C   UNL A   1      41.155  21.084  27.946  1.00  0.00     0.001 A 
ATOM     67  C   UNL A   1      41.780  21.710  25.699  1.00  0.00     0.001 A 
ATOM     68  C   UNL A   1      41.248  20.778  26.589  1.00  0.00     0.000 A 
ENDBRANCH  49  63
BRANCH  50  69
ATOM     69  C   UNL A   1      44.849  32.156  31.167  1.00  0.00    -0.014 A 
ATOM     70  C   UNL A   1      45.039  33.262  30.325  1.00  0.00     0.009 A 
ATOM     71  C   UNL A   1      45.042  32.314  32.549  1.00  0.00     0.009 A 
ATOM     72  C   UNL A   1      45.437  34.493  30.852  1.00  0.00     0.001 A 
ATOM     73  C   UNL A   1      45.409  33.554  33.077  1.00  0.00     0.001 A 
ATOM     74  C   UNL A   1      45.617  34.639  32.227  1.00  0.00     0.000 A 
ENDBRANCH  50  69
BRANCH  62  75
ATOM     75  C   UNL A   1      48.389  26.458  29.314  1.00  0.00    -0.014 A 
ATOM     76  C   UNL A   1      48.975  25.697  30.338  1.00  0.00     0.009 A 
ATOM     77  C   UNL A   1      49.198  26.920  28.263  1.00  0.00     0.009 A 
ATOM     78  C   UNL A   1      50.348  25.446  30.335  1.00  0.00     0.001 A 
ATOM     79  C   UNL A   1      50.564  26.638  28.245  1.00  0.00     0.001 A 
ATOM     80  C   UNL A   1      51.141  25.914  29.286  1.00  0.00     0.000 A 
ENDBRANCH  62  75
ENDBRANCH  36  37
ENDBRANCH  28  31
ENDBRANCH  26  27
ENDBRANCH  25  26
ENDBRANCH   1  25
TORSDOF 18
ENDMDL
