MODEL 1
REMARK VINA RESULT:     -11.3      0.000      0.000
REMARK SMILES COc1ccc(-n2nc(C(=O)NCCCCNC(=O)c3ccc(-c4c5nc(c(-c6ccccc6)c6ccc([nH]6)c(-c6ccccc6)c6nc(c(-c7ccccc7)c7ccc4[nH]7)C=C6)C=C5)cc3)c(=O)cc2C)cc1
REMARK SMILES IDX 14 1 13 2 12 3 10 4 11 5 9 7 7 8 8 9 71 10 70 11 72 12 68 13
REMARK SMILES IDX 69 14 6 15 3 16 4 17 74 18 5 19 73 20 2 21 1 22 15 23 16 24
REMARK SMILES IDX 17 25 18 26 19 28 20 29 21 30 67 31 22 32 66 33 23 34 24 35
REMARK SMILES IDX 25 36 60 37 26 38 65 39 59 40 61 41 27 42 64 43 58 44 57 45
REMARK SMILES IDX 28 47 50 48 35 49 49 50 36 51 39 52 48 53 62 54 37 55 38 56
REMARK SMILES IDX 47 58 63 59 40 60 29 61 30 62 34 63 31 64 33 65 32 66 51 67
REMARK SMILES IDX 52 68 56 69 53 70 55 71 54 72 41 73 42 74 46 75 43 76 45 77
REMARK SMILES IDX 44 78
REMARK H PARENT 12 6 17 27 61 46 39 57
REMARK Flexibility Score: inf
ROOT
ATOM      1  C   UNL A   1      31.501  29.731  25.603  1.00  0.00     0.023 C 
ENDROOT
BRANCH   1   2
ATOM      2  C   UNL A   1      31.345  29.276  24.155  1.00  0.00     0.116 C 
BRANCH   2   3
ATOM      3  N   UNL A   1      32.589  29.293  23.412  1.00  0.00    -0.351 N 
ATOM      4  C   UNL A   1      33.293  28.263  22.824  1.00  0.00     0.275 C 
ATOM      5  O   UNL A   1      34.250  28.539  22.105  1.00  0.00    -0.267 OA
ATOM      6  H   UNL A   1      32.998  30.183  23.310  1.00  0.00     0.163 HD
BRANCH   4   7
ATOM      7  C   UNL A   1      32.954  26.797  23.058  1.00  0.00     0.196 A 
ATOM      8  N   UNL A   1      33.529  24.784  24.011  1.00  0.00    -0.237 N 
ATOM      9  N   UNL A   1      33.774  26.127  23.828  1.00  0.00    -0.158 NA
ATOM     10  C   UNL A   1      32.272  24.213  23.791  1.00  0.00     0.044 A 
ATOM     11  C   UNL A   1      31.349  24.833  23.041  1.00  0.00     0.078 A 
ATOM     12  C   UNL A   1      31.910  22.903  24.451  1.00  0.00     0.067 C 
ATOM     13  C   UNL A   1      31.785  26.089  22.414  1.00  0.00     0.213 A 
ATOM     14  O   UNL A   1      31.208  26.552  21.442  1.00  0.00    -0.287 OA
BRANCH   8  15
ATOM     15  C   UNL A   1      34.689  24.023  24.351  1.00  0.00     0.065 A 
ATOM     16  C   UNL A   1      36.997  22.534  25.024  1.00  0.00     0.119 A 
ATOM     17  C   UNL A   1      36.502  22.526  23.720  1.00  0.00     0.048 A 
ATOM     18  C   UNL A   1      36.342  23.282  25.999  1.00  0.00     0.048 A 
ATOM     19  C   UNL A   1      35.345  23.242  23.391  1.00  0.00     0.032 A 
ATOM     20  C   UNL A   1      35.199  24.021  25.663  1.00  0.00     0.032 A 
BRANCH  16  21
ATOM     21  O   UNL A   1      38.144  21.818  25.223  1.00  0.00    -0.497 OA
ATOM     22  C   UNL A   1      38.053  20.424  24.945  1.00  0.00     0.278 C 
ENDBRANCH  16  21
ENDBRANCH   8  15
ENDBRANCH   4   7
ENDBRANCH   2   3
ENDBRANCH   1   2
BRANCH   1  23
ATOM     23  C   UNL A   1      32.156  28.739  26.563  1.00  0.00     0.023 C 
BRANCH  23  24
ATOM     24  C   UNL A   1      33.541  29.111  27.090  1.00  0.00     0.116 C 
BRANCH  24  25
ATOM     25  N   UNL A   1      33.608  30.422  27.718  1.00  0.00    -0.352 N 
ATOM     26  C   UNL A   1      34.649  31.009  28.400  1.00  0.00     0.251 C 
ATOM     27  H   UNL A   1      32.792  30.968  27.643  1.00  0.00     0.163 HD
ATOM     28  O   UNL A   1      34.506  32.113  28.920  1.00  0.00    -0.269 OA
BRANCH  26  29
ATOM     29  C   UNL A   1      35.931  30.288  28.549  1.00  0.00     0.039 A 
ATOM     30  C   UNL A   1      36.837  30.301  27.484  1.00  0.00     0.014 A 
ATOM     31  C   UNL A   1      36.256  29.639  29.742  1.00  0.00     0.014 A 
ATOM     32  C   UNL A   1      38.110  29.748  27.653  1.00  0.00     0.010 A 
ATOM     33  C   UNL A   1      37.546  29.149  29.930  1.00  0.00     0.010 A 
ATOM     34  C   UNL A   1      38.490  29.214  28.894  1.00  0.00    -0.014 A 
BRANCH  34  35
ATOM     35  C   UNL A   1      39.879  28.749  29.143  1.00  0.00     0.031 A 
ATOM     36  C   UNL A   1      40.898  29.684  29.732  1.00  0.00     0.074 A 
ATOM     37  C   UNL A   1      40.247  27.514  28.751  1.00  0.00     0.049 A 
ATOM     38  N   UNL A   1      42.176  29.489  29.935  1.00  0.00    -0.248 NA
ATOM     39  C   UNL A   1      40.423  31.022  30.119  1.00  0.00     0.031 C 
ATOM     40  C   UNL A   1      39.370  26.526  28.118  1.00  0.00     0.029 A 
ATOM     41  N   UNL A   1      41.464  26.883  28.813  1.00  0.00    -0.354 N 
ATOM     42  C   UNL A   1      42.662  30.684  30.447  1.00  0.00     0.074 A 
ATOM     43  C   UNL A   1      41.552  31.611  30.489  1.00  0.00     0.031 C 
ATOM     44  C   UNL A   1      40.072  25.408  27.868  1.00  0.00     0.029 A 
ATOM     45  C   UNL A   1      41.454  25.612  28.287  1.00  0.00     0.049 A 
ATOM     46  H   UNL A   1      42.269  27.299  29.199  1.00  0.00     0.167 HD
ATOM     47  C   UNL A   1      43.917  30.980  30.861  1.00  0.00     0.031 A 
ATOM     48  C   UNL A   1      42.449  24.715  28.147  1.00  0.00     0.031 A 
ATOM     49  C   UNL A   1      45.018  30.056  30.844  1.00  0.00     0.049 A 
ATOM     50  C   UNL A   1      43.830  25.066  28.625  1.00  0.00     0.074 A 
ATOM     51  C   UNL A   1      46.307  30.241  31.311  1.00  0.00     0.029 A 
ATOM     52  N   UNL A   1      44.958  28.769  30.330  1.00  0.00    -0.354 N 
ATOM     53  N   UNL A   1      44.255  26.176  29.178  1.00  0.00    -0.248 NA
ATOM     54  C   UNL A   1      44.868  24.036  28.466  1.00  0.00     0.031 C 
ATOM     55  C   UNL A   1      47.041  29.081  31.042  1.00  0.00     0.029 A 
ATOM     56  C   UNL A   1      46.194  28.157  30.450  1.00  0.00     0.049 A 
ATOM     57  H   UNL A   1      44.156  28.353  29.939  1.00  0.00     0.167 HD
ATOM     58  C   UNL A   1      45.600  25.968  29.456  1.00  0.00     0.074 A 
ATOM     59  C   UNL A   1      45.917  24.623  29.025  1.00  0.00     0.031 C 
ATOM     60  C   UNL A   1      46.493  26.818  30.018  1.00  0.00     0.031 A 
BRANCH  47  61
ATOM     61  C   UNL A   1      44.168  32.372  31.370  1.00  0.00    -0.014 A 
ATOM     62  C   UNL A   1      44.012  32.688  32.729  1.00  0.00     0.009 A 
ATOM     63  C   UNL A   1      44.603  33.370  30.485  1.00  0.00     0.009 A 
ATOM     64  C   UNL A   1      44.255  33.985  33.185  1.00  0.00     0.001 A 
ATOM     65  C   UNL A   1      44.871  34.660  30.948  1.00  0.00     0.001 A 
ATOM     66  C   UNL A   1      44.688  34.968  32.296  1.00  0.00     0.000 A 
ENDBRANCH  47  61
BRANCH  48  67
ATOM     67  C   UNL A   1      42.177  23.389  27.537  1.00  0.00    -0.014 A 
ATOM     68  C   UNL A   1      41.681  22.335  28.319  1.00  0.00     0.009 A 
ATOM     69  C   UNL A   1      42.423  23.165  26.173  1.00  0.00     0.009 A 
ATOM     70  C   UNL A   1      41.463  21.076  27.754  1.00  0.00     0.001 A 
ATOM     71  C   UNL A   1      42.180  21.912  25.606  1.00  0.00     0.001 A 
ATOM     72  C   UNL A   1      41.710  20.866  26.399  1.00  0.00     0.000 A 
ENDBRANCH  48  67
BRANCH  60  73
ATOM     73  C   UNL A   1      47.889  26.307  30.230  1.00  0.00    -0.014 A 
ATOM     74  C   UNL A   1      48.292  25.788  31.470  1.00  0.00     0.009 A 
ATOM     75  C   UNL A   1      48.797  26.303  29.159  1.00  0.00     0.009 A 
ATOM     76  C   UNL A   1      49.589  25.300  31.640  1.00  0.00     0.001 A 
ATOM     77  C   UNL A   1      50.084  25.791  29.327  1.00  0.00     0.001 A 
ATOM     78  C   UNL A   1      50.480  25.297  30.568  1.00  0.00     0.000 A 
ENDBRANCH  60  73
ENDBRANCH  34  35
ENDBRANCH  26  29
ENDBRANCH  24  25
ENDBRANCH  23  24
ENDBRANCH   1  23
TORSDOF 13
ENDMDL
MODEL 2
REMARK VINA RESULT:     -11.2      1.920      7.628
REMARK SMILES COc1ccc(-n2nc(C(=O)NCCCCNC(=O)c3ccc(-c4c5nc(c(-c6ccccc6)c6ccc([nH]6)c(-c6ccccc6)c6nc(c(-c7ccccc7)c7ccc4[nH]7)C=C6)C=C5)cc3)c(=O)cc2C)cc1
REMARK SMILES IDX 14 1 13 2 12 3 10 4 11 5 9 7 7 8 8 9 71 10 70 11 72 12 68 13
REMARK SMILES IDX 69 14 6 15 3 16 4 17 74 18 5 19 73 20 2 21 1 22 15 23 16 24
REMARK SMILES IDX 17 25 18 26 19 28 20 29 21 30 67 31 22 32 66 33 23 34 24 35
REMARK SMILES IDX 25 36 60 37 26 38 65 39 59 40 61 41 27 42 64 43 58 44 57 45
REMARK SMILES IDX 28 47 50 48 35 49 49 50 36 51 39 52 48 53 62 54 37 55 38 56
REMARK SMILES IDX 47 58 63 59 40 60 29 61 30 62 34 63 31 64 33 65 32 66 51 67
REMARK SMILES IDX 52 68 56 69 53 70 55 71 54 72 41 73 42 74 46 75 43 76 45 77
REMARK SMILES IDX 44 78
REMARK H PARENT 12 6 17 27 61 46 39 57
REMARK Flexibility Score: inf
ROOT
ATOM      1  C   UNL A   1      36.129  21.685  25.274  1.00  0.00     0.023 C 
ENDROOT
BRANCH   1   2
ATOM      2  C   UNL A   1      34.762  21.081  25.577  1.00  0.00     0.116 C 
BRANCH   2   3
ATOM      3  N   UNL A   1      34.276  21.402  26.905  1.00  0.00    -0.351 N 
ATOM      4  C   UNL A   1      33.255  22.238  27.305  1.00  0.00     0.275 C 
ATOM      5  O   UNL A   1      32.917  22.233  28.486  1.00  0.00    -0.267 OA
ATOM      6  H   UNL A   1      34.750  20.950  27.640  1.00  0.00     0.163 HD
BRANCH   4   7
ATOM      7  C   UNL A   1      32.553  23.195  26.349  1.00  0.00     0.196 A 
ATOM      8  N   UNL A   1      32.362  25.326  25.505  1.00  0.00    -0.237 N 
ATOM      9  N   UNL A   1      33.013  24.420  26.314  1.00  0.00    -0.158 NA
ATOM     10  C   UNL A   1      31.552  24.931  24.436  1.00  0.00     0.044 A 
ATOM     11  C   UNL A   1      31.055  23.688  24.363  1.00  0.00     0.078 A 
ATOM     12  C   UNL A   1      31.269  25.892  23.305  1.00  0.00     0.067 C 
ATOM     13  C   UNL A   1      31.353  22.821  25.512  1.00  0.00     0.213 A 
ATOM     14  O   UNL A   1      30.682  21.829  25.757  1.00  0.00    -0.287 OA
BRANCH   8  15
ATOM     15  C   UNL A   1      32.516  26.686  25.913  1.00  0.00     0.065 A 
ATOM     16  C   UNL A   1      32.835  29.372  26.737  1.00  0.00     0.119 A 
ATOM     17  C   UNL A   1      31.698  28.648  27.099  1.00  0.00     0.048 A 
ATOM     18  C   UNL A   1      33.817  28.760  25.961  1.00  0.00     0.048 A 
ATOM     19  C   UNL A   1      31.527  27.327  26.670  1.00  0.00     0.032 A 
ATOM     20  C   UNL A   1      33.657  27.429  25.555  1.00  0.00     0.032 A 
BRANCH  16  21
ATOM     21  O   UNL A   1      32.905  30.644  27.232  1.00  0.00    -0.497 OA
ATOM     22  C   UNL A   1      31.874  31.527  26.802  1.00  0.00     0.278 C 
ENDBRANCH  16  21
ENDBRANCH   8  15
ENDBRANCH   4   7
ENDBRANCH   2   3
ENDBRANCH   1   2
BRANCH   1  23
ATOM     23  C   UNL A   1      37.259  20.701  24.972  1.00  0.00     0.023 C 
BRANCH  23  24
ATOM     24  C   UNL A   1      38.609  20.988  25.627  1.00  0.00     0.116 C 
BRANCH  24  25
ATOM     25  N   UNL A   1      39.545  19.875  25.578  1.00  0.00    -0.352 N 
ATOM     26  C   UNL A   1      40.861  19.824  25.976  1.00  0.00     0.251 C 
ATOM     27  H   UNL A   1      39.184  19.036  25.207  1.00  0.00     0.163 HD
ATOM     28  O   UNL A   1      41.523  18.804  25.803  1.00  0.00    -0.269 OA
BRANCH  26  29
ATOM     29  C   UNL A   1      41.495  21.020  26.572  1.00  0.00     0.039 A 
ATOM     30  C   UNL A   1      42.061  21.975  25.722  1.00  0.00     0.014 A 
ATOM     31  C   UNL A   1      41.495  21.220  27.954  1.00  0.00     0.014 A 
ATOM     32  C   UNL A   1      42.537  23.177  26.252  1.00  0.00     0.010 A 
ATOM     33  C   UNL A   1      41.909  22.444  28.473  1.00  0.00     0.010 A 
ATOM     34  C   UNL A   1      42.418  23.441  27.626  1.00  0.00    -0.014 A 
BRANCH  34  35
ATOM     35  C   UNL A   1      42.785  24.763  28.194  1.00  0.00     0.031 A 
ATOM     36  C   UNL A   1      41.733  25.814  28.413  1.00  0.00     0.074 A 
ATOM     37  C   UNL A   1      44.081  25.050  28.425  1.00  0.00     0.049 A 
ATOM     38  N   UNL A   1      41.876  27.053  28.811  1.00  0.00    -0.248 NA
ATOM     39  C   UNL A   1      40.343  25.431  28.122  1.00  0.00     0.031 C 
ATOM     40  C   UNL A   1      45.207  24.138  28.206  1.00  0.00     0.029 A 
ATOM     41  N   UNL A   1      44.674  26.201  28.883  1.00  0.00    -0.354 N 
ATOM     42  C   UNL A   1      40.601  27.603  28.792  1.00  0.00     0.074 A 
ATOM     43  C   UNL A   1      39.704  26.576  28.308  1.00  0.00     0.031 C 
ATOM     44  C   UNL A   1      46.349  24.758  28.546  1.00  0.00     0.029 A 
ATOM     45  C   UNL A   1      46.043  26.119  28.971  1.00  0.00     0.049 A 
ATOM     46  H   UNL A   1      44.166  27.008  29.127  1.00  0.00     0.167 HD
ATOM     47  C   UNL A   1      40.209  28.846  29.160  1.00  0.00     0.031 A 
ATOM     48  C   UNL A   1      46.953  27.040  29.343  1.00  0.00     0.031 A 
ATOM     49  C   UNL A   1      41.094  29.861  29.663  1.00  0.00     0.049 A 
ATOM     50  C   UNL A   1      46.489  28.409  29.756  1.00  0.00     0.074 A 
ATOM     51  C   UNL A   1      40.778  31.125  30.131  1.00  0.00     0.029 A 
ATOM     52  N   UNL A   1      42.470  29.727  29.765  1.00  0.00    -0.354 N 
ATOM     53  N   UNL A   1      45.270  28.887  29.805  1.00  0.00    -0.248 NA
ATOM     54  C   UNL A   1      47.528  29.362  30.174  1.00  0.00     0.031 C 
ATOM     55  C   UNL A   1      41.969  31.773  30.476  1.00  0.00     0.029 A 
ATOM     56  C   UNL A   1      43.020  30.894  30.267  1.00  0.00     0.049 A 
ATOM     57  H   UNL A   1      42.980  28.922  29.517  1.00  0.00     0.167 HD
ATOM     58  C   UNL A   1      45.393  30.186  30.282  1.00  0.00     0.074 A 
ATOM     59  C   UNL A   1      46.802  30.415  30.521  1.00  0.00     0.031 C 
ATOM     60  C   UNL A   1      44.423  31.106  30.502  1.00  0.00     0.031 A 
BRANCH  47  61
ATOM     61  C   UNL A   1      38.750  29.178  29.027  1.00  0.00    -0.014 A 
ATOM     62  C   UNL A   1      37.874  29.055  30.118  1.00  0.00     0.009 A 
ATOM     63  C   UNL A   1      38.252  29.659  27.806  1.00  0.00     0.009 A 
ATOM     64  C   UNL A   1      36.522  29.374  29.978  1.00  0.00     0.001 A 
ATOM     65  C   UNL A   1      36.905  30.003  27.676  1.00  0.00     0.001 A 
ATOM     66  C   UNL A   1      36.040  29.852  28.760  1.00  0.00     0.000 A 
ENDBRANCH  47  61
BRANCH  48  67
ATOM     67  C   UNL A   1      48.398  26.699  29.354  1.00  0.00    -0.014 A 
ATOM     68  C   UNL A   1      48.974  26.081  30.474  1.00  0.00     0.009 A 
ATOM     69  C   UNL A   1      49.212  26.999  28.250  1.00  0.00     0.009 A 
ATOM     70  C   UNL A   1      50.342  25.797  30.501  1.00  0.00     0.001 A 
ATOM     71  C   UNL A   1      50.574  26.690  28.271  1.00  0.00     0.001 A 
ATOM     72  C   UNL A   1      51.139  26.098  29.399  1.00  0.00     0.000 A 
ENDBRANCH  48  67
BRANCH  60  73
ATOM     73  C   UNL A   1      44.849  32.434  31.058  1.00  0.00    -0.014 A 
ATOM     74  C   UNL A   1      44.950  32.643  32.442  1.00  0.00     0.009 A 
ATOM     75  C   UNL A   1      45.198  33.474  30.182  1.00  0.00     0.009 A 
ATOM     76  C   UNL A   1      45.367  33.879  32.938  1.00  0.00     0.001 A 
ATOM     77  C   UNL A   1      45.639  34.701  30.683  1.00  0.00     0.001 A 
ATOM     78  C   UNL A   1      45.716  34.904  32.059  1.00  0.00     0.000 A 
ENDBRANCH  60  73
ENDBRANCH  34  35
ENDBRANCH  26  29
ENDBRANCH  24  25
ENDBRANCH  23  24
ENDBRANCH   1  23
TORSDOF 13
ENDMDL
MODEL 3
REMARK VINA RESULT:     -11.2      1.883      7.772
REMARK SMILES COc1ccc(-n2nc(C(=O)NCCCCNC(=O)c3ccc(-c4c5nc(c(-c6ccccc6)c6ccc([nH]6)c(-c6ccccc6)c6nc(c(-c7ccccc7)c7ccc4[nH]7)C=C6)C=C5)cc3)c(=O)cc2C)cc1
REMARK SMILES IDX 14 1 13 2 12 3 10 4 11 5 9 7 7 8 8 9 71 10 70 11 72 12 68 13
REMARK SMILES IDX 69 14 6 15 3 16 4 17 74 18 5 19 73 20 2 21 1 22 15 23 16 24
REMARK SMILES IDX 17 25 18 26 19 28 20 29 21 30 67 31 22 32 66 33 23 34 24 35
REMARK SMILES IDX 25 36 60 37 26 38 65 39 59 40 61 41 27 42 64 43 58 44 57 45
REMARK SMILES IDX 28 47 50 48 35 49 49 50 36 51 39 52 48 53 62 54 37 55 38 56
REMARK SMILES IDX 47 58 63 59 40 60 29 61 30 62 34 63 31 64 33 65 32 66 51 67
REMARK SMILES IDX 52 68 56 69 53 70 55 71 54 72 41 73 42 74 46 75 43 76 45 77
REMARK SMILES IDX 44 78
REMARK H PARENT 12 6 17 27 61 46 39 57
REMARK Flexibility Score: inf
ROOT
ATOM      1  C   UNL A   1      36.705  21.358  24.646  1.00  0.00     0.023 C 
ENDROOT
BRANCH   1   2
ATOM      2  C   UNL A   1      35.232  21.071  24.918  1.00  0.00     0.116 C 
BRANCH   2   3
ATOM      3  N   UNL A   1      34.861  21.240  26.309  1.00  0.00    -0.351 N 
ATOM      4  C   UNL A   1      33.819  21.943  26.877  1.00  0.00     0.275 C 
ATOM      5  O   UNL A   1      33.609  21.814  28.080  1.00  0.00    -0.267 OA
ATOM      6  H   UNL A   1      35.448  20.781  26.952  1.00  0.00     0.163 HD
BRANCH   4   7
ATOM      7  C   UNL A   1      32.941  22.898  26.080  1.00  0.00     0.196 A 
ATOM      8  N   UNL A   1      32.478  25.060  25.442  1.00  0.00    -0.237 N 
ATOM      9  N   UNL A   1      33.287  24.160  26.103  1.00  0.00    -0.158 NA
ATOM     10  C   UNL A   1      31.596  24.672  24.429  1.00  0.00     0.044 A 
ATOM     11  C   UNL A   1      31.203  23.397  24.302  1.00  0.00     0.078 A 
ATOM     12  C   UNL A   1      31.114  25.684  23.418  1.00  0.00     0.067 C 
ATOM     13  C   UNL A   1      31.694  22.477  25.338  1.00  0.00     0.213 A 
ATOM     14  O   UNL A   1      31.141  21.411  25.562  1.00  0.00    -0.287 OA
BRANCH   8  15
ATOM     15  C   UNL A   1      32.559  26.393  25.947  1.00  0.00     0.065 A 
ATOM     16  C   UNL A   1      32.704  29.040  26.932  1.00  0.00     0.119 A 
ATOM     17  C   UNL A   1      33.712  28.530  26.113  1.00  0.00     0.048 A 
ATOM     18  C   UNL A   1      31.619  28.232  27.264  1.00  0.00     0.048 A 
ATOM     19  C   UNL A   1      33.655  27.212  25.647  1.00  0.00     0.032 A 
ATOM     20  C   UNL A   1      31.549  26.921  26.774  1.00  0.00     0.032 A 
BRANCH  16  21
ATOM     21  O   UNL A   1      32.854  30.345  27.308  1.00  0.00    -0.497 OA
ATOM     22  C   UNL A   1      31.896  31.252  26.771  1.00  0.00     0.278 C 
ENDBRANCH  16  21
ENDBRANCH   8  15
ENDBRANCH   4   7
ENDBRANCH   2   3
ENDBRANCH   1   2
BRANCH   1  23
ATOM     23  C   UNL A   1      37.682  20.210  24.898  1.00  0.00     0.023 C 
BRANCH  23  24
ATOM     24  C   UNL A   1      38.915  20.533  25.740  1.00  0.00     0.116 C 
BRANCH  24  25
ATOM     25  N   UNL A   1      39.931  19.492  25.735  1.00  0.00    -0.352 N 
ATOM     26  C   UNL A   1      41.256  19.565  26.099  1.00  0.00     0.251 C 
ATOM     27  H   UNL A   1      39.627  18.607  25.427  1.00  0.00     0.163 HD
ATOM     28  O   UNL A   1      41.989  18.588  25.973  1.00  0.00    -0.269 OA
BRANCH  26  29
ATOM     29  C   UNL A   1      41.811  20.840  26.602  1.00  0.00     0.039 A 
ATOM     30  C   UNL A   1      42.318  21.762  25.681  1.00  0.00     0.014 A 
ATOM     31  C   UNL A   1      41.793  21.143  27.965  1.00  0.00     0.014 A 
ATOM     32  C   UNL A   1      42.716  23.028  26.119  1.00  0.00     0.010 A 
ATOM     33  C   UNL A   1      42.126  22.427  28.389  1.00  0.00     0.010 A 
ATOM     34  C   UNL A   1      42.574  23.387  27.469  1.00  0.00    -0.014 A 
BRANCH  34  35
ATOM     35  C   UNL A   1      42.855  24.769  27.934  1.00  0.00     0.031 A 
ATOM     36  C   UNL A   1      44.250  25.169  28.327  1.00  0.00     0.074 A 
ATOM     37  C   UNL A   1      41.837  25.637  28.092  1.00  0.00     0.049 A 
ATOM     38  N   UNL A   1      44.670  26.297  28.841  1.00  0.00    -0.248 NA
ATOM     39  C   UNL A   1      45.305  24.161  28.142  1.00  0.00     0.031 C 
ATOM     40  C   UNL A   1      40.429  25.359  27.797  1.00  0.00     0.029 A 
ATOM     41  N   UNL A   1      41.828  26.929  28.555  1.00  0.00    -0.354 N 
ATOM     42  C   UNL A   1      46.029  26.124  29.066  1.00  0.00     0.074 A 
ATOM     43  C   UNL A   1      46.357  24.772  28.668  1.00  0.00     0.031 C 
ATOM     44  C   UNL A   1      39.697  26.453  28.069  1.00  0.00     0.029 A 
ATOM     45  C   UNL A   1      40.575  27.494  28.591  1.00  0.00     0.049 A 
ATOM     46  H   UNL A   1      42.642  27.407  28.835  1.00  0.00     0.167 HD
ATOM     47  C   UNL A   1      46.929  27.016  29.546  1.00  0.00     0.031 A 
ATOM     48  C   UNL A   1      40.175  28.711  29.008  1.00  0.00     0.031 A 
ATOM     49  C   UNL A   1      46.612  28.368  29.921  1.00  0.00     0.049 A 
ATOM     50  C   UNL A   1      41.196  29.685  29.526  1.00  0.00     0.074 A 
ATOM     51  C   UNL A   1      47.470  29.367  30.347  1.00  0.00     0.029 A 
ATOM     52  N   UNL A   1      45.336  28.909  29.914  1.00  0.00    -0.354 N 
ATOM     53  N   UNL A   1      42.491  29.530  29.659  1.00  0.00    -0.248 NA
ATOM     54  C   UNL A   1      40.700  31.005  29.943  1.00  0.00     0.031 C 
ATOM     55  C   UNL A   1      46.706  30.502  30.639  1.00  0.00     0.029 A 
ATOM     56  C   UNL A   1      45.380  30.222  30.350  1.00  0.00     0.049 A 
ATOM     57  H   UNL A   1      44.520  28.430  29.640  1.00  0.00     0.167 HD
ATOM     58  C   UNL A   1      42.966  30.739  30.151  1.00  0.00     0.074 A 
ATOM     59  C   UNL A   1      41.825  31.621  30.278  1.00  0.00     0.031 C 
ATOM     60  C   UNL A   1      44.237  31.087  30.468  1.00  0.00     0.031 A 
BRANCH  47  61
ATOM     61  C   UNL A   1      48.350  26.552  29.695  1.00  0.00    -0.014 A 
ATOM     62  C   UNL A   1      49.289  26.748  28.670  1.00  0.00     0.009 A 
ATOM     63  C   UNL A   1      48.765  25.948  30.892  1.00  0.00     0.009 A 
ATOM     64  C   UNL A   1      50.608  26.316  28.829  1.00  0.00     0.001 A 
ATOM     65  C   UNL A   1      50.091  25.541  31.058  1.00  0.00     0.001 A 
ATOM     66  C   UNL A   1      51.008  25.718  30.023  1.00  0.00     0.000 A 
ENDBRANCH  47  61
BRANCH  48  67
ATOM     67  C   UNL A   1      38.740  29.086  28.944  1.00  0.00    -0.014 A 
ATOM     68  C   UNL A   1      37.924  28.977  30.081  1.00  0.00     0.009 A 
ATOM     69  C   UNL A   1      38.173  29.543  27.743  1.00  0.00     0.009 A 
ATOM     70  C   UNL A   1      36.565  29.291  30.011  1.00  0.00     0.001 A 
ATOM     71  C   UNL A   1      36.819  29.881  27.684  1.00  0.00     0.001 A 
ATOM     72  C   UNL A   1      36.015  29.745  28.814  1.00  0.00     0.000 A 
ENDBRANCH  48  67
BRANCH  60  73
ATOM     73  C   UNL A   1      44.464  32.490  30.953  1.00  0.00    -0.014 A 
ATOM     74  C   UNL A   1      44.420  32.801  32.321  1.00  0.00     0.009 A 
ATOM     75  C   UNL A   1      44.773  33.502  30.031  1.00  0.00     0.009 A 
ATOM     76  C   UNL A   1      44.654  34.108  32.752  1.00  0.00     0.001 A 
ATOM     77  C   UNL A   1      45.031  34.802  30.469  1.00  0.00     0.001 A 
ATOM     78  C   UNL A   1      44.964  35.104  31.827  1.00  0.00     0.000 A 
ENDBRANCH  60  73
ENDBRANCH  34  35
ENDBRANCH  26  29
ENDBRANCH  24  25
ENDBRANCH  23  24
ENDBRANCH   1  23
TORSDOF 13
ENDMDL
