MODEL 1
REMARK VINA RESULT:     -11.6      0.000      0.000
REMARK SMILES CCn1cc(S(=O)(=O)N2CCC(CCc3ccc(C(=O)NCCCCNC(=O)c4ccc(-c5c6nc(c(-c7ccccc7)c7ccc([nH]7)c(-c7ccccc7)c7nc(c(-c8ccccc8)c8ccc5[nH]8)C=C7)C=C6)cc4)cc3)CC2)cn1
REMARK SMILES IDX 19 1 20 2 21 3 18 5 15 6 16 7 78 8 17 9 77 10 14 11 13 12
REMARK SMILES IDX 12 13 9 14 10 15 80 16 11 17 79 18 6 19 7 20 8 21 5 22 3 23
REMARK SMILES IDX 4 24 82 25 81 26 2 27 1 28 22 29 23 30 24 31 25 32 26 33
REMARK SMILES IDX 27 34 28 36 29 37 30 38 76 39 31 40 75 41 32 42 33 43 34 44
REMARK SMILES IDX 69 45 35 46 74 47 68 48 70 49 36 50 73 51 67 52 66 53 37 55
REMARK SMILES IDX 59 56 44 57 58 58 45 59 48 60 57 61 71 62 46 63 47 64 56 66
REMARK SMILES IDX 72 67 49 68 38 69 39 70 43 71 40 72 42 73 41 74 60 75 61 76
REMARK SMILES IDX 65 77 62 78 64 79 63 80 50 81 51 82 55 83 52 84 54 85 53 86
REMARK H PARENT 21 4 26 35 70 54 48 65
REMARK Flexibility Score: inf
ROOT
ATOM      1  C   UNL A   1      41.758  20.778  27.124  1.00  0.00     0.251 C 
ATOM      2  O   UNL A   1      42.105  21.662  27.912  1.00  0.00    -0.269 OA
ATOM      3  N   UNL A   1      42.654  19.752  26.935  1.00  0.00    -0.352 N 
ATOM      4  H   UNL A   1      43.476  19.857  27.466  1.00  0.00     0.163 HD
ENDROOT
BRANCH   1   5
ATOM      5  C   UNL A   1      40.415  20.888  26.472  1.00  0.00     0.039 A 
ATOM      6  C   UNL A   1      37.864  21.313  25.275  1.00  0.00    -0.048 A 
ATOM      7  C   UNL A   1      38.518  22.353  25.939  1.00  0.00     0.004 A 
ATOM      8  C   UNL A   1      38.495  20.067  25.229  1.00  0.00     0.004 A 
ATOM      9  C   UNL A   1      39.770  22.139  26.536  1.00  0.00     0.014 A 
ATOM     10  C   UNL A   1      39.765  19.867  25.784  1.00  0.00     0.014 A 
BRANCH   6  11
ATOM     11  C   UNL A   1      36.513  21.525  24.629  1.00  0.00     0.036 C 
BRANCH  11  12
ATOM     12  C   UNL A   1      36.275  22.936  24.055  1.00  0.00     0.008 C 
BRANCH  12  13
ATOM     13  C   UNL A   1      35.176  23.769  24.742  1.00  0.00    -0.008 C 
ATOM     14  N   UNL A   1      32.541  24.894  25.260  1.00  0.00    -0.198 NA
ATOM     15  C   UNL A   1      33.597  25.710  24.617  1.00  0.00     0.103 C 
ATOM     16  C   UNL A   1      33.006  23.712  26.032  1.00  0.00     0.103 C 
ATOM     17  C   UNL A   1      34.557  24.831  23.825  1.00  0.00     0.020 C 
ATOM     18  C   UNL A   1      34.031  22.885  25.255  1.00  0.00     0.020 C 
BRANCH  14  19
ATOM     19  S   UNL A   1      31.284  25.802  25.994  1.00  0.00     0.246 S 
ATOM     20  O   UNL A   1      31.790  26.388  27.214  1.00  0.00    -0.207 OA
ATOM     21  O   UNL A   1      30.069  25.015  25.964  1.00  0.00    -0.207 OA
BRANCH  19  22
ATOM     22  C   UNL A   1      30.901  27.165  25.028  1.00  0.00     0.120 A 
ATOM     23  N   UNL A   1      30.178  28.522  23.477  1.00  0.00    -0.272 N 
ATOM     24  C   UNL A   1      30.098  27.233  23.914  1.00  0.00     0.130 A 
ATOM     25  N   UNL A   1      30.941  29.303  24.262  1.00  0.00    -0.180 NA
ATOM     26  C   UNL A   1      31.382  28.468  25.211  1.00  0.00     0.156 A 
BRANCH  23  27
ATOM     27  C   UNL A   1      29.594  29.065  22.267  1.00  0.00     0.141 C 
ATOM     28  C   UNL A   1      28.162  29.523  22.450  1.00  0.00     0.029 C 
ENDBRANCH  23  27
ENDBRANCH  19  22
ENDBRANCH  14  19
ENDBRANCH  12  13
ENDBRANCH  11  12
ENDBRANCH   6  11
ENDBRANCH   1   5
BRANCH   3  29
ATOM     29  C   UNL A   1      42.651  18.549  26.123  1.00  0.00     0.116 C 
BRANCH  29  30
ATOM     30  C   UNL A   1      43.745  18.601  25.055  1.00  0.00     0.023 C 
BRANCH  30  31
ATOM     31  C   UNL A   1      45.186  18.540  25.586  1.00  0.00     0.023 C 
BRANCH  31  32
ATOM     32  C   UNL A   1      46.018  19.792  25.331  1.00  0.00     0.116 C 
BRANCH  32  33
ATOM     33  N   UNL A   1      45.758  20.417  24.030  1.00  0.00    -0.352 N 
ATOM     34  C   UNL A   1      44.913  21.481  23.761  1.00  0.00     0.251 C 
ATOM     35  H   UNL A   1      46.239  20.037  23.260  1.00  0.00     0.163 HD
ATOM     36  O   UNL A   1      44.482  21.699  22.638  1.00  0.00    -0.269 OA
BRANCH  34  37
ATOM     37  C   UNL A   1      44.556  22.354  24.886  1.00  0.00     0.039 A 
ATOM     38  C   UNL A   1      45.498  22.708  25.855  1.00  0.00     0.014 A 
ATOM     39  C   UNL A   1      43.303  22.956  24.830  1.00  0.00     0.014 A 
ATOM     40  C   UNL A   1      45.213  23.777  26.700  1.00  0.00     0.010 A 
ATOM     41  C   UNL A   1      43.086  24.092  25.572  1.00  0.00     0.010 A 
ATOM     42  C   UNL A   1      44.022  24.501  26.526  1.00  0.00    -0.014 A 
BRANCH  42  43
ATOM     43  C   UNL A   1      43.805  25.758  27.243  1.00  0.00     0.031 A 
ATOM     44  C   UNL A   1      44.700  26.902  26.882  1.00  0.00     0.074 A 
ATOM     45  C   UNL A   1      42.713  25.993  28.003  1.00  0.00     0.049 A 
ATOM     46  N   UNL A   1      45.522  27.540  27.649  1.00  0.00    -0.248 NA
ATOM     47  C   UNL A   1      44.718  27.362  25.483  1.00  0.00     0.031 C 
ATOM     48  C   UNL A   1      41.543  25.133  28.215  1.00  0.00     0.029 A 
ATOM     49  N   UNL A   1      42.358  27.142  28.639  1.00  0.00    -0.354 N 
ATOM     50  C   UNL A   1      46.046  28.586  26.890  1.00  0.00     0.074 A 
ATOM     51  C   UNL A   1      45.613  28.351  25.534  1.00  0.00     0.031 C 
ATOM     52  C   UNL A   1      40.518  25.874  28.684  1.00  0.00     0.029 A 
ATOM     53  C   UNL A   1      41.018  27.199  28.994  1.00  0.00     0.049 A 
ATOM     54  H   UNL A   1      42.995  27.868  28.830  1.00  0.00     0.167 HD
ATOM     55  C   UNL A   1      46.631  29.677  27.464  1.00  0.00     0.031 A 
ATOM     56  C   UNL A   1      40.353  28.267  29.490  1.00  0.00     0.031 A 
ATOM     57  C   UNL A   1      46.936  29.454  28.853  1.00  0.00     0.049 A 
ATOM     58  C   UNL A   1      41.359  29.198  30.047  1.00  0.00     0.074 A 
ATOM     59  C   UNL A   1      47.701  28.541  29.552  1.00  0.00     0.029 A 
ATOM     60  N   UNL A   1      46.106  30.027  29.787  1.00  0.00    -0.354 N 
ATOM     61  N   UNL A   1      42.092  28.921  31.088  1.00  0.00    -0.248 NA
ATOM     62  C   UNL A   1      41.860  30.263  29.196  1.00  0.00     0.031 C 
ATOM     63  C   UNL A   1      46.932  28.244  30.718  1.00  0.00     0.029 A 
ATOM     64  C   UNL A   1      45.788  29.044  30.686  1.00  0.00     0.049 A 
ATOM     65  H   UNL A   1      45.797  30.962  29.804  1.00  0.00     0.167 HD
ATOM     66  C   UNL A   1      43.339  29.450  30.792  1.00  0.00     0.074 A 
ATOM     67  C   UNL A   1      43.105  30.361  29.673  1.00  0.00     0.031 C 
ATOM     68  C   UNL A   1      44.484  28.893  31.291  1.00  0.00     0.031 A 
BRANCH  55  69
ATOM     69  C   UNL A   1      46.586  31.074  26.890  1.00  0.00    -0.014 A 
ATOM     70  C   UNL A   1      47.719  31.902  27.027  1.00  0.00     0.009 A 
ATOM     71  C   UNL A   1      45.395  31.703  26.483  1.00  0.00     0.009 A 
ATOM     72  C   UNL A   1      47.640  33.290  26.850  1.00  0.00     0.001 A 
ATOM     73  C   UNL A   1      45.324  33.082  26.261  1.00  0.00     0.001 A 
ATOM     74  C   UNL A   1      46.437  33.881  26.476  1.00  0.00     0.000 A 
ENDBRANCH  55  69
BRANCH  56  75
ATOM     75  C   UNL A   1      38.936  28.630  29.299  1.00  0.00    -0.014 A 
ATOM     76  C   UNL A   1      38.053  28.679  30.387  1.00  0.00     0.009 A 
ATOM     77  C   UNL A   1      38.505  29.180  28.076  1.00  0.00     0.009 A 
ATOM     78  C   UNL A   1      36.801  29.293  30.266  1.00  0.00     0.001 A 
ATOM     79  C   UNL A   1      37.253  29.788  27.954  1.00  0.00     0.001 A 
ATOM     80  C   UNL A   1      36.407  29.859  29.054  1.00  0.00     0.000 A 
ENDBRANCH  56  75
BRANCH  68  81
ATOM     81  C   UNL A   1      44.360  27.826  32.352  1.00  0.00    -0.014 A 
ATOM     82  C   UNL A   1      44.097  26.477  32.055  1.00  0.00     0.009 A 
ATOM     83  C   UNL A   1      44.685  28.159  33.675  1.00  0.00     0.009 A 
ATOM     84  C   UNL A   1      44.130  25.500  33.055  1.00  0.00     0.001 A 
ATOM     85  C   UNL A   1      44.739  27.182  34.670  1.00  0.00     0.001 A 
ATOM     86  C   UNL A   1      44.456  25.853  34.362  1.00  0.00     0.000 A 
ENDBRANCH  68  81
ENDBRANCH  42  43
ENDBRANCH  34  37
ENDBRANCH  32  33
ENDBRANCH  31  32
ENDBRANCH  30  31
ENDBRANCH  29  30
ENDBRANCH   3  29
TORSDOF 17
ENDMDL
MODEL 2
REMARK VINA RESULT:     -11.5      2.894      4.689
REMARK SMILES CCn1cc(S(=O)(=O)N2CCC(CCc3ccc(C(=O)NCCCCNC(=O)c4ccc(-c5c6nc(c(-c7ccccc7)c7ccc([nH]7)c(-c7ccccc7)c7nc(c(-c8ccccc8)c8ccc5[nH]8)C=C7)C=C6)cc4)cc3)CC2)cn1
REMARK SMILES IDX 19 1 20 2 21 3 18 5 15 6 16 7 78 8 17 9 77 10 14 11 13 12
REMARK SMILES IDX 12 13 9 14 10 15 80 16 11 17 79 18 6 19 7 20 8 21 5 22 3 23
REMARK SMILES IDX 4 24 82 25 81 26 2 27 1 28 22 29 23 30 24 31 25 32 26 33
REMARK SMILES IDX 27 34 28 36 29 37 30 38 76 39 31 40 75 41 32 42 33 43 34 44
REMARK SMILES IDX 69 45 35 46 74 47 68 48 70 49 36 50 73 51 67 52 66 53 37 55
REMARK SMILES IDX 59 56 44 57 58 58 45 59 48 60 57 61 71 62 46 63 47 64 56 66
REMARK SMILES IDX 72 67 49 68 38 69 39 70 43 71 40 72 42 73 41 74 60 75 61 76
REMARK SMILES IDX 65 77 62 78 64 79 63 80 50 81 51 82 55 83 52 84 54 85 53 86
REMARK H PARENT 21 4 26 35 70 54 48 65
REMARK Flexibility Score: inf
ROOT
ATOM      1  C   UNL A   1      42.124  21.476  26.786  1.00  0.00     0.251 C 
ATOM      2  O   UNL A   1      42.275  20.614  27.656  1.00  0.00    -0.269 OA
ATOM      3  N   UNL A   1      43.251  21.831  26.085  1.00  0.00    -0.352 N 
ATOM      4  H   UNL A   1      44.054  21.340  26.373  1.00  0.00     0.163 HD
ENDROOT
BRANCH   1   5
ATOM      5  C   UNL A   1      40.751  22.033  26.564  1.00  0.00     0.039 A 
ATOM      6  C   UNL A   1      38.216  23.285  26.215  1.00  0.00    -0.048 A 
ATOM      7  C   UNL A   1      39.266  23.968  26.832  1.00  0.00     0.004 A 
ATOM      8  C   UNL A   1      38.449  21.974  25.789  1.00  0.00     0.004 A 
ATOM      9  C   UNL A   1      40.511  23.346  27.011  1.00  0.00     0.014 A 
ATOM     10  C   UNL A   1      39.706  21.371  25.925  1.00  0.00     0.014 A 
BRANCH   6  11
ATOM     11  C   UNL A   1      36.866  23.938  26.016  1.00  0.00     0.036 C 
BRANCH  11  12
ATOM     12  C   UNL A   1      36.234  23.727  24.626  1.00  0.00     0.008 C 
BRANCH  12  13
ATOM     13  C   UNL A   1      34.704  23.886  24.547  1.00  0.00    -0.008 C 
ATOM     14  N   UNL A   1      32.119  25.174  24.177  1.00  0.00    -0.198 NA
ATOM     15  C   UNL A   1      32.620  24.862  25.535  1.00  0.00     0.103 C 
ATOM     16  C   UNL A   1      32.728  24.401  23.062  1.00  0.00     0.103 C 
ATOM     17  C   UNL A   1      34.143  24.879  25.571  1.00  0.00     0.020 C 
ATOM     18  C   UNL A   1      34.253  24.359  23.158  1.00  0.00     0.020 C 
BRANCH  14  19
ATOM     19  S   UNL A   1      30.421  25.397  24.074  1.00  0.00     0.246 S 
ATOM     20  O   UNL A   1      29.893  25.535  25.412  1.00  0.00    -0.207 OA
ATOM     21  O   UNL A   1      29.887  24.438  23.131  1.00  0.00    -0.207 OA
BRANCH  19  22
ATOM     22  C   UNL A   1      30.068  26.909  23.349  1.00  0.00     0.120 A 
ATOM     23  N   UNL A   1      29.129  28.756  22.660  1.00  0.00    -0.272 N 
ATOM     24  C   UNL A   1      28.954  27.700  23.503  1.00  0.00     0.130 A 
ATOM     25  N   UNL A   1      30.304  28.727  22.006  1.00  0.00    -0.180 NA
ATOM     26  C   UNL A   1      30.877  27.593  22.431  1.00  0.00     0.156 A 
BRANCH  23  27
ATOM     27  C   UNL A   1      28.174  29.810  22.380  1.00  0.00     0.141 C 
ATOM     28  C   UNL A   1      28.733  31.198  22.612  1.00  0.00     0.029 C 
ENDBRANCH  23  27
ENDBRANCH  19  22
ENDBRANCH  14  19
ENDBRANCH  12  13
ENDBRANCH  11  12
ENDBRANCH   6  11
ENDBRANCH   1   5
BRANCH   3  29
ATOM     29  C   UNL A   1      43.515  22.773  25.012  1.00  0.00     0.116 C 
BRANCH  29  30
ATOM     30  C   UNL A   1      44.423  23.910  25.487  1.00  0.00     0.023 C 
BRANCH  30  31
ATOM     31  C   UNL A   1      45.640  23.476  26.318  1.00  0.00     0.023 C 
BRANCH  31  32
ATOM     32  C   UNL A   1      45.732  24.112  27.702  1.00  0.00     0.116 C 
BRANCH  32  33
ATOM     33  N   UNL A   1      44.891  23.455  28.708  1.00  0.00    -0.352 N 
ATOM     34  C   UNL A   1      44.099  24.062  29.668  1.00  0.00     0.251 C 
ATOM     35  H   UNL A   1      44.888  22.471  28.699  1.00  0.00     0.163 HD
ATOM     36  O   UNL A   1      43.729  23.471  30.672  1.00  0.00    -0.269 OA
BRANCH  34  37
ATOM     37  C   UNL A   1      43.709  25.457  29.431  1.00  0.00     0.039 A 
ATOM     38  C   UNL A   1      42.874  25.804  28.365  1.00  0.00     0.014 A 
ATOM     39  C   UNL A   1      44.049  26.374  30.420  1.00  0.00     0.014 A 
ATOM     40  C   UNL A   1      42.275  27.061  28.371  1.00  0.00     0.010 A 
ATOM     41  C   UNL A   1      43.350  27.555  30.492  1.00  0.00     0.010 A 
ATOM     42  C   UNL A   1      42.478  27.921  29.463  1.00  0.00    -0.014 A 
BRANCH  42  43
ATOM     43  C   UNL A   1      41.685  29.143  29.603  1.00  0.00     0.031 A 
ATOM     44  C   UNL A   1      42.394  30.438  29.357  1.00  0.00     0.074 A 
ATOM     45  C   UNL A   1      40.337  29.139  29.691  1.00  0.00     0.049 A 
ATOM     46  N   UNL A   1      42.567  31.417  30.184  1.00  0.00    -0.248 NA
ATOM     47  C   UNL A   1      43.030  30.651  28.047  1.00  0.00     0.031 C 
ATOM     48  C   UNL A   1      39.417  27.998  29.605  1.00  0.00     0.029 A 
ATOM     49  N   UNL A   1      39.490  30.203  29.733  1.00  0.00    -0.354 N 
ATOM     50  C   UNL A   1      43.188  32.440  29.466  1.00  0.00     0.074 A 
ATOM     51  C   UNL A   1      43.560  31.867  28.196  1.00  0.00     0.031 C 
ATOM     52  C   UNL A   1      38.174  28.443  29.327  1.00  0.00     0.029 A 
ATOM     53  C   UNL A   1      38.175  29.889  29.422  1.00  0.00     0.049 A 
ATOM     54  H   UNL A   1      39.784  31.113  29.964  1.00  0.00     0.167 HD
ATOM     55  C   UNL A   1      43.171  33.736  29.891  1.00  0.00     0.031 A 
ATOM     56  C   UNL A   1      37.155  30.757  29.231  1.00  0.00     0.031 A 
ATOM     57  C   UNL A   1      42.765  33.846  31.268  1.00  0.00     0.049 A 
ATOM     58  C   UNL A   1      37.533  32.034  29.876  1.00  0.00     0.074 A 
ATOM     59  C   UNL A   1      43.230  33.345  32.467  1.00  0.00     0.029 A 
ATOM     60  N   UNL A   1      41.481  34.269  31.519  1.00  0.00    -0.354 N 
ATOM     61  N   UNL A   1      37.672  32.174  31.164  1.00  0.00    -0.248 NA
ATOM     62  C   UNL A   1      38.176  33.053  29.064  1.00  0.00     0.031 C 
ATOM     63  C   UNL A   1      42.051  33.011  33.200  1.00  0.00     0.029 A 
ATOM     64  C   UNL A   1      40.951  33.392  32.429  1.00  0.00     0.049 A 
ATOM     65  H   UNL A   1      41.030  35.048  31.122  1.00  0.00     0.167 HD
ATOM     66  C   UNL A   1      38.764  33.015  31.311  1.00  0.00     0.074 A 
ATOM     67  C   UNL A   1      38.958  33.614  29.991  1.00  0.00     0.031 C 
ATOM     68  C   UNL A   1      39.579  32.936  32.406  1.00  0.00     0.031 A 
BRANCH  55  69
ATOM     69  C   UNL A   1      43.151  34.937  28.973  1.00  0.00    -0.014 A 
ATOM     70  C   UNL A   1      41.930  35.322  28.384  1.00  0.00     0.009 A 
ATOM     71  C   UNL A   1      44.316  35.522  28.443  1.00  0.00     0.009 A 
ATOM     72  C   UNL A   1      41.888  36.175  27.272  1.00  0.00     0.001 A 
ATOM     73  C   UNL A   1      44.274  36.409  27.362  1.00  0.00     0.001 A 
ATOM     74  C   UNL A   1      43.063  36.710  26.756  1.00  0.00     0.000 A 
ENDBRANCH  55  69
BRANCH  56  75
ATOM     75  C   UNL A   1      35.993  30.618  28.333  1.00  0.00    -0.014 A 
ATOM     76  C   UNL A   1      35.670  29.380  27.762  1.00  0.00     0.009 A 
ATOM     77  C   UNL A   1      35.044  31.654  28.240  1.00  0.00     0.009 A 
ATOM     78  C   UNL A   1      34.425  29.174  27.154  1.00  0.00     0.001 A 
ATOM     79  C   UNL A   1      33.804  31.451  27.628  1.00  0.00     0.001 A 
ATOM     80  C   UNL A   1      33.488  30.205  27.100  1.00  0.00     0.000 A 
ENDBRANCH  56  75
BRANCH  68  81
ATOM     81  C   UNL A   1      39.146  32.068  33.563  1.00  0.00    -0.014 A 
ATOM     82  C   UNL A   1      39.671  30.785  33.798  1.00  0.00     0.009 A 
ATOM     83  C   UNL A   1      38.308  32.627  34.539  1.00  0.00     0.009 A 
ATOM     84  C   UNL A   1      39.345  30.074  34.958  1.00  0.00     0.001 A 
ATOM     85  C   UNL A   1      37.999  31.928  35.707  1.00  0.00     0.001 A 
ATOM     86  C   UNL A   1      38.512  30.650  35.914  1.00  0.00     0.000 A 
ENDBRANCH  68  81
ENDBRANCH  42  43
ENDBRANCH  34  37
ENDBRANCH  32  33
ENDBRANCH  31  32
ENDBRANCH  30  31
ENDBRANCH  29  30
ENDBRANCH   3  29
TORSDOF 17
ENDMDL
MODEL 3
REMARK VINA RESULT:     -11.4      2.541      9.158
REMARK SMILES CCn1cc(S(=O)(=O)N2CCC(CCc3ccc(C(=O)NCCCCNC(=O)c4ccc(-c5c6nc(c(-c7ccccc7)c7ccc([nH]7)c(-c7ccccc7)c7nc(c(-c8ccccc8)c8ccc5[nH]8)C=C7)C=C6)cc4)cc3)CC2)cn1
REMARK SMILES IDX 19 1 20 2 21 3 18 5 15 6 16 7 78 8 17 9 77 10 14 11 13 12
REMARK SMILES IDX 12 13 9 14 10 15 80 16 11 17 79 18 6 19 7 20 8 21 5 22 3 23
REMARK SMILES IDX 4 24 82 25 81 26 2 27 1 28 22 29 23 30 24 31 25 32 26 33
REMARK SMILES IDX 27 34 28 36 29 37 30 38 76 39 31 40 75 41 32 42 33 43 34 44
REMARK SMILES IDX 69 45 35 46 74 47 68 48 70 49 36 50 73 51 67 52 66 53 37 55
REMARK SMILES IDX 59 56 44 57 58 58 45 59 48 60 57 61 71 62 46 63 47 64 56 66
REMARK SMILES IDX 72 67 49 68 38 69 39 70 43 71 40 72 42 73 41 74 60 75 61 76
REMARK SMILES IDX 65 77 62 78 64 79 63 80 50 81 51 82 55 83 52 84 54 85 53 86
REMARK H PARENT 21 4 26 35 70 54 48 65
REMARK Flexibility Score: inf
ROOT
ATOM      1  C   UNL A   1      30.850  27.858  23.173  1.00  0.00     0.251 C 
ATOM      2  O   UNL A   1      30.550  27.791  21.978  1.00  0.00    -0.269 OA
ATOM      3  N   UNL A   1      31.242  29.093  23.630  1.00  0.00    -0.352 N 
ATOM      4  H   UNL A   1      31.232  29.784  22.928  1.00  0.00     0.163 HD
ENDROOT
BRANCH   1   5
ATOM      5  C   UNL A   1      30.744  26.618  24.006  1.00  0.00     0.039 A 
ATOM      6  C   UNL A   1      30.573  24.142  25.407  1.00  0.00    -0.048 A 
ATOM      7  C   UNL A   1      30.650  24.165  24.013  1.00  0.00     0.004 A 
ATOM      8  C   UNL A   1      30.572  25.367  26.082  1.00  0.00     0.004 A 
ATOM      9  C   UNL A   1      30.725  25.386  23.324  1.00  0.00     0.014 A 
ATOM     10  C   UNL A   1      30.695  26.582  25.397  1.00  0.00     0.014 A 
BRANCH   6  11
ATOM     11  C   UNL A   1      30.488  22.836  26.166  1.00  0.00     0.036 C 
BRANCH  11  12
ATOM     12  C   UNL A   1      31.714  22.506  27.041  1.00  0.00     0.008 C 
BRANCH  12  13
ATOM     13  C   UNL A   1      33.068  22.437  26.310  1.00  0.00    -0.008 C 
ATOM     14  N   UNL A   1      35.848  21.742  25.796  1.00  0.00    -0.198 NA
ATOM     15  C   UNL A   1      35.482  23.102  26.251  1.00  0.00     0.103 C 
ATOM     16  C   UNL A   1      34.758  20.945  25.173  1.00  0.00     0.103 C 
ATOM     17  C   UNL A   1      34.218  23.070  27.102  1.00  0.00     0.020 C 
ATOM     18  C   UNL A   1      33.471  20.989  25.998  1.00  0.00     0.020 C 
BRANCH  14  19
ATOM     19  S   UNL A   1      37.373  21.635  25.016  1.00  0.00     0.246 S 
ATOM     20  O   UNL A   1      37.379  22.538  23.889  1.00  0.00    -0.207 OA
ATOM     21  O   UNL A   1      37.726  20.237  24.885  1.00  0.00    -0.207 OA
BRANCH  19  22
ATOM     22  C   UNL A   1      38.600  22.262  26.035  1.00  0.00     0.120 A 
ATOM     23  N   UNL A   1      39.909  23.536  27.231  1.00  0.00    -0.272 N 
ATOM     24  C   UNL A   1      38.733  23.533  26.541  1.00  0.00     0.130 A 
ATOM     25  N   UNL A   1      40.521  22.339  27.245  1.00  0.00    -0.180 NA
ATOM     26  C   UNL A   1      39.716  21.561  26.511  1.00  0.00     0.156 A 
BRANCH  23  27
ATOM     27  C   UNL A   1      40.545  24.680  27.855  1.00  0.00     0.141 C 
ATOM     28  C   UNL A   1      39.559  25.733  28.314  1.00  0.00     0.029 C 
ENDBRANCH  23  27
ENDBRANCH  19  22
ENDBRANCH  14  19
ENDBRANCH  12  13
ENDBRANCH  11  12
ENDBRANCH   6  11
ENDBRANCH   1   5
BRANCH   3  29
ATOM     29  C   UNL A   1      31.667  29.602  24.921  1.00  0.00     0.116 C 
BRANCH  29  30
ATOM     30  C   UNL A   1      33.180  29.453  25.102  1.00  0.00     0.023 C 
BRANCH  30  31
ATOM     31  C   UNL A   1      33.619  28.676  26.352  1.00  0.00     0.023 C 
BRANCH  31  32
ATOM     32  C   UNL A   1      33.942  29.541  27.566  1.00  0.00     0.116 C 
BRANCH  32  33
ATOM     33  N   UNL A   1      34.301  30.921  27.225  1.00  0.00    -0.352 N 
ATOM     34  C   UNL A   1      35.400  31.639  27.667  1.00  0.00     0.251 C 
ATOM     35  H   UNL A   1      33.693  31.392  26.611  1.00  0.00     0.163 HD
ATOM     36  O   UNL A   1      35.434  32.860  27.634  1.00  0.00    -0.269 OA
BRANCH  34  37
ATOM     37  C   UNL A   1      36.542  30.869  28.177  1.00  0.00     0.039 A 
ATOM     38  C   UNL A   1      36.897  29.641  27.613  1.00  0.00     0.014 A 
ATOM     39  C   UNL A   1      37.356  31.508  29.107  1.00  0.00     0.014 A 
ATOM     40  C   UNL A   1      38.154  29.115  27.901  1.00  0.00     0.010 A 
ATOM     41  C   UNL A   1      38.642  31.055  29.278  1.00  0.00     0.010 A 
ATOM     42  C   UNL A   1      39.046  29.849  28.699  1.00  0.00    -0.014 A 
BRANCH  42  43
ATOM     43  C   UNL A   1      40.443  29.431  28.827  1.00  0.00     0.031 A 
ATOM     44  C   UNL A   1      40.960  29.224  30.217  1.00  0.00     0.074 A 
ATOM     45  C   UNL A   1      41.180  28.996  27.782  1.00  0.00     0.049 A 
ATOM     46  N   UNL A   1      41.932  29.844  30.802  1.00  0.00    -0.248 NA
ATOM     47  C   UNL A   1      40.280  28.242  31.078  1.00  0.00     0.031 C 
ATOM     48  C   UNL A   1      40.762  28.791  26.390  1.00  0.00     0.029 A 
ATOM     49  N   UNL A   1      42.447  28.500  27.789  1.00  0.00    -0.354 N 
ATOM     50  C   UNL A   1      42.106  29.231  32.043  1.00  0.00     0.074 A 
ATOM     51  C   UNL A   1      40.984  28.340  32.208  1.00  0.00     0.031 C 
ATOM     52  C   UNL A   1      41.643  27.978  25.770  1.00  0.00     0.029 A 
ATOM     53  C   UNL A   1      42.776  27.778  26.651  1.00  0.00     0.049 A 
ATOM     54  H   UNL A   1      43.073  28.641  28.535  1.00  0.00     0.167 HD
ATOM     55  C   UNL A   1      43.263  29.352  32.756  1.00  0.00     0.031 A 
ATOM     56  C   UNL A   1      43.895  27.045  26.449  1.00  0.00     0.031 A 
ATOM     57  C   UNL A   1      44.092  30.418  32.257  1.00  0.00     0.049 A 
ATOM     58  C   UNL A   1      44.916  27.519  27.409  1.00  0.00     0.074 A 
ATOM     59  C   UNL A   1      43.933  31.777  32.077  1.00  0.00     0.029 A 
ATOM     60  N   UNL A   1      45.182  30.071  31.495  1.00  0.00    -0.354 N 
ATOM     61  N   UNL A   1      45.448  28.707  27.360  1.00  0.00    -0.248 NA
ATOM     62  C   UNL A   1      45.038  26.831  28.683  1.00  0.00     0.031 C 
ATOM     63  C   UNL A   1      44.581  32.054  30.835  1.00  0.00     0.029 A 
ATOM     64  C   UNL A   1      45.147  30.862  30.378  1.00  0.00     0.049 A 
ATOM     65  H   UNL A   1      45.856  29.386  31.710  1.00  0.00     0.167 HD
ATOM     66  C   UNL A   1      45.572  29.091  28.687  1.00  0.00     0.074 A 
ATOM     67  C   UNL A   1      45.414  27.856  29.453  1.00  0.00     0.031 C 
ATOM     68  C   UNL A   1      45.510  30.407  29.054  1.00  0.00     0.031 A 
BRANCH  55  69
ATOM     69  C   UNL A   1      43.829  28.279  33.657  1.00  0.00    -0.014 A 
ATOM     70  C   UNL A   1      44.528  27.202  33.076  1.00  0.00     0.009 A 
ATOM     71  C   UNL A   1      43.461  28.133  35.007  1.00  0.00     0.009 A 
ATOM     72  C   UNL A   1      44.765  26.015  33.782  1.00  0.00     0.001 A 
ATOM     73  C   UNL A   1      43.736  26.966  35.729  1.00  0.00     0.001 A 
ATOM     74  C   UNL A   1      44.360  25.895  35.107  1.00  0.00     0.000 A 
ENDBRANCH  55  69
BRANCH  56  75
ATOM     75  C   UNL A   1      44.049  25.818  25.645  1.00  0.00    -0.014 A 
ATOM     76  C   UNL A   1      45.317  25.380  25.238  1.00  0.00     0.009 A 
ATOM     77  C   UNL A   1      42.966  24.931  25.493  1.00  0.00     0.009 A 
ATOM     78  C   UNL A   1      45.500  24.086  24.734  1.00  0.00     0.001 A 
ATOM     79  C   UNL A   1      43.148  23.641  24.985  1.00  0.00     0.001 A 
ATOM     80  C   UNL A   1      44.419  23.214  24.621  1.00  0.00     0.000 A 
ENDBRANCH  56  75
BRANCH  68  81
ATOM     81  C   UNL A   1      45.526  31.457  27.969  1.00  0.00    -0.014 A 
ATOM     82  C   UNL A   1      44.403  31.761  27.179  1.00  0.00     0.009 A 
ATOM     83  C   UNL A   1      46.656  32.281  27.855  1.00  0.00     0.009 A 
ATOM     84  C   UNL A   1      44.423  32.835  26.283  1.00  0.00     0.001 A 
ATOM     85  C   UNL A   1      46.669  33.366  26.977  1.00  0.00     0.001 A 
ATOM     86  C   UNL A   1      45.555  33.640  26.186  1.00  0.00     0.000 A 
ENDBRANCH  68  81
ENDBRANCH  42  43
ENDBRANCH  34  37
ENDBRANCH  32  33
ENDBRANCH  31  32
ENDBRANCH  30  31
ENDBRANCH  29  30
ENDBRANCH   3  29
TORSDOF 17
ENDMDL
