MODEL 1
REMARK VINA RESULT:      -9.3      0.000      0.000
REMARK SMILES CCCCCCNC(=O)Nc1cccc(-c2ccc([C@@H](C)C(=O)NCCCCNC(=O)c3ccc(-c4c5nc(c(-c6ccccc6)c6ccc([nH]6)c(-c6ccccc6)c6nc(c(-c7ccccc7)c7ccc4[nH]7)C=C6)C=C5)cc3)cc2F)c1
REMARK SMILES IDX 20 1 21 2 19 3 16 4 17 5 81 6 18 7 80 8 82 9 15 10 11 11
REMARK SMILES IDX 12 12 83 13 13 14 14 15 10 16 7 17 8 18 9 20 6 22 5 23 4 24
REMARK SMILES IDX 3 25 2 26 1 27 22 28 23 29 24 30 25 32 26 33 27 34 28 35
REMARK SMILES IDX 29 36 30 37 31 39 32 40 33 41 79 42 34 43 78 44 35 45 36 46
REMARK SMILES IDX 37 47 72 48 38 49 77 50 71 51 73 52 39 53 76 54 70 55 69 56
REMARK SMILES IDX 40 58 62 59 47 60 61 61 48 62 51 63 60 64 74 65 49 66 50 67
REMARK SMILES IDX 59 69 75 70 52 71 41 72 42 73 46 74 43 75 45 76 44 77 63 78
REMARK SMILES IDX 64 79 68 80 65 81 67 82 66 83 53 84 54 85 58 86 55 87 57 88
REMARK SMILES IDX 56 89
REMARK H PARENT 7 19 10 21 24 31 29 38 73 57 51 68
REMARK Flexibility Score: inf
ROOT
ATOM      1  C   UNL A   1      37.568  31.114  30.247  1.00  0.00     0.105 C 
ATOM      2  C   UNL A   1      38.299  32.457  30.260  1.00  0.00     0.023 C 
ENDROOT
BRANCH   1   3
ATOM      3  C   UNL A   1      38.306  29.981  29.548  1.00  0.00    -0.033 A 
ATOM      4  C   UNL A   1      39.632  27.779  28.284  1.00  0.00     0.018 A 
ATOM      5  C   UNL A   1      39.685  29.075  27.749  1.00  0.00     0.012 A 
ATOM      6  C   UNL A   1      38.911  27.621  29.476  1.00  0.00     0.131 A 
ATOM      7  C   UNL A   1      39.056  30.157  28.381  1.00  0.00     0.005 A 
ATOM      8  C   UNL A   1      38.248  28.688  30.089  1.00  0.00     0.044 A 
ATOM      9  F   UNL A   1      38.838  26.419  30.070  1.00  0.00    -0.206 F 
BRANCH   4  10
ATOM     10  C   UNL A   1      40.272  26.646  27.583  1.00  0.00    -0.013 A 
ATOM     11  C   UNL A   1      40.516  24.233  27.260  1.00  0.00     0.043 A 
ATOM     12  C   UNL A   1      41.336  24.445  26.154  1.00  0.00     0.026 A 
ATOM     13  C   UNL A   1      40.050  25.325  28.004  1.00  0.00     0.035 A 
ATOM     14  C   UNL A   1      41.582  25.746  25.723  1.00  0.00     0.003 A 
ATOM     15  C   UNL A   1      41.042  26.833  26.422  1.00  0.00     0.009 A 
BRANCH  11  16
ATOM     16  N   UNL A   1      40.112  22.919  27.542  1.00  0.00    -0.308 N 
ATOM     17  N   UNL A   1      42.057  21.938  28.462  1.00  0.00    -0.338 N 
ATOM     18  C   UNL A   1      40.861  21.825  27.835  1.00  0.00     0.319 C 
ATOM     19  H   UNL A   1      42.612  21.124  28.448  1.00  0.00     0.165 HD
ATOM     20  O   UNL A   1      40.409  20.699  27.626  1.00  0.00    -0.249 OA
ATOM     21  H   UNL A   1      39.140  22.768  27.525  1.00  0.00     0.171 HD
BRANCH  17  22
ATOM     22  C   UNL A   1      42.649  23.071  29.153  1.00  0.00     0.117 C 
BRANCH  22  23
ATOM     23  C   UNL A   1      44.150  23.212  28.926  1.00  0.00     0.021 C 
BRANCH  23  24
ATOM     24  C   UNL A   1      44.560  23.933  27.646  1.00  0.00     0.002 C 
BRANCH  24  25
ATOM     25  C   UNL A   1      45.824  23.413  26.960  1.00  0.00    -0.000 C 
BRANCH  25  26
ATOM     26  C   UNL A   1      45.611  22.584  25.694  1.00  0.00    -0.003 C 
ATOM     27  C   UNL A   1      44.172  22.140  25.470  1.00  0.00     0.004 C 
ENDBRANCH  25  26
ENDBRANCH  24  25
ENDBRANCH  23  24
ENDBRANCH  22  23
ENDBRANCH  17  22
ENDBRANCH  11  16
ENDBRANCH   4  10
ENDBRANCH   1   3
BRANCH   1  28
ATOM     28  C   UNL A   1      36.074  31.203  29.907  1.00  0.00     0.227 C 
ATOM     29  O   UNL A   1      35.669  30.840  28.796  1.00  0.00    -0.274 OA
ATOM     30  N   UNL A   1      35.129  31.652  30.773  1.00  0.00    -0.356 N 
ATOM     31  H   UNL A   1      34.202  31.486  30.487  1.00  0.00     0.163 HD
BRANCH  30  32
ATOM     32  C   UNL A   1      35.247  32.331  32.045  1.00  0.00     0.116 C 
BRANCH  32  33
ATOM     33  C   UNL A   1      35.232  33.845  31.853  1.00  0.00     0.023 C 
BRANCH  33  34
ATOM     34  C   UNL A   1      35.947  34.589  32.974  1.00  0.00     0.023 C 
BRANCH  34  35
ATOM     35  C   UNL A   1      37.207  33.915  33.489  1.00  0.00     0.116 C 
BRANCH  35  36
ATOM     36  N   UNL A   1      37.070  33.376  34.836  1.00  0.00    -0.352 N 
ATOM     37  C   UNL A   1      37.733  32.329  35.439  1.00  0.00     0.251 C 
ATOM     38  H   UNL A   1      36.403  33.828  35.400  1.00  0.00     0.163 HD
ATOM     39  O   UNL A   1      37.405  31.955  36.555  1.00  0.00    -0.269 OA
BRANCH  37  40
ATOM     40  C   UNL A   1      38.813  31.633  34.706  1.00  0.00     0.039 A 
ATOM     41  C   UNL A   1      38.481  30.602  33.823  1.00  0.00     0.014 A 
ATOM     42  C   UNL A   1      40.142  32.031  34.850  1.00  0.00     0.014 A 
ATOM     43  C   UNL A   1      39.471  30.041  33.014  1.00  0.00     0.010 A 
ATOM     44  C   UNL A   1      41.099  31.561  33.962  1.00  0.00     0.010 A 
ATOM     45  C   UNL A   1      40.778  30.554  33.040  1.00  0.00    -0.014 A 
BRANCH  45  46
ATOM     46  C   UNL A   1      41.838  30.054  32.129  1.00  0.00     0.031 A 
ATOM     47  C   UNL A   1      42.513  28.739  32.419  1.00  0.00     0.074 A 
ATOM     48  C   UNL A   1      42.262  30.819  31.103  1.00  0.00     0.049 A 
ATOM     49  N   UNL A   1      43.537  28.186  31.823  1.00  0.00    -0.248 NA
ATOM     50  C   UNL A   1      41.994  27.965  33.561  1.00  0.00     0.031 C 
ATOM     51  C   UNL A   1      41.735  32.139  30.748  1.00  0.00     0.029 A 
ATOM     52  N   UNL A   1      43.247  30.596  30.174  1.00  0.00    -0.354 N 
ATOM     53  C   UNL A   1      43.807  27.027  32.540  1.00  0.00     0.074 A 
ATOM     54  C   UNL A   1      42.878  26.983  33.646  1.00  0.00     0.031 C 
ATOM     55  C   UNL A   1      42.375  32.590  29.656  1.00  0.00     0.029 A 
ATOM     56  C   UNL A   1      43.385  31.614  29.261  1.00  0.00     0.049 A 
ATOM     57  H   UNL A   1      43.803  29.784  30.163  1.00  0.00     0.167 HD
ATOM     58  C   UNL A   1      44.728  26.067  32.288  1.00  0.00     0.031 A 
ATOM     59  C   UNL A   1      44.232  31.747  28.224  1.00  0.00     0.031 A 
ATOM     60  C   UNL A   1      45.620  26.086  31.161  1.00  0.00     0.049 A 
ATOM     61  C   UNL A   1      45.226  30.654  27.945  1.00  0.00     0.074 A 
ATOM     62  C   UNL A   1      46.533  25.124  30.769  1.00  0.00     0.029 A 
ATOM     63  N   UNL A   1      45.700  27.119  30.241  1.00  0.00    -0.354 N 
ATOM     64  N   UNL A   1      45.422  29.532  28.593  1.00  0.00    -0.248 NA
ATOM     65  C   UNL A   1      46.107  30.843  26.784  1.00  0.00     0.031 C 
ATOM     66  C   UNL A   1      47.195  25.592  29.630  1.00  0.00     0.029 A 
ATOM     67  C   UNL A   1      46.660  26.824  29.288  1.00  0.00     0.049 A 
ATOM     68  H   UNL A   1      45.156  27.939  30.260  1.00  0.00     0.167 HD
ATOM     69  C   UNL A   1      46.429  28.868  27.904  1.00  0.00     0.074 A 
ATOM     70  C   UNL A   1      46.791  29.708  26.780  1.00  0.00     0.031 C 
ATOM     71  C   UNL A   1      47.001  27.672  28.176  1.00  0.00     0.031 A 
BRANCH  58  72
ATOM     72  C   UNL A   1      44.807  24.916  33.250  1.00  0.00    -0.014 A 
ATOM     73  C   UNL A   1      44.091  23.730  33.027  1.00  0.00     0.009 A 
ATOM     74  C   UNL A   1      45.625  25.012  34.387  1.00  0.00     0.009 A 
ATOM     75  C   UNL A   1      44.157  22.679  33.945  1.00  0.00     0.001 A 
ATOM     76  C   UNL A   1      45.713  23.948  35.287  1.00  0.00     0.001 A 
ATOM     77  C   UNL A   1      44.971  22.787  35.072  1.00  0.00     0.000 A 
ENDBRANCH  58  72
BRANCH  59  78
ATOM     78  C   UNL A   1      44.160  32.947  27.350  1.00  0.00    -0.014 A 
ATOM     79  C   UNL A   1      43.778  32.818  26.004  1.00  0.00     0.009 A 
ATOM     80  C   UNL A   1      44.476  34.220  27.847  1.00  0.00     0.009 A 
ATOM     81  C   UNL A   1      43.740  33.936  25.168  1.00  0.00     0.001 A 
ATOM     82  C   UNL A   1      44.412  35.341  27.014  1.00  0.00     0.001 A 
ATOM     83  C   UNL A   1      44.053  35.197  25.676  1.00  0.00     0.000 A 
ENDBRANCH  59  78
BRANCH  71  84
ATOM     84  C   UNL A   1      48.053  27.182  27.222  1.00  0.00    -0.014 A 
ATOM     85  C   UNL A   1      49.416  27.407  27.466  1.00  0.00     0.009 A 
ATOM     86  C   UNL A   1      47.672  26.446  26.090  1.00  0.00     0.009 A 
ATOM     87  C   UNL A   1      50.377  26.928  26.573  1.00  0.00     0.001 A 
ATOM     88  C   UNL A   1      48.637  25.946  25.214  1.00  0.00     0.001 A 
ATOM     89  C   UNL A   1      49.987  26.194  25.453  1.00  0.00     0.000 A 
ENDBRANCH  71  84
ENDBRANCH  45  46
ENDBRANCH  37  40
ENDBRANCH  35  36
ENDBRANCH  34  35
ENDBRANCH  33  34
ENDBRANCH  32  33
ENDBRANCH  30  32
ENDBRANCH   1  28
TORSDOF 19
ENDMDL
MODEL 2
REMARK VINA RESULT:      -9.2      4.598      7.919
REMARK SMILES CCCCCCNC(=O)Nc1cccc(-c2ccc([C@@H](C)C(=O)NCCCCNC(=O)c3ccc(-c4c5nc(c(-c6ccccc6)c6ccc([nH]6)c(-c6ccccc6)c6nc(c(-c7ccccc7)c7ccc4[nH]7)C=C6)C=C5)cc3)cc2F)c1
REMARK SMILES IDX 20 1 21 2 19 3 16 4 17 5 81 6 18 7 80 8 82 9 15 10 11 11
REMARK SMILES IDX 12 12 83 13 13 14 14 15 10 16 7 17 8 18 9 20 6 22 5 23 4 24
REMARK SMILES IDX 3 25 2 26 1 27 22 28 23 29 24 30 25 32 26 33 27 34 28 35
REMARK SMILES IDX 29 36 30 37 31 39 32 40 33 41 79 42 34 43 78 44 35 45 36 46
REMARK SMILES IDX 37 47 72 48 38 49 77 50 71 51 73 52 39 53 76 54 70 55 69 56
REMARK SMILES IDX 40 58 62 59 47 60 61 61 48 62 51 63 60 64 74 65 49 66 50 67
REMARK SMILES IDX 59 69 75 70 52 71 41 72 42 73 46 74 43 75 45 76 44 77 63 78
REMARK SMILES IDX 64 79 68 80 65 81 67 82 66 83 53 84 54 85 58 86 55 87 57 88
REMARK SMILES IDX 56 89
REMARK H PARENT 7 19 10 21 24 31 29 38 73 57 51 68
REMARK Flexibility Score: inf
ROOT
ATOM      1  C   UNL A   1      33.801  30.726  27.067  1.00  0.00     0.105 C 
ATOM      2  C   UNL A   1      32.641  31.571  27.595  1.00  0.00     0.023 C 
ENDROOT
BRANCH   1   3
ATOM      3  C   UNL A   1      33.418  29.341  26.567  1.00  0.00    -0.033 A 
ATOM      4  C   UNL A   1      32.596  26.756  25.644  1.00  0.00     0.018 A 
ATOM      5  C   UNL A   1      33.829  27.314  25.271  1.00  0.00     0.012 A 
ATOM      6  C   UNL A   1      31.796  27.522  26.502  1.00  0.00     0.131 A 
ATOM      7  C   UNL A   1      34.242  28.568  25.742  1.00  0.00     0.005 A 
ATOM      8  C   UNL A   1      32.183  28.791  26.943  1.00  0.00     0.044 A 
ATOM      9  F   UNL A   1      30.616  27.049  26.932  1.00  0.00    -0.206 F 
BRANCH   4  10
ATOM     10  C   UNL A   1      32.166  25.449  25.107  1.00  0.00    -0.013 A 
ATOM     11  C   UNL A   1      32.129  23.008  25.278  1.00  0.00     0.043 A 
ATOM     12  C   UNL A   1      31.224  22.929  24.222  1.00  0.00     0.026 A 
ATOM     13  C   UNL A   1      32.644  24.252  25.665  1.00  0.00     0.035 A 
ATOM     14  C   UNL A   1      30.744  24.101  23.642  1.00  0.00     0.003 A 
ATOM     15  C   UNL A   1      31.199  25.346  24.091  1.00  0.00     0.009 A 
BRANCH  11  16
ATOM     16  N   UNL A   1      32.430  21.831  25.980  1.00  0.00    -0.308 N 
ATOM     17  N   UNL A   1      34.193  20.882  24.722  1.00  0.00    -0.338 N 
ATOM     18  C   UNL A   1      33.166  20.757  25.598  1.00  0.00     0.319 C 
ATOM     19  H   UNL A   1      34.531  20.034  24.353  1.00  0.00     0.165 HD
ATOM     20  O   UNL A   1      32.976  19.662  26.128  1.00  0.00    -0.249 OA
ATOM     21  H   UNL A   1      32.050  21.777  26.887  1.00  0.00     0.171 HD
BRANCH  17  22
ATOM     22  C   UNL A   1      34.874  22.073  24.241  1.00  0.00     0.117 C 
BRANCH  22  23
ATOM     23  C   UNL A   1      36.205  22.340  24.932  1.00  0.00     0.021 C 
BRANCH  23  24
ATOM     24  C   UNL A   1      36.446  23.782  25.368  1.00  0.00     0.002 C 
BRANCH  24  25
ATOM     25  C   UNL A   1      37.673  24.018  26.251  1.00  0.00    -0.000 C 
BRANCH  25  26
ATOM     26  C   UNL A   1      38.710  22.896  26.277  1.00  0.00    -0.003 C 
ATOM     27  C   UNL A   1      39.920  23.181  27.155  1.00  0.00     0.004 C 
ENDBRANCH  25  26
ENDBRANCH  24  25
ENDBRANCH  23  24
ENDBRANCH  22  23
ENDBRANCH  17  22
ENDBRANCH  11  16
ENDBRANCH   4  10
ENDBRANCH   1   3
BRANCH   1  28
ATOM     28  C   UNL A   1      35.064  30.760  27.938  1.00  0.00     0.227 C 
ATOM     29  O   UNL A   1      35.460  29.729  28.496  1.00  0.00    -0.274 OA
ATOM     30  N   UNL A   1      35.816  31.875  28.134  1.00  0.00    -0.356 N 
ATOM     31  H   UNL A   1      36.686  31.708  28.563  1.00  0.00     0.163 HD
BRANCH  30  32
ATOM     32  C   UNL A   1      35.561  33.263  27.822  1.00  0.00     0.116 C 
BRANCH  32  33
ATOM     33  C   UNL A   1      35.479  34.098  29.097  1.00  0.00     0.023 C 
BRANCH  33  34
ATOM     34  C   UNL A   1      34.352  35.123  29.060  1.00  0.00     0.023 C 
BRANCH  34  35
ATOM     35  C   UNL A   1      33.046  34.663  29.683  1.00  0.00     0.116 C 
BRANCH  35  36
ATOM     36  N   UNL A   1      32.519  35.586  30.681  1.00  0.00    -0.352 N 
ATOM     37  C   UNL A   1      32.902  35.785  31.989  1.00  0.00     0.251 C 
ATOM     38  H   UNL A   1      31.776  36.154  30.373  1.00  0.00     0.163 HD
ATOM     39  O   UNL A   1      32.267  36.541  32.708  1.00  0.00    -0.269 OA
BRANCH  37  40
ATOM     40  C   UNL A   1      34.063  35.041  32.528  1.00  0.00     0.039 A 
ATOM     41  C   UNL A   1      33.880  33.730  32.977  1.00  0.00     0.014 A 
ATOM     42  C   UNL A   1      35.333  35.615  32.541  1.00  0.00     0.014 A 
ATOM     43  C   UNL A   1      34.990  32.967  33.345  1.00  0.00     0.010 A 
ATOM     44  C   UNL A   1      36.443  34.821  32.788  1.00  0.00     0.010 A 
ATOM     45  C   UNL A   1      36.286  33.490  33.202  1.00  0.00    -0.014 A 
BRANCH  45  46
ATOM     46  C   UNL A   1      37.497  32.681  33.489  1.00  0.00     0.031 A 
ATOM     47  C   UNL A   1      38.265  32.914  34.763  1.00  0.00     0.074 A 
ATOM     48  C   UNL A   1      37.962  31.814  32.568  1.00  0.00     0.049 A 
ATOM     49  N   UNL A   1      39.408  32.405  35.144  1.00  0.00    -0.248 NA
ATOM     50  C   UNL A   1      37.693  33.882  35.716  1.00  0.00     0.031 C 
ATOM     51  C   UNL A   1      37.347  31.538  31.268  1.00  0.00     0.029 A 
ATOM     52  N   UNL A   1      39.073  31.008  32.586  1.00  0.00    -0.354 N 
ATOM     53  C   UNL A   1      39.708  33.020  36.354  1.00  0.00     0.074 A 
ATOM     54  C   UNL A   1      38.659  33.978  36.617  1.00  0.00     0.031 C 
ATOM     55  C   UNL A   1      38.066  30.599  30.630  1.00  0.00     0.029 A 
ATOM     56  C   UNL A   1      39.214  30.240  31.455  1.00  0.00     0.049 A 
ATOM     57  H   UNL A   1      39.708  30.982  33.337  1.00  0.00     0.167 HD
ATOM     58  C   UNL A   1      40.749  32.790  37.188  1.00  0.00     0.031 A 
ATOM     59  C   UNL A   1      40.165  29.348  31.120  1.00  0.00     0.031 A 
ATOM     60  C   UNL A   1      41.766  31.803  36.951  1.00  0.00     0.049 A 
ATOM     61  C   UNL A   1      41.295  29.087  32.076  1.00  0.00     0.074 A 
ATOM     62  C   UNL A   1      42.817  31.435  37.771  1.00  0.00     0.029 A 
ATOM     63  N   UNL A   1      41.851  31.022  35.810  1.00  0.00    -0.354 N 
ATOM     64  N   UNL A   1      41.526  29.628  33.247  1.00  0.00    -0.248 NA
ATOM     65  C   UNL A   1      42.288  28.085  31.667  1.00  0.00     0.031 C 
ATOM     66  C   UNL A   1      43.562  30.455  37.109  1.00  0.00     0.029 A 
ATOM     67  C   UNL A   1      42.947  30.182  35.898  1.00  0.00     0.049 A 
ATOM     68  H   UNL A   1      41.226  31.058  35.051  1.00  0.00     0.167 HD
ATOM     69  C   UNL A   1      42.675  29.013  33.728  1.00  0.00     0.074 A 
ATOM     70  C   UNL A   1      43.084  28.048  32.727  1.00  0.00     0.031 C 
ATOM     71  C   UNL A   1      43.332  29.226  34.892  1.00  0.00     0.031 A 
BRANCH  58  72
ATOM     72  C   UNL A   1      40.829  33.622  38.438  1.00  0.00    -0.014 A 
ATOM     73  C   UNL A   1      41.513  34.847  38.454  1.00  0.00     0.009 A 
ATOM     74  C   UNL A   1      40.195  33.182  39.610  1.00  0.00     0.009 A 
ATOM     75  C   UNL A   1      41.598  35.596  39.630  1.00  0.00     0.001 A 
ATOM     76  C   UNL A   1      40.256  33.946  40.777  1.00  0.00     0.001 A 
ATOM     77  C   UNL A   1      40.966  35.147  40.789  1.00  0.00     0.000 A 
ENDBRANCH  58  72
BRANCH  59  78
ATOM     78  C   UNL A   1      40.076  28.610  29.833  1.00  0.00    -0.014 A 
ATOM     79  C   UNL A   1      39.466  27.345  29.785  1.00  0.00     0.009 A 
ATOM     80  C   UNL A   1      40.601  29.155  28.652  1.00  0.00     0.009 A 
ATOM     81  C   UNL A   1      39.409  26.631  28.586  1.00  0.00     0.001 A 
ATOM     82  C   UNL A   1      40.518  28.449  27.448  1.00  0.00     0.001 A 
ATOM     83  C   UNL A   1      39.931  27.186  27.418  1.00  0.00     0.000 A 
ENDBRANCH  59  78
BRANCH  71  84
ATOM     84  C   UNL A   1      44.540  28.376  35.164  1.00  0.00    -0.014 A 
ATOM     85  C   UNL A   1      44.423  27.130  35.799  1.00  0.00     0.009 A 
ATOM     86  C   UNL A   1      45.804  28.810  34.737  1.00  0.00     0.009 A 
ATOM     87  C   UNL A   1      45.559  26.349  36.028  1.00  0.00     0.001 A 
ATOM     88  C   UNL A   1      46.931  28.016  34.943  1.00  0.00     0.001 A 
ATOM     89  C   UNL A   1      46.808  26.790  35.595  1.00  0.00     0.000 A 
ENDBRANCH  71  84
ENDBRANCH  45  46
ENDBRANCH  37  40
ENDBRANCH  35  36
ENDBRANCH  34  35
ENDBRANCH  33  34
ENDBRANCH  32  33
ENDBRANCH  30  32
ENDBRANCH   1  28
TORSDOF 19
ENDMDL
MODEL 3
REMARK VINA RESULT:      -9.2      4.438      6.352
REMARK SMILES CCCCCCNC(=O)Nc1cccc(-c2ccc([C@@H](C)C(=O)NCCCCNC(=O)c3ccc(-c4c5nc(c(-c6ccccc6)c6ccc([nH]6)c(-c6ccccc6)c6nc(c(-c7ccccc7)c7ccc4[nH]7)C=C6)C=C5)cc3)cc2F)c1
REMARK SMILES IDX 20 1 21 2 19 3 16 4 17 5 81 6 18 7 80 8 82 9 15 10 11 11
REMARK SMILES IDX 12 12 83 13 13 14 14 15 10 16 7 17 8 18 9 20 6 22 5 23 4 24
REMARK SMILES IDX 3 25 2 26 1 27 22 28 23 29 24 30 25 32 26 33 27 34 28 35
REMARK SMILES IDX 29 36 30 37 31 39 32 40 33 41 79 42 34 43 78 44 35 45 36 46
REMARK SMILES IDX 37 47 72 48 38 49 77 50 71 51 73 52 39 53 76 54 70 55 69 56
REMARK SMILES IDX 40 58 62 59 47 60 61 61 48 62 51 63 60 64 74 65 49 66 50 67
REMARK SMILES IDX 59 69 75 70 52 71 41 72 42 73 46 74 43 75 45 76 44 77 63 78
REMARK SMILES IDX 64 79 68 80 65 81 67 82 66 83 53 84 54 85 58 86 55 87 57 88
REMARK SMILES IDX 56 89
REMARK H PARENT 7 19 10 21 24 31 29 38 73 57 51 68
REMARK Flexibility Score: inf
ROOT
ATOM      1  C   UNL A   1      33.460  30.454  26.663  1.00  0.00     0.105 C 
ATOM      2  C   UNL A   1      32.081  30.753  27.252  1.00  0.00     0.023 C 
ENDROOT
BRANCH   1   3
ATOM      3  C   UNL A   1      33.554  29.171  25.851  1.00  0.00    -0.033 A 
ATOM      4  C   UNL A   1      33.685  26.702  24.403  1.00  0.00     0.018 A 
ATOM      5  C   UNL A   1      33.755  27.943  23.751  1.00  0.00     0.012 A 
ATOM      6  C   UNL A   1      33.562  26.733  25.799  1.00  0.00     0.131 A 
ATOM      7  C   UNL A   1      33.716  29.150  24.461  1.00  0.00     0.005 A 
ATOM      8  C   UNL A   1      33.481  27.934  26.510  1.00  0.00     0.044 A 
ATOM      9  F   UNL A   1      33.520  25.590  26.501  1.00  0.00    -0.206 F 
BRANCH   4  10
ATOM     10  C   UNL A   1      33.692  25.442  23.631  1.00  0.00    -0.013 A 
ATOM     11  C   UNL A   1      34.418  23.117  23.397  1.00  0.00     0.043 A 
ATOM     12  C   UNL A   1      33.597  22.953  22.283  1.00  0.00     0.026 A 
ATOM     13  C   UNL A   1      34.513  24.369  24.017  1.00  0.00     0.035 A 
ATOM     14  C   UNL A   1      32.782  24.005  21.872  1.00  0.00     0.003 A 
ATOM     15  C   UNL A   1      32.819  25.230  22.549  1.00  0.00     0.009 A 
BRANCH  11  16
ATOM     16  N   UNL A   1      35.063  21.984  23.916  1.00  0.00    -0.308 N 
ATOM     17  N   UNL A   1      33.628  21.293  25.664  1.00  0.00    -0.338 N 
ATOM     18  C   UNL A   1      34.852  21.324  25.083  1.00  0.00     0.319 C 
ATOM     19  H   UNL A   1      33.617  20.971  26.594  1.00  0.00     0.165 HD
ATOM     20  O   UNL A   1      35.756  20.650  25.578  1.00  0.00    -0.249 OA
ATOM     21  H   UNL A   1      35.775  21.611  23.347  1.00  0.00     0.171 HD
BRANCH  17  22
ATOM     22  C   UNL A   1      32.328  21.662  25.129  1.00  0.00     0.117 C 
BRANCH  22  23
ATOM     23  C   UNL A   1      31.685  22.847  25.840  1.00  0.00     0.021 C 
BRANCH  23  24
ATOM     24  C   UNL A   1      30.734  23.688  24.994  1.00  0.00     0.002 C 
BRANCH  24  25
ATOM     25  C   UNL A   1      30.399  25.076  25.545  1.00  0.00    -0.000 C 
BRANCH  25  26
ATOM     26  C   UNL A   1      29.523  25.959  24.657  1.00  0.00    -0.003 C 
ATOM     27  C   UNL A   1      30.172  27.272  24.244  1.00  0.00     0.004 C 
ENDBRANCH  25  26
ENDBRANCH  24  25
ENDBRANCH  23  24
ENDBRANCH  22  23
ENDBRANCH  17  22
ENDBRANCH  11  16
ENDBRANCH   4  10
ENDBRANCH   1   3
BRANCH   1  28
ATOM     28  C   UNL A   1      34.631  30.681  27.629  1.00  0.00     0.227 C 
ATOM     29  O   UNL A   1      35.366  29.737  27.944  1.00  0.00    -0.274 OA
ATOM     30  N   UNL A   1      34.940  31.888  28.170  1.00  0.00    -0.356 N 
ATOM     31  H   UNL A   1      35.813  31.920  28.624  1.00  0.00     0.163 HD
BRANCH  30  32
ATOM     32  C   UNL A   1      34.209  33.136  28.195  1.00  0.00     0.116 C 
BRANCH  32  33
ATOM     33  C   UNL A   1      34.867  34.129  29.151  1.00  0.00     0.023 C 
BRANCH  33  34
ATOM     34  C   UNL A   1      34.366  33.988  30.583  1.00  0.00     0.023 C 
BRANCH  34  35
ATOM     35  C   UNL A   1      34.603  32.628  31.215  1.00  0.00     0.116 C 
BRANCH  35  36
ATOM     36  N   UNL A   1      35.169  32.700  32.557  1.00  0.00    -0.352 N 
ATOM     37  C   UNL A   1      36.374  32.231  33.033  1.00  0.00     0.251 C 
ATOM     38  H   UNL A   1      34.604  33.153  33.224  1.00  0.00     0.163 HD
ATOM     39  O   UNL A   1      36.631  32.297  34.225  1.00  0.00    -0.269 OA
BRANCH  37  40
ATOM     40  C   UNL A   1      37.333  31.607  32.095  1.00  0.00     0.039 A 
ATOM     41  C   UNL A   1      37.434  32.106  30.794  1.00  0.00     0.014 A 
ATOM     42  C   UNL A   1      38.165  30.569  32.513  1.00  0.00     0.014 A 
ATOM     43  C   UNL A   1      38.438  31.629  29.948  1.00  0.00     0.010 A 
ATOM     44  C   UNL A   1      39.235  30.184  31.719  1.00  0.00     0.010 A 
ATOM     45  C   UNL A   1      39.380  30.702  30.423  1.00  0.00    -0.014 A 
BRANCH  45  46
ATOM     46  C   UNL A   1      40.520  30.241  29.591  1.00  0.00     0.031 A 
ATOM     47  C   UNL A   1      40.452  28.899  28.911  1.00  0.00     0.074 A 
ATOM     48  C   UNL A   1      41.647  30.976  29.526  1.00  0.00     0.049 A 
ATOM     49  N   UNL A   1      41.380  28.263  28.245  1.00  0.00    -0.248 NA
ATOM     50  C   UNL A   1      39.186  28.155  29.034  1.00  0.00     0.031 C 
ATOM     51  C   UNL A   1      41.865  32.266  30.186  1.00  0.00     0.029 A 
ATOM     52  N   UNL A   1      42.831  30.734  28.875  1.00  0.00    -0.354 N 
ATOM     53  C   UNL A   1      40.825  27.034  27.909  1.00  0.00     0.074 A 
ATOM     54  C   UNL A   1      39.503  26.991  28.490  1.00  0.00     0.031 C 
ATOM     55  C   UNL A   1      43.091  32.719  29.874  1.00  0.00     0.029 A 
ATOM     56  C   UNL A   1      43.760  31.735  29.031  1.00  0.00     0.049 A 
ATOM     57  H   UNL A   1      42.998  29.921  28.346  1.00  0.00     0.167 HD
ATOM     58  C   UNL A   1      41.355  26.038  27.161  1.00  0.00     0.031 A 
ATOM     59  C   UNL A   1      45.013  31.844  28.551  1.00  0.00     0.031 A 
ATOM     60  C   UNL A   1      42.651  26.101  26.543  1.00  0.00     0.049 A 
ATOM     61  C   UNL A   1      45.569  30.740  27.697  1.00  0.00     0.074 A 
ATOM     62  C   UNL A   1      43.248  25.183  25.698  1.00  0.00     0.029 A 
ATOM     63  N   UNL A   1      43.545  27.148  26.697  1.00  0.00    -0.354 N 
ATOM     64  N   UNL A   1      45.004  29.614  27.332  1.00  0.00    -0.248 NA
ATOM     65  C   UNL A   1      46.932  30.927  27.180  1.00  0.00     0.031 C 
ATOM     66  C   UNL A   1      44.522  25.657  25.371  1.00  0.00     0.029 A 
ATOM     67  C   UNL A   1      44.697  26.891  25.975  1.00  0.00     0.049 A 
ATOM     68  H   UNL A   1      43.385  27.954  27.239  1.00  0.00     0.167 HD
ATOM     69  C   UNL A   1      45.931  28.972  26.520  1.00  0.00     0.074 A 
ATOM     70  C   UNL A   1      47.087  29.841  26.436  1.00  0.00     0.031 C 
ATOM     71  C   UNL A   1      45.833  27.772  25.901  1.00  0.00     0.031 A 
BRANCH  58  72
ATOM     72  C   UNL A   1      40.524  24.801  26.968  1.00  0.00    -0.014 A 
ATOM     73  C   UNL A   1      40.945  23.557  27.463  1.00  0.00     0.009 A 
ATOM     74  C   UNL A   1      39.293  24.885  26.299  1.00  0.00     0.009 A 
ATOM     75  C   UNL A   1      40.172  22.413  27.254  1.00  0.00     0.001 A 
ATOM     76  C   UNL A   1      38.507  23.745  26.118  1.00  0.00     0.001 A 
ATOM     77  C   UNL A   1      38.951  22.509  26.586  1.00  0.00     0.000 A 
ENDBRANCH  58  72
BRANCH  59  78
ATOM     78  C   UNL A   1      45.819  33.059  28.839  1.00  0.00    -0.014 A 
ATOM     79  C   UNL A   1      46.568  33.145  30.024  1.00  0.00     0.009 A 
ATOM     80  C   UNL A   1      45.843  34.137  27.941  1.00  0.00     0.009 A 
ATOM     81  C   UNL A   1      47.301  34.297  30.317  1.00  0.00     0.001 A 
ATOM     82  C   UNL A   1      46.599  35.277  28.225  1.00  0.00     0.001 A 
ATOM     83  C   UNL A   1      47.319  35.360  29.415  1.00  0.00     0.000 A 
ENDBRANCH  59  78
BRANCH  71  84
ATOM     84  C   UNL A   1      46.993  27.345  25.047  1.00  0.00    -0.014 A 
ATOM     85  C   UNL A   1      47.149  27.828  23.739  1.00  0.00     0.009 A 
ATOM     86  C   UNL A   1      47.963  26.481  25.578  1.00  0.00     0.009 A 
ATOM     87  C   UNL A   1      48.244  27.429  22.969  1.00  0.00     0.001 A 
ATOM     88  C   UNL A   1      49.069  26.106  24.815  1.00  0.00     0.001 A 
ATOM     89  C   UNL A   1      49.204  26.574  23.509  1.00  0.00     0.000 A 
ENDBRANCH  71  84
ENDBRANCH  45  46
ENDBRANCH  37  40
ENDBRANCH  35  36
ENDBRANCH  34  35
ENDBRANCH  33  34
ENDBRANCH  32  33
ENDBRANCH  30  32
ENDBRANCH   1  28
TORSDOF 19
ENDMDL
