MODEL 1
REMARK VINA RESULT:     -12.7      0.000      0.000
REMARK SMILES CC[C@@H](C)[C@@H](NC(=O)Cn1nc(-c2ccc3ccccc3c2)ccc1=O)C(=O)NCCCCNC(=O)c1ccc(-c2c3nc(c(-c4ccccc4)c4ccc([nH]4)c(-c4ccccc4)c4nc(c(-c5ccccc5)c5ccc2[nH]5)C=C4)C=C3)cc1
REMARK SMILES IDX 30 1 29 2 27 3 28 4 5 6 3 7 4 8 2 9 1 10 6 11 7 12 8 14 9 15
REMARK SMILES IDX 10 16 11 17 25 18 12 19 24 20 26 21 23 22 13 23 14 24 22 25
REMARK SMILES IDX 15 26 21 27 16 28 20 29 17 30 19 31 18 32 31 33 32 34 33 35
REMARK SMILES IDX 34 36 35 37 36 39 37 40 38 41 84 42 39 43 83 44 40 45 41 46
REMARK SMILES IDX 42 47 77 48 43 49 82 50 76 51 78 52 44 53 81 54 75 55 74 56
REMARK SMILES IDX 45 58 67 59 52 60 66 61 53 62 56 63 65 64 79 65 54 66 55 67
REMARK SMILES IDX 64 69 80 70 57 71 46 72 47 73 51 74 48 75 50 76 49 77 68 78
REMARK SMILES IDX 69 79 73 80 70 81 72 82 71 83 58 84 59 85 63 86 60 87 62 88
REMARK SMILES IDX 61 89
REMARK H PARENT 29 5 6 13 34 38 78 57 56 68
REMARK Flexibility Score: inf
ROOT
ATOM      1  C   UNL A   1      36.932  23.348  24.203  1.00  0.00     0.116 C 
ENDROOT
BRANCH   1   2
ATOM      2  N   UNL A   1      35.433  24.442  25.153  1.00  0.00    -0.354 N 
ATOM      3  C   UNL A   1      34.278  25.231  25.068  1.00  0.00     0.242 C 
ATOM      4  O   UNL A   1      33.714  25.282  26.182  1.00  0.00    -0.273 OA
ATOM      5  H   UNL A   1      35.629  24.372  26.114  1.00  0.00     0.163 HD
BRANCH   3   6
ATOM      6  C   UNL A   1      33.688  26.145  23.929  1.00  0.00     0.174 C 
BRANCH   6   7
ATOM      7  C   UNL A   1      34.206  27.625  24.161  1.00  0.00     0.018 C 
ATOM      8  C   UNL A   1      33.550  28.302  25.383  1.00  0.00     0.010 C 
BRANCH   7   9
ATOM      9  C   UNL A   1      34.003  28.546  22.929  1.00  0.00     0.002 C 
ATOM     10  C   UNL A   1      32.627  29.210  22.907  1.00  0.00     0.004 C 
ENDBRANCH   7   9
ENDBRANCH   6   7
BRANCH   6  11
ATOM     11  N   UNL A   1      33.749  25.808  22.494  1.00  0.00    -0.342 N 
ATOM     12  C   UNL A   1      32.785  25.930  21.540  1.00  0.00     0.242 C 
ATOM     13  H   UNL A   1      34.608  25.443  22.182  1.00  0.00     0.164 HD
ATOM     14  O   UNL A   1      33.142  26.195  20.388  1.00  0.00    -0.273 OA
BRANCH  12  15
ATOM     15  C   UNL A   1      31.319  25.833  21.899  1.00  0.00     0.248 C 
BRANCH  15  16
ATOM     16  N   UNL A   1      31.093  24.905  22.977  1.00  0.00    -0.220 N 
ATOM     17  N   UNL A   1      32.039  23.297  23.021  1.00  0.00    -0.169 NA
ATOM     18  C   UNL A   1      30.191  25.462  24.424  1.00  0.00     0.267 A 
ATOM     19  C   UNL A   1      32.122  22.502  24.329  1.00  0.00     0.091 A 
ATOM     20  C   UNL A   1      30.218  24.223  25.934  1.00  0.00     0.075 A 
ATOM     21  O   UNL A   1      29.560  26.512  24.463  1.00  0.00    -0.268 OA
ATOM     22  C   UNL A   1      31.116  22.983  25.927  1.00  0.00     0.036 A 
BRANCH  19  23
ATOM     23  C   UNL A   1      32.899  21.243  24.416  1.00  0.00     0.003 A 
ATOM     24  C   UNL A   1      33.976  21.103  25.283  1.00  0.00     0.011 A 
ATOM     25  C   UNL A   1      32.502  20.179  23.597  1.00  0.00     0.019 A 
ATOM     26  C   UNL A   1      34.642  19.874  25.350  1.00  0.00     0.009 A 
ATOM     27  C   UNL A   1      33.121  18.928  23.702  1.00  0.00    -0.018 A 
ATOM     28  C   UNL A   1      34.212  18.772  24.585  1.00  0.00    -0.018 A 
ATOM     29  C   UNL A   1      32.661  17.827  22.963  1.00  0.00     0.009 A 
ATOM     30  C   UNL A   1      34.832  17.516  24.682  1.00  0.00     0.009 A 
ATOM     31  C   UNL A   1      33.272  16.580  23.092  1.00  0.00     0.001 A 
ATOM     32  C   UNL A   1      34.360  16.426  23.944  1.00  0.00     0.001 A 
ENDBRANCH  19  23
ENDBRANCH  15  16
ENDBRANCH  12  15
ENDBRANCH   6  11
ENDBRANCH   3   6
ENDBRANCH   1   2
BRANCH   1  33
ATOM     33  C   UNL A   1      37.360  21.706  24.304  1.00  0.00     0.023 C 
BRANCH  33  34
ATOM     34  C   UNL A   1      38.485  21.470  25.333  1.00  0.00     0.023 C 
BRANCH  34  35
ATOM     35  C   UNL A   1      38.479  20.058  25.923  1.00  0.00     0.116 C 
BRANCH  35  36
ATOM     36  N   UNL A   1      39.723  19.341  25.694  1.00  0.00    -0.352 N 
ATOM     37  C   UNL A   1      41.033  19.700  25.897  1.00  0.00     0.251 C 
ATOM     38  H   UNL A   1      39.606  18.434  25.327  1.00  0.00     0.163 HD
ATOM     39  O   UNL A   1      41.927  18.959  25.496  1.00  0.00    -0.269 OA
BRANCH  37  40
ATOM     40  C   UNL A   1      41.392  20.986  26.541  1.00  0.00     0.039 A 
ATOM     41  C   UNL A   1      41.320  21.166  27.920  1.00  0.00     0.014 A 
ATOM     42  C   UNL A   1      41.875  22.027  25.735  1.00  0.00     0.014 A 
ATOM     43  C   UNL A   1      41.609  22.409  28.476  1.00  0.00     0.010 A 
ATOM     44  C   UNL A   1      42.243  23.253  26.304  1.00  0.00     0.010 A 
ATOM     45  C   UNL A   1      42.089  23.464  27.680  1.00  0.00    -0.014 A 
BRANCH  45  46
ATOM     46  C   UNL A   1      42.444  24.754  28.329  1.00  0.00     0.031 A 
ATOM     47  C   UNL A   1      43.879  25.158  28.529  1.00  0.00     0.074 A 
ATOM     48  C   UNL A   1      41.459  25.619  28.648  1.00  0.00     0.049 A 
ATOM     49  N   UNL A   1      44.354  26.275  29.021  1.00  0.00    -0.248 NA
ATOM     50  C   UNL A   1      44.913  24.189  28.135  1.00  0.00     0.031 C 
ATOM     51  C   UNL A   1      40.026  25.360  28.492  1.00  0.00     0.029 A 
ATOM     52  N   UNL A   1      41.517  26.917  29.090  1.00  0.00    -0.354 N 
ATOM     53  C   UNL A   1      45.733  26.123  29.046  1.00  0.00     0.074 A 
ATOM     54  C   UNL A   1      46.024  24.814  28.501  1.00  0.00     0.031 C 
ATOM     55  C   UNL A   1      39.353  26.503  28.692  1.00  0.00     0.029 A 
ATOM     56  C   UNL A   1      40.299  27.552  29.056  1.00  0.00     0.049 A 
ATOM     57  H   UNL A   1      42.346  27.348  29.397  1.00  0.00     0.167 HD
ATOM     58  C   UNL A   1      46.672  26.989  29.496  1.00  0.00     0.031 A 
ATOM     59  C   UNL A   1      39.979  28.842  29.266  1.00  0.00     0.031 A 
ATOM     60  C   UNL A   1      46.396  28.305  30.006  1.00  0.00     0.049 A 
ATOM     61  C   UNL A   1      41.039  29.804  29.702  1.00  0.00     0.074 A 
ATOM     62  C   UNL A   1      47.280  29.231  30.534  1.00  0.00     0.029 A 
ATOM     63  N   UNL A   1      45.142  28.891  30.026  1.00  0.00    -0.354 N 
ATOM     64  N   UNL A   1      42.328  29.607  29.819  1.00  0.00    -0.248 NA
ATOM     65  C   UNL A   1      40.592  31.154  30.077  1.00  0.00     0.031 C 
ATOM     66  C   UNL A   1      46.556  30.378  30.883  1.00  0.00     0.029 A 
ATOM     67  C   UNL A   1      45.227  30.169  30.553  1.00  0.00     0.049 A 
ATOM     68  H   UNL A   1      44.312  28.462  29.714  1.00  0.00     0.167 HD
ATOM     69  C   UNL A   1      42.841  30.789  30.329  1.00  0.00     0.074 A 
ATOM     70  C   UNL A   1      41.734  31.718  30.447  1.00  0.00     0.031 C 
ATOM     71  C   UNL A   1      44.114  31.067  30.696  1.00  0.00     0.031 A 
BRANCH  58  72
ATOM     72  C   UNL A   1      48.095  26.519  29.497  1.00  0.00    -0.014 A 
ATOM     73  C   UNL A   1      48.876  26.675  28.341  1.00  0.00     0.009 A 
ATOM     74  C   UNL A   1      48.649  25.886  30.618  1.00  0.00     0.009 A 
ATOM     75  C   UNL A   1      50.190  26.206  28.308  1.00  0.00     0.001 A 
ATOM     76  C   UNL A   1      49.969  25.429  30.586  1.00  0.00     0.001 A 
ATOM     77  C   UNL A   1      50.736  25.588  29.431  1.00  0.00     0.000 A 
ENDBRANCH  58  72
BRANCH  59  78
ATOM     78  C   UNL A   1      38.585  29.293  29.043  1.00  0.00    -0.014 A 
ATOM     79  C   UNL A   1      37.647  29.287  30.086  1.00  0.00     0.009 A 
ATOM     80  C   UNL A   1      38.180  29.687  27.760  1.00  0.00     0.009 A 
ATOM     81  C   UNL A   1      36.323  29.651  29.842  1.00  0.00     0.001 A 
ATOM     82  C   UNL A   1      36.858  30.064  27.522  1.00  0.00     0.001 A 
ATOM     83  C   UNL A   1      35.928  30.040  28.562  1.00  0.00     0.000 A 
ENDBRANCH  59  78
BRANCH  71  84
ATOM     84  C   UNL A   1      44.363  32.404  31.320  1.00  0.00    -0.014 A 
ATOM     85  C   UNL A   1      44.101  32.617  32.680  1.00  0.00     0.009 A 
ATOM     86  C   UNL A   1      44.825  33.470  30.532  1.00  0.00     0.009 A 
ATOM     87  C   UNL A   1      44.308  33.878  33.243  1.00  0.00     0.001 A 
ATOM     88  C   UNL A   1      45.037  34.725  31.100  1.00  0.00     0.001 A 
ATOM     89  C   UNL A   1      44.778  34.929  32.455  1.00  0.00     0.000 A 
ENDBRANCH  71  84
ENDBRANCH  45  46
ENDBRANCH  37  40
ENDBRANCH  35  36
ENDBRANCH  34  35
ENDBRANCH  33  34
ENDBRANCH   1  33
TORSDOF 17
ENDMDL
MODEL 2
REMARK VINA RESULT:     -12.5      3.744      9.333
REMARK SMILES CC[C@@H](C)[C@@H](NC(=O)Cn1nc(-c2ccc3ccccc3c2)ccc1=O)C(=O)NCCCCNC(=O)c1ccc(-c2c3nc(c(-c4ccccc4)c4ccc([nH]4)c(-c4ccccc4)c4nc(c(-c5ccccc5)c5ccc2[nH]5)C=C4)C=C3)cc1
REMARK SMILES IDX 30 1 29 2 27 3 28 4 5 6 3 7 4 8 2 9 1 10 6 11 7 12 8 14 9 15
REMARK SMILES IDX 10 16 11 17 25 18 12 19 24 20 26 21 23 22 13 23 14 24 22 25
REMARK SMILES IDX 15 26 21 27 16 28 20 29 17 30 19 31 18 32 31 33 32 34 33 35
REMARK SMILES IDX 34 36 35 37 36 39 37 40 38 41 84 42 39 43 83 44 40 45 41 46
REMARK SMILES IDX 42 47 77 48 43 49 82 50 76 51 78 52 44 53 81 54 75 55 74 56
REMARK SMILES IDX 45 58 67 59 52 60 66 61 53 62 56 63 65 64 79 65 54 66 55 67
REMARK SMILES IDX 64 69 80 70 57 71 46 72 47 73 51 74 48 75 50 76 49 77 68 78
REMARK SMILES IDX 69 79 73 80 70 81 72 82 71 83 58 84 59 85 63 86 60 87 62 88
REMARK SMILES IDX 61 89
REMARK H PARENT 29 5 6 13 34 38 78 57 56 68
REMARK Flexibility Score: inf
ROOT
ATOM      1  C   UNL A   1      32.328  28.506  26.907  1.00  0.00     0.116 C 
ENDROOT
BRANCH   1   2
ATOM      2  N   UNL A   1      31.729  26.509  26.886  1.00  0.00    -0.354 N 
ATOM      3  C   UNL A   1      31.978  25.179  26.522  1.00  0.00     0.242 C 
ATOM      4  O   UNL A   1      31.240  24.412  27.177  1.00  0.00    -0.273 OA
ATOM      5  H   UNL A   1      30.861  26.493  27.351  1.00  0.00     0.163 HD
BRANCH   3   6
ATOM      6  C   UNL A   1      32.851  24.526  25.385  1.00  0.00     0.174 C 
BRANCH   6   7
ATOM      7  C   UNL A   1      32.012  24.542  24.041  1.00  0.00     0.018 C 
ATOM      8  C   UNL A   1      31.058  23.335  23.920  1.00  0.00     0.010 C 
BRANCH   7   9
ATOM      9  C   UNL A   1      32.895  24.592  22.767  1.00  0.00     0.002 C 
ATOM     10  C   UNL A   1      32.378  25.589  21.729  1.00  0.00     0.004 C 
ENDBRANCH   7   9
ENDBRANCH   6   7
BRANCH   6  11
ATOM     11  N   UNL A   1      34.251  24.903  25.110  1.00  0.00    -0.342 N 
ATOM     12  C   UNL A   1      35.369  24.126  25.121  1.00  0.00     0.242 C 
ATOM     13  H   UNL A   1      34.398  25.850  24.887  1.00  0.00     0.164 HD
ATOM     14  O   UNL A   1      36.272  24.399  24.324  1.00  0.00    -0.273 OA
BRANCH  12  15
ATOM     15  C   UNL A   1      35.464  22.912  26.018  1.00  0.00     0.248 C 
BRANCH  15  16
ATOM     16  N   UNL A   1      36.578  22.069  25.662  1.00  0.00    -0.220 N 
ATOM     17  N   UNL A   1      38.312  22.602  26.104  1.00  0.00    -0.169 NA
ATOM     18  C   UNL A   1      36.257  20.385  25.138  1.00  0.00     0.267 A 
ATOM     19  C   UNL A   1      39.443  21.568  26.108  1.00  0.00     0.091 A 
ATOM     20  C   UNL A   1      37.844  19.257  24.985  1.00  0.00     0.075 A 
ATOM     21  O   UNL A   1      35.141  19.970  24.845  1.00  0.00    -0.268 OA
ATOM     22  C   UNL A   1      39.211  19.739  25.481  1.00  0.00     0.036 A 
BRANCH  19  23
ATOM     23  C   UNL A   1      40.824  21.943  26.494  1.00  0.00     0.003 A 
ATOM     24  C   UNL A   1      41.848  22.038  25.558  1.00  0.00     0.011 A 
ATOM     25  C   UNL A   1      41.068  22.216  27.845  1.00  0.00     0.019 A 
ATOM     26  C   UNL A   1      43.121  22.439  25.978  1.00  0.00     0.009 A 
ATOM     27  C   UNL A   1      42.321  22.679  28.265  1.00  0.00    -0.018 A 
ATOM     28  C   UNL A   1      43.367  22.785  27.322  1.00  0.00    -0.018 A 
ATOM     29  C   UNL A   1      42.545  23.056  29.598  1.00  0.00     0.009 A 
ATOM     30  C   UNL A   1      44.622  23.245  27.750  1.00  0.00     0.009 A 
ATOM     31  C   UNL A   1      43.791  23.536  30.000  1.00  0.00     0.001 A 
ATOM     32  C   UNL A   1      44.830  23.623  29.080  1.00  0.00     0.001 A 
ENDBRANCH  19  23
ENDBRANCH  15  16
ENDBRANCH  12  15
ENDBRANCH   6  11
ENDBRANCH   3   6
ENDBRANCH   1   2
BRANCH   1  33
ATOM     33  C   UNL A   1      31.781  29.852  26.024  1.00  0.00     0.023 C 
BRANCH  33  34
ATOM     34  C   UNL A   1      31.676  31.112  26.909  1.00  0.00     0.023 C 
BRANCH  34  35
ATOM     35  C   UNL A   1      32.768  32.145  26.623  1.00  0.00     0.116 C 
BRANCH  35  36
ATOM     36  N   UNL A   1      32.513  33.431  27.251  1.00  0.00    -0.352 N 
ATOM     37  C   UNL A   1      33.144  34.083  28.281  1.00  0.00     0.251 C 
ATOM     38  H   UNL A   1      31.749  33.923  26.870  1.00  0.00     0.163 HD
ATOM     39  O   UNL A   1      32.653  35.118  28.727  1.00  0.00    -0.269 OA
BRANCH  37  40
ATOM     40  C   UNL A   1      34.375  33.541  28.903  1.00  0.00     0.039 A 
ATOM     41  C   UNL A   1      35.600  34.196  28.807  1.00  0.00     0.014 A 
ATOM     42  C   UNL A   1      34.281  32.363  29.659  1.00  0.00     0.014 A 
ATOM     43  C   UNL A   1      36.743  33.619  29.355  1.00  0.00     0.010 A 
ATOM     44  C   UNL A   1      35.416  31.825  30.278  1.00  0.00     0.010 A 
ATOM     45  C   UNL A   1      36.665  32.436  30.110  1.00  0.00    -0.014 A 
BRANCH  45  46
ATOM     46  C   UNL A   1      37.903  31.892  30.728  1.00  0.00     0.031 A 
ATOM     47  C   UNL A   1      38.253  32.183  32.162  1.00  0.00     0.074 A 
ATOM     48  C   UNL A   1      38.669  31.039  30.018  1.00  0.00     0.049 A 
ATOM     49  N   UNL A   1      39.262  31.735  32.866  1.00  0.00    -0.248 NA
ATOM     50  C   UNL A   1      37.366  33.096  32.900  1.00  0.00     0.031 C 
ATOM     51  C   UNL A   1      38.436  30.657  28.623  1.00  0.00     0.029 A 
ATOM     52  N   UNL A   1      39.746  30.277  30.396  1.00  0.00    -0.354 N 
ATOM     53  C   UNL A   1      39.164  32.349  34.107  1.00  0.00     0.074 A 
ATOM     54  C   UNL A   1      37.985  33.189  34.070  1.00  0.00     0.031 C 
ATOM     55  C   UNL A   1      39.245  29.634  28.311  1.00  0.00     0.029 A 
ATOM     56  C   UNL A   1      40.097  29.337  29.456  1.00  0.00     0.049 A 
ATOM     57  H   UNL A   1      40.217  30.390  31.252  1.00  0.00     0.167 HD
ATOM     58  C   UNL A   1      39.988  32.237  35.175  1.00  0.00     0.031 A 
ATOM     59  C   UNL A   1      40.986  28.329  29.517  1.00  0.00     0.031 A 
ATOM     60  C   UNL A   1      41.141  31.380  35.234  1.00  0.00     0.049 A 
ATOM     61  C   UNL A   1      41.848  28.177  30.731  1.00  0.00     0.074 A 
ATOM     62  C   UNL A   1      42.064  31.242  36.256  1.00  0.00     0.029 A 
ATOM     63  N   UNL A   1      41.511  30.495  34.236  1.00  0.00    -0.354 N 
ATOM     64  N   UNL A   1      41.804  28.843  31.858  1.00  0.00    -0.248 NA
ATOM     65  C   UNL A   1      42.911  27.163  30.664  1.00  0.00     0.031 C 
ATOM     66  C   UNL A   1      43.002  30.275  35.871  1.00  0.00     0.029 A 
ATOM     67  C   UNL A   1      42.647  29.802  34.620  1.00  0.00     0.049 A 
ATOM     68  H   UNL A   1      41.037  30.375  33.381  1.00  0.00     0.167 HD
ATOM     69  C   UNL A   1      42.862  28.366  32.615  1.00  0.00     0.074 A 
ATOM     70  C   UNL A   1      43.498  27.316  31.843  1.00  0.00     0.031 C 
ATOM     71  C   UNL A   1      43.287  28.786  33.829  1.00  0.00     0.031 A 
BRANCH  58  72
ATOM     72  C   UNL A   1      39.693  33.102  36.363  1.00  0.00    -0.014 A 
ATOM     73  C   UNL A   1      40.260  34.384  36.442  1.00  0.00     0.009 A 
ATOM     74  C   UNL A   1      38.896  32.639  37.419  1.00  0.00     0.009 A 
ATOM     75  C   UNL A   1      40.033  35.190  37.559  1.00  0.00     0.001 A 
ATOM     76  C   UNL A   1      38.659  33.453  38.529  1.00  0.00     0.001 A 
ATOM     77  C   UNL A   1      39.229  34.725  38.599  1.00  0.00     0.000 A 
ENDBRANCH  58  72
BRANCH  59  78
ATOM     78  C   UNL A   1      41.083  27.373  28.389  1.00  0.00    -0.014 A 
ATOM     79  C   UNL A   1      42.090  27.498  27.420  1.00  0.00     0.009 A 
ATOM     80  C   UNL A   1      40.128  26.356  28.257  1.00  0.00     0.009 A 
ATOM     81  C   UNL A   1      42.124  26.630  26.328  1.00  0.00     0.001 A 
ATOM     82  C   UNL A   1      40.174  25.480  27.171  1.00  0.00     0.001 A 
ATOM     83  C   UNL A   1      41.169  25.622  26.204  1.00  0.00     0.000 A 
ENDBRANCH  59  78
BRANCH  71  84
ATOM     84  C   UNL A   1      44.534  28.155  34.366  1.00  0.00    -0.014 A 
ATOM     85  C   UNL A   1      44.475  26.947  35.073  1.00  0.00     0.009 A 
ATOM     86  C   UNL A   1      45.771  28.795  34.197  1.00  0.00     0.009 A 
ATOM     87  C   UNL A   1      45.641  26.384  35.596  1.00  0.00     0.001 A 
ATOM     88  C   UNL A   1      46.934  28.226  34.714  1.00  0.00     0.001 A 
ATOM     89  C   UNL A   1      46.868  27.021  35.414  1.00  0.00     0.000 A 
ENDBRANCH  71  84
ENDBRANCH  45  46
ENDBRANCH  37  40
ENDBRANCH  35  36
ENDBRANCH  34  35
ENDBRANCH  33  34
ENDBRANCH   1  33
TORSDOF 17
ENDMDL
MODEL 3
REMARK VINA RESULT:     -12.5      0.549      5.562
REMARK SMILES CC[C@@H](C)[C@@H](NC(=O)Cn1nc(-c2ccc3ccccc3c2)ccc1=O)C(=O)NCCCCNC(=O)c1ccc(-c2c3nc(c(-c4ccccc4)c4ccc([nH]4)c(-c4ccccc4)c4nc(c(-c5ccccc5)c5ccc2[nH]5)C=C4)C=C3)cc1
REMARK SMILES IDX 30 1 29 2 27 3 28 4 5 6 3 7 4 8 2 9 1 10 6 11 7 12 8 14 9 15
REMARK SMILES IDX 10 16 11 17 25 18 12 19 24 20 26 21 23 22 13 23 14 24 22 25
REMARK SMILES IDX 15 26 21 27 16 28 20 29 17 30 19 31 18 32 31 33 32 34 33 35
REMARK SMILES IDX 34 36 35 37 36 39 37 40 38 41 84 42 39 43 83 44 40 45 41 46
REMARK SMILES IDX 42 47 77 48 43 49 82 50 76 51 78 52 44 53 81 54 75 55 74 56
REMARK SMILES IDX 45 58 67 59 52 60 66 61 53 62 56 63 65 64 79 65 54 66 55 67
REMARK SMILES IDX 64 69 80 70 57 71 46 72 47 73 51 74 48 75 50 76 49 77 68 78
REMARK SMILES IDX 69 79 73 80 70 81 72 82 71 83 58 84 59 85 63 86 60 87 62 88
REMARK SMILES IDX 61 89
REMARK H PARENT 29 5 6 13 34 38 78 57 56 68
REMARK Flexibility Score: inf
ROOT
ATOM      1  C   UNL A   1      36.660  23.307  24.776  1.00  0.00     0.116 C 
ENDROOT
BRANCH   1   2
ATOM      2  N   UNL A   1      35.131  24.502  25.540  1.00  0.00    -0.354 N 
ATOM      3  C   UNL A   1      34.028  25.337  25.318  1.00  0.00     0.242 C 
ATOM      4  O   UNL A   1      33.364  25.455  26.371  1.00  0.00    -0.273 OA
ATOM      5  H   UNL A   1      35.231  24.459  26.519  1.00  0.00     0.163 HD
BRANCH   3   6
ATOM      6  C   UNL A   1      33.593  26.234  24.099  1.00  0.00     0.174 C 
BRANCH   6   7
ATOM      7  C   UNL A   1      34.198  27.685  24.307  1.00  0.00     0.018 C 
ATOM      8  C   UNL A   1      33.936  28.242  25.722  1.00  0.00     0.010 C 
BRANCH   7   9
ATOM      9  C   UNL A   1      33.680  28.720  23.274  1.00  0.00     0.002 C 
ATOM     10  C   UNL A   1      32.229  29.130  23.525  1.00  0.00     0.004 C 
ENDBRANCH   7   9
ENDBRANCH   6   7
BRANCH   6  11
ATOM     11  N   UNL A   1      33.738  25.825  22.689  1.00  0.00    -0.342 N 
ATOM     12  C   UNL A   1      32.847  25.935  21.665  1.00  0.00     0.242 C 
ATOM     13  H   UNL A   1      34.602  25.415  22.455  1.00  0.00     0.164 HD
ATOM     14  O   UNL A   1      33.291  26.130  20.530  1.00  0.00    -0.273 OA
BRANCH  12  15
ATOM     15  C   UNL A   1      31.358  25.909  21.925  1.00  0.00     0.248 C 
BRANCH  15  16
ATOM     16  N   UNL A   1      31.023  25.052  23.035  1.00  0.00    -0.220 N 
ATOM     17  N   UNL A   1      31.812  23.366  23.166  1.00  0.00    -0.169 NA
ATOM     18  C   UNL A   1      30.151  25.753  24.437  1.00  0.00     0.267 A 
ATOM     19  C   UNL A   1      31.793  22.624  24.507  1.00  0.00     0.091 A 
ATOM     20  C   UNL A   1      30.030  24.583  25.996  1.00  0.00     0.075 A 
ATOM     21  O   UNL A   1      29.622  26.859  24.418  1.00  0.00    -0.268 OA
ATOM     22  C   UNL A   1      30.807  23.265  26.061  1.00  0.00     0.036 A 
BRANCH  19  23
ATOM     23  C   UNL A   1      32.445  21.302  24.663  1.00  0.00     0.003 A 
ATOM     24  C   UNL A   1      33.094  20.937  25.837  1.00  0.00     0.011 A 
ATOM     25  C   UNL A   1      32.376  20.414  23.583  1.00  0.00     0.019 A 
ATOM     26  C   UNL A   1      33.652  19.658  25.938  1.00  0.00     0.009 A 
ATOM     27  C   UNL A   1      32.875  19.111  23.697  1.00  0.00    -0.018 A 
ATOM     28  C   UNL A   1      33.531  18.727  24.888  1.00  0.00    -0.018 A 
ATOM     29  C   UNL A   1      32.715  18.180  22.659  1.00  0.00     0.009 A 
ATOM     30  C   UNL A   1      34.034  17.420  24.994  1.00  0.00     0.009 A 
ATOM     31  C   UNL A   1      33.198  16.879  22.792  1.00  0.00     0.001 A 
ATOM     32  C   UNL A   1      33.863  16.501  23.954  1.00  0.00     0.001 A 
ENDBRANCH  19  23
ENDBRANCH  15  16
ENDBRANCH  12  15
ENDBRANCH   6  11
ENDBRANCH   3   6
ENDBRANCH   1   2
BRANCH   1  33
ATOM     33  C   UNL A   1      36.847  21.618  24.725  1.00  0.00     0.023 C 
BRANCH  33  34
ATOM     34  C   UNL A   1      38.316  21.199  24.941  1.00  0.00     0.023 C 
BRANCH  34  35
ATOM     35  C   UNL A   1      38.485  20.107  25.999  1.00  0.00     0.116 C 
BRANCH  35  36
ATOM     36  N   UNL A   1      39.723  19.359  25.852  1.00  0.00    -0.352 N 
ATOM     37  C   UNL A   1      41.034  19.720  26.043  1.00  0.00     0.251 C 
ATOM     38  H   UNL A   1      39.600  18.425  25.563  1.00  0.00     0.163 HD
ATOM     39  O   UNL A   1      41.925  18.937  25.722  1.00  0.00    -0.269 OA
BRANCH  37  40
ATOM     40  C   UNL A   1      41.400  21.052  26.579  1.00  0.00     0.039 A 
ATOM     41  C   UNL A   1      41.361  21.335  27.943  1.00  0.00     0.014 A 
ATOM     42  C   UNL A   1      41.855  22.033  25.685  1.00  0.00     0.014 A 
ATOM     43  C   UNL A   1      41.655  22.618  28.396  1.00  0.00     0.010 A 
ATOM     44  C   UNL A   1      42.228  23.300  26.151  1.00  0.00     0.010 A 
ATOM     45  C   UNL A   1      42.107  23.613  27.511  1.00  0.00    -0.014 A 
BRANCH  45  46
ATOM     46  C   UNL A   1      42.468  24.950  28.052  1.00  0.00     0.031 A 
ATOM     47  C   UNL A   1      41.416  25.981  28.352  1.00  0.00     0.074 A 
ATOM     48  C   UNL A   1      43.754  25.200  28.374  1.00  0.00     0.049 A 
ATOM     49  N   UNL A   1      41.561  27.169  28.883  1.00  0.00    -0.248 NA
ATOM     50  C   UNL A   1      40.025  25.644  28.008  1.00  0.00     0.031 C 
ATOM     51  C   UNL A   1      44.873  24.282  28.151  1.00  0.00     0.029 A 
ATOM     52  N   UNL A   1      44.321  26.262  29.032  1.00  0.00    -0.354 N 
ATOM     53  C   UNL A   1      40.297  27.741  28.889  1.00  0.00     0.074 A 
ATOM     54  C   UNL A   1      39.388  26.764  28.326  1.00  0.00     0.031 C 
ATOM     55  C   UNL A   1      45.956  24.752  28.788  1.00  0.00     0.029 A 
ATOM     56  C   UNL A   1      45.625  26.033  29.402  1.00  0.00     0.049 A 
ATOM     57  H   UNL A   1      43.843  27.101  29.220  1.00  0.00     0.167 HD
ATOM     58  C   UNL A   1      39.926  28.974  29.310  1.00  0.00     0.031 A 
ATOM     59  C   UNL A   1      46.456  26.758  30.172  1.00  0.00     0.031 A 
ATOM     60  C   UNL A   1      40.814  29.938  29.902  1.00  0.00     0.049 A 
ATOM     61  C   UNL A   1      46.011  28.092  30.686  1.00  0.00     0.074 A 
ATOM     62  C   UNL A   1      40.537  31.232  30.309  1.00  0.00     0.029 A 
ATOM     63  N   UNL A   1      42.146  29.701  30.196  1.00  0.00    -0.354 N 
ATOM     64  N   UNL A   1      44.835  28.659  30.587  1.00  0.00    -0.248 NA
ATOM     65  C   UNL A   1      47.023  28.904  31.377  1.00  0.00     0.031 C 
ATOM     66  C   UNL A   1      41.709  31.783  30.844  1.00  0.00     0.029 A 
ATOM     67  C   UNL A   1      42.705  30.823  30.784  1.00  0.00     0.049 A 
ATOM     68  H   UNL A   1      42.625  28.860  30.013  1.00  0.00     0.167 HD
ATOM     69  C   UNL A   1      44.977  29.914  31.159  1.00  0.00     0.074 A 
ATOM     70  C   UNL A   1      46.337  30.005  31.651  1.00  0.00     0.031 C 
ATOM     71  C   UNL A   1      44.066  30.912  31.237  1.00  0.00     0.031 A 
BRANCH  58  72
ATOM     72  C   UNL A   1      38.496  29.369  29.103  1.00  0.00    -0.014 A 
ATOM     73  C   UNL A   1      38.087  29.857  27.853  1.00  0.00     0.009 A 
ATOM     74  C   UNL A   1      37.565  29.300  30.150  1.00  0.00     0.009 A 
ATOM     75  C   UNL A   1      36.769  30.270  27.651  1.00  0.00     0.001 A 
ATOM     76  C   UNL A   1      36.243  29.701  29.941  1.00  0.00     0.001 A 
ATOM     77  C   UNL A   1      35.848  30.188  28.694  1.00  0.00     0.000 A 
ENDBRANCH  58  72
BRANCH  59  78
ATOM     78  C   UNL A   1      47.790  26.215  30.518  1.00  0.00    -0.014 A 
ATOM     79  C   UNL A   1      48.820  26.168  29.568  1.00  0.00     0.009 A 
ATOM     80  C   UNL A   1      48.016  25.694  31.800  1.00  0.00     0.009 A 
ATOM     81  C   UNL A   1      50.049  25.590  29.891  1.00  0.00     0.001 A 
ATOM     82  C   UNL A   1      49.251  25.130  32.125  1.00  0.00     0.001 A 
ATOM     83  C   UNL A   1      50.265  25.073  31.168  1.00  0.00     0.000 A 
ENDBRANCH  59  78
BRANCH  71  84
ATOM     84  C   UNL A   1      44.533  32.210  31.819  1.00  0.00    -0.014 A 
ATOM     85  C   UNL A   1      44.401  32.466  33.190  1.00  0.00     0.009 A 
ATOM     86  C   UNL A   1      45.072  33.199  30.981  1.00  0.00     0.009 A 
ATOM     87  C   UNL A   1      44.812  33.693  33.715  1.00  0.00     0.001 A 
ATOM     88  C   UNL A   1      45.487  34.420  31.511  1.00  0.00     0.001 A 
ATOM     89  C   UNL A   1      45.356  34.666  32.878  1.00  0.00     0.000 A 
ENDBRANCH  71  84
ENDBRANCH  45  46
ENDBRANCH  37  40
ENDBRANCH  35  36
ENDBRANCH  34  35
ENDBRANCH  33  34
ENDBRANCH   1  33
TORSDOF 17
ENDMDL
