MODEL 1
REMARK VINA RESULT:     -12.2      0.000      0.000
REMARK SMILES CC(C)(O)C#Cc1ccc(C(=O)N[C@@H](CC2=c3ccccc3=NC2)C(=O)NCCCCNC(=O)c2ccc(-c3c4nc(c(-c5ccccc5)c5ccc([nH]5)c(-c5ccccc5)c5nc(c(-c6ccccc6)c6ccc3[nH]6)C=C5)C=C4)cc2)s1
REMARK SMILES IDX 28 1 27 2 25 3 26 4 14 6 13 7 11 8 12 9 10 11 7 12 8 13
REMARK SMILES IDX 83 14 9 15 6 16 5 17 2 18 1 19 3 20 4 21 15 23 16 24 17 25
REMARK SMILES IDX 24 26 18 27 22 28 23 29 19 30 21 31 20 32 29 33 30 34 31 35
REMARK SMILES IDX 32 36 33 37 34 39 35 40 36 41 82 42 37 43 81 44 38 45 39 46
REMARK SMILES IDX 40 47 75 48 41 49 80 50 74 51 76 52 42 53 79 54 73 55 72 56
REMARK SMILES IDX 43 58 65 59 50 60 64 61 51 62 54 63 63 64 77 65 52 66 53 67
REMARK SMILES IDX 62 69 78 70 55 71 44 72 45 73 49 74 46 75 48 76 47 77 66 78
REMARK SMILES IDX 67 79 71 80 68 81 70 82 69 83 56 84 57 85 61 86 58 87 60 88
REMARK SMILES IDX 59 89
REMARK H PARENT 27 5 13 10 4 22 32 38 76 57 54 68
REMARK Flexibility Score: inf
ROOT
ATOM      1  C   UNL A   1      35.431  21.792  26.103  1.00  0.00     0.116 C 
ENDROOT
BRANCH   1   2
ATOM      2  N   UNL A   1      34.750  22.125  27.324  1.00  0.00    -0.354 N 
ATOM      3  C   UNL A   1      33.447  22.493  27.474  1.00  0.00     0.242 C 
ATOM      4  O   UNL A   1      32.925  22.251  28.566  1.00  0.00    -0.273 OA
ATOM      5  H   UNL A   1      35.287  22.083  28.148  1.00  0.00     0.163 HD
BRANCH   3   6
ATOM      6  C   UNL A   1      32.609  23.094  26.320  1.00  0.00     0.175 C 
BRANCH   6   7
ATOM      7  N   UNL A   1      33.396  23.862  25.335  1.00  0.00    -0.339 N 
ATOM      8  C   UNL A   1      33.080  24.866  24.453  1.00  0.00     0.262 C 
ATOM      9  O   UNL A   1      34.010  25.308  23.777  1.00  0.00    -0.268 OA
ATOM     10  H   UNL A   1      34.344  23.602  25.305  1.00  0.00     0.164 HD
BRANCH   8  11
ATOM     11  C   UNL A   1      31.761  25.443  24.420  1.00  0.00     0.093 A 
ATOM     12  C   UNL A   1      30.136  27.132  23.967  1.00  0.00     0.078 A 
ATOM     13  C   UNL A   1      29.654  25.900  23.587  1.00  0.00     0.030 A 
ATOM     14  S   UNL A   1      31.362  26.943  25.130  1.00  0.00    -0.121 S 
ATOM     15  C   UNL A   1      30.607  24.881  23.894  1.00  0.00     0.027 A 
BRANCH  12  16
ATOM     16  C   UNL A   1      29.682  28.400  23.552  1.00  0.00    -0.053 C 
ATOM     17  C   UNL A   1      29.205  29.498  23.034  1.00  0.00    -0.063 C 
BRANCH  17  18
ATOM     18  C   UNL A   1      28.649  30.777  22.430  1.00  0.00     0.120 C 
ATOM     19  C   UNL A   1      27.726  31.463  23.435  1.00  0.00     0.056 C 
ATOM     20  C   UNL A   1      27.915  30.458  21.130  1.00  0.00     0.056 C 
BRANCH  18  21
ATOM     21  O   UNL A   1      29.743  31.642  22.143  1.00  0.00    -0.378 OA
ATOM     22  H   UNL A   1      30.342  31.669  22.905  1.00  0.00     0.212 HD
ENDBRANCH  18  21
ENDBRANCH  17  18
ENDBRANCH  12  16
ENDBRANCH   8  11
ENDBRANCH   6   7
BRANCH   6  23
ATOM     23  C   UNL A   1      31.596  22.102  25.669  1.00  0.00     0.068 C 
BRANCH  23  24
ATOM     24  C   UNL A   1      32.081  21.204  24.565  1.00  0.00    -0.037 C 
ATOM     25  C   UNL A   1      32.575  19.968  24.636  1.00  0.00     0.001 A 
ATOM     26  C   UNL A   1      31.939  21.621  23.129  1.00  0.00     0.174 C 
ATOM     27  C   UNL A   1      32.898  19.067  25.696  1.00  0.00     0.010 A 
ATOM     28  C   UNL A   1      32.478  19.508  23.237  1.00  0.00     0.065 A 
ATOM     29  N   UNL A   1      32.130  20.380  22.339  1.00  0.00    -0.280 NA
ATOM     30  C   UNL A   1      33.012  17.758  25.422  1.00  0.00     0.001 A 
ATOM     31  C   UNL A   1      32.647  18.054  23.010  1.00  0.00     0.028 A 
ATOM     32  C   UNL A   1      32.858  17.252  24.069  1.00  0.00     0.002 A 
ENDBRANCH  23  24
ENDBRANCH   6  23
ENDBRANCH   3   6
ENDBRANCH   1   2
BRANCH   1  33
ATOM     33  C   UNL A   1      36.488  22.779  25.676  1.00  0.00     0.023 C 
BRANCH  33  34
ATOM     34  C   UNL A   1      37.869  22.164  25.502  1.00  0.00     0.023 C 
BRANCH  34  35
ATOM     35  C   UNL A   1      38.968  22.732  26.416  1.00  0.00     0.116 C 
BRANCH  35  36
ATOM     36  N   UNL A   1      40.334  22.451  26.009  1.00  0.00    -0.352 N 
ATOM     37  C   UNL A   1      41.534  23.078  26.211  1.00  0.00     0.251 C 
ATOM     38  H   UNL A   1      40.414  21.630  25.470  1.00  0.00     0.163 HD
ATOM     39  O   UNL A   1      42.551  22.481  25.854  1.00  0.00    -0.269 OA
BRANCH  37  40
ATOM     40  C   UNL A   1      41.676  24.461  26.740  1.00  0.00     0.039 A 
ATOM     41  C   UNL A   1      42.396  24.808  27.880  1.00  0.00     0.014 A 
ATOM     42  C   UNL A   1      40.951  25.466  26.076  1.00  0.00     0.014 A 
ATOM     43  C   UNL A   1      42.242  26.055  28.460  1.00  0.00     0.010 A 
ATOM     44  C   UNL A   1      40.852  26.744  26.611  1.00  0.00     0.010 A 
ATOM     45  C   UNL A   1      41.439  27.011  27.846  1.00  0.00    -0.014 A 
BRANCH  45  46
ATOM     46  C   UNL A   1      41.330  28.300  28.514  1.00  0.00     0.031 A 
ATOM     47  C   UNL A   1      42.406  29.287  28.197  1.00  0.00     0.074 A 
ATOM     48  C   UNL A   1      40.277  28.628  29.287  1.00  0.00     0.049 A 
ATOM     49  N   UNL A   1      43.145  29.974  29.010  1.00  0.00    -0.248 NA
ATOM     50  C   UNL A   1      42.749  29.472  26.776  1.00  0.00     0.031 C 
ATOM     51  C   UNL A   1      39.020  27.896  29.452  1.00  0.00     0.029 A 
ATOM     52  N   UNL A   1      40.058  29.784  29.972  1.00  0.00    -0.354 N 
ATOM     53  C   UNL A   1      43.958  30.777  28.210  1.00  0.00     0.074 A 
ATOM     54  C   UNL A   1      43.741  30.357  26.850  1.00  0.00     0.031 C 
ATOM     55  C   UNL A   1      38.084  28.744  29.932  1.00  0.00     0.029 A 
ATOM     56  C   UNL A   1      38.715  30.019  30.229  1.00  0.00     0.049 A 
ATOM     57  H   UNL A   1      40.778  30.391  30.256  1.00  0.00     0.167 HD
ATOM     58  C   UNL A   1      44.651  31.845  28.692  1.00  0.00     0.031 A 
ATOM     59  C   UNL A   1      38.156  31.216  30.525  1.00  0.00     0.031 A 
ATOM     60  C   UNL A   1      44.836  31.784  30.114  1.00  0.00     0.049 A 
ATOM     61  C   UNL A   1      39.232  32.124  30.989  1.00  0.00     0.074 A 
ATOM     62  C   UNL A   1      45.466  30.899  30.964  1.00  0.00     0.029 A 
ATOM     63  N   UNL A   1      44.039  32.567  30.913  1.00  0.00    -0.354 N 
ATOM     64  N   UNL A   1      39.884  31.971  32.107  1.00  0.00    -0.248 NA
ATOM     65  C   UNL A   1      39.878  32.975  30.000  1.00  0.00     0.031 C 
ATOM     66  C   UNL A   1      44.638  30.854  32.121  1.00  0.00     0.029 A 
ATOM     67  C   UNL A   1      43.589  31.754  31.921  1.00  0.00     0.049 A 
ATOM     68  H   UNL A   1      43.832  33.522  30.788  1.00  0.00     0.167 HD
ATOM     69  C   UNL A   1      41.187  32.345  31.812  1.00  0.00     0.074 A 
ATOM     70  C   UNL A   1      41.101  33.044  30.531  1.00  0.00     0.031 C 
ATOM     71  C   UNL A   1      42.256  31.815  32.479  1.00  0.00     0.031 A 
BRANCH  58  72
ATOM     72  C   UNL A   1      44.910  33.097  27.894  1.00  0.00    -0.014 A 
ATOM     73  C   UNL A   1      46.168  33.397  27.334  1.00  0.00     0.009 A 
ATOM     74  C   UNL A   1      43.824  33.878  27.461  1.00  0.00     0.009 A 
ATOM     75  C   UNL A   1      46.338  34.415  26.394  1.00  0.00     0.001 A 
ATOM     76  C   UNL A   1      43.983  34.871  26.486  1.00  0.00     0.001 A 
ATOM     77  C   UNL A   1      45.240  35.137  25.951  1.00  0.00     0.000 A 
ENDBRANCH  58  72
BRANCH  59  78
ATOM     78  C   UNL A   1      36.855  31.721  30.027  1.00  0.00    -0.014 A 
ATOM     79  C   UNL A   1      36.671  32.002  28.659  1.00  0.00     0.009 A 
ATOM     80  C   UNL A   1      35.879  32.180  30.922  1.00  0.00     0.009 A 
ATOM     81  C   UNL A   1      35.570  32.733  28.204  1.00  0.00     0.001 A 
ATOM     82  C   UNL A   1      34.780  32.922  30.467  1.00  0.00     0.001 A 
ATOM     83  C   UNL A   1      34.633  33.207  29.111  1.00  0.00     0.000 A 
ENDBRANCH  59  78
BRANCH  71  84
ATOM     84  C   UNL A   1      42.013  30.958  33.701  1.00  0.00    -0.014 A 
ATOM     85  C   UNL A   1      41.628  29.620  33.514  1.00  0.00     0.009 A 
ATOM     86  C   UNL A   1      41.948  31.488  35.003  1.00  0.00     0.009 A 
ATOM     87  C   UNL A   1      41.176  28.843  34.583  1.00  0.00     0.001 A 
ATOM     88  C   UNL A   1      41.523  30.701  36.078  1.00  0.00     0.001 A 
ATOM     89  C   UNL A   1      41.125  29.383  35.866  1.00  0.00     0.000 A 
ENDBRANCH  71  84
ENDBRANCH  45  46
ENDBRANCH  37  40
ENDBRANCH  35  36
ENDBRANCH  34  35
ENDBRANCH  33  34
ENDBRANCH   1  33
TORSDOF 18
ENDMDL
MODEL 2
REMARK VINA RESULT:     -12.2      1.861      5.147
REMARK SMILES CC(C)(O)C#Cc1ccc(C(=O)N[C@@H](CC2=c3ccccc3=NC2)C(=O)NCCCCNC(=O)c2ccc(-c3c4nc(c(-c5ccccc5)c5ccc([nH]5)c(-c5ccccc5)c5nc(c(-c6ccccc6)c6ccc3[nH]6)C=C5)C=C4)cc2)s1
REMARK SMILES IDX 28 1 27 2 25 3 26 4 14 6 13 7 11 8 12 9 10 11 7 12 8 13
REMARK SMILES IDX 83 14 9 15 6 16 5 17 2 18 1 19 3 20 4 21 15 23 16 24 17 25
REMARK SMILES IDX 24 26 18 27 22 28 23 29 19 30 21 31 20 32 29 33 30 34 31 35
REMARK SMILES IDX 32 36 33 37 34 39 35 40 36 41 82 42 37 43 81 44 38 45 39 46
REMARK SMILES IDX 40 47 75 48 41 49 80 50 74 51 76 52 42 53 79 54 73 55 72 56
REMARK SMILES IDX 43 58 65 59 50 60 64 61 51 62 54 63 63 64 77 65 52 66 53 67
REMARK SMILES IDX 62 69 78 70 55 71 44 72 45 73 49 74 46 75 48 76 47 77 66 78
REMARK SMILES IDX 67 79 71 80 68 81 70 82 69 83 56 84 57 85 61 86 58 87 60 88
REMARK SMILES IDX 59 89
REMARK H PARENT 27 5 13 10 4 22 32 38 76 57 54 68
REMARK Flexibility Score: inf
ROOT
ATOM      1  C   UNL A   1      36.275  23.947  25.201  1.00  0.00     0.116 C 
ENDROOT
BRANCH   1   2
ATOM      2  N   UNL A   1      35.183  23.338  25.912  1.00  0.00    -0.354 N 
ATOM      3  C   UNL A   1      33.902  23.790  26.008  1.00  0.00     0.242 C 
ATOM      4  O   UNL A   1      33.028  22.939  26.202  1.00  0.00    -0.273 OA
ATOM      5  H   UNL A   1      35.385  22.498  26.383  1.00  0.00     0.163 HD
BRANCH   3   6
ATOM      6  C   UNL A   1      33.518  25.273  25.791  1.00  0.00     0.175 C 
BRANCH   6   7
ATOM      7  N   UNL A   1      33.846  25.794  24.449  1.00  0.00    -0.339 N 
ATOM      8  C   UNL A   1      33.603  25.339  23.176  1.00  0.00     0.262 C 
ATOM      9  O   UNL A   1      34.009  26.053  22.258  1.00  0.00    -0.268 OA
ATOM     10  H   UNL A   1      34.342  26.643  24.471  1.00  0.00     0.164 HD
BRANCH   8  11
ATOM     11  C   UNL A   1      32.810  24.160  22.944  1.00  0.00     0.093 A 
ATOM     12  C   UNL A   1      32.247  21.848  23.126  1.00  0.00     0.078 A 
ATOM     13  C   UNL A   1      31.122  22.621  23.298  1.00  0.00     0.030 A 
ATOM     14  S   UNL A   1      33.427  22.719  22.266  1.00  0.00    -0.121 S 
ATOM     15  C   UNL A   1      31.448  24.005  23.149  1.00  0.00     0.027 A 
BRANCH  12  16
ATOM     16  C   UNL A   1      32.436  20.505  23.512  1.00  0.00    -0.053 C 
ATOM     17  C   UNL A   1      32.705  19.248  23.734  1.00  0.00    -0.063 C 
BRANCH  17  18
ATOM     18  C   UNL A   1      33.019  17.784  23.994  1.00  0.00     0.120 C 
ATOM     19  C   UNL A   1      32.347  17.334  25.290  1.00  0.00     0.056 C 
ATOM     20  C   UNL A   1      34.531  17.583  24.054  1.00  0.00     0.056 C 
BRANCH  18  21
ATOM     21  O   UNL A   1      32.493  17.022  22.913  1.00  0.00    -0.378 OA
ATOM     22  H   UNL A   1      32.247  16.139  23.229  1.00  0.00     0.212 HD
ENDBRANCH  18  21
ENDBRANCH  17  18
ENDBRANCH  12  16
ENDBRANCH   8  11
ENDBRANCH   6   7
BRANCH   6  23
ATOM     23  C   UNL A   1      32.081  25.648  26.270  1.00  0.00     0.068 C 
BRANCH  23  24
ATOM     24  C   UNL A   1      31.523  26.989  25.880  1.00  0.00    -0.037 C 
ATOM     25  C   UNL A   1      31.774  28.191  26.398  1.00  0.00     0.001 A 
ATOM     26  C   UNL A   1      30.625  27.119  24.683  1.00  0.00     0.174 C 
ATOM     27  C   UNL A   1      32.551  28.679  27.492  1.00  0.00     0.010 A 
ATOM     28  C   UNL A   1      31.258  29.099  25.354  1.00  0.00     0.065 A 
ATOM     29  N   UNL A   1      30.603  28.568  24.366  1.00  0.00    -0.280 NA
ATOM     30  C   UNL A   1      32.904  29.974  27.510  1.00  0.00     0.001 A 
ATOM     31  C   UNL A   1      31.664  30.519  25.459  1.00  0.00     0.028 A 
ATOM     32  C   UNL A   1      32.474  30.890  26.467  1.00  0.00     0.002 A 
ENDBRANCH  23  24
ENDBRANCH   6  23
ENDBRANCH   3   6
ENDBRANCH   1   2
BRANCH   1  33
ATOM     33  C   UNL A   1      36.905  23.079  24.142  1.00  0.00     0.023 C 
BRANCH  33  34
ATOM     34  C   UNL A   1      37.544  21.810  24.687  1.00  0.00     0.023 C 
BRANCH  34  35
ATOM     35  C   UNL A   1      38.407  21.989  25.947  1.00  0.00     0.116 C 
BRANCH  35  36
ATOM     36  N   UNL A   1      39.844  21.982  25.734  1.00  0.00    -0.352 N 
ATOM     37  C   UNL A   1      40.885  22.701  26.256  1.00  0.00     0.251 C 
ATOM     38  H   UNL A   1      40.131  21.314  25.069  1.00  0.00     0.163 HD
ATOM     39  O   UNL A   1      42.026  22.332  25.970  1.00  0.00    -0.269 OA
BRANCH  37  40
ATOM     40  C   UNL A   1      40.725  23.943  27.058  1.00  0.00     0.039 A 
ATOM     41  C   UNL A   1      39.753  24.915  26.838  1.00  0.00     0.014 A 
ATOM     42  C   UNL A   1      41.691  24.178  28.052  1.00  0.00     0.014 A 
ATOM     43  C   UNL A   1      39.850  26.160  27.433  1.00  0.00     0.010 A 
ATOM     44  C   UNL A   1      41.751  25.399  28.713  1.00  0.00     0.010 A 
ATOM     45  C   UNL A   1      40.873  26.415  28.342  1.00  0.00    -0.014 A 
BRANCH  45  46
ATOM     46  C   UNL A   1      40.907  27.747  28.931  1.00  0.00     0.031 A 
ATOM     47  C   UNL A   1      41.970  28.658  28.411  1.00  0.00     0.074 A 
ATOM     48  C   UNL A   1      39.980  28.172  29.811  1.00  0.00     0.049 A 
ATOM     49  N   UNL A   1      42.837  29.357  29.072  1.00  0.00    -0.248 NA
ATOM     50  C   UNL A   1      42.128  28.738  26.948  1.00  0.00     0.031 C 
ATOM     51  C   UNL A   1      38.727  27.514  30.187  1.00  0.00     0.029 A 
ATOM     52  N   UNL A   1      39.900  29.377  30.439  1.00  0.00    -0.354 N 
ATOM     53  C   UNL A   1      43.569  30.068  28.121  1.00  0.00     0.074 A 
ATOM     54  C   UNL A   1      43.156  29.577  26.832  1.00  0.00     0.031 C 
ATOM     55  C   UNL A   1      37.899  28.435  30.726  1.00  0.00     0.029 A 
ATOM     56  C   UNL A   1      38.615  29.694  30.852  1.00  0.00     0.049 A 
ATOM     57  H   UNL A   1      40.676  29.965  30.585  1.00  0.00     0.167 HD
ATOM     58  C   UNL A   1      44.363  31.129  28.436  1.00  0.00     0.031 A 
ATOM     59  C   UNL A   1      38.150  30.933  31.137  1.00  0.00     0.031 A 
ATOM     60  C   UNL A   1      44.732  31.146  29.822  1.00  0.00     0.049 A 
ATOM     61  C   UNL A   1      39.313  31.813  31.395  1.00  0.00     0.074 A 
ATOM     62  C   UNL A   1      45.433  30.285  30.642  1.00  0.00     0.029 A 
ATOM     63  N   UNL A   1      44.081  32.014  30.664  1.00  0.00    -0.354 N 
ATOM     64  N   UNL A   1      40.101  31.698  32.426  1.00  0.00    -0.248 NA
ATOM     65  C   UNL A   1      39.856  32.569  30.275  1.00  0.00     0.031 C 
ATOM     66  C   UNL A   1      44.765  30.351  31.896  1.00  0.00     0.029 A 
ATOM     67  C   UNL A   1      43.737  31.288  31.775  1.00  0.00     0.049 A 
ATOM     68  H   UNL A   1      43.899  32.969  30.503  1.00  0.00     0.167 HD
ATOM     69  C   UNL A   1      41.368  31.988  31.940  1.00  0.00     0.074 A 
ATOM     70  C   UNL A   1      41.140  32.611  30.637  1.00  0.00     0.031 C 
ATOM     71  C   UNL A   1      42.493  31.448  32.496  1.00  0.00     0.031 A 
BRANCH  58  72
ATOM     72  C   UNL A   1      44.563  32.315  27.529  1.00  0.00    -0.014 A 
ATOM     73  C   UNL A   1      43.634  33.370  27.440  1.00  0.00     0.009 A 
ATOM     74  C   UNL A   1      45.822  32.529  26.939  1.00  0.00     0.009 A 
ATOM     75  C   UNL A   1      43.938  34.574  26.800  1.00  0.00     0.001 A 
ATOM     76  C   UNL A   1      46.145  33.752  26.336  1.00  0.00     0.001 A 
ATOM     77  C   UNL A   1      45.203  34.774  26.269  1.00  0.00     0.000 A 
ENDBRANCH  58  72
BRANCH  59  78
ATOM     78  C   UNL A   1      36.815  31.469  30.779  1.00  0.00    -0.014 A 
ATOM     79  C   UNL A   1      36.500  31.776  29.441  1.00  0.00     0.009 A 
ATOM     80  C   UNL A   1      35.942  31.931  31.775  1.00  0.00     0.009 A 
ATOM     81  C   UNL A   1      35.374  32.534  29.110  1.00  0.00     0.001 A 
ATOM     82  C   UNL A   1      34.818  32.700  31.444  1.00  0.00     0.001 A 
ATOM     83  C   UNL A   1      34.542  33.010  30.114  1.00  0.00     0.000 A 
ENDBRANCH  59  78
BRANCH  71  84
ATOM     84  C   UNL A   1      42.381  30.681  33.794  1.00  0.00    -0.014 A 
ATOM     85  C   UNL A   1      42.857  31.285  34.970  1.00  0.00     0.009 A 
ATOM     86  C   UNL A   1      42.020  29.323  33.849  1.00  0.00     0.009 A 
ATOM     87  C   UNL A   1      42.987  30.555  36.154  1.00  0.00     0.001 A 
ATOM     88  C   UNL A   1      42.123  28.600  35.042  1.00  0.00     0.001 A 
ATOM     89  C   UNL A   1      42.619  29.212  36.191  1.00  0.00     0.000 A 
ENDBRANCH  71  84
ENDBRANCH  45  46
ENDBRANCH  37  40
ENDBRANCH  35  36
ENDBRANCH  34  35
ENDBRANCH  33  34
ENDBRANCH   1  33
TORSDOF 18
ENDMDL
MODEL 3
REMARK VINA RESULT:     -12.2      2.995      8.815
REMARK SMILES CC(C)(O)C#Cc1ccc(C(=O)N[C@@H](CC2=c3ccccc3=NC2)C(=O)NCCCCNC(=O)c2ccc(-c3c4nc(c(-c5ccccc5)c5ccc([nH]5)c(-c5ccccc5)c5nc(c(-c6ccccc6)c6ccc3[nH]6)C=C5)C=C4)cc2)s1
REMARK SMILES IDX 28 1 27 2 25 3 26 4 14 6 13 7 11 8 12 9 10 11 7 12 8 13
REMARK SMILES IDX 83 14 9 15 6 16 5 17 2 18 1 19 3 20 4 21 15 23 16 24 17 25
REMARK SMILES IDX 24 26 18 27 22 28 23 29 19 30 21 31 20 32 29 33 30 34 31 35
REMARK SMILES IDX 32 36 33 37 34 39 35 40 36 41 82 42 37 43 81 44 38 45 39 46
REMARK SMILES IDX 40 47 75 48 41 49 80 50 74 51 76 52 42 53 79 54 73 55 72 56
REMARK SMILES IDX 43 58 65 59 50 60 64 61 51 62 54 63 63 64 77 65 52 66 53 67
REMARK SMILES IDX 62 69 78 70 55 71 44 72 45 73 49 74 46 75 48 76 47 77 66 78
REMARK SMILES IDX 67 79 71 80 68 81 70 82 69 83 56 84 57 85 61 86 58 87 60 88
REMARK SMILES IDX 59 89
REMARK H PARENT 27 5 13 10 4 22 32 38 76 57 54 68
REMARK Flexibility Score: inf
ROOT
ATOM      1  C   UNL A   1      34.176  29.517  26.858  1.00  0.00     0.116 C 
ENDROOT
BRANCH   1   2
ATOM      2  N   UNL A   1      33.020  29.214  27.658  1.00  0.00    -0.354 N 
ATOM      3  C   UNL A   1      31.972  28.409  27.328  1.00  0.00     0.242 C 
ATOM      4  O   UNL A   1      31.366  27.879  28.265  1.00  0.00    -0.273 OA
ATOM      5  H   UNL A   1      32.981  29.639  28.545  1.00  0.00     0.163 HD
BRANCH   3   6
ATOM      6  C   UNL A   1      31.600  28.076  25.864  1.00  0.00     0.175 C 
BRANCH   6   7
ATOM      7  N   UNL A   1      30.385  27.249  25.721  1.00  0.00    -0.339 N 
ATOM      8  C   UNL A   1      30.170  25.950  25.329  1.00  0.00     0.262 C 
ATOM      9  O   UNL A   1      29.000  25.565  25.346  1.00  0.00    -0.268 OA
ATOM     10  H   UNL A   1      29.558  27.727  25.955  1.00  0.00     0.164 HD
BRANCH   8  11
ATOM     11  C   UNL A   1      31.268  25.067  25.038  1.00  0.00     0.093 A 
ATOM     12  C   UNL A   1      32.308  22.969  24.572  1.00  0.00     0.078 A 
ATOM     13  C   UNL A   1      32.812  23.940  23.736  1.00  0.00     0.030 A 
ATOM     14  S   UNL A   1      31.649  23.685  25.966  1.00  0.00    -0.121 S 
ATOM     15  C   UNL A   1      32.221  25.206  24.040  1.00  0.00     0.027 A 
BRANCH  12  16
ATOM     16  C   UNL A   1      32.361  21.571  24.398  1.00  0.00    -0.053 C 
ATOM     17  C   UNL A   1      32.563  20.287  24.295  1.00  0.00    -0.063 C 
BRANCH  17  18
ATOM     18  C   UNL A   1      32.799  18.790  24.175  1.00  0.00     0.120 C 
ATOM     19  C   UNL A   1      34.272  18.478  24.431  1.00  0.00     0.056 C 
ATOM     20  C   UNL A   1      32.362  18.307  22.795  1.00  0.00     0.056 C 
BRANCH  18  21
ATOM     21  O   UNL A   1      32.011  18.139  25.165  1.00  0.00    -0.378 OA
ATOM     22  H   UNL A   1      31.332  18.749  25.490  1.00  0.00     0.212 HD
ENDBRANCH  18  21
ENDBRANCH  17  18
ENDBRANCH  12  16
ENDBRANCH   8  11
ENDBRANCH   6   7
BRANCH   6  23
ATOM     23  C   UNL A   1      31.642  29.294  24.890  1.00  0.00     0.068 C 
BRANCH  23  24
ATOM     24  C   UNL A   1      30.650  29.344  23.761  1.00  0.00    -0.037 C 
ATOM     25  C   UNL A   1      29.710  30.253  23.502  1.00  0.00     0.001 A 
ATOM     26  C   UNL A   1      30.706  28.328  22.656  1.00  0.00     0.174 C 
ATOM     27  C   UNL A   1      29.229  31.426  24.158  1.00  0.00     0.010 A 
ATOM     28  C   UNL A   1      29.369  29.962  22.095  1.00  0.00     0.065 A 
ATOM     29  N   UNL A   1      29.888  28.900  21.557  1.00  0.00    -0.280 NA
ATOM     30  C   UNL A   1      28.540  32.331  23.445  1.00  0.00     0.001 A 
ATOM     31  C   UNL A   1      28.580  30.993  21.384  1.00  0.00     0.028 A 
ATOM     32  C   UNL A   1      28.240  32.117  22.039  1.00  0.00     0.002 A 
ENDBRANCH  23  24
ENDBRANCH   6  23
ENDBRANCH   3   6
ENDBRANCH   1   2
BRANCH   1  33
ATOM     33  C   UNL A   1      35.485  29.509  27.608  1.00  0.00     0.023 C 
BRANCH  33  34
ATOM     34  C   UNL A   1      36.100  30.889  27.784  1.00  0.00     0.023 C 
BRANCH  34  35
ATOM     35  C   UNL A   1      35.114  32.017  28.134  1.00  0.00     0.116 C 
BRANCH  35  36
ATOM     36  N   UNL A   1      34.728  32.107  29.531  1.00  0.00    -0.352 N 
ATOM     37  C   UNL A   1      35.373  31.856  30.712  1.00  0.00     0.251 C 
ATOM     38  H   UNL A   1      33.801  32.415  29.656  1.00  0.00     0.163 HD
ATOM     39  O   UNL A   1      34.799  32.190  31.751  1.00  0.00    -0.269 OA
BRANCH  37  40
ATOM     40  C   UNL A   1      36.664  31.126  30.823  1.00  0.00     0.039 A 
ATOM     41  C   UNL A   1      37.921  31.701  30.660  1.00  0.00     0.014 A 
ATOM     42  C   UNL A   1      36.585  29.736  31.021  1.00  0.00     0.014 A 
ATOM     43  C   UNL A   1      39.044  30.910  30.493  1.00  0.00     0.010 A 
ATOM     44  C   UNL A   1      37.720  28.939  30.932  1.00  0.00     0.010 A 
ATOM     45  C   UNL A   1      38.936  29.526  30.591  1.00  0.00    -0.014 A 
BRANCH  45  46
ATOM     46  C   UNL A   1      40.162  28.760  30.409  1.00  0.00     0.031 A 
ATOM     47  C   UNL A   1      40.961  28.513  31.647  1.00  0.00     0.074 A 
ATOM     48  C   UNL A   1      40.508  28.219  29.225  1.00  0.00     0.049 A 
ATOM     49  N   UNL A   1      42.223  28.721  31.855  1.00  0.00    -0.248 NA
ATOM     50  C   UNL A   1      40.229  28.036  32.833  1.00  0.00     0.031 C 
ATOM     51  C   UNL A   1      39.697  28.119  28.010  1.00  0.00     0.029 A 
ATOM     52  N   UNL A   1      41.620  27.497  28.918  1.00  0.00    -0.354 N 
ATOM     53  C   UNL A   1      42.478  28.282  33.154  1.00  0.00     0.074 A 
ATOM     54  C   UNL A   1      41.201  27.963  33.740  1.00  0.00     0.031 C 
ATOM     55  C   UNL A   1      40.211  27.149  27.224  1.00  0.00     0.029 A 
ATOM     56  C   UNL A   1      41.447  26.669  27.819  1.00  0.00     0.049 A 
ATOM     57  H   UNL A   1      42.463  27.556  29.424  1.00  0.00     0.167 HD
ATOM     58  C   UNL A   1      43.735  28.060  33.630  1.00  0.00     0.031 A 
ATOM     59  C   UNL A   1      42.193  25.581  27.513  1.00  0.00     0.031 A 
ATOM     60  C   UNL A   1      44.740  28.740  32.865  1.00  0.00     0.049 A 
ATOM     61  C   UNL A   1      43.478  25.684  28.244  1.00  0.00     0.074 A 
ATOM     62  C   UNL A   1      45.002  30.065  32.584  1.00  0.00     0.029 A 
ATOM     63  N   UNL A   1      45.483  28.014  31.966  1.00  0.00    -0.354 N 
ATOM     64  N   UNL A   1      44.391  26.579  27.992  1.00  0.00    -0.248 NA
ATOM     65  C   UNL A   1      43.572  25.046  29.548  1.00  0.00     0.031 C 
ATOM     66  C   UNL A   1      45.461  30.068  31.237  1.00  0.00     0.029 A 
ATOM     67  C   UNL A   1      45.499  28.741  30.803  1.00  0.00     0.049 A 
ATOM     68  H   UNL A   1      45.919  27.145  32.125  1.00  0.00     0.167 HD
ATOM     69  C   UNL A   1      44.905  26.921  29.235  1.00  0.00     0.074 A 
ATOM     70  C   UNL A   1      44.433  25.876  30.141  1.00  0.00     0.031 C 
ATOM     71  C   UNL A   1      45.426  28.160  29.481  1.00  0.00     0.031 A 
BRANCH  58  72
ATOM     72  C   UNL A   1      44.067  26.980  34.626  1.00  0.00    -0.014 A 
ATOM     73  C   UNL A   1      44.371  25.658  34.242  1.00  0.00     0.009 A 
ATOM     74  C   UNL A   1      44.343  27.329  35.960  1.00  0.00     0.009 A 
ATOM     75  C   UNL A   1      44.921  24.734  35.134  1.00  0.00     0.001 A 
ATOM     76  C   UNL A   1      44.935  26.419  36.844  1.00  0.00     0.001 A 
ATOM     77  C   UNL A   1      45.226  25.122  36.430  1.00  0.00     0.000 A 
ENDBRANCH  58  72
BRANCH  59  78
ATOM     78  C   UNL A   1      41.685  24.294  26.982  1.00  0.00    -0.014 A 
ATOM     79  C   UNL A   1      40.570  23.666  27.569  1.00  0.00     0.009 A 
ATOM     80  C   UNL A   1      42.449  23.547  26.073  1.00  0.00     0.009 A 
ATOM     81  C   UNL A   1      40.242  22.338  27.281  1.00  0.00     0.001 A 
ATOM     82  C   UNL A   1      42.127  22.212  25.792  1.00  0.00     0.001 A 
ATOM     83  C   UNL A   1      41.031  21.606  26.404  1.00  0.00     0.000 A 
ENDBRANCH  59  78
BRANCH  71  84
ATOM     84  C   UNL A   1      45.638  29.115  28.329  1.00  0.00    -0.014 A 
ATOM     85  C   UNL A   1      46.951  29.353  27.891  1.00  0.00     0.009 A 
ATOM     86  C   UNL A   1      44.614  29.932  27.817  1.00  0.00     0.009 A 
ATOM     87  C   UNL A   1      47.237  30.381  26.989  1.00  0.00     0.001 A 
ATOM     88  C   UNL A   1      44.896  30.943  26.891  1.00  0.00     0.001 A 
ATOM     89  C   UNL A   1      46.208  31.175  26.487  1.00  0.00     0.000 A 
ENDBRANCH  71  84
ENDBRANCH  45  46
ENDBRANCH  37  40
ENDBRANCH  35  36
ENDBRANCH  34  35
ENDBRANCH  33  34
ENDBRANCH   1  33
TORSDOF 18
ENDMDL
