MODEL 1
REMARK VINA RESULT:     -10.8      0.000      0.000
REMARK SMILES O=C(CSCC(=O)N1CCN(c2ccc(F)cc2)CC1)NCCCCNC(=O)c1ccc(-c2c3nc(c(-c4ccccc4)c4ccc([nH]4)c(-c4ccccc4)c4nc(c(-c5ccccc5)c5ccc2[nH]5)C=C4)C=C3)cc1
REMARK SMILES IDX 22 1 21 2 1 3 2 4 3 6 4 7 5 8 6 9 7 10 8 11 9 12 20 13 10 14
REMARK SMILES IDX 19 15 11 16 12 17 13 18 18 19 14 20 17 21 15 22 16 23 23 24
REMARK SMILES IDX 24 25 25 26 26 27 27 28 28 30 29 31 30 32 76 33 31 34 75 35
REMARK SMILES IDX 32 36 33 37 34 38 69 39 35 40 74 41 68 42 70 43 36 44 73 45
REMARK SMILES IDX 67 46 66 47 37 49 59 50 44 51 58 52 45 53 48 54 57 55 71 56
REMARK SMILES IDX 46 57 47 58 56 60 72 61 49 62 38 63 39 64 43 65 40 66 42 67
REMARK SMILES IDX 41 68 60 69 61 70 65 71 62 72 64 73 63 74 50 75 51 76 55 77
REMARK SMILES IDX 52 78 54 79 53 80
REMARK H PARENT 21 5 26 29 70 48 48 59
REMARK Flexibility Score: inf
ROOT
ATOM      1  C   UNL A   1      32.574  29.985  25.889  1.00  0.00     0.116 C 
ENDROOT
BRANCH   1   2
ATOM      2  N   UNL A   1      31.963  29.407  24.712  1.00  0.00    -0.355 N 
ATOM      3  O   UNL A   1      33.731  28.051  24.156  1.00  0.00    -0.274 OA
ATOM      4  C   UNL A   1      32.590  28.451  23.940  1.00  0.00     0.230 C 
ATOM      5  H   UNL A   1      31.063  29.707  24.451  1.00  0.00     0.163 HD
BRANCH   4   6
ATOM      6  C   UNL A   1      31.809  28.007  22.717  1.00  0.00     0.169 C 
BRANCH   6   7
ATOM      7  S   UNL A   1      30.134  27.427  23.127  1.00  0.00    -0.142 SA
BRANCH   7   8
ATOM      8  C   UNL A   1      30.495  26.176  24.392  1.00  0.00     0.170 C 
BRANCH   8   9
ATOM      9  C   UNL A   1      30.986  24.804  23.946  1.00  0.00     0.232 C 
ATOM     10  O   UNL A   1      30.285  24.146  23.170  1.00  0.00    -0.274 OA
ATOM     11  N   UNL A   1      32.279  24.406  24.244  1.00  0.00    -0.338 N 
ATOM     12  C   UNL A   1      32.926  23.394  23.387  1.00  0.00     0.141 C 
ATOM     13  C   UNL A   1      32.964  24.629  25.524  1.00  0.00     0.141 C 
ATOM     14  C   UNL A   1      34.431  23.691  23.185  1.00  0.00     0.138 C 
ATOM     15  C   UNL A   1      34.460  24.908  25.361  1.00  0.00     0.138 C 
ATOM     16  N   UNL A   1      35.069  23.910  24.486  1.00  0.00    -0.368 N 
BRANCH  16  17
ATOM     17  C   UNL A   1      36.178  23.204  24.881  1.00  0.00     0.037 A 
ATOM     18  C   UNL A   1      36.401  21.901  24.410  1.00  0.00     0.029 A 
ATOM     19  C   UNL A   1      37.108  23.755  25.770  1.00  0.00     0.029 A 
ATOM     20  C   UNL A   1      37.520  21.170  24.813  1.00  0.00     0.041 A 
ATOM     21  C   UNL A   1      38.219  23.022  26.194  1.00  0.00     0.041 A 
ATOM     22  C   UNL A   1      38.415  21.736  25.708  1.00  0.00     0.123 A 
ATOM     23  F   UNL A   1      39.482  21.032  26.108  1.00  0.00    -0.207 F 
ENDBRANCH  16  17
ENDBRANCH   8   9
ENDBRANCH   7   8
ENDBRANCH   6   7
ENDBRANCH   4   6
ENDBRANCH   1   2
BRANCH   1  24
ATOM     24  C   UNL A   1      31.542  30.588  26.840  1.00  0.00     0.023 C 
BRANCH  24  25
ATOM     25  C   UNL A   1      31.417  32.114  26.783  1.00  0.00     0.023 C 
BRANCH  25  26
ATOM     26  C   UNL A   1      32.678  32.893  27.147  1.00  0.00     0.116 C 
BRANCH  26  27
ATOM     27  N   UNL A   1      32.399  34.240  27.622  1.00  0.00    -0.352 N 
ATOM     28  C   UNL A   1      32.990  34.951  28.637  1.00  0.00     0.251 C 
ATOM     29  H   UNL A   1      31.679  34.711  27.144  1.00  0.00     0.163 HD
ATOM     30  O   UNL A   1      32.524  36.036  28.978  1.00  0.00    -0.269 OA
BRANCH  28  31
ATOM     31  C   UNL A   1      34.169  34.408  29.349  1.00  0.00     0.039 A 
ATOM     32  C   UNL A   1      33.979  33.783  30.585  1.00  0.00     0.014 A 
ATOM     33  C   UNL A   1      35.455  34.515  28.814  1.00  0.00     0.014 A 
ATOM     34  C   UNL A   1      35.065  33.202  31.246  1.00  0.00     0.010 A 
ATOM     35  C   UNL A   1      36.522  33.868  29.435  1.00  0.00     0.010 A 
ATOM     36  C   UNL A   1      36.339  33.202  30.656  1.00  0.00    -0.014 A 
BRANCH  36  37
ATOM     37  C   UNL A   1      37.483  32.497  31.293  1.00  0.00     0.031 A 
ATOM     38  C   UNL A   1      38.034  32.972  32.611  1.00  0.00     0.074 A 
ATOM     39  C   UNL A   1      38.070  31.466  30.656  1.00  0.00     0.049 A 
ATOM     40  N   UNL A   1      39.058  32.518  33.290  1.00  0.00    -0.248 NA
ATOM     41  C   UNL A   1      37.361  34.121  33.238  1.00  0.00     0.031 C 
ATOM     42  C   UNL A   1      37.659  30.924  29.358  1.00  0.00     0.029 A 
ATOM     43  N   UNL A   1      39.146  30.689  31.011  1.00  0.00    -0.354 N 
ATOM     44  C   UNL A   1      39.162  33.333  34.410  1.00  0.00     0.074 A 
ATOM     45  C   UNL A   1      38.129  34.340  34.295  1.00  0.00     0.031 C 
ATOM     46  C   UNL A   1      38.449  29.886  29.045  1.00  0.00     0.029 A 
ATOM     47  C   UNL A   1      39.452  29.716  30.090  1.00  0.00     0.049 A 
ATOM     48  H   UNL A   1      39.650  30.817  31.847  1.00  0.00     0.167 HD
ATOM     49  C   UNL A   1      40.027  33.245  35.449  1.00  0.00     0.031 A 
ATOM     50  C   UNL A   1      40.435  28.795  30.082  1.00  0.00     0.031 A 
ATOM     51  C   UNL A   1      41.051  32.241  35.568  1.00  0.00     0.049 A 
ATOM     52  C   UNL A   1      41.402  28.738  31.232  1.00  0.00     0.074 A 
ATOM     53  C   UNL A   1      41.936  32.034  36.612  1.00  0.00     0.029 A 
ATOM     54  N   UNL A   1      41.333  31.280  34.610  1.00  0.00    -0.354 N 
ATOM     55  N   UNL A   1      41.440  29.472  32.317  1.00  0.00    -0.248 NA
ATOM     56  C   UNL A   1      42.455  27.716  31.159  1.00  0.00     0.031 C 
ATOM     57  C   UNL A   1      42.796  30.989  36.257  1.00  0.00     0.029 A 
ATOM     58  C   UNL A   1      42.401  30.500  35.022  1.00  0.00     0.049 A 
ATOM     59  H   UNL A   1      40.846  31.169  33.761  1.00  0.00     0.167 HD
ATOM     60  C   UNL A   1      42.499  28.980  33.069  1.00  0.00     0.074 A 
ATOM     61  C   UNL A   1      43.066  27.875  32.324  1.00  0.00     0.031 C 
ATOM     62  C   UNL A   1      42.958  29.404  34.273  1.00  0.00     0.031 A 
BRANCH  49  63
ATOM     63  C   UNL A   1      39.912  34.277  36.538  1.00  0.00    -0.014 A 
ATOM     64  C   UNL A   1      40.566  35.516  36.444  1.00  0.00     0.009 A 
ATOM     65  C   UNL A   1      39.106  34.020  37.659  1.00  0.00     0.009 A 
ATOM     66  C   UNL A   1      40.447  36.460  37.467  1.00  0.00     0.001 A 
ATOM     67  C   UNL A   1      38.963  34.978  38.665  1.00  0.00     0.001 A 
ATOM     68  C   UNL A   1      39.642  36.192  38.573  1.00  0.00     0.000 A 
ENDBRANCH  49  63
BRANCH  50  69
ATOM     69  C   UNL A   1      40.551  27.837  28.949  1.00  0.00    -0.014 A 
ATOM     70  C   UNL A   1      41.291  28.176  27.805  1.00  0.00     0.009 A 
ATOM     71  C   UNL A   1      39.912  26.588  28.996  1.00  0.00     0.009 A 
ATOM     72  C   UNL A   1      41.364  27.297  26.722  1.00  0.00     0.001 A 
ATOM     73  C   UNL A   1      40.014  25.699  27.925  1.00  0.00     0.001 A 
ATOM     74  C   UNL A   1      40.730  26.058  26.785  1.00  0.00     0.000 A 
ENDBRANCH  50  69
BRANCH  62  75
ATOM     75  C   UNL A   1      44.106  28.645  34.879  1.00  0.00    -0.014 A 
ATOM     76  C   UNL A   1      45.438  29.037  34.668  1.00  0.00     0.009 A 
ATOM     77  C   UNL A   1      43.846  27.543  35.710  1.00  0.00     0.009 A 
ATOM     78  C   UNL A   1      46.485  28.317  35.246  1.00  0.00     0.001 A 
ATOM     79  C   UNL A   1      44.894  26.847  36.314  1.00  0.00     0.001 A 
ATOM     80  C   UNL A   1      46.212  27.227  36.073  1.00  0.00     0.000 A 
ENDBRANCH  62  75
ENDBRANCH  36  37
ENDBRANCH  28  31
ENDBRANCH  26  27
ENDBRANCH  25  26
ENDBRANCH  24  25
ENDBRANCH   1  24
TORSDOF 15
ENDMDL
MODEL 2
REMARK VINA RESULT:     -10.7      4.779     10.154
REMARK SMILES O=C(CSCC(=O)N1CCN(c2ccc(F)cc2)CC1)NCCCCNC(=O)c1ccc(-c2c3nc(c(-c4ccccc4)c4ccc([nH]4)c(-c4ccccc4)c4nc(c(-c5ccccc5)c5ccc2[nH]5)C=C4)C=C3)cc1
REMARK SMILES IDX 22 1 21 2 1 3 2 4 3 6 4 7 5 8 6 9 7 10 8 11 9 12 20 13 10 14
REMARK SMILES IDX 19 15 11 16 12 17 13 18 18 19 14 20 17 21 15 22 16 23 23 24
REMARK SMILES IDX 24 25 25 26 26 27 27 28 28 30 29 31 30 32 76 33 31 34 75 35
REMARK SMILES IDX 32 36 33 37 34 38 69 39 35 40 74 41 68 42 70 43 36 44 73 45
REMARK SMILES IDX 67 46 66 47 37 49 59 50 44 51 58 52 45 53 48 54 57 55 71 56
REMARK SMILES IDX 46 57 47 58 56 60 72 61 49 62 38 63 39 64 43 65 40 66 42 67
REMARK SMILES IDX 41 68 60 69 61 70 65 71 62 72 64 73 63 74 50 75 51 76 55 77
REMARK SMILES IDX 52 78 54 79 53 80
REMARK H PARENT 21 5 26 29 70 48 48 59
REMARK Flexibility Score: inf
ROOT
ATOM      1  C   UNL A   1      35.891  21.328  25.377  1.00  0.00     0.116 C 
ENDROOT
BRANCH   1   2
ATOM      2  N   UNL A   1      34.495  21.188  25.728  1.00  0.00    -0.355 N 
ATOM      3  O   UNL A   1      33.665  21.737  23.658  1.00  0.00    -0.274 OA
ATOM      4  C   UNL A   1      33.476  21.383  24.819  1.00  0.00     0.230 C 
ATOM      5  H   UNL A   1      34.261  20.945  26.653  1.00  0.00     0.163 HD
BRANCH   4   6
ATOM      6  C   UNL A   1      32.076  21.242  25.390  1.00  0.00     0.169 C 
BRANCH   6   7
ATOM      7  S   UNL A   1      31.502  22.756  26.220  1.00  0.00    -0.142 SA
BRANCH   7   8
ATOM      8  C   UNL A   1      31.249  23.860  24.802  1.00  0.00     0.170 C 
BRANCH   8   9
ATOM      9  C   UNL A   1      31.972  25.202  24.781  1.00  0.00     0.232 C 
ATOM     10  O   UNL A   1      33.186  25.225  25.006  1.00  0.00    -0.274 OA
ATOM     11  N   UNL A   1      31.315  26.329  24.316  1.00  0.00    -0.338 N 
ATOM     12  C   UNL A   1      32.115  27.446  23.778  1.00  0.00     0.141 C 
ATOM     13  C   UNL A   1      29.920  26.683  24.609  1.00  0.00     0.141 C 
ATOM     14  C   UNL A   1      31.428  28.113  22.563  1.00  0.00     0.138 C 
ATOM     15  C   UNL A   1      29.215  27.361  23.432  1.00  0.00     0.138 C 
ATOM     16  N   UNL A   1      30.041  28.442  22.901  1.00  0.00    -0.368 N 
BRANCH  16  17
ATOM     17  C   UNL A   1      29.535  29.709  22.746  1.00  0.00     0.037 A 
ATOM     18  C   UNL A   1      29.059  30.142  21.500  1.00  0.00     0.029 A 
ATOM     19  C   UNL A   1      29.491  30.606  23.820  1.00  0.00     0.029 A 
ATOM     20  C   UNL A   1      28.552  31.431  21.329  1.00  0.00     0.041 A 
ATOM     21  C   UNL A   1      29.005  31.905  23.652  1.00  0.00     0.041 A 
ATOM     22  C   UNL A   1      28.537  32.303  22.407  1.00  0.00     0.123 A 
ATOM     23  F   UNL A   1      28.065  33.546  22.243  1.00  0.00    -0.207 F 
ENDBRANCH  16  17
ENDBRANCH   8   9
ENDBRANCH   7   8
ENDBRANCH   6   7
ENDBRANCH   4   6
ENDBRANCH   1   2
BRANCH   1  24
ATOM     24  C   UNL A   1      36.518  19.999  24.959  1.00  0.00     0.023 C 
BRANCH  24  25
ATOM     25  C   UNL A   1      38.008  20.064  24.607  1.00  0.00     0.023 C 
BRANCH  25  26
ATOM     26  C   UNL A   1      38.955  20.279  25.784  1.00  0.00     0.116 C 
BRANCH  26  27
ATOM     27  N   UNL A   1      40.066  19.339  25.802  1.00  0.00    -0.352 N 
ATOM     28  C   UNL A   1      41.386  19.548  26.119  1.00  0.00     0.251 C 
ATOM     29  H   UNL A   1      39.837  18.416  25.548  1.00  0.00     0.163 HD
ATOM     30  O   UNL A   1      42.207  18.651  25.945  1.00  0.00    -0.269 OA
BRANCH  28  31
ATOM     31  C   UNL A   1      41.836  20.859  26.639  1.00  0.00     0.039 A 
ATOM     32  C   UNL A   1      42.326  21.808  25.737  1.00  0.00     0.014 A 
ATOM     33  C   UNL A   1      41.786  21.156  28.003  1.00  0.00     0.014 A 
ATOM     34  C   UNL A   1      42.694  23.078  26.193  1.00  0.00     0.010 A 
ATOM     35  C   UNL A   1      42.078  22.445  28.445  1.00  0.00     0.010 A 
ATOM     36  C   UNL A   1      42.533  23.421  27.545  1.00  0.00    -0.014 A 
BRANCH  36  37
ATOM     37  C   UNL A   1      42.818  24.798  28.029  1.00  0.00     0.031 A 
ATOM     38  C   UNL A   1      44.218  25.200  28.408  1.00  0.00     0.074 A 
ATOM     39  C   UNL A   1      41.805  25.672  28.189  1.00  0.00     0.049 A 
ATOM     40  N   UNL A   1      44.648  26.336  28.900  1.00  0.00    -0.248 NA
ATOM     41  C   UNL A   1      45.271  24.186  28.235  1.00  0.00     0.031 C 
ATOM     42  C   UNL A   1      40.396  25.404  27.892  1.00  0.00     0.029 A 
ATOM     43  N   UNL A   1      41.805  26.967  28.647  1.00  0.00    -0.354 N 
ATOM     44  C   UNL A   1      46.010  26.167  29.109  1.00  0.00     0.074 A 
ATOM     45  C   UNL A   1      46.328  24.805  28.738  1.00  0.00     0.031 C 
ATOM     46  C   UNL A   1      39.676  26.507  28.143  1.00  0.00     0.029 A 
ATOM     47  C   UNL A   1      40.558  27.546  28.664  1.00  0.00     0.049 A 
ATOM     48  H   UNL A   1      42.620  27.436  28.937  1.00  0.00     0.167 HD
ATOM     49  C   UNL A   1      46.920  27.067  29.553  1.00  0.00     0.031 A 
ATOM     50  C   UNL A   1      40.165  28.771  29.062  1.00  0.00     0.031 A 
ATOM     51  C   UNL A   1      46.608  28.424  29.916  1.00  0.00     0.049 A 
ATOM     52  C   UNL A   1      41.190  29.741  29.581  1.00  0.00     0.074 A 
ATOM     53  C   UNL A   1      47.471  29.428  30.320  1.00  0.00     0.029 A 
ATOM     54  N   UNL A   1      45.332  28.966  29.927  1.00  0.00    -0.354 N 
ATOM     55  N   UNL A   1      42.486  29.588  29.704  1.00  0.00    -0.248 NA
ATOM     56  C   UNL A   1      40.697  31.058  30.006  1.00  0.00     0.031 C 
ATOM     57  C   UNL A   1      46.711  30.558  30.637  1.00  0.00     0.029 A 
ATOM     58  C   UNL A   1      45.381  30.280  30.364  1.00  0.00     0.049 A 
ATOM     59  H   UNL A   1      44.512  28.489  29.664  1.00  0.00     0.167 HD
ATOM     60  C   UNL A   1      42.966  30.798  30.190  1.00  0.00     0.074 A 
ATOM     61  C   UNL A   1      41.824  31.679  30.323  1.00  0.00     0.031 C 
ATOM     62  C   UNL A   1      44.240  31.148  30.494  1.00  0.00     0.031 A 
BRANCH  49  63
ATOM     63  C   UNL A   1      48.346  26.605  29.687  1.00  0.00    -0.014 A 
ATOM     64  C   UNL A   1      49.259  26.734  28.628  1.00  0.00     0.009 A 
ATOM     65  C   UNL A   1      48.793  26.070  30.905  1.00  0.00     0.009 A 
ATOM     66  C   UNL A   1      50.579  26.299  28.773  1.00  0.00     0.001 A 
ATOM     67  C   UNL A   1      50.121  25.666  31.059  1.00  0.00     0.001 A 
ATOM     68  C   UNL A   1      51.009  25.770  29.989  1.00  0.00     0.000 A 
ENDBRANCH  49  63
BRANCH  50  69
ATOM     69  C   UNL A   1      38.732  29.161  28.975  1.00  0.00    -0.014 A 
ATOM     70  C   UNL A   1      37.888  29.019  30.088  1.00  0.00     0.009 A 
ATOM     71  C   UNL A   1      38.195  29.661  27.778  1.00  0.00     0.009 A 
ATOM     72  C   UNL A   1      36.533  29.343  29.996  1.00  0.00     0.001 A 
ATOM     73  C   UNL A   1      36.847  30.013  27.699  1.00  0.00     0.001 A 
ATOM     74  C   UNL A   1      36.015  29.843  28.803  1.00  0.00     0.000 A 
ENDBRANCH  50  69
BRANCH  62  75
ATOM     75  C   UNL A   1      44.474  32.558  30.963  1.00  0.00    -0.014 A 
ATOM     76  C   UNL A   1      44.470  32.887  32.328  1.00  0.00     0.009 A 
ATOM     77  C   UNL A   1      44.744  33.564  30.022  1.00  0.00     0.009 A 
ATOM     78  C   UNL A   1      44.694  34.203  32.737  1.00  0.00     0.001 A 
ATOM     79  C   UNL A   1      45.002  34.872  30.437  1.00  0.00     0.001 A 
ATOM     80  C   UNL A   1      44.966  35.193  31.792  1.00  0.00     0.000 A 
ENDBRANCH  62  75
ENDBRANCH  36  37
ENDBRANCH  28  31
ENDBRANCH  26  27
ENDBRANCH  25  26
ENDBRANCH  24  25
ENDBRANCH   1  24
TORSDOF 15
ENDMDL
MODEL 3
REMARK VINA RESULT:     -10.7      3.965      5.522
REMARK SMILES O=C(CSCC(=O)N1CCN(c2ccc(F)cc2)CC1)NCCCCNC(=O)c1ccc(-c2c3nc(c(-c4ccccc4)c4ccc([nH]4)c(-c4ccccc4)c4nc(c(-c5ccccc5)c5ccc2[nH]5)C=C4)C=C3)cc1
REMARK SMILES IDX 22 1 21 2 1 3 2 4 3 6 4 7 5 8 6 9 7 10 8 11 9 12 20 13 10 14
REMARK SMILES IDX 19 15 11 16 12 17 13 18 18 19 14 20 17 21 15 22 16 23 23 24
REMARK SMILES IDX 24 25 25 26 26 27 27 28 28 30 29 31 30 32 76 33 31 34 75 35
REMARK SMILES IDX 32 36 33 37 34 38 69 39 35 40 74 41 68 42 70 43 36 44 73 45
REMARK SMILES IDX 67 46 66 47 37 49 59 50 44 51 58 52 45 53 48 54 57 55 71 56
REMARK SMILES IDX 46 57 47 58 56 60 72 61 49 62 38 63 39 64 43 65 40 66 42 67
REMARK SMILES IDX 41 68 60 69 61 70 65 71 62 72 64 73 63 74 50 75 51 76 55 77
REMARK SMILES IDX 52 78 54 79 53 80
REMARK H PARENT 21 5 26 29 70 48 48 59
REMARK Flexibility Score: inf
ROOT
ATOM      1  C   UNL A   1      31.438  27.379  27.237  1.00  0.00     0.116 C 
ENDROOT
BRANCH   1   2
ATOM      2  N   UNL A   1      30.872  27.125  25.930  1.00  0.00    -0.355 N 
ATOM      3  O   UNL A   1      30.185  24.979  26.373  1.00  0.00    -0.274 OA
ATOM      4  C   UNL A   1      30.258  25.933  25.605  1.00  0.00     0.230 C 
ATOM      5  H   UNL A   1      30.927  27.830  25.246  1.00  0.00     0.163 HD
BRANCH   4   6
ATOM      6  C   UNL A   1      29.774  25.838  24.169  1.00  0.00     0.169 C 
BRANCH   6   7
ATOM      7  S   UNL A   1      29.616  27.466  23.372  1.00  0.00    -0.142 SA
BRANCH   7   8
ATOM      8  C   UNL A   1      31.187  27.570  22.470  1.00  0.00     0.170 C 
BRANCH   8   9
ATOM      9  C   UNL A   1      32.488  27.580  23.265  1.00  0.00     0.232 C 
ATOM     10  O   UNL A   1      32.836  28.627  23.821  1.00  0.00    -0.274 OA
ATOM     11  N   UNL A   1      33.147  26.389  23.521  1.00  0.00    -0.338 N 
ATOM     12  C   UNL A   1      34.035  26.307  24.696  1.00  0.00     0.141 C 
ATOM     13  C   UNL A   1      33.326  25.293  22.560  1.00  0.00     0.141 C 
ATOM     14  C   UNL A   1      33.950  24.925  25.385  1.00  0.00     0.138 C 
ATOM     15  C   UNL A   1      33.265  23.909  23.213  1.00  0.00     0.138 C 
ATOM     16  N   UNL A   1      34.130  23.865  24.389  1.00  0.00    -0.368 N 
BRANCH  16  17
ATOM     17  C   UNL A   1      35.077  22.882  24.535  1.00  0.00     0.037 A 
ATOM     18  C   UNL A   1      34.700  21.567  24.845  1.00  0.00     0.029 A 
ATOM     19  C   UNL A   1      36.440  23.164  24.392  1.00  0.00     0.029 A 
ATOM     20  C   UNL A   1      35.655  20.561  25.006  1.00  0.00     0.041 A 
ATOM     21  C   UNL A   1      37.403  22.167  24.572  1.00  0.00     0.041 A 
ATOM     22  C   UNL A   1      37.000  20.874  24.875  1.00  0.00     0.123 A 
ATOM     23  F   UNL A   1      37.919  19.915  25.043  1.00  0.00    -0.207 F 
ENDBRANCH  16  17
ENDBRANCH   8   9
ENDBRANCH   7   8
ENDBRANCH   6   7
ENDBRANCH   4   6
ENDBRANCH   1   2
BRANCH   1  24
ATOM     24  C   UNL A   1      31.917  28.822  27.390  1.00  0.00     0.023 C 
BRANCH  24  25
ATOM     25  C   UNL A   1      33.435  28.997  27.488  1.00  0.00     0.023 C 
BRANCH  25  26
ATOM     26  C   UNL A   1      33.967  30.375  27.104  1.00  0.00     0.116 C 
BRANCH  26  27
ATOM     27  N   UNL A   1      33.955  31.321  28.209  1.00  0.00    -0.352 N 
ATOM     28  C   UNL A   1      34.886  31.526  29.198  1.00  0.00     0.251 C 
ATOM     29  H   UNL A   1      33.159  31.899  28.256  1.00  0.00     0.163 HD
ATOM     30  O   UNL A   1      34.633  32.287  30.129  1.00  0.00    -0.269 OA
BRANCH  28  31
ATOM     31  C   UNL A   1      36.183  30.813  29.169  1.00  0.00     0.039 A 
ATOM     32  C   UNL A   1      36.937  30.836  27.992  1.00  0.00     0.014 A 
ATOM     33  C   UNL A   1      36.657  30.121  30.286  1.00  0.00     0.014 A 
ATOM     34  C   UNL A   1      38.196  30.229  27.959  1.00  0.00     0.010 A 
ATOM     35  C   UNL A   1      37.943  29.585  30.276  1.00  0.00     0.010 A 
ATOM     36  C   UNL A   1      38.729  29.635  29.115  1.00  0.00    -0.014 A 
BRANCH  36  37
ATOM     37  C   UNL A   1      40.107  29.079  29.129  1.00  0.00     0.031 A 
ATOM     38  C   UNL A   1      41.279  29.951  29.492  1.00  0.00     0.074 A 
ATOM     39  C   UNL A   1      40.315  27.802  28.752  1.00  0.00     0.049 A 
ATOM     40  N   UNL A   1      42.556  29.656  29.506  1.00  0.00    -0.248 NA
ATOM     41  C   UNL A   1      40.981  31.343  29.866  1.00  0.00     0.031 C 
ATOM     42  C   UNL A   1      39.274  26.856  28.344  1.00  0.00     0.029 A 
ATOM     43  N   UNL A   1      41.478  27.078  28.646  1.00  0.00    -0.354 N 
ATOM     44  C   UNL A   1      43.210  30.825  29.872  1.00  0.00     0.074 A 
ATOM     45  C   UNL A   1      42.197  31.846  30.022  1.00  0.00     0.031 C 
ATOM     46  C   UNL A   1      39.841  25.672  28.065  1.00  0.00     0.029 A 
ATOM     47  C   UNL A   1      41.286  25.783  28.226  1.00  0.00     0.049 A 
ATOM     48  H   UNL A   1      42.365  27.452  28.851  1.00  0.00     0.167 HD
ATOM     49  C   UNL A   1      44.533  31.029  30.081  1.00  0.00     0.031 A 
ATOM     50  C   UNL A   1      42.173  24.798  27.989  1.00  0.00     0.031 A 
ATOM     51  C   UNL A   1      45.543  30.013  29.938  1.00  0.00     0.049 A 
ATOM     52  C   UNL A   1      43.639  25.059  28.198  1.00  0.00     0.074 A 
ATOM     53  C   UNL A   1      46.901  30.109  30.185  1.00  0.00     0.029 A 
ATOM     54  N   UNL A   1      45.306  28.719  29.503  1.00  0.00    -0.354 N 
ATOM     55  N   UNL A   1      44.233  26.151  28.613  1.00  0.00    -0.248 NA
ATOM     56  C   UNL A   1      44.555  23.946  27.914  1.00  0.00     0.031 C 
ATOM     57  C   UNL A   1      47.496  28.892  29.838  1.00  0.00     0.029 A 
ATOM     58  C   UNL A   1      46.499  28.016  29.441  1.00  0.00     0.049 A 
ATOM     59  H   UNL A   1      44.422  28.353  29.271  1.00  0.00     0.167 HD
ATOM     60  C   UNL A   1      45.587  25.846  28.671  1.00  0.00     0.074 A 
ATOM     61  C   UNL A   1      45.723  24.463  28.264  1.00  0.00     0.031 C 
ATOM     62  C   UNL A   1      46.624  26.641  29.034  1.00  0.00     0.031 A 
BRANCH  49  63
ATOM     63  C   UNL A   1      44.969  32.415  30.473  1.00  0.00    -0.014 A 
ATOM     64  C   UNL A   1      45.306  33.377  29.507  1.00  0.00     0.009 A 
ATOM     65  C   UNL A   1      45.006  32.776  31.829  1.00  0.00     0.009 A 
ATOM     66  C   UNL A   1      45.709  34.657  29.893  1.00  0.00     0.001 A 
ATOM     67  C   UNL A   1      45.378  34.067  32.211  1.00  0.00     0.001 A 
ATOM     68  C   UNL A   1      45.740  35.002  31.243  1.00  0.00     0.000 A 
ENDBRANCH  49  63
BRANCH  50  69
ATOM     69  C   UNL A   1      41.700  23.462  27.536  1.00  0.00    -0.014 A 
ATOM     70  C   UNL A   1      41.312  22.490  28.472  1.00  0.00     0.009 A 
ATOM     71  C   UNL A   1      41.650  23.143  26.170  1.00  0.00     0.009 A 
ATOM     72  C   UNL A   1      40.911  21.220  28.051  1.00  0.00     0.001 A 
ATOM     73  C   UNL A   1      41.218  21.884  25.751  1.00  0.00     0.001 A 
ATOM     74  C   UNL A   1      40.860  20.920  26.691  1.00  0.00     0.000 A 
ENDBRANCH  50  69
BRANCH  62  75
ATOM     75  C   UNL A   1      47.995  26.023  29.046  1.00  0.00    -0.014 A 
ATOM     76  C   UNL A   1      48.685  25.744  27.855  1.00  0.00     0.009 A 
ATOM     77  C   UNL A   1      48.622  25.752  30.273  1.00  0.00     0.009 A 
ATOM     78  C   UNL A   1      49.959  25.174  27.895  1.00  0.00     0.001 A 
ATOM     79  C   UNL A   1      49.909  25.214  30.309  1.00  0.00     0.001 A 
ATOM     80  C   UNL A   1      50.572  24.915  29.121  1.00  0.00     0.000 A 
ENDBRANCH  62  75
ENDBRANCH  36  37
ENDBRANCH  28  31
ENDBRANCH  26  27
ENDBRANCH  25  26
ENDBRANCH  24  25
ENDBRANCH   1  24
TORSDOF 15
ENDMDL
