MODEL 1
REMARK VINA RESULT:      -9.8      0.000      0.000
REMARK SMILES CN(CC(N)=O)S(=O)(=O)c1ccc(C(=O)NCCCCNC(=O)c2ccc(-c3c4nc(c(-c5ccccc5)c5ccc([nH]5)c(-c5ccccc5)c5nc(c(-c6ccccc6)c6ccc3[nH]6)C=C5)C=C4)cc2)cc1Br
REMARK SMILES IDX 17 1 16 2 14 3 15 4 13 6 10 7 11 8 73 9 12 10 72 11 74 12
REMARK SMILES IDX 7 13 8 14 9 15 2 16 1 17 3 18 4 19 5 20 6 21 18 24 19 25
REMARK SMILES IDX 20 26 21 27 22 28 23 30 24 31 25 32 71 33 26 34 70 35 27 36
REMARK SMILES IDX 28 37 29 38 64 39 30 40 69 41 63 42 65 43 31 44 68 45 62 46
REMARK SMILES IDX 61 47 32 49 54 50 39 51 53 52 40 53 43 54 52 55 66 56 41 57
REMARK SMILES IDX 42 58 51 60 67 61 44 62 33 63 34 64 38 65 35 66 37 67 36 68
REMARK SMILES IDX 55 69 56 70 60 71 57 72 59 73 58 74 45 75 46 76 50 77 47 78
REMARK SMILES IDX 49 79 48 80
REMARK H PARENT 16 5 5 22 5 23 21 29 65 48 43 59
REMARK Flexibility Score: inf
ROOT
ATOM      1  C   UNL A   1      46.799  25.601  30.460  1.00  0.00     0.116 C 
ENDROOT
BRANCH   1   2
ATOM      2  N   UNL A   1      46.420  26.720  29.624  1.00  0.00    -0.352 N 
ATOM      3  C   UNL A   1      45.694  26.832  28.468  1.00  0.00     0.251 C 
ATOM      4  O   UNL A   1      45.599  27.967  27.994  1.00  0.00    -0.269 OA
ATOM      5  H   UNL A   1      46.754  27.584  29.957  1.00  0.00     0.163 HD
BRANCH   3   6
ATOM      6  C   UNL A   1      45.010  25.703  27.760  1.00  0.00     0.041 A 
ATOM      7  C   UNL A   1      43.801  23.653  26.219  1.00  0.00     0.096 A 
ATOM      8  C   UNL A   1      44.678  24.571  25.623  1.00  0.00     0.024 A 
ATOM      9  C   UNL A   1      43.504  23.776  27.572  1.00  0.00     0.038 A 
ATOM     10  C   UNL A   1      45.255  25.592  26.382  1.00  0.00     0.015 A 
ATOM     11  C   UNL A   1      44.155  24.763  28.338  1.00  0.00     0.031 A 
ATOM     12  Br  UNL A   1      42.204  22.753  28.509  1.00  0.00    -0.049 Br
BRANCH   7  13
ATOM     13  S   UNL A   1      43.149  22.376  25.172  1.00  0.00     0.244 S 
ATOM     14  O   UNL A   1      43.599  22.671  23.824  1.00  0.00    -0.207 OA
ATOM     15  O   UNL A   1      41.741  22.279  25.479  1.00  0.00    -0.207 OA
BRANCH  13  16
ATOM     16  N   UNL A   1      43.912  20.934  25.633  1.00  0.00    -0.192 NA
ATOM     17  C   UNL A   1      42.980  19.785  25.740  1.00  0.00     0.125 C 
BRANCH  16  18
ATOM     18  C   UNL A   1      45.189  20.572  24.975  1.00  0.00     0.201 C 
BRANCH  18  19
ATOM     19  C   UNL A   1      45.333  19.140  24.506  1.00  0.00     0.232 C 
ATOM     20  N   UNL A   1      45.272  18.946  23.155  1.00  0.00    -0.369 N 
ATOM     21  O   UNL A   1      45.524  18.197  25.268  1.00  0.00    -0.274 OA
ATOM     22  H   UNL A   1      45.117  19.711  22.555  1.00  0.00     0.159 HD
ATOM     23  H   UNL A   1      45.383  18.042  22.782  1.00  0.00     0.159 HD
ENDBRANCH  18  19
ENDBRANCH  16  18
ENDBRANCH  13  16
ENDBRANCH   7  13
ENDBRANCH   3   6
ENDBRANCH   1   2
BRANCH   1  24
ATOM     24  C   UNL A   1      46.506  25.901  31.934  1.00  0.00     0.023 C 
BRANCH  24  25
ATOM     25  C   UNL A   1      47.633  25.484  32.885  1.00  0.00     0.023 C 
BRANCH  25  26
ATOM     26  C   UNL A   1      47.194  24.568  34.024  1.00  0.00     0.116 C 
BRANCH  26  27
ATOM     27  N   UNL A   1      47.550  25.075  35.339  1.00  0.00    -0.352 N 
ATOM     28  C   UNL A   1      46.980  26.113  36.034  1.00  0.00     0.251 C 
ATOM     29  H   UNL A   1      48.295  24.615  35.789  1.00  0.00     0.163 HD
ATOM     30  O   UNL A   1      47.462  26.487  37.098  1.00  0.00    -0.269 OA
BRANCH  28  31
ATOM     31  C   UNL A   1      45.813  26.814  35.462  1.00  0.00     0.039 A 
ATOM     32  C   UNL A   1      46.012  28.055  34.855  1.00  0.00     0.014 A 
ATOM     33  C   UNL A   1      44.539  26.241  35.502  1.00  0.00     0.014 A 
ATOM     34  C   UNL A   1      44.941  28.697  34.230  1.00  0.00     0.010 A 
ATOM     35  C   UNL A   1      43.488  26.850  34.825  1.00  0.00     0.010 A 
ATOM     36  C   UNL A   1      43.679  28.084  34.185  1.00  0.00    -0.014 A 
BRANCH  36  37
ATOM     37  C   UNL A   1      42.548  28.720  33.469  1.00  0.00     0.031 A 
ATOM     38  C   UNL A   1      41.657  29.698  34.182  1.00  0.00     0.074 A 
ATOM     39  C   UNL A   1      42.288  28.372  32.195  1.00  0.00     0.049 A 
ATOM     40  N   UNL A   1      40.601  30.328  33.734  1.00  0.00    -0.248 NA
ATOM     41  C   UNL A   1      41.979  29.985  35.588  1.00  0.00     0.031 C 
ATOM     42  C   UNL A   1      43.048  27.397  31.409  1.00  0.00     0.029 A 
ATOM     43  N   UNL A   1      41.305  28.797  31.337  1.00  0.00    -0.354 N 
ATOM     44  C   UNL A   1      40.122  31.068  34.807  1.00  0.00     0.074 A 
ATOM     45  C   UNL A   1      40.976  30.775  35.939  1.00  0.00     0.031 C 
ATOM     46  C   UNL A   1      42.520  27.320  30.176  1.00  0.00     0.029 A 
ATOM     47  C   UNL A   1      41.370  28.215  30.095  1.00  0.00     0.049 A 
ATOM     48  H   UNL A   1      40.619  29.457  31.589  1.00  0.00     0.167 HD
ATOM     49  C   UNL A   1      39.078  31.930  34.845  1.00  0.00     0.031 A 
ATOM     50  C   UNL A   1      40.591  28.386  29.011  1.00  0.00     0.031 A 
ATOM     51  C   UNL A   1      38.241  32.236  33.717  1.00  0.00     0.049 A 
ATOM     52  C   UNL A   1      39.451  29.362  29.071  1.00  0.00     0.074 A 
ATOM     53  C   UNL A   1      37.199  33.143  33.637  1.00  0.00     0.029 A 
ATOM     54  N   UNL A   1      38.355  31.643  32.469  1.00  0.00    -0.354 N 
ATOM     55  N   UNL A   1      39.055  30.109  30.073  1.00  0.00    -0.248 NA
ATOM     56  C   UNL A   1      38.658  29.527  27.845  1.00  0.00     0.031 C 
ATOM     57  C   UNL A   1      36.657  33.072  32.349  1.00  0.00     0.029 A 
ATOM     58  C   UNL A   1      37.390  32.152  31.616  1.00  0.00     0.049 A 
ATOM     59  H   UNL A   1      39.023  30.961  32.225  1.00  0.00     0.167 HD
ATOM     60  C   UNL A   1      37.986  30.851  29.591  1.00  0.00     0.074 A 
ATOM     61  C   UNL A   1      37.803  30.474  28.205  1.00  0.00     0.031 C 
ATOM     62  C   UNL A   1      37.223  31.765  30.240  1.00  0.00     0.031 A 
BRANCH  49  63
ATOM     63  C   UNL A   1      38.785  32.598  36.158  1.00  0.00    -0.014 A 
ATOM     64  C   UNL A   1      37.957  31.987  37.113  1.00  0.00     0.009 A 
ATOM     65  C   UNL A   1      39.360  33.843  36.452  1.00  0.00     0.009 A 
ATOM     66  C   UNL A   1      37.679  32.629  38.322  1.00  0.00     0.001 A 
ATOM     67  C   UNL A   1      39.102  34.471  37.672  1.00  0.00     0.001 A 
ATOM     68  C   UNL A   1      38.254  33.868  38.601  1.00  0.00     0.000 A 
ENDBRANCH  49  63
BRANCH  50  69
ATOM     69  C   UNL A   1      40.884  27.638  27.762  1.00  0.00    -0.014 A 
ATOM     70  C   UNL A   1      40.260  26.407  27.511  1.00  0.00     0.009 A 
ATOM     71  C   UNL A   1      41.787  28.149  26.817  1.00  0.00     0.009 A 
ATOM     72  C   UNL A   1      40.551  25.690  26.349  1.00  0.00     0.001 A 
ATOM     73  C   UNL A   1      42.058  27.440  25.645  1.00  0.00     0.001 A 
ATOM     74  C   UNL A   1      41.447  26.208  25.416  1.00  0.00     0.000 A 
ENDBRANCH  50  69
BRANCH  62  75
ATOM     75  C   UNL A   1      36.143  32.440  29.446  1.00  0.00    -0.014 A 
ATOM     76  C   UNL A   1      34.944  31.777  29.142  1.00  0.00     0.009 A 
ATOM     77  C   UNL A   1      36.315  33.769  29.030  1.00  0.00     0.009 A 
ATOM     78  C   UNL A   1      33.949  32.425  28.408  1.00  0.00     0.001 A 
ATOM     79  C   UNL A   1      35.308  34.422  28.318  1.00  0.00     0.001 A 
ATOM     80  C   UNL A   1      34.129  33.747  28.001  1.00  0.00     0.000 A 
ENDBRANCH  62  75
ENDBRANCH  36  37
ENDBRANCH  28  31
ENDBRANCH  26  27
ENDBRANCH  25  26
ENDBRANCH  24  25
ENDBRANCH   1  24
TORSDOF 15
ENDMDL
MODEL 2
REMARK VINA RESULT:      -9.7      0.579      5.938
REMARK SMILES CN(CC(N)=O)S(=O)(=O)c1ccc(C(=O)NCCCCNC(=O)c2ccc(-c3c4nc(c(-c5ccccc5)c5ccc([nH]5)c(-c5ccccc5)c5nc(c(-c6ccccc6)c6ccc3[nH]6)C=C5)C=C4)cc2)cc1Br
REMARK SMILES IDX 17 1 16 2 14 3 15 4 13 6 10 7 11 8 73 9 12 10 72 11 74 12
REMARK SMILES IDX 7 13 8 14 9 15 2 16 1 17 3 18 4 19 5 20 6 21 18 24 19 25
REMARK SMILES IDX 20 26 21 27 22 28 23 30 24 31 25 32 71 33 26 34 70 35 27 36
REMARK SMILES IDX 28 37 29 38 64 39 30 40 69 41 63 42 65 43 31 44 68 45 62 46
REMARK SMILES IDX 61 47 32 49 54 50 39 51 53 52 40 53 43 54 52 55 66 56 41 57
REMARK SMILES IDX 42 58 51 60 67 61 44 62 33 63 34 64 38 65 35 66 37 67 36 68
REMARK SMILES IDX 55 69 56 70 60 71 57 72 59 73 58 74 45 75 46 76 50 77 47 78
REMARK SMILES IDX 49 79 48 80
REMARK H PARENT 16 5 5 22 5 23 21 29 65 48 43 59
REMARK Flexibility Score: inf
ROOT
ATOM      1  C   UNL A   1      46.887  25.805  30.283  1.00  0.00     0.116 C 
ENDROOT
BRANCH   1   2
ATOM      2  N   UNL A   1      46.343  26.893  29.499  1.00  0.00    -0.352 N 
ATOM      3  C   UNL A   1      45.548  26.950  28.386  1.00  0.00     0.251 C 
ATOM      4  O   UNL A   1      45.304  28.077  27.949  1.00  0.00    -0.269 OA
ATOM      5  H   UNL A   1      46.599  27.781  29.838  1.00  0.00     0.163 HD
BRANCH   3   6
ATOM      6  C   UNL A   1      44.955  25.768  27.683  1.00  0.00     0.041 A 
ATOM      7  C   UNL A   1      43.932  23.610  26.154  1.00  0.00     0.096 A 
ATOM      8  C   UNL A   1      44.839  24.518  25.589  1.00  0.00     0.024 A 
ATOM      9  C   UNL A   1      43.512  23.796  27.467  1.00  0.00     0.038 A 
ATOM     10  C   UNL A   1      45.324  25.592  26.339  1.00  0.00     0.015 A 
ATOM     11  C   UNL A   1      44.070  24.838  28.233  1.00  0.00     0.031 A 
ATOM     12  Br  UNL A   1      42.155  22.790  28.340  1.00  0.00    -0.049 Br
BRANCH   7  13
ATOM     13  S   UNL A   1      43.403  22.264  25.125  1.00  0.00     0.244 S 
ATOM     14  O   UNL A   1      43.892  22.544  23.788  1.00  0.00    -0.207 OA
ATOM     15  O   UNL A   1      41.991  22.090  25.376  1.00  0.00    -0.207 OA
BRANCH  13  16
ATOM     16  N   UNL A   1      44.230  20.886  25.665  1.00  0.00    -0.192 NA
ATOM     17  C   UNL A   1      43.379  19.673  25.716  1.00  0.00     0.125 C 
BRANCH  16  18
ATOM     18  C   UNL A   1      45.578  20.614  25.114  1.00  0.00     0.201 C 
BRANCH  18  19
ATOM     19  C   UNL A   1      45.982  19.160  24.987  1.00  0.00     0.232 C 
ATOM     20  N   UNL A   1      46.450  18.569  26.127  1.00  0.00    -0.369 N 
ATOM     21  O   UNL A   1      45.877  18.519  23.946  1.00  0.00    -0.274 OA
ATOM     22  H   UNL A   1      46.529  19.095  26.956  1.00  0.00     0.159 HD
ATOM     23  H   UNL A   1      46.706  17.619  26.119  1.00  0.00     0.159 HD
ENDBRANCH  18  19
ENDBRANCH  16  18
ENDBRANCH  13  16
ENDBRANCH   7  13
ENDBRANCH   3   6
ENDBRANCH   1   2
BRANCH   1  24
ATOM     24  C   UNL A   1      46.464  25.928  31.750  1.00  0.00     0.023 C 
BRANCH  24  25
ATOM     25  C   UNL A   1      47.440  25.270  32.732  1.00  0.00     0.023 C 
BRANCH  25  26
ATOM     26  C   UNL A   1      46.803  24.245  33.667  1.00  0.00     0.116 C 
BRANCH  26  27
ATOM     27  N   UNL A   1      47.050  24.517  35.073  1.00  0.00    -0.352 N 
ATOM     28  C   UNL A   1      46.425  25.431  35.886  1.00  0.00     0.251 C 
ATOM     29  H   UNL A   1      47.756  23.977  35.497  1.00  0.00     0.163 HD
ATOM     30  O   UNL A   1      46.819  25.612  37.033  1.00  0.00    -0.269 OA
BRANCH  28  31
ATOM     31  C   UNL A   1      45.309  26.234  35.349  1.00  0.00     0.039 A 
ATOM     32  C   UNL A   1      45.580  27.520  34.878  1.00  0.00     0.014 A 
ATOM     33  C   UNL A   1      44.013  25.715  35.288  1.00  0.00     0.014 A 
ATOM     34  C   UNL A   1      44.559  28.266  34.286  1.00  0.00     0.010 A 
ATOM     35  C   UNL A   1      43.013  26.433  34.641  1.00  0.00     0.010 A 
ATOM     36  C   UNL A   1      43.276  27.715  34.136  1.00  0.00    -0.014 A 
BRANCH  36  37
ATOM     37  C   UNL A   1      42.199  28.468  33.451  1.00  0.00     0.031 A 
ATOM     38  C   UNL A   1      41.912  28.221  31.997  1.00  0.00     0.074 A 
ATOM     39  C   UNL A   1      41.521  29.417  34.124  1.00  0.00     0.049 A 
ATOM     40  N   UNL A   1      41.036  28.805  31.220  1.00  0.00    -0.248 NA
ATOM     41  C   UNL A   1      42.732  27.204  31.322  1.00  0.00     0.031 C 
ATOM     42  C   UNL A   1      41.741  29.787  35.524  1.00  0.00     0.029 A 
ATOM     43  N   UNL A   1      40.510  30.249  33.714  1.00  0.00    -0.354 N 
ATOM     44  C   UNL A   1      41.214  28.242  29.963  1.00  0.00     0.074 A 
ATOM     45  C   UNL A   1      42.309  27.303  30.071  1.00  0.00     0.031 C 
ATOM     46  C   UNL A   1      40.871  30.752  35.864  1.00  0.00     0.029 A 
ATOM     47  C   UNL A   1      40.056  31.088  34.702  1.00  0.00     0.049 A 
ATOM     48  H   UNL A   1      40.145  30.245  32.800  1.00  0.00     0.167 HD
ATOM     49  C   UNL A   1      40.517  28.470  28.825  1.00  0.00     0.031 A 
ATOM     50  C   UNL A   1      39.087  32.022  34.674  1.00  0.00     0.031 A 
ATOM     51  C   UNL A   1      39.416  29.389  28.721  1.00  0.00     0.049 A 
ATOM     52  C   UNL A   1      38.314  32.244  33.405  1.00  0.00     0.074 A 
ATOM     53  C   UNL A   1      38.604  29.643  27.629  1.00  0.00     0.029 A 
ATOM     54  N   UNL A   1      38.970  30.203  29.751  1.00  0.00    -0.354 N 
ATOM     55  N   UNL A   1      38.447  31.650  32.244  1.00  0.00    -0.248 NA
ATOM     56  C   UNL A   1      37.249  33.255  33.449  1.00  0.00     0.031 C 
ATOM     57  C   UNL A   1      37.690  30.640  27.987  1.00  0.00     0.029 A 
ATOM     58  C   UNL A   1      37.905  30.973  29.315  1.00  0.00     0.049 A 
ATOM     59  H   UNL A   1      39.354  30.228  30.657  1.00  0.00     0.167 HD
ATOM     60  C   UNL A   1      37.467  32.196  31.427  1.00  0.00     0.074 A 
ATOM     61  C   UNL A   1      36.739  33.158  32.228  1.00  0.00     0.031 C 
ATOM     62  C   UNL A   1      37.193  31.925  30.127  1.00  0.00     0.031 A 
BRANCH  49  63
ATOM     63  C   UNL A   1      40.934  27.710  27.599  1.00  0.00    -0.014 A 
ATOM     64  C   UNL A   1      40.363  26.465  27.287  1.00  0.00     0.009 A 
ATOM     65  C   UNL A   1      41.896  28.252  26.733  1.00  0.00     0.009 A 
ATOM     66  C   UNL A   1      40.774  25.762  26.153  1.00  0.00     0.001 A 
ATOM     67  C   UNL A   1      42.286  27.560  25.585  1.00  0.00     0.001 A 
ATOM     68  C   UNL A   1      41.732  26.311  25.302  1.00  0.00     0.000 A 
ENDBRANCH  49  63
BRANCH  50  69
ATOM     69  C   UNL A   1      38.770  32.799  35.900  1.00  0.00    -0.014 A 
ATOM     70  C   UNL A   1      37.825  32.317  36.818  1.00  0.00     0.009 A 
ATOM     71  C   UNL A   1      39.408  34.021  36.157  1.00  0.00     0.009 A 
ATOM     72  C   UNL A   1      37.508  33.056  37.960  1.00  0.00     0.001 A 
ATOM     73  C   UNL A   1      39.106  34.746  37.311  1.00  0.00     0.001 A 
ATOM     74  C   UNL A   1      38.151  34.267  38.207  1.00  0.00     0.000 A 
ENDBRANCH  50  69
BRANCH  62  75
ATOM     75  C   UNL A   1      36.041  32.656  29.504  1.00  0.00    -0.014 A 
ATOM     76  C   UNL A   1      34.747  32.111  29.507  1.00  0.00     0.009 A 
ATOM     77  C   UNL A   1      36.247  33.924  28.940  1.00  0.00     0.009 A 
ATOM     78  C   UNL A   1      33.688  32.811  28.928  1.00  0.00     0.001 A 
ATOM     79  C   UNL A   1      35.181  34.632  28.384  1.00  0.00     0.001 A 
ATOM     80  C   UNL A   1      33.904  34.071  28.371  1.00  0.00     0.000 A 
ENDBRANCH  62  75
ENDBRANCH  36  37
ENDBRANCH  28  31
ENDBRANCH  26  27
ENDBRANCH  25  26
ENDBRANCH  24  25
ENDBRANCH   1  24
TORSDOF 15
ENDMDL
MODEL 3
REMARK VINA RESULT:      -9.7      5.299     10.169
REMARK SMILES CN(CC(N)=O)S(=O)(=O)c1ccc(C(=O)NCCCCNC(=O)c2ccc(-c3c4nc(c(-c5ccccc5)c5ccc([nH]5)c(-c5ccccc5)c5nc(c(-c6ccccc6)c6ccc3[nH]6)C=C5)C=C4)cc2)cc1Br
REMARK SMILES IDX 17 1 16 2 14 3 15 4 13 6 10 7 11 8 73 9 12 10 72 11 74 12
REMARK SMILES IDX 7 13 8 14 9 15 2 16 1 17 3 18 4 19 5 20 6 21 18 24 19 25
REMARK SMILES IDX 20 26 21 27 22 28 23 30 24 31 25 32 71 33 26 34 70 35 27 36
REMARK SMILES IDX 28 37 29 38 64 39 30 40 69 41 63 42 65 43 31 44 68 45 62 46
REMARK SMILES IDX 61 47 32 49 54 50 39 51 53 52 40 53 43 54 52 55 66 56 41 57
REMARK SMILES IDX 42 58 51 60 67 61 44 62 33 63 34 64 38 65 35 66 37 67 36 68
REMARK SMILES IDX 55 69 56 70 60 71 57 72 59 73 58 74 45 75 46 76 50 77 47 78
REMARK SMILES IDX 49 79 48 80
REMARK H PARENT 16 5 5 22 5 23 21 29 65 48 43 59
REMARK Flexibility Score: inf
ROOT
ATOM      1  C   UNL A   1      33.265  29.487  26.670  1.00  0.00     0.116 C 
ENDROOT
BRANCH   1   2
ATOM      2  N   UNL A   1      33.605  29.387  25.267  1.00  0.00    -0.352 N 
ATOM      3  C   UNL A   1      33.642  28.347  24.376  1.00  0.00     0.251 C 
ATOM      4  O   UNL A   1      34.026  28.621  23.236  1.00  0.00    -0.269 OA
ATOM      5  H   UNL A   1      33.865  30.248  24.868  1.00  0.00     0.163 HD
BRANCH   3   6
ATOM      6  C   UNL A   1      33.244  26.935  24.675  1.00  0.00     0.041 A 
ATOM      7  C   UNL A   1      32.684  24.244  25.373  1.00  0.00     0.096 A 
ATOM      8  C   UNL A   1      33.746  24.932  25.978  1.00  0.00     0.024 A 
ATOM      9  C   UNL A   1      31.924  24.885  24.401  1.00  0.00     0.038 A 
ATOM     10  C   UNL A   1      34.031  26.251  25.615  1.00  0.00     0.015 A 
ATOM     11  C   UNL A   1      32.176  26.238  24.104  1.00  0.00     0.031 A 
ATOM     12  Br  UNL A   1      30.576  24.063  23.341  1.00  0.00    -0.049 Br
BRANCH   7  13
ATOM     13  S   UNL A   1      32.388  22.585  25.930  1.00  0.00     0.244 S 
ATOM     14  O   UNL A   1      30.956  22.459  26.125  1.00  0.00    -0.207 OA
ATOM     15  O   UNL A   1      33.307  22.352  27.020  1.00  0.00    -0.207 OA
BRANCH  13  16
ATOM     16  N   UNL A   1      32.794  21.561  24.642  1.00  0.00    -0.192 NA
ATOM     17  C   UNL A   1      34.239  21.583  24.306  1.00  0.00     0.125 C 
BRANCH  16  18
ATOM     18  C   UNL A   1      32.227  20.192  24.625  1.00  0.00     0.201 C 
BRANCH  18  19
ATOM     19  C   UNL A   1      33.052  19.104  25.278  1.00  0.00     0.232 C 
ATOM     20  N   UNL A   1      32.983  19.041  26.641  1.00  0.00    -0.369 N 
ATOM     21  O   UNL A   1      33.724  18.295  24.645  1.00  0.00    -0.274 OA
ATOM     22  H   UNL A   1      32.441  19.696  27.137  1.00  0.00     0.159 HD
ATOM     23  H   UNL A   1      33.476  18.341  27.127  1.00  0.00     0.159 HD
ENDBRANCH  18  19
ENDBRANCH  16  18
ENDBRANCH  13  16
ENDBRANCH   7  13
ENDBRANCH   3   6
ENDBRANCH   1   2
BRANCH   1  24
ATOM     24  C   UNL A   1      31.808  29.927  26.845  1.00  0.00     0.023 C 
BRANCH  24  25
ATOM     25  C   UNL A   1      31.593  31.435  26.678  1.00  0.00     0.023 C 
BRANCH  25  26
ATOM     26  C   UNL A   1      32.816  32.288  27.005  1.00  0.00     0.116 C 
BRANCH  26  27
ATOM     27  N   UNL A   1      32.479  33.601  27.529  1.00  0.00    -0.352 N 
ATOM     28  C   UNL A   1      33.153  34.341  28.468  1.00  0.00     0.251 C 
ATOM     29  H   UNL A   1      31.662  34.012  27.163  1.00  0.00     0.163 HD
ATOM     30  O   UNL A   1      32.683  35.396  28.882  1.00  0.00    -0.269 OA
BRANCH  28  31
ATOM     31  C   UNL A   1      34.424  33.829  29.018  1.00  0.00     0.039 A 
ATOM     32  C   UNL A   1      34.378  32.987  30.131  1.00  0.00     0.014 A 
ATOM     33  C   UNL A   1      35.648  34.157  28.427  1.00  0.00     0.014 A 
ATOM     34  C   UNL A   1      35.558  32.421  30.616  1.00  0.00     0.010 A 
ATOM     35  C   UNL A   1      36.814  33.542  28.871  1.00  0.00     0.010 A 
ATOM     36  C   UNL A   1      36.780  32.670  29.970  1.00  0.00    -0.014 A 
BRANCH  36  37
ATOM     37  C   UNL A   1      38.031  32.025  30.432  1.00  0.00     0.031 A 
ATOM     38  C   UNL A   1      38.863  32.669  31.504  1.00  0.00     0.074 A 
ATOM     39  C   UNL A   1      38.450  30.890  29.841  1.00  0.00     0.049 A 
ATOM     40  N   UNL A   1      40.002  32.275  32.013  1.00  0.00    -0.248 NA
ATOM     41  C   UNL A   1      38.361  33.935  32.062  1.00  0.00     0.031 C 
ATOM     42  C   UNL A   1      37.759  30.193  28.753  1.00  0.00     0.029 A 
ATOM     43  N   UNL A   1      39.565  30.123  30.072  1.00  0.00    -0.354 N 
ATOM     44  C   UNL A   1      40.363  33.252  32.931  1.00  0.00     0.074 A 
ATOM     45  C   UNL A   1      39.344  34.278  32.880  1.00  0.00     0.031 C 
ATOM     46  C   UNL A   1      38.451  29.087  28.431  1.00  0.00     0.029 A 
ATOM     47  C   UNL A   1      39.645  29.014  29.267  1.00  0.00     0.049 A 
ATOM     48  H   UNL A   1      40.242  30.348  30.751  1.00  0.00     0.167 HD
ATOM     49  C   UNL A   1      41.434  33.283  33.759  1.00  0.00     0.031 A 
ATOM     50  C   UNL A   1      40.576  28.044  29.209  1.00  0.00     0.031 A 
ATOM     51  C   UNL A   1      42.436  32.255  33.825  1.00  0.00     0.049 A 
ATOM     52  C   UNL A   1      41.746  28.092  30.151  1.00  0.00     0.074 A 
ATOM     53  C   UNL A   1      43.525  32.164  34.675  1.00  0.00     0.029 A 
ATOM     54  N   UNL A   1      42.469  31.135  33.009  1.00  0.00    -0.354 N 
ATOM     55  N   UNL A   1      42.034  28.986  31.065  1.00  0.00    -0.248 NA
ATOM     56  C   UNL A   1      42.711  26.987  30.061  1.00  0.00     0.031 C 
ATOM     57  C   UNL A   1      44.239  31.006  34.347  1.00  0.00     0.029 A 
ATOM     58  C   UNL A   1      43.569  30.355  33.323  1.00  0.00     0.049 A 
ATOM     59  H   UNL A   1      41.808  30.925  32.310  1.00  0.00     0.167 HD
ATOM     60  C   UNL A   1      43.198  28.539  31.676  1.00  0.00     0.074 A 
ATOM     61  C   UNL A   1      43.555  27.289  31.038  1.00  0.00     0.031 C 
ATOM     62  C   UNL A   1      43.908  29.114  32.678  1.00  0.00     0.031 A 
BRANCH  49  63
ATOM     63  C   UNL A   1      41.574  34.479  34.657  1.00  0.00    -0.014 A 
ATOM     64  C   UNL A   1      41.006  34.491  35.942  1.00  0.00     0.009 A 
ATOM     65  C   UNL A   1      42.298  35.599  34.223  1.00  0.00     0.009 A 
ATOM     66  C   UNL A   1      41.130  35.617  36.758  1.00  0.00     0.001 A 
ATOM     67  C   UNL A   1      42.442  36.714  35.052  1.00  0.00     0.001 A 
ATOM     68  C   UNL A   1      41.849  36.725  36.314  1.00  0.00     0.000 A 
ENDBRANCH  49  63
BRANCH  50  69
ATOM     69  C   UNL A   1      40.424  26.925  28.245  1.00  0.00    -0.014 A 
ATOM     70  C   UNL A   1      40.967  27.024  26.955  1.00  0.00     0.009 A 
ATOM     71  C   UNL A   1      39.737  25.757  28.608  1.00  0.00     0.009 A 
ATOM     72  C   UNL A   1      40.805  25.983  26.038  1.00  0.00     0.001 A 
ATOM     73  C   UNL A   1      39.597  24.709  27.696  1.00  0.00     0.001 A 
ATOM     74  C   UNL A   1      40.123  24.826  26.411  1.00  0.00     0.000 A 
ENDBRANCH  50  69
BRANCH  62  75
ATOM     75  C   UNL A   1      45.122  28.378  33.163  1.00  0.00    -0.014 A 
ATOM     76  C   UNL A   1      45.037  27.446  34.208  1.00  0.00     0.009 A 
ATOM     77  C   UNL A   1      46.361  28.596  32.540  1.00  0.00     0.009 A 
ATOM     78  C   UNL A   1      46.178  26.768  34.641  1.00  0.00     0.001 A 
ATOM     79  C   UNL A   1      47.494  27.898  32.958  1.00  0.00     0.001 A 
ATOM     80  C   UNL A   1      47.404  26.991  34.013  1.00  0.00     0.000 A 
ENDBRANCH  62  75
ENDBRANCH  36  37
ENDBRANCH  28  31
ENDBRANCH  26  27
ENDBRANCH  25  26
ENDBRANCH  24  25
ENDBRANCH   1  24
TORSDOF 15
ENDMDL
