MODEL 1
REMARK VINA RESULT:     -13.3      0.000      0.000
REMARK SMILES O=C(CCN1C(=O)[C@@H]2[C@@H](C1=O)[C@H]1c3ccccc3[C@]2(Br)c2ccccc21)NCCCCNC(=O)c1ccc(-c2c3nc(c(-c4ccccc4)c4ccc([nH]4)c(-c4ccccc4)c4nc(c(-c5ccccc5)c5ccc2[nH]5)C=C4)C=C3)cc1
REMARK SMILES IDX 29 1 28 2 27 3 1 4 2 5 3 7 4 8 5 9 6 10 10 11 7 12 8 13 9 14
REMARK SMILES IDX 11 15 19 16 12 17 21 18 20 19 18 20 26 21 13 22 22 23 17 24
REMARK SMILES IDX 25 25 14 26 23 27 16 28 24 29 15 30 30 31 31 32 32 33 33 34
REMARK SMILES IDX 34 36 35 37 36 38 82 39 37 40 81 41 38 42 39 43 40 44 75 45
REMARK SMILES IDX 41 46 80 47 74 48 76 49 42 50 79 51 73 52 72 53 43 55 65 56
REMARK SMILES IDX 50 57 64 58 51 59 54 60 63 61 77 62 52 63 53 64 62 66 78 67
REMARK SMILES IDX 55 68 44 69 45 70 49 71 46 72 48 73 47 74 66 75 67 76 71 77
REMARK SMILES IDX 68 78 70 79 69 80 56 81 57 82 61 83 58 84 60 85 59 86
REMARK H PARENT 27 6 32 35 76 54 54 65
REMARK Flexibility Score: inf
ROOT
ATOM      1  C   UNL A   1      39.229  21.419  26.086  1.00  0.00     0.023 C 
ENDROOT
BRANCH   1   2
ATOM      2  C   UNL A   1      38.099  21.131  25.083  1.00  0.00     0.116 C 
BRANCH   2   3
ATOM      3  N   UNL A   1      36.834  21.799  25.404  1.00  0.00    -0.356 N 
ATOM      4  O   UNL A   1      36.510  22.674  23.299  1.00  0.00    -0.275 OA
ATOM      5  C   UNL A   1      36.127  22.521  24.456  1.00  0.00     0.221 C 
ATOM      6  H   UNL A   1      36.476  21.731  26.319  1.00  0.00     0.163 HD
BRANCH   5   7
ATOM      7  C   UNL A   1      34.831  23.158  24.933  1.00  0.00     0.122 C 
BRANCH   7   8
ATOM      8  C   UNL A   1      33.652  22.905  23.984  1.00  0.00     0.138 C 
BRANCH   8   9
ATOM      9  N   UNL A   1      32.831  24.087  23.779  1.00  0.00    -0.281 N 
ATOM     10  C   UNL A   1      33.187  25.142  22.924  1.00  0.00     0.235 C 
ATOM     11  C   UNL A   1      31.682  24.373  24.507  1.00  0.00     0.234 C 
ATOM     12  O   UNL A   1      34.029  25.152  22.053  1.00  0.00    -0.274 OA
ATOM     13  C   UNL A   1      32.487  26.296  23.559  1.00  0.00     0.118 C 
ATOM     14  C   UNL A   1      31.145  25.629  23.887  1.00  0.00     0.105 C 
ATOM     15  O   UNL A   1      31.177  23.743  25.415  1.00  0.00    -0.274 OA
ATOM     16  C   UNL A   1      32.288  27.804  23.341  1.00  0.00     0.088 C 
ATOM     17  C   UNL A   1      30.267  26.624  24.637  1.00  0.00     0.063 C 
ATOM     18  C   UNL A   1      32.205  28.197  24.855  1.00  0.00    -0.022 A 
ATOM     19  Br  UNL A   1      33.790  28.561  22.411  1.00  0.00    -0.074 Br
ATOM     20  C   UNL A   1      30.898  28.228  22.827  1.00  0.00    -0.022 A 
ATOM     21  C   UNL A   1      31.167  27.451  25.548  1.00  0.00    -0.035 A 
ATOM     22  C   UNL A   1      29.818  27.631  23.562  1.00  0.00    -0.035 A 
ATOM     23  C   UNL A   1      33.078  28.994  25.562  1.00  0.00     0.006 A 
ATOM     24  C   UNL A   1      30.629  29.343  22.032  1.00  0.00     0.006 A 
ATOM     25  C   UNL A   1      31.065  27.444  26.916  1.00  0.00     0.005 A 
ATOM     26  C   UNL A   1      28.526  28.148  23.501  1.00  0.00     0.005 A 
ATOM     27  C   UNL A   1      32.965  28.971  26.941  1.00  0.00     0.000 A 
ATOM     28  C   UNL A   1      29.331  29.862  21.985  1.00  0.00     0.000 A 
ATOM     29  C   UNL A   1      32.001  28.184  27.603  1.00  0.00     0.000 A 
ATOM     30  C   UNL A   1      28.291  29.273  22.714  1.00  0.00     0.000 A 
ENDBRANCH   8   9
ENDBRANCH   7   8
ENDBRANCH   5   7
ENDBRANCH   2   3
ENDBRANCH   1   2
BRANCH   1  31
ATOM     31  C   UNL A   1      40.297  20.323  26.279  1.00  0.00     0.023 C 
BRANCH  31  32
ATOM     32  C   UNL A   1      41.768  20.729  26.020  1.00  0.00     0.116 C 
BRANCH  32  33
ATOM     33  N   UNL A   1      41.884  22.133  25.541  1.00  0.00    -0.352 N 
ATOM     34  C   UNL A   1      42.710  23.079  26.145  1.00  0.00     0.251 C 
ATOM     35  H   UNL A   1      41.351  22.407  24.759  1.00  0.00     0.163 HD
ATOM     36  O   UNL A   1      43.922  22.941  26.227  1.00  0.00    -0.269 OA
BRANCH  34  37
ATOM     37  C   UNL A   1      42.034  24.276  26.747  1.00  0.00     0.039 A 
ATOM     38  C   UNL A   1      42.604  25.530  26.550  1.00  0.00     0.014 A 
ATOM     39  C   UNL A   1      40.933  24.190  27.594  1.00  0.00     0.014 A 
ATOM     40  C   UNL A   1      42.284  26.598  27.416  1.00  0.00     0.010 A 
ATOM     41  C   UNL A   1      40.491  25.332  28.311  1.00  0.00     0.010 A 
ATOM     42  C   UNL A   1      41.227  26.538  28.342  1.00  0.00    -0.014 A 
BRANCH  42  43
ATOM     43  C   UNL A   1      40.947  27.640  29.373  1.00  0.00     0.031 A 
ATOM     44  C   UNL A   1      41.853  27.821  30.598  1.00  0.00     0.074 A 
ATOM     45  C   UNL A   1      39.950  28.557  29.272  1.00  0.00     0.049 A 
ATOM     46  N   UNL A   1      41.630  28.480  31.716  1.00  0.00    -0.248 NA
ATOM     47  C   UNL A   1      43.169  27.166  30.570  1.00  0.00     0.031 C 
ATOM     48  C   UNL A   1      38.993  28.690  28.177  1.00  0.00     0.029 A 
ATOM     49  N   UNL A   1      39.590  29.594  30.124  1.00  0.00    -0.354 N 
ATOM     50  C   UNL A   1      42.715  28.219  32.550  1.00  0.00     0.074 A 
ATOM     51  C   UNL A   1      43.599  27.343  31.811  1.00  0.00     0.031 C 
ATOM     52  C   UNL A   1      38.243  29.787  28.362  1.00  0.00     0.029 A 
ATOM     53  C   UNL A   1      38.542  30.362  29.668  1.00  0.00     0.049 A 
ATOM     54  H   UNL A   1      40.045  29.764  30.980  1.00  0.00     0.167 HD
ATOM     55  C   UNL A   1      42.977  28.663  33.806  1.00  0.00     0.031 A 
ATOM     56  C   UNL A   1      37.835  31.373  30.222  1.00  0.00     0.031 A 
ATOM     57  C   UNL A   1      42.211  29.649  34.526  1.00  0.00     0.049 A 
ATOM     58  C   UNL A   1      38.098  31.828  31.631  1.00  0.00     0.074 A 
ATOM     59  C   UNL A   1      42.451  30.158  35.795  1.00  0.00     0.029 A 
ATOM     60  N   UNL A   1      41.104  30.316  34.038  1.00  0.00    -0.354 N 
ATOM     61  N   UNL A   1      39.039  31.450  32.458  1.00  0.00    -0.248 NA
ATOM     62  C   UNL A   1      37.174  32.828  32.199  1.00  0.00     0.031 C 
ATOM     63  C   UNL A   1      41.464  31.100  36.091  1.00  0.00     0.029 A 
ATOM     64  C   UNL A   1      40.646  31.221  34.983  1.00  0.00     0.049 A 
ATOM     65  H   UNL A   1      40.702  30.170  33.152  1.00  0.00     0.167 HD
ATOM     66  C   UNL A   1      38.823  32.161  33.633  1.00  0.00     0.074 A 
ATOM     67  C   UNL A   1      37.680  33.017  33.411  1.00  0.00     0.031 C 
ATOM     68  C   UNL A   1      39.517  32.091  34.793  1.00  0.00     0.031 A 
BRANCH  55  69
ATOM     69  C   UNL A   1      44.159  28.077  34.537  1.00  0.00    -0.014 A 
ATOM     70  C   UNL A   1      43.958  26.957  35.365  1.00  0.00     0.009 A 
ATOM     71  C   UNL A   1      45.421  28.686  34.517  1.00  0.00     0.009 A 
ATOM     72  C   UNL A   1      44.990  26.469  36.168  1.00  0.00     0.001 A 
ATOM     73  C   UNL A   1      46.463  28.173  35.294  1.00  0.00     0.001 A 
ATOM     74  C   UNL A   1      46.244  27.075  36.126  1.00  0.00     0.000 A 
ENDBRANCH  55  69
BRANCH  56  75
ATOM     75  C   UNL A   1      36.725  32.004  29.448  1.00  0.00    -0.014 A 
ATOM     76  C   UNL A   1      36.932  33.206  28.751  1.00  0.00     0.009 A 
ATOM     77  C   UNL A   1      35.453  31.413  29.414  1.00  0.00     0.009 A 
ATOM     78  C   UNL A   1      35.879  33.830  28.079  1.00  0.00     0.001 A 
ATOM     79  C   UNL A   1      34.411  32.020  28.709  1.00  0.00     0.001 A 
ATOM     80  C   UNL A   1      34.620  33.234  28.055  1.00  0.00     0.000 A 
ENDBRANCH  56  75
BRANCH  68  81
ATOM     81  C   UNL A   1      39.103  32.974  35.939  1.00  0.00    -0.014 A 
ATOM     82  C   UNL A   1      39.673  34.250  36.080  1.00  0.00     0.009 A 
ATOM     83  C   UNL A   1      38.232  32.510  36.935  1.00  0.00     0.009 A 
ATOM     84  C   UNL A   1      39.392  35.036  37.201  1.00  0.00     0.001 A 
ATOM     85  C   UNL A   1      37.933  33.308  38.044  1.00  0.00     0.001 A 
ATOM     86  C   UNL A   1      38.520  34.565  38.180  1.00  0.00     0.000 A 
ENDBRANCH  68  81
ENDBRANCH  42  43
ENDBRANCH  34  37
ENDBRANCH  32  33
ENDBRANCH  31  32
ENDBRANCH   1  31
TORSDOF 13
ENDMDL
MODEL 2
REMARK VINA RESULT:     -13.0      4.149      9.667
REMARK SMILES O=C(CCN1C(=O)[C@@H]2[C@@H](C1=O)[C@H]1c3ccccc3[C@]2(Br)c2ccccc21)NCCCCNC(=O)c1ccc(-c2c3nc(c(-c4ccccc4)c4ccc([nH]4)c(-c4ccccc4)c4nc(c(-c5ccccc5)c5ccc2[nH]5)C=C4)C=C3)cc1
REMARK SMILES IDX 29 1 28 2 27 3 1 4 2 5 3 7 4 8 5 9 6 10 10 11 7 12 8 13 9 14
REMARK SMILES IDX 11 15 19 16 12 17 21 18 20 19 18 20 26 21 13 22 22 23 17 24
REMARK SMILES IDX 25 25 14 26 23 27 16 28 24 29 15 30 30 31 31 32 32 33 33 34
REMARK SMILES IDX 34 36 35 37 36 38 82 39 37 40 81 41 38 42 39 43 40 44 75 45
REMARK SMILES IDX 41 46 80 47 74 48 76 49 42 50 79 51 73 52 72 53 43 55 65 56
REMARK SMILES IDX 50 57 64 58 51 59 54 60 63 61 77 62 52 63 53 64 62 66 78 67
REMARK SMILES IDX 55 68 44 69 45 70 49 71 46 72 48 73 47 74 66 75 67 76 71 77
REMARK SMILES IDX 68 78 70 79 69 80 56 81 57 82 61 83 58 84 60 85 59 86
REMARK H PARENT 27 6 32 35 76 54 54 65
REMARK Flexibility Score: inf
ROOT
ATOM      1  C   UNL A   1      33.692  31.817  27.502  1.00  0.00     0.023 C 
ENDROOT
BRANCH   1   2
ATOM      2  C   UNL A   1      32.435  31.106  26.973  1.00  0.00     0.116 C 
BRANCH   2   3
ATOM      3  N   UNL A   1      32.716  29.867  26.242  1.00  0.00    -0.356 N 
ATOM      4  O   UNL A   1      31.427  28.520  27.593  1.00  0.00    -0.275 OA
ATOM      5  C   UNL A   1      32.164  28.653  26.619  1.00  0.00     0.221 C 
ATOM      6  H   UNL A   1      33.313  29.898  25.459  1.00  0.00     0.163 HD
BRANCH   5   7
ATOM      7  C   UNL A   1      32.543  27.453  25.766  1.00  0.00     0.122 C 
BRANCH   7   8
ATOM      8  C   UNL A   1      31.326  26.665  25.263  1.00  0.00     0.138 C 
BRANCH   8   9
ATOM      9  N   UNL A   1      31.616  25.255  25.054  1.00  0.00    -0.281 N 
ATOM     10  C   UNL A   1      31.733  24.324  26.096  1.00  0.00     0.235 C 
ATOM     11  C   UNL A   1      31.951  24.704  23.822  1.00  0.00     0.234 C 
ATOM     12  O   UNL A   1      31.372  24.433  27.248  1.00  0.00    -0.274 OA
ATOM     13  C   UNL A   1      32.663  23.319  25.502  1.00  0.00     0.118 C 
ATOM     14  C   UNL A   1      32.072  23.232  24.089  1.00  0.00     0.105 C 
ATOM     15  O   UNL A   1      32.079  25.256  22.748  1.00  0.00    -0.274 OA
ATOM     16  C   UNL A   1      33.338  21.990  25.874  1.00  0.00     0.088 C 
ATOM     17  C   UNL A   1      32.933  22.297  23.248  1.00  0.00     0.063 C 
ATOM     18  C   UNL A   1      34.658  22.224  25.064  1.00  0.00    -0.022 A 
ATOM     19  Br  UNL A   1      33.592  21.865  27.775  1.00  0.00    -0.074 Br
ATOM     20  C   UNL A   1      32.765  20.733  25.191  1.00  0.00    -0.022 A 
ATOM     21  C   UNL A   1      34.387  22.498  23.662  1.00  0.00    -0.035 A 
ATOM     22  C   UNL A   1      32.600  20.888  23.772  1.00  0.00    -0.035 A 
ATOM     23  C   UNL A   1      35.935  22.356  25.563  1.00  0.00     0.006 A 
ATOM     24  C   UNL A   1      32.760  19.445  25.726  1.00  0.00     0.006 A 
ATOM     25  C   UNL A   1      35.354  22.969  22.811  1.00  0.00     0.005 A 
ATOM     26  C   UNL A   1      32.446  19.786  22.935  1.00  0.00     0.005 A 
ATOM     27  C   UNL A   1      36.898  22.837  24.694  1.00  0.00     0.000 A 
ATOM     28  C   UNL A   1      32.616  18.343  24.877  1.00  0.00     0.000 A 
ATOM     29  C   UNL A   1      36.603  23.170  23.355  1.00  0.00     0.000 A 
ATOM     30  C   UNL A   1      32.464  18.511  23.496  1.00  0.00     0.000 A 
ENDBRANCH   8   9
ENDBRANCH   7   8
ENDBRANCH   5   7
ENDBRANCH   2   3
ENDBRANCH   1   2
BRANCH   1  31
ATOM     31  C   UNL A   1      33.519  33.255  28.032  1.00  0.00     0.023 C 
BRANCH  31  32
ATOM     32  C   UNL A   1      34.000  33.528  29.479  1.00  0.00     0.116 C 
BRANCH  32  33
ATOM     33  N   UNL A   1      34.373  32.274  30.188  1.00  0.00    -0.352 N 
ATOM     34  C   UNL A   1      35.535  32.146  30.947  1.00  0.00     0.251 C 
ATOM     35  H   UNL A   1      33.771  31.499  30.118  1.00  0.00     0.163 HD
ATOM     36  O   UNL A   1      35.765  32.843  31.926  1.00  0.00    -0.269 OA
BRANCH  34  37
ATOM     37  C   UNL A   1      36.536  31.131  30.479  1.00  0.00     0.039 A 
ATOM     38  C   UNL A   1      37.321  30.485  31.429  1.00  0.00     0.014 A 
ATOM     39  C   UNL A   1      36.808  30.884  29.137  1.00  0.00     0.014 A 
ATOM     40  C   UNL A   1      38.533  29.870  31.047  1.00  0.00     0.010 A 
ATOM     41  C   UNL A   1      37.922  30.087  28.767  1.00  0.00     0.010 A 
ATOM     42  C   UNL A   1      38.891  29.661  29.704  1.00  0.00    -0.014 A 
BRANCH  42  43
ATOM     43  C   UNL A   1      40.257  29.110  29.271  1.00  0.00     0.031 A 
ATOM     44  C   UNL A   1      41.515  29.987  29.329  1.00  0.00     0.074 A 
ATOM     45  C   UNL A   1      40.482  27.831  28.871  1.00  0.00     0.049 A 
ATOM     46  N   UNL A   1      42.683  29.816  28.747  1.00  0.00    -0.248 NA
ATOM     47  C   UNL A   1      41.445  31.218  30.130  1.00  0.00     0.031 C 
ATOM     48  C   UNL A   1      39.502  26.752  28.804  1.00  0.00     0.029 A 
ATOM     49  N   UNL A   1      41.654  27.210  28.458  1.00  0.00    -0.354 N 
ATOM     50  C   UNL A   1      43.429  30.963  29.017  1.00  0.00     0.074 A 
ATOM     51  C   UNL A   1      42.583  31.822  29.817  1.00  0.00     0.031 C 
ATOM     52  C   UNL A   1      40.116  25.601  28.489  1.00  0.00     0.029 A 
ATOM     53  C   UNL A   1      41.513  25.871  28.170  1.00  0.00     0.049 A 
ATOM     54  H   UNL A   1      42.512  27.686  28.377  1.00  0.00     0.167 HD
ATOM     55  C   UNL A   1      44.697  31.284  28.655  1.00  0.00     0.031 A 
ATOM     56  C   UNL A   1      42.356  24.948  27.653  1.00  0.00     0.031 A 
ATOM     57  C   UNL A   1      45.629  30.409  27.992  1.00  0.00     0.049 A 
ATOM     58  C   UNL A   1      43.744  25.323  27.209  1.00  0.00     0.074 A 
ATOM     59  C   UNL A   1      46.942  30.677  27.626  1.00  0.00     0.029 A 
ATOM     60  N   UNL A   1      45.385  29.095  27.644  1.00  0.00    -0.354 N 
ATOM     61  N   UNL A   1      44.371  26.464  27.335  1.00  0.00    -0.248 NA
ATOM     62  C   UNL A   1      44.530  24.285  26.515  1.00  0.00     0.031 C 
ATOM     63  C   UNL A   1      47.476  29.539  27.019  1.00  0.00     0.029 A 
ATOM     64  C   UNL A   1      46.516  28.545  27.060  1.00  0.00     0.049 A 
ATOM     65  H   UNL A   1      44.535  28.621  27.788  1.00  0.00     0.167 HD
ATOM     66  C   UNL A   1      45.616  26.282  26.742  1.00  0.00     0.074 A 
ATOM     67  C   UNL A   1      45.674  24.915  26.280  1.00  0.00     0.031 C 
ATOM     68  C   UNL A   1      46.611  27.188  26.594  1.00  0.00     0.031 A 
BRANCH  55  69
ATOM     69  C   UNL A   1      45.190  32.680  28.949  1.00  0.00    -0.014 A 
ATOM     70  C   UNL A   1      45.131  33.649  27.932  1.00  0.00     0.009 A 
ATOM     71  C   UNL A   1      45.818  33.005  30.159  1.00  0.00     0.009 A 
ATOM     72  C   UNL A   1      45.704  34.909  28.114  1.00  0.00     0.001 A 
ATOM     73  C   UNL A   1      46.358  34.280  30.352  1.00  0.00     0.001 A 
ATOM     74  C   UNL A   1      46.311  35.225  29.328  1.00  0.00     0.000 A 
ENDBRANCH  55  69
BRANCH  56  75
ATOM     75  C   UNL A   1      41.879  23.549  27.451  1.00  0.00    -0.014 A 
ATOM     76  C   UNL A   1      40.984  23.241  26.413  1.00  0.00     0.009 A 
ATOM     77  C   UNL A   1      42.306  22.519  28.303  1.00  0.00     0.009 A 
ATOM     78  C   UNL A   1      40.488  21.944  26.262  1.00  0.00     0.001 A 
ATOM     79  C   UNL A   1      41.838  21.214  28.125  1.00  0.00     0.001 A 
ATOM     80  C   UNL A   1      40.917  20.931  27.116  1.00  0.00     0.000 A 
ENDBRANCH  56  75
BRANCH  68  81
ATOM     81  C   UNL A   1      47.887  26.756  25.924  1.00  0.00    -0.014 A 
ATOM     82  C   UNL A   1      48.930  26.211  26.691  1.00  0.00     0.009 A 
ATOM     83  C   UNL A   1      48.103  26.984  24.557  1.00  0.00     0.009 A 
ATOM     84  C   UNL A   1      50.166  25.916  26.108  1.00  0.00     0.001 A 
ATOM     85  C   UNL A   1      49.332  26.666  23.971  1.00  0.00     0.001 A 
ATOM     86  C   UNL A   1      50.363  26.141  24.747  1.00  0.00     0.000 A 
ENDBRANCH  68  81
ENDBRANCH  42  43
ENDBRANCH  34  37
ENDBRANCH  32  33
ENDBRANCH  31  32
ENDBRANCH   1  31
TORSDOF 13
ENDMDL
MODEL 3
REMARK VINA RESULT:     -12.9      4.399      9.755
REMARK SMILES O=C(CCN1C(=O)[C@@H]2[C@@H](C1=O)[C@H]1c3ccccc3[C@]2(Br)c2ccccc21)NCCCCNC(=O)c1ccc(-c2c3nc(c(-c4ccccc4)c4ccc([nH]4)c(-c4ccccc4)c4nc(c(-c5ccccc5)c5ccc2[nH]5)C=C4)C=C3)cc1
REMARK SMILES IDX 29 1 28 2 27 3 1 4 2 5 3 7 4 8 5 9 6 10 10 11 7 12 8 13 9 14
REMARK SMILES IDX 11 15 19 16 12 17 21 18 20 19 18 20 26 21 13 22 22 23 17 24
REMARK SMILES IDX 25 25 14 26 23 27 16 28 24 29 15 30 30 31 31 32 32 33 33 34
REMARK SMILES IDX 34 36 35 37 36 38 82 39 37 40 81 41 38 42 39 43 40 44 75 45
REMARK SMILES IDX 41 46 80 47 74 48 76 49 42 50 79 51 73 52 72 53 43 55 65 56
REMARK SMILES IDX 50 57 64 58 51 59 54 60 63 61 77 62 52 63 53 64 62 66 78 67
REMARK SMILES IDX 55 68 44 69 45 70 49 71 46 72 48 73 47 74 66 75 67 76 71 77
REMARK SMILES IDX 68 78 70 79 69 80 56 81 57 82 61 83 58 84 60 85 59 86
REMARK H PARENT 27 6 32 35 76 54 54 65
REMARK Flexibility Score: inf
ROOT
ATOM      1  C   UNL A   1      34.451  31.633  27.655  1.00  0.00     0.023 C 
ENDROOT
BRANCH   1   2
ATOM      2  C   UNL A   1      33.118  30.925  27.363  1.00  0.00     0.116 C 
BRANCH   2   3
ATOM      3  N   UNL A   1      33.254  29.714  26.548  1.00  0.00    -0.356 N 
ATOM      4  O   UNL A   1      31.502  28.591  27.534  1.00  0.00    -0.275 OA
ATOM      5  C   UNL A   1      32.404  28.630  26.702  1.00  0.00     0.221 C 
ATOM      6  H   UNL A   1      33.967  29.671  25.871  1.00  0.00     0.163 HD
BRANCH   5   7
ATOM      7  C   UNL A   1      32.664  27.444  25.786  1.00  0.00     0.122 C 
BRANCH   7   8
ATOM      8  C   UNL A   1      31.393  26.647  25.460  1.00  0.00     0.138 C 
BRANCH   8   9
ATOM      9  N   UNL A   1      31.664  25.246  25.183  1.00  0.00    -0.281 N 
ATOM     10  C   UNL A   1      31.793  24.267  26.181  1.00  0.00     0.235 C 
ATOM     11  C   UNL A   1      31.966  24.746  23.922  1.00  0.00     0.234 C 
ATOM     12  O   UNL A   1      31.458  24.330  27.344  1.00  0.00    -0.274 OA
ATOM     13  C   UNL A   1      32.699  23.281  25.523  1.00  0.00     0.118 C 
ATOM     14  C   UNL A   1      32.077  23.263  24.121  1.00  0.00     0.105 C 
ATOM     15  O   UNL A   1      32.076  25.344  22.870  1.00  0.00    -0.274 OA
ATOM     16  C   UNL A   1      33.368  21.931  25.822  1.00  0.00     0.088 C 
ATOM     17  C   UNL A   1      32.910  22.357  23.221  1.00  0.00     0.063 C 
ATOM     18  C   UNL A   1      34.673  22.188  24.994  1.00  0.00    -0.022 A 
ATOM     19  Br  UNL A   1      33.662  21.719  27.710  1.00  0.00    -0.074 Br
ATOM     20  C   UNL A   1      32.768  20.711  25.096  1.00  0.00    -0.022 A 
ATOM     21  C   UNL A   1      34.374  22.526  23.612  1.00  0.00    -0.035 A 
ATOM     22  C   UNL A   1      32.574  20.930  23.690  1.00  0.00    -0.035 A 
ATOM     23  C   UNL A   1      35.962  22.286  25.470  1.00  0.00     0.006 A 
ATOM     24  C   UNL A   1      32.761  19.400  25.575  1.00  0.00     0.006 A 
ATOM     25  C   UNL A   1      35.328  23.025  22.761  1.00  0.00     0.005 A 
ATOM     26  C   UNL A   1      32.390  19.867  22.809  1.00  0.00     0.005 A 
ATOM     27  C   UNL A   1      36.911  22.795  24.602  1.00  0.00     0.000 A 
ATOM     28  C   UNL A   1      32.587  18.338  24.681  1.00  0.00     0.000 A 
ATOM     29  C   UNL A   1      36.590  23.189  23.286  1.00  0.00     0.000 A 
ATOM     30  C   UNL A   1      32.407  18.569  23.313  1.00  0.00     0.000 A 
ENDBRANCH   8   9
ENDBRANCH   7   8
ENDBRANCH   5   7
ENDBRANCH   2   3
ENDBRANCH   1   2
BRANCH   1  31
ATOM     31  C   UNL A   1      34.400  32.901  28.531  1.00  0.00     0.023 C 
BRANCH  31  32
ATOM     32  C   UNL A   1      34.740  32.727  30.032  1.00  0.00     0.116 C 
BRANCH  32  33
ATOM     33  N   UNL A   1      35.132  31.329  30.357  1.00  0.00    -0.352 N 
ATOM     34  C   UNL A   1      36.263  31.010  31.105  1.00  0.00     0.251 C 
ATOM     35  H   UNL A   1      34.565  30.596  30.027  1.00  0.00     0.163 HD
ATOM     36  O   UNL A   1      36.421  31.389  32.257  1.00  0.00    -0.269 OA
BRANCH  34  37
ATOM     37  C   UNL A   1      37.324  30.206  30.412  1.00  0.00     0.039 A 
ATOM     38  C   UNL A   1      38.120  29.358  31.175  1.00  0.00     0.014 A 
ATOM     39  C   UNL A   1      37.636  30.349  29.063  1.00  0.00     0.014 A 
ATOM     40  C   UNL A   1      39.370  28.924  30.681  1.00  0.00     0.010 A 
ATOM     41  C   UNL A   1      38.797  29.733  28.528  1.00  0.00     0.010 A 
ATOM     42  C   UNL A   1      39.766  29.108  29.345  1.00  0.00    -0.014 A 
BRANCH  42  43
ATOM     43  C   UNL A   1      41.167  28.756  28.825  1.00  0.00     0.031 A 
ATOM     44  C   UNL A   1      41.477  27.354  28.285  1.00  0.00     0.074 A 
ATOM     45  C   UNL A   1      42.202  29.632  28.741  1.00  0.00     0.049 A 
ATOM     46  N   UNL A   1      42.641  26.774  28.078  1.00  0.00    -0.248 NA
ATOM     47  C   UNL A   1      40.336  26.490  27.949  1.00  0.00     0.031 C 
ATOM     48  C   UNL A   1      42.178  31.049  29.093  1.00  0.00     0.029 A 
ATOM     49  N   UNL A   1      43.506  29.446  28.297  1.00  0.00    -0.354 N 
ATOM     50  C   UNL A   1      42.365  25.459  27.707  1.00  0.00     0.074 A 
ATOM     51  C   UNL A   1      40.924  25.325  27.714  1.00  0.00     0.031 C 
ATOM     52  C   UNL A   1      43.345  31.618  28.755  1.00  0.00     0.029 A 
ATOM     53  C   UNL A   1      44.275  30.588  28.309  1.00  0.00     0.049 A 
ATOM     54  H   UNL A   1      43.849  28.573  27.998  1.00  0.00     0.167 HD
ATOM     55  C   UNL A   1      43.210  24.449  27.377  1.00  0.00     0.031 A 
ATOM     56  C   UNL A   1      45.585  30.815  28.061  1.00  0.00     0.031 A 
ATOM     57  C   UNL A   1      44.636  24.568  27.209  1.00  0.00     0.049 A 
ATOM     58  C   UNL A   1      46.526  29.685  27.744  1.00  0.00     0.074 A 
ATOM     59  C   UNL A   1      45.540  23.579  26.846  1.00  0.00     0.029 A 
ATOM     60  N   UNL A   1      45.362  25.737  27.332  1.00  0.00    -0.354 N 
ATOM     61  N   UNL A   1      46.260  28.419  27.552  1.00  0.00    -0.248 NA
ATOM     62  C   UNL A   1      47.961  30.014  27.644  1.00  0.00     0.031 C 
ATOM     63  C   UNL A   1      46.817  24.139  26.792  1.00  0.00     0.029 A 
ATOM     64  C   UNL A   1      46.700  25.490  27.062  1.00  0.00     0.049 A 
ATOM     65  H   UNL A   1      44.986  26.613  27.575  1.00  0.00     0.167 HD
ATOM     66  C   UNL A   1      47.484  27.804  27.310  1.00  0.00     0.074 A 
ATOM     67  C   UNL A   1      48.495  28.835  27.348  1.00  0.00     0.031 C 
ATOM     68  C   UNL A   1      47.731  26.492  27.086  1.00  0.00     0.031 A 
BRANCH  55  69
ATOM     69  C   UNL A   1      42.631  23.070  27.180  1.00  0.00    -0.014 A 
ATOM     70  C   UNL A   1      42.080  22.738  25.929  1.00  0.00     0.009 A 
ATOM     71  C   UNL A   1      42.511  22.158  28.236  1.00  0.00     0.009 A 
ATOM     72  C   UNL A   1      41.408  21.529  25.744  1.00  0.00     0.001 A 
ATOM     73  C   UNL A   1      41.871  20.931  28.038  1.00  0.00     0.001 A 
ATOM     74  C   UNL A   1      41.311  20.623  26.798  1.00  0.00     0.000 A 
ENDBRANCH  55  69
BRANCH  56  75
ATOM     75  C   UNL A   1      46.124  32.202  28.174  1.00  0.00    -0.014 A 
ATOM     76  C   UNL A   1      46.589  32.690  29.407  1.00  0.00     0.009 A 
ATOM     77  C   UNL A   1      46.162  33.047  27.055  1.00  0.00     0.009 A 
ATOM     78  C   UNL A   1      47.035  34.008  29.528  1.00  0.00     0.001 A 
ATOM     79  C   UNL A   1      46.644  34.353  27.171  1.00  0.00     0.001 A 
ATOM     80  C   UNL A   1      47.065  34.838  28.410  1.00  0.00     0.000 A 
ENDBRANCH  56  75
BRANCH  68  81
ATOM     81  C   UNL A   1      49.149  26.057  26.833  1.00  0.00    -0.014 A 
ATOM     82  C   UNL A   1      49.923  25.549  27.889  1.00  0.00     0.009 A 
ATOM     83  C   UNL A   1      49.754  26.244  25.582  1.00  0.00     0.009 A 
ATOM     84  C   UNL A   1      51.276  25.252  27.703  1.00  0.00     0.001 A 
ATOM     85  C   UNL A   1      51.101  25.923  25.391  1.00  0.00     0.001 A 
ATOM     86  C   UNL A   1      51.863  25.437  26.452  1.00  0.00     0.000 A 
ENDBRANCH  68  81
ENDBRANCH  42  43
ENDBRANCH  34  37
ENDBRANCH  32  33
ENDBRANCH  31  32
ENDBRANCH   1  31
TORSDOF 13
ENDMDL
