MODEL 1
REMARK VINA RESULT:     -12.2      0.000      0.000
REMARK SMILES CC[C@@H]1C=CCN1S(=O)(=O)c1sc2c(c1C(=O)NCCCCNC(=O)c1ccc(-c3c4nc(c(-c5ccccc5)c5ccc([nH]5)c(-c5ccccc5)c5nc(c(-c6ccccc6)c6ccc3[nH]6)C=C5)C=C4)cc1)CC[NH2+]C2
REMARK SMILES IDX 20 1 19 2 18 3 16 4 17 5 15 7 11 8 12 9 13 10 14 11 77 12
REMARK SMILES IDX 74 13 76 14 75 15 8 18 9 19 10 20 7 21 3 22 4 23 5 24 6 25
REMARK SMILES IDX 2 26 1 27 21 28 22 29 23 30 24 31 25 33 26 34 27 35 73 36
REMARK SMILES IDX 28 37 72 38 29 39 30 40 31 41 66 42 32 43 71 44 65 45 67 46
REMARK SMILES IDX 33 47 70 48 64 49 63 50 34 52 56 53 41 54 55 55 42 56 45 57
REMARK SMILES IDX 54 58 68 59 43 60 44 61 53 63 69 64 46 65 35 66 36 67 40 68
REMARK SMILES IDX 37 69 39 70 38 71 57 72 58 73 62 74 59 75 61 76 60 77 47 78
REMARK SMILES IDX 48 79 52 80 49 81 51 82 50 83
REMARK H PARENT 18 6 76 16 76 17 23 32 67 51 45 62
REMARK Flexibility Score: inf
ROOT
ATOM      1  C   UNL A   1      37.138  21.103  24.516  1.00  0.00     0.023 C 
ENDROOT
BRANCH   1   2
ATOM      2  C   UNL A   1      36.891  22.269  25.464  1.00  0.00     0.116 C 
BRANCH   2   3
ATOM      3  N   UNL A   1      35.886  22.121  26.475  1.00  0.00    -0.352 N 
ATOM      4  C   UNL A   1      34.586  21.677  26.380  1.00  0.00     0.253 C 
ATOM      5  O   UNL A   1      34.073  21.438  27.480  1.00  0.00    -0.269 OA
ATOM      6  H   UNL A   1      36.170  22.378  27.382  1.00  0.00     0.163 HD
BRANCH   4   7
ATOM      7  C   UNL A   1      33.757  21.603  25.143  1.00  0.00     0.074 A 
ATOM      8  C   UNL A   1      33.206  22.588  24.289  1.00  0.00     0.148 A 
ATOM      9  S   UNL A   1      32.319  21.857  22.986  1.00  0.00    -0.120 S 
ATOM     10  C   UNL A   1      32.640  20.297  23.468  1.00  0.00     0.064 A 
ATOM     11  C   UNL A   1      33.464  20.253  24.569  1.00  0.00    -0.009 A 
ATOM     12  C   UNL A   1      32.124  19.128  22.683  1.00  0.00     0.308 C 
ATOM     13  C   UNL A   1      33.920  18.888  25.053  1.00  0.00     0.099 C 
ATOM     14  N   UNL A   1      32.272  17.873  23.434  1.00  0.00    -0.342 N 
ATOM     15  C   UNL A   1      33.630  17.785  24.000  1.00  0.00     0.265 C 
ATOM     16  H   UNL A   1      31.587  17.849  24.190  1.00  0.00     0.346 HD
ATOM     17  H   UNL A   1      32.117  17.084  22.805  1.00  0.00     0.346 HD
BRANCH   8  18
ATOM     18  S   UNL A   1      33.155  24.412  24.060  1.00  0.00     0.254 S 
ATOM     19  O   UNL A   1      32.415  24.645  22.827  1.00  0.00    -0.206 OA
ATOM     20  O   UNL A   1      34.512  24.874  24.146  1.00  0.00    -0.206 OA
BRANCH  18  21
ATOM     21  N   UNL A   1      32.233  25.093  25.359  1.00  0.00    -0.186 NA
ATOM     22  C   UNL A   1      32.142  26.604  25.368  1.00  0.00     0.096 C 
ATOM     23  C   UNL A   1      30.682  26.866  25.170  1.00  0.00    -0.010 C 
ATOM     24  C   UNL A   1      29.963  25.752  25.286  1.00  0.00    -0.013 C 
ATOM     25  C   UNL A   1      30.833  24.565  25.471  1.00  0.00     0.130 C 
BRANCH  22  26
ATOM     26  C   UNL A   1      32.673  27.149  26.719  1.00  0.00     0.021 C 
ATOM     27  C   UNL A   1      31.750  28.083  27.508  1.00  0.00     0.006 C 
ENDBRANCH  22  26
ENDBRANCH  18  21
ENDBRANCH   8  18
ENDBRANCH   4   7
ENDBRANCH   2   3
ENDBRANCH   1   2
BRANCH   1  28
ATOM     28  C   UNL A   1      37.920  19.890  25.023  1.00  0.00     0.023 C 
BRANCH  28  29
ATOM     29  C   UNL A   1      39.136  20.190  25.890  1.00  0.00     0.116 C 
BRANCH  29  30
ATOM     30  N   UNL A   1      40.220  19.207  25.812  1.00  0.00    -0.352 N 
ATOM     31  C   UNL A   1      41.585  19.458  25.894  1.00  0.00     0.251 C 
ATOM     32  H   UNL A   1      39.954  18.267  25.689  1.00  0.00     0.163 HD
ATOM     33  O   UNL A   1      42.412  18.645  25.498  1.00  0.00    -0.269 OA
BRANCH  31  34
ATOM     34  C   UNL A   1      42.020  20.735  26.492  1.00  0.00     0.039 A 
ATOM     35  C   UNL A   1      42.491  21.812  25.732  1.00  0.00     0.014 A 
ATOM     36  C   UNL A   1      41.880  20.848  27.871  1.00  0.00     0.014 A 
ATOM     37  C   UNL A   1      42.730  23.029  26.375  1.00  0.00     0.010 A 
ATOM     38  C   UNL A   1      41.913  22.083  28.455  1.00  0.00     0.010 A 
ATOM     39  C   UNL A   1      42.414  23.159  27.737  1.00  0.00    -0.014 A 
BRANCH  39  40
ATOM     40  C   UNL A   1      42.483  24.440  28.432  1.00  0.00     0.031 A 
ATOM     41  C   UNL A   1      41.361  25.360  28.119  1.00  0.00     0.074 A 
ATOM     42  C   UNL A   1      43.340  24.666  29.455  1.00  0.00     0.049 A 
ATOM     43  N   UNL A   1      41.419  26.465  27.454  1.00  0.00    -0.248 NA
ATOM     44  C   UNL A   1      39.990  24.934  28.448  1.00  0.00     0.031 C 
ATOM     45  C   UNL A   1      44.279  23.719  30.076  1.00  0.00     0.029 A 
ATOM     46  N   UNL A   1      43.470  25.764  30.248  1.00  0.00    -0.354 N 
ATOM     47  C   UNL A   1      40.132  26.991  27.478  1.00  0.00     0.074 A 
ATOM     48  C   UNL A   1      39.270  25.923  27.914  1.00  0.00     0.031 C 
ATOM     49  C   UNL A   1      44.686  24.195  31.274  1.00  0.00     0.029 A 
ATOM     50  C   UNL A   1      44.189  25.548  31.422  1.00  0.00     0.049 A 
ATOM     51  H   UNL A   1      43.086  26.640  30.013  1.00  0.00     0.167 HD
ATOM     52  C   UNL A   1      39.928  28.337  27.422  1.00  0.00     0.031 A 
ATOM     53  C   UNL A   1      44.359  26.416  32.450  1.00  0.00     0.031 A 
ATOM     54  C   UNL A   1      41.131  29.030  27.028  1.00  0.00     0.049 A 
ATOM     55  C   UNL A   1      44.067  27.768  31.930  1.00  0.00     0.074 A 
ATOM     56  C   UNL A   1      41.947  29.032  25.916  1.00  0.00     0.029 A 
ATOM     57  N   UNL A   1      41.871  29.571  28.051  1.00  0.00    -0.354 N 
ATOM     58  N   UNL A   1      44.803  28.364  31.038  1.00  0.00    -0.248 NA
ATOM     59  C   UNL A   1      42.713  28.277  32.065  1.00  0.00     0.031 C 
ATOM     60  C   UNL A   1      43.271  29.165  26.430  1.00  0.00     0.029 A 
ATOM     61  C   UNL A   1      43.195  29.320  27.817  1.00  0.00     0.049 A 
ATOM     62  H   UNL A   1      41.508  30.060  28.825  1.00  0.00     0.167 HD
ATOM     63  C   UNL A   1      43.893  28.979  30.192  1.00  0.00     0.074 A 
ATOM     64  C   UNL A   1      42.639  29.003  30.944  1.00  0.00     0.031 C 
ATOM     65  C   UNL A   1      44.177  29.140  28.865  1.00  0.00     0.031 A 
BRANCH  52  66
ATOM     66  C   UNL A   1      38.829  29.052  28.179  1.00  0.00    -0.014 A 
ATOM     67  C   UNL A   1      38.788  28.917  29.580  1.00  0.00     0.009 A 
ATOM     68  C   UNL A   1      37.680  29.587  27.566  1.00  0.00     0.009 A 
ATOM     69  C   UNL A   1      37.630  29.211  30.310  1.00  0.00     0.001 A 
ATOM     70  C   UNL A   1      36.536  29.921  28.297  1.00  0.00     0.001 A 
ATOM     71  C   UNL A   1      36.500  29.703  29.665  1.00  0.00     0.000 A 
ENDBRANCH  52  66
BRANCH  53  72
ATOM     72  C   UNL A   1      44.503  26.152  33.898  1.00  0.00    -0.014 A 
ATOM     73  C   UNL A   1      43.546  25.395  34.595  1.00  0.00     0.009 A 
ATOM     74  C   UNL A   1      45.734  26.394  34.535  1.00  0.00     0.009 A 
ATOM     75  C   UNL A   1      43.828  24.863  35.862  1.00  0.00     0.001 A 
ATOM     76  C   UNL A   1      46.016  25.863  35.799  1.00  0.00     0.001 A 
ATOM     77  C   UNL A   1      45.068  25.084  36.456  1.00  0.00     0.000 A 
ENDBRANCH  53  72
BRANCH  65  78
ATOM     78  C   UNL A   1      45.600  28.897  28.420  1.00  0.00    -0.014 A 
ATOM     79  C   UNL A   1      46.582  29.903  28.359  1.00  0.00     0.009 A 
ATOM     80  C   UNL A   1      45.992  27.573  28.176  1.00  0.00     0.009 A 
ATOM     81  C   UNL A   1      47.908  29.591  28.035  1.00  0.00     0.001 A 
ATOM     82  C   UNL A   1      47.319  27.260  27.874  1.00  0.00     0.001 A 
ATOM     83  C   UNL A   1      48.275  28.269  27.797  1.00  0.00     0.000 A 
ENDBRANCH  65  78
ENDBRANCH  39  40
ENDBRANCH  31  34
ENDBRANCH  29  30
ENDBRANCH  28  29
ENDBRANCH   1  28
TORSDOF 14
ENDMDL
MODEL 2
REMARK VINA RESULT:     -12.0      2.621      7.804
REMARK SMILES CC[C@@H]1C=CCN1S(=O)(=O)c1sc2c(c1C(=O)NCCCCNC(=O)c1ccc(-c3c4nc(c(-c5ccccc5)c5ccc([nH]5)c(-c5ccccc5)c5nc(c(-c6ccccc6)c6ccc3[nH]6)C=C5)C=C4)cc1)CC[NH2+]C2
REMARK SMILES IDX 20 1 19 2 18 3 16 4 17 5 15 7 11 8 12 9 13 10 14 11 77 12
REMARK SMILES IDX 74 13 76 14 75 15 8 18 9 19 10 20 7 21 3 22 4 23 5 24 6 25
REMARK SMILES IDX 2 26 1 27 21 28 22 29 23 30 24 31 25 33 26 34 27 35 73 36
REMARK SMILES IDX 28 37 72 38 29 39 30 40 31 41 66 42 32 43 71 44 65 45 67 46
REMARK SMILES IDX 33 47 70 48 64 49 63 50 34 52 56 53 41 54 55 55 42 56 45 57
REMARK SMILES IDX 54 58 68 59 43 60 44 61 53 63 69 64 46 65 35 66 36 67 40 68
REMARK SMILES IDX 37 69 39 70 38 71 57 72 58 73 62 74 59 75 61 76 60 77 47 78
REMARK SMILES IDX 48 79 52 80 49 81 51 82 50 83
REMARK H PARENT 18 6 76 16 76 17 23 32 67 51 45 62
REMARK Flexibility Score: inf
ROOT
ATOM      1  C   UNL A   1      35.017  29.975  27.128  1.00  0.00     0.023 C 
ENDROOT
BRANCH   1   2
ATOM      2  C   UNL A   1      34.269  28.658  26.965  1.00  0.00     0.116 C 
BRANCH   2   3
ATOM      3  N   UNL A   1      32.976  28.532  27.571  1.00  0.00    -0.352 N 
ATOM      4  C   UNL A   1      31.897  27.757  27.212  1.00  0.00     0.253 C 
ATOM      5  O   UNL A   1      31.028  27.699  28.090  1.00  0.00    -0.269 OA
ATOM      6  H   UNL A   1      32.838  29.089  28.370  1.00  0.00     0.163 HD
BRANCH   4   7
ATOM      7  C   UNL A   1      31.646  27.138  25.878  1.00  0.00     0.074 A 
ATOM      8  C   UNL A   1      31.632  25.797  25.423  1.00  0.00     0.148 A 
ATOM      9  S   UNL A   1      31.269  25.720  23.726  1.00  0.00    -0.120 S 
ATOM     10  C   UNL A   1      31.101  27.366  23.553  1.00  0.00     0.064 A 
ATOM     11  C   UNL A   1      31.244  28.031  24.749  1.00  0.00    -0.009 A 
ATOM     12  C   UNL A   1      30.745  27.968  22.226  1.00  0.00     0.308 C 
ATOM     13  C   UNL A   1      31.013  29.533  24.752  1.00  0.00     0.099 C 
ATOM     14  N   UNL A   1      30.935  29.425  22.232  1.00  0.00    -0.342 N 
ATOM     15  C   UNL A   1      30.326  30.005  23.442  1.00  0.00     0.265 C 
ATOM     16  H   UNL A   1      31.933  29.637  22.221  1.00  0.00     0.346 HD
ATOM     17  H   UNL A   1      30.490  29.826  21.406  1.00  0.00     0.346 HD
BRANCH   8  18
ATOM     18  S   UNL A   1      31.821  24.077  26.045  1.00  0.00     0.254 S 
ATOM     19  O   UNL A   1      31.080  23.229  25.121  1.00  0.00    -0.206 OA
ATOM     20  O   UNL A   1      31.430  24.095  27.428  1.00  0.00    -0.206 OA
BRANCH  18  21
ATOM     21  N   UNL A   1      33.494  23.642  25.927  1.00  0.00    -0.186 NA
ATOM     22  C   UNL A   1      33.795  22.463  25.024  1.00  0.00     0.096 C 
ATOM     23  C   UNL A   1      34.632  23.063  23.938  1.00  0.00    -0.010 C 
ATOM     24  C   UNL A   1      35.009  24.304  24.236  1.00  0.00    -0.013 C 
ATOM     25  C   UNL A   1      34.400  24.762  25.508  1.00  0.00     0.130 C 
BRANCH  22  26
ATOM     26  C   UNL A   1      34.546  21.371  25.829  1.00  0.00     0.021 C 
ATOM     27  C   UNL A   1      35.556  20.510  25.065  1.00  0.00     0.006 C 
ENDBRANCH  22  26
ENDBRANCH  18  21
ENDBRANCH   8  18
ENDBRANCH   4   7
ENDBRANCH   2   3
ENDBRANCH   1   2
BRANCH   1  28
ATOM     28  C   UNL A   1      34.240  31.218  27.565  1.00  0.00     0.023 C 
BRANCH  28  29
ATOM     29  C   UNL A   1      35.069  32.367  28.121  1.00  0.00     0.116 C 
BRANCH  29  30
ATOM     30  N   UNL A   1      34.902  32.627  29.554  1.00  0.00    -0.352 N 
ATOM     31  C   UNL A   1      35.534  31.971  30.603  1.00  0.00     0.251 C 
ATOM     32  H   UNL A   1      34.274  33.345  29.800  1.00  0.00     0.163 HD
ATOM     33  O   UNL A   1      35.101  32.023  31.748  1.00  0.00    -0.269 OA
BRANCH  31  34
ATOM     34  C   UNL A   1      36.766  31.213  30.305  1.00  0.00     0.039 A 
ATOM     35  C   UNL A   1      38.004  31.828  30.085  1.00  0.00     0.014 A 
ATOM     36  C   UNL A   1      36.654  29.828  30.315  1.00  0.00     0.014 A 
ATOM     37  C   UNL A   1      39.138  31.021  29.966  1.00  0.00     0.010 A 
ATOM     38  C   UNL A   1      37.781  29.059  30.408  1.00  0.00     0.010 A 
ATOM     39  C   UNL A   1      39.017  29.634  30.153  1.00  0.00    -0.014 A 
BRANCH  39  40
ATOM     40  C   UNL A   1      40.177  28.753  30.206  1.00  0.00     0.031 A 
ATOM     41  C   UNL A   1      40.744  28.578  31.566  1.00  0.00     0.074 A 
ATOM     42  C   UNL A   1      40.542  27.969  29.164  1.00  0.00     0.049 A 
ATOM     43  N   UNL A   1      41.879  29.011  32.002  1.00  0.00    -0.248 NA
ATOM     44  C   UNL A   1      39.892  27.985  32.612  1.00  0.00     0.031 C 
ATOM     45  C   UNL A   1      39.862  27.810  27.870  1.00  0.00     0.029 A 
ATOM     46  N   UNL A   1      41.538  27.045  29.084  1.00  0.00    -0.354 N 
ATOM     47  C   UNL A   1      41.987  28.549  33.309  1.00  0.00     0.074 A 
ATOM     48  C   UNL A   1      40.668  28.111  33.691  1.00  0.00     0.031 C 
ATOM     49  C   UNL A   1      40.309  26.694  27.251  1.00  0.00     0.029 A 
ATOM     50  C   UNL A   1      41.426  26.166  28.008  1.00  0.00     0.049 A 
ATOM     51  H   UNL A   1      42.276  27.000  29.733  1.00  0.00     0.167 HD
ATOM     52  C   UNL A   1      43.206  28.292  33.859  1.00  0.00     0.031 A 
ATOM     53  C   UNL A   1      42.190  25.074  27.760  1.00  0.00     0.031 A 
ATOM     54  C   UNL A   1      44.267  28.852  33.057  1.00  0.00     0.049 A 
ATOM     55  C   UNL A   1      43.438  25.232  28.535  1.00  0.00     0.074 A 
ATOM     56  C   UNL A   1      44.633  30.118  32.653  1.00  0.00     0.029 A 
ATOM     57  N   UNL A   1      44.895  27.977  32.204  1.00  0.00    -0.354 N 
ATOM     58  N   UNL A   1      44.319  26.157  28.288  1.00  0.00    -0.248 NA
ATOM     59  C   UNL A   1      43.498  24.650  29.864  1.00  0.00     0.031 C 
ATOM     60  C   UNL A   1      45.104  29.957  31.316  1.00  0.00     0.029 A 
ATOM     61  C   UNL A   1      45.081  28.597  30.999  1.00  0.00     0.049 A 
ATOM     62  H   UNL A   1      45.167  27.057  32.423  1.00  0.00     0.167 HD
ATOM     63  C   UNL A   1      44.718  26.600  29.540  1.00  0.00     0.074 A 
ATOM     64  C   UNL A   1      44.282  25.553  30.464  1.00  0.00     0.031 C 
ATOM     65  C   UNL A   1      45.096  27.899  29.730  1.00  0.00     0.031 A 
BRANCH  52  66
ATOM     66  C   UNL A   1      43.472  27.151  34.817  1.00  0.00    -0.014 A 
ATOM     67  C   UNL A   1      43.341  25.834  34.337  1.00  0.00     0.009 A 
ATOM     68  C   UNL A   1      43.542  27.305  36.215  1.00  0.00     0.009 A 
ATOM     69  C   UNL A   1      43.194  24.748  35.208  1.00  0.00     0.001 A 
ATOM     70  C   UNL A   1      43.437  26.218  37.088  1.00  0.00     0.001 A 
ATOM     71  C   UNL A   1      43.232  24.943  36.585  1.00  0.00     0.000 A 
ENDBRANCH  52  66
BRANCH  53  72
ATOM     72  C   UNL A   1      41.830  23.793  27.114  1.00  0.00    -0.014 A 
ATOM     73  C   UNL A   1      42.717  23.153  26.232  1.00  0.00     0.009 A 
ATOM     74  C   UNL A   1      40.736  23.051  27.593  1.00  0.00     0.009 A 
ATOM     75  C   UNL A   1      42.539  21.807  25.878  1.00  0.00     0.001 A 
ATOM     76  C   UNL A   1      40.558  21.707  27.240  1.00  0.00     0.001 A 
ATOM     77  C   UNL A   1      41.469  21.080  26.396  1.00  0.00     0.000 A 
ENDBRANCH  53  72
BRANCH  65  78
ATOM     78  C   UNL A   1      45.342  28.742  28.501  1.00  0.00    -0.014 A 
ATOM     79  C   UNL A   1      44.353  29.532  27.885  1.00  0.00     0.009 A 
ATOM     80  C   UNL A   1      46.658  28.840  28.027  1.00  0.00     0.009 A 
ATOM     81  C   UNL A   1      44.672  30.369  26.808  1.00  0.00     0.001 A 
ATOM     82  C   UNL A   1      46.980  29.691  26.968  1.00  0.00     0.001 A 
ATOM     83  C   UNL A   1      45.987  30.450  26.354  1.00  0.00     0.000 A 
ENDBRANCH  65  78
ENDBRANCH  39  40
ENDBRANCH  31  34
ENDBRANCH  29  30
ENDBRANCH  28  29
ENDBRANCH   1  28
TORSDOF 14
ENDMDL
MODEL 3
REMARK VINA RESULT:     -12.0      4.008      9.179
REMARK SMILES CC[C@@H]1C=CCN1S(=O)(=O)c1sc2c(c1C(=O)NCCCCNC(=O)c1ccc(-c3c4nc(c(-c5ccccc5)c5ccc([nH]5)c(-c5ccccc5)c5nc(c(-c6ccccc6)c6ccc3[nH]6)C=C5)C=C4)cc1)CC[NH2+]C2
REMARK SMILES IDX 20 1 19 2 18 3 16 4 17 5 15 7 11 8 12 9 13 10 14 11 77 12
REMARK SMILES IDX 74 13 76 14 75 15 8 18 9 19 10 20 7 21 3 22 4 23 5 24 6 25
REMARK SMILES IDX 2 26 1 27 21 28 22 29 23 30 24 31 25 33 26 34 27 35 73 36
REMARK SMILES IDX 28 37 72 38 29 39 30 40 31 41 66 42 32 43 71 44 65 45 67 46
REMARK SMILES IDX 33 47 70 48 64 49 63 50 34 52 56 53 41 54 55 55 42 56 45 57
REMARK SMILES IDX 54 58 68 59 43 60 44 61 53 63 69 64 46 65 35 66 36 67 40 68
REMARK SMILES IDX 37 69 39 70 38 71 57 72 58 73 62 74 59 75 61 76 60 77 47 78
REMARK SMILES IDX 48 79 52 80 49 81 51 82 50 83
REMARK H PARENT 18 6 76 16 76 17 23 32 67 51 45 62
REMARK Flexibility Score: inf
ROOT
ATOM      1  C   UNL A   1      31.691  30.254  26.340  1.00  0.00     0.023 C 
ENDROOT
BRANCH   1   2
ATOM      2  C   UNL A   1      33.072  29.677  26.058  1.00  0.00     0.116 C 
BRANCH   2   3
ATOM      3  N   UNL A   1      33.431  29.408  24.697  1.00  0.00    -0.352 N 
ATOM      4  C   UNL A   1      32.689  28.872  23.670  1.00  0.00     0.253 C 
ATOM      5  O   UNL A   1      33.223  29.006  22.563  1.00  0.00    -0.269 OA
ATOM      6  H   UNL A   1      34.357  29.644  24.459  1.00  0.00     0.163 HD
BRANCH   4   7
ATOM      7  C   UNL A   1      31.438  28.067  23.798  1.00  0.00     0.074 A 
ATOM      8  C   UNL A   1      31.170  26.775  24.310  1.00  0.00     0.148 A 
ATOM      9  S   UNL A   1      29.481  26.392  24.177  1.00  0.00    -0.120 S 
ATOM     10  C   UNL A   1      29.068  27.855  23.500  1.00  0.00     0.064 A 
ATOM     11  C   UNL A   1      30.145  28.705  23.403  1.00  0.00    -0.009 A 
ATOM     12  C   UNL A   1      27.643  28.164  23.147  1.00  0.00     0.308 C 
ATOM     13  C   UNL A   1      29.888  30.113  22.895  1.00  0.00     0.099 C 
ATOM     14  N   UNL A   1      27.550  29.367  22.307  1.00  0.00    -0.342 N 
ATOM     15  C   UNL A   1      28.371  30.446  22.885  1.00  0.00     0.265 C 
ATOM     16  H   UNL A   1      27.885  29.152  21.368  1.00  0.00     0.346 HD
ATOM     17  H   UNL A   1      26.577  29.672  22.263  1.00  0.00     0.346 HD
BRANCH   8  18
ATOM     18  S   UNL A   1      32.012  25.361  25.129  1.00  0.00     0.254 S 
ATOM     19  O   UNL A   1      30.967  24.400  25.456  1.00  0.00    -0.206 OA
ATOM     20  O   UNL A   1      32.796  25.914  26.199  1.00  0.00    -0.206 OA
BRANCH  18  21
ATOM     21  N   UNL A   1      33.064  24.616  23.972  1.00  0.00    -0.186 NA
ATOM     22  C   UNL A   1      33.988  23.552  24.526  1.00  0.00     0.096 C 
ATOM     23  C   UNL A   1      33.542  22.306  23.828  1.00  0.00    -0.010 C 
ATOM     24  C   UNL A   1      32.695  22.574  22.837  1.00  0.00    -0.013 C 
ATOM     25  C   UNL A   1      32.362  24.019  22.788  1.00  0.00     0.130 C 
BRANCH  22  26
ATOM     26  C   UNL A   1      35.459  23.925  24.210  1.00  0.00     0.021 C 
ATOM     27  C   UNL A   1      36.485  23.737  25.332  1.00  0.00     0.006 C 
ENDBRANCH  22  26
ENDBRANCH  18  21
ENDBRANCH   8  18
ENDBRANCH   4   7
ENDBRANCH   2   3
ENDBRANCH   1   2
BRANCH   1  28
ATOM     28  C   UNL A   1      31.541  31.767  26.502  1.00  0.00     0.023 C 
BRANCH  28  29
ATOM     29  C   UNL A   1      32.654  32.475  27.264  1.00  0.00     0.116 C 
BRANCH  29  30
ATOM     30  N   UNL A   1      32.370  33.861  27.647  1.00  0.00    -0.352 N 
ATOM     31  C   UNL A   1      33.010  34.605  28.632  1.00  0.00     0.251 C 
ATOM     32  H   UNL A   1      31.648  34.315  27.154  1.00  0.00     0.163 HD
ATOM     33  O   UNL A   1      32.504  35.617  29.102  1.00  0.00    -0.269 OA
BRANCH  31  34
ATOM     34  C   UNL A   1      34.337  34.152  29.090  1.00  0.00     0.039 A 
ATOM     35  C   UNL A   1      34.545  33.529  30.327  1.00  0.00     0.014 A 
ATOM     36  C   UNL A   1      35.388  34.316  28.195  1.00  0.00     0.014 A 
ATOM     37  C   UNL A   1      35.806  32.996  30.603  1.00  0.00     0.010 A 
ATOM     38  C   UNL A   1      36.548  33.617  28.378  1.00  0.00     0.010 A 
ATOM     39  C   UNL A   1      36.797  33.026  29.608  1.00  0.00    -0.014 A 
BRANCH  39  40
ATOM     40  C   UNL A   1      38.078  32.347  29.765  1.00  0.00     0.031 A 
ATOM     41  C   UNL A   1      38.060  30.919  29.362  1.00  0.00     0.074 A 
ATOM     42  C   UNL A   1      39.230  33.016  30.008  1.00  0.00     0.049 A 
ATOM     43  N   UNL A   1      38.167  29.888  30.132  1.00  0.00    -0.248 NA
ATOM     44  C   UNL A   1      37.735  30.586  27.964  1.00  0.00     0.031 C 
ATOM     45  C   UNL A   1      39.429  34.470  30.102  1.00  0.00     0.029 A 
ATOM     46  N   UNL A   1      40.502  32.543  30.099  1.00  0.00    -0.354 N 
ATOM     47  C   UNL A   1      38.154  28.781  29.290  1.00  0.00     0.074 A 
ATOM     48  C   UNL A   1      37.684  29.254  28.013  1.00  0.00     0.031 C 
ATOM     49  C   UNL A   1      40.744  34.761  29.990  1.00  0.00     0.029 A 
ATOM     50  C   UNL A   1      41.491  33.520  30.001  1.00  0.00     0.049 A 
ATOM     51  H   UNL A   1      40.708  31.588  30.224  1.00  0.00     0.167 HD
ATOM     52  C   UNL A   1      38.809  27.637  29.633  1.00  0.00     0.031 A 
ATOM     53  C   UNL A   1      42.831  33.324  29.925  1.00  0.00     0.031 A 
ATOM     54  C   UNL A   1      39.189  27.652  31.025  1.00  0.00     0.049 A 
ATOM     55  C   UNL A   1      43.101  31.963  30.434  1.00  0.00     0.074 A 
ATOM     56  C   UNL A   1      38.518  27.716  32.228  1.00  0.00     0.029 A 
ATOM     57  N   UNL A   1      40.486  28.018  31.286  1.00  0.00    -0.354 N 
ATOM     58  N   UNL A   1      42.915  31.615  31.673  1.00  0.00    -0.248 NA
ATOM     59  C   UNL A   1      43.149  30.871  29.478  1.00  0.00     0.031 C 
ATOM     60  C   UNL A   1      39.334  28.537  33.062  1.00  0.00     0.029 A 
ATOM     61  C   UNL A   1      40.496  28.866  32.360  1.00  0.00     0.049 A 
ATOM     62  H   UNL A   1      41.279  27.721  30.784  1.00  0.00     0.167 HD
ATOM     63  C   UNL A   1      42.359  30.346  31.598  1.00  0.00     0.074 A 
ATOM     64  C   UNL A   1      42.649  29.891  30.239  1.00  0.00     0.031 C 
ATOM     65  C   UNL A   1      41.472  29.918  32.545  1.00  0.00     0.031 A 
BRANCH  52  66
ATOM     66  C   UNL A   1      39.528  26.751  28.638  1.00  0.00    -0.014 A 
ATOM     67  C   UNL A   1      40.468  27.346  27.773  1.00  0.00     0.009 A 
ATOM     68  C   UNL A   1      39.110  25.448  28.309  1.00  0.00     0.009 A 
ATOM     69  C   UNL A   1      40.890  26.707  26.601  1.00  0.00     0.001 A 
ATOM     70  C   UNL A   1      39.561  24.791  27.161  1.00  0.00     0.001 A 
ATOM     71  C   UNL A   1      40.427  25.433  26.290  1.00  0.00     0.000 A 
ENDBRANCH  52  66
BRANCH  53  72
ATOM     72  C   UNL A   1      43.864  34.112  29.219  1.00  0.00    -0.014 A 
ATOM     73  C   UNL A   1      43.933  34.121  27.815  1.00  0.00     0.009 A 
ATOM     74  C   UNL A   1      44.598  35.089  29.915  1.00  0.00     0.009 A 
ATOM     75  C   UNL A   1      44.673  35.100  27.134  1.00  0.00     0.001 A 
ATOM     76  C   UNL A   1      45.337  36.065  29.236  1.00  0.00     0.001 A 
ATOM     77  C   UNL A   1      45.361  36.081  27.845  1.00  0.00     0.000 A 
ENDBRANCH  53  72
BRANCH  65  78
ATOM     78  C   UNL A   1      41.345  30.741  33.806  1.00  0.00    -0.014 A 
ATOM     79  C   UNL A   1      42.056  30.470  34.990  1.00  0.00     0.009 A 
ATOM     80  C   UNL A   1      40.573  31.910  33.749  1.00  0.00     0.009 A 
ATOM     81  C   UNL A   1      41.968  31.331  36.091  1.00  0.00     0.001 A 
ATOM     82  C   UNL A   1      40.503  32.779  34.839  1.00  0.00     0.001 A 
ATOM     83  C   UNL A   1      41.195  32.487  36.012  1.00  0.00     0.000 A 
ENDBRANCH  65  78
ENDBRANCH  39  40
ENDBRANCH  31  34
ENDBRANCH  29  30
ENDBRANCH  28  29
ENDBRANCH   1  28
TORSDOF 14
ENDMDL
