MODEL 1
REMARK VINA RESULT:      -8.9      0.000      0.000
REMARK SMILES C[C@@H](C(=O)NCCCCNC(=O)c1ccc(-c2c3nc(c(-c4ccccc4)c4ccc([nH]4)c(-c4ccccc4)c4nc(c(-c5ccccc5)c5ccc2[nH]5)C=C4)C=C3)cc1)c1ccn(C(F)F)c(=O)c1
REMARK SMILES IDX 7 1 6 2 5 3 3 4 4 5 2 7 1 8 61 9 62 10 70 11 63 12 68 13
REMARK SMILES IDX 64 14 69 15 65 16 66 17 67 18 8 19 9 20 10 21 11 22 12 24
REMARK SMILES IDX 13 25 14 26 60 27 15 28 59 29 16 30 17 31 18 32 53 33 19 34
REMARK SMILES IDX 58 35 52 36 54 37 20 38 57 39 51 40 50 41 21 43 43 44 28 45
REMARK SMILES IDX 42 46 29 47 32 48 41 49 55 50 30 51 31 52 40 54 56 55 33 56
REMARK SMILES IDX 22 57 23 58 27 59 24 60 26 61 25 62 44 63 45 64 49 65 46 66
REMARK SMILES IDX 48 67 47 68 34 69 35 70 39 71 36 72 38 73 37 74
REMARK H PARENT 5 6 10 23 54 42 32 53
REMARK Flexibility Score: inf
ROOT
ATOM      1  C   UNL A   1      34.273  35.524  33.343  1.00  0.00     0.023 C 
ENDROOT
BRANCH   1   2
ATOM      2  C   UNL A   1      35.332  34.420  33.374  1.00  0.00     0.116 C 
BRANCH   2   3
ATOM      3  N   UNL A   1      36.614  34.919  33.829  1.00  0.00    -0.356 N 
ATOM      4  C   UNL A   1      37.537  34.370  34.670  1.00  0.00     0.227 C 
ATOM      5  O   UNL A   1      38.545  35.049  34.875  1.00  0.00    -0.274 OA
ATOM      6  H   UNL A   1      36.860  35.803  33.471  1.00  0.00     0.163 HD
BRANCH   4   7
ATOM      7  C   UNL A   1      37.298  32.970  35.290  1.00  0.00     0.105 C 
ATOM      8  C   UNL A   1      37.573  32.947  36.794  1.00  0.00     0.023 C 
BRANCH   7   9
ATOM      9  C   UNL A   1      38.065  31.824  34.636  1.00  0.00    -0.029 A 
ATOM     10  C   UNL A   1      37.462  31.026  33.584  1.00  0.00     0.023 A 
ATOM     11  C   UNL A   1      39.338  31.556  34.985  1.00  0.00     0.076 A 
ATOM     12  C   UNL A   1      38.124  30.003  33.033  1.00  0.00     0.095 A 
ATOM     13  C   UNL A   1      40.116  30.466  34.330  1.00  0.00     0.255 A 
ATOM     14  N   UNL A   1      39.421  29.708  33.403  1.00  0.00    -0.258 N 
ATOM     15  O   UNL A   1      41.291  30.314  34.648  1.00  0.00    -0.269 OA
BRANCH  14  16
ATOM     16  C   UNL A   1      40.124  28.610  32.793  1.00  0.00     0.451 C 
ATOM     17  F   UNL A   1      40.614  27.765  33.732  1.00  0.00    -0.185 F 
ATOM     18  F   UNL A   1      39.310  27.900  31.973  1.00  0.00    -0.185 F 
ENDBRANCH  14  16
ENDBRANCH   7   9
ENDBRANCH   4   7
ENDBRANCH   2   3
ENDBRANCH   1   2
BRANCH   1  19
ATOM     19  C   UNL A   1      33.204  35.370  32.258  1.00  0.00     0.023 C 
BRANCH  19  20
ATOM     20  C   UNL A   1      33.582  35.910  30.884  1.00  0.00     0.116 C 
BRANCH  20  21
ATOM     21  N   UNL A   1      32.816  35.304  29.807  1.00  0.00    -0.352 N 
ATOM     22  C   UNL A   1      33.172  34.303  28.938  1.00  0.00     0.251 C 
ATOM     23  H   UNL A   1      31.909  35.665  29.683  1.00  0.00     0.163 HD
ATOM     24  O   UNL A   1      32.438  34.018  27.995  1.00  0.00    -0.269 OA
BRANCH  22  25
ATOM     25  C   UNL A   1      34.457  33.593  29.112  1.00  0.00     0.039 A 
ATOM     26  C   UNL A   1      35.515  33.900  28.252  1.00  0.00     0.014 A 
ATOM     27  C   UNL A   1      34.628  32.643  30.123  1.00  0.00     0.014 A 
ATOM     28  C   UNL A   1      36.766  33.317  28.459  1.00  0.00     0.010 A 
ATOM     29  C   UNL A   1      35.894  32.118  30.372  1.00  0.00     0.010 A 
ATOM     30  C   UNL A   1      36.979  32.459  29.551  1.00  0.00    -0.014 A 
BRANCH  30  31
ATOM     31  C   UNL A   1      38.338  31.953  29.872  1.00  0.00     0.031 A 
ATOM     32  C   UNL A   1      38.798  30.614  29.367  1.00  0.00     0.074 A 
ATOM     33  C   UNL A   1      39.138  32.679  30.678  1.00  0.00     0.049 A 
ATOM     34  N   UNL A   1      39.930  29.995  29.589  1.00  0.00    -0.248 NA
ATOM     35  C   UNL A   1      37.860  29.861  28.518  1.00  0.00     0.031 C 
ATOM     36  C   UNL A   1      38.796  33.977  31.268  1.00  0.00     0.029 A 
ATOM     37  N   UNL A   1      40.403  32.428  31.147  1.00  0.00    -0.354 N 
ATOM     38  C   UNL A   1      39.837  28.781  28.920  1.00  0.00     0.074 A 
ATOM     39  C   UNL A   1      38.521  28.730  28.320  1.00  0.00     0.031 C 
ATOM     40  C   UNL A   1      39.833  34.417  31.997  1.00  0.00     0.029 A 
ATOM     41  C   UNL A   1      40.894  33.417  31.967  1.00  0.00     0.049 A 
ATOM     42  H   UNL A   1      40.911  31.617  30.920  1.00  0.00     0.167 HD
ATOM     43  C   UNL A   1      40.768  27.804  28.803  1.00  0.00     0.031 A 
ATOM     44  C   UNL A   1      42.063  33.504  32.631  1.00  0.00     0.031 A 
ATOM     45  C   UNL A   1      42.079  27.856  29.396  1.00  0.00     0.049 A 
ATOM     46  C   UNL A   1      43.063  32.390  32.506  1.00  0.00     0.074 A 
ATOM     47  C   UNL A   1      43.110  26.940  29.282  1.00  0.00     0.029 A 
ATOM     48  N   UNL A   1      42.535  28.872  30.220  1.00  0.00    -0.354 N 
ATOM     49  N   UNL A   1      42.989  31.286  31.803  1.00  0.00    -0.248 NA
ATOM     50  C   UNL A   1      44.315  32.538  33.263  1.00  0.00     0.031 C 
ATOM     51  C   UNL A   1      44.169  27.371  30.087  1.00  0.00     0.029 A 
ATOM     52  C   UNL A   1      43.822  28.589  30.649  1.00  0.00     0.049 A 
ATOM     53  H   UNL A   1      42.022  29.677  30.464  1.00  0.00     0.167 HD
ATOM     54  C   UNL A   1      44.192  30.624  32.010  1.00  0.00     0.074 A 
ATOM     55  C   UNL A   1      44.987  31.460  32.883  1.00  0.00     0.031 C 
ATOM     56  C   UNL A   1      44.600  29.429  31.521  1.00  0.00     0.031 A 
BRANCH  43  57
ATOM     57  C   UNL A   1      40.404  26.582  28.007  1.00  0.00    -0.014 A 
ATOM     58  C   UNL A   1      39.595  25.572  28.552  1.00  0.00     0.009 A 
ATOM     59  C   UNL A   1      40.818  26.472  26.670  1.00  0.00     0.009 A 
ATOM     60  C   UNL A   1      39.227  24.467  27.781  1.00  0.00     0.001 A 
ATOM     61  C   UNL A   1      40.425  25.380  25.893  1.00  0.00     0.001 A 
ATOM     62  C   UNL A   1      39.636  24.376  26.451  1.00  0.00     0.000 A 
ENDBRANCH  43  57
BRANCH  44  63
ATOM     63  C   UNL A   1      42.354  34.686  33.487  1.00  0.00    -0.014 A 
ATOM     64  C   UNL A   1      41.994  34.694  34.843  1.00  0.00     0.009 A 
ATOM     65  C   UNL A   1      42.964  35.827  32.943  1.00  0.00     0.009 A 
ATOM     66  C   UNL A   1      42.203  35.832  35.625  1.00  0.00     0.001 A 
ATOM     67  C   UNL A   1      43.204  36.952  33.736  1.00  0.00     0.001 A 
ATOM     68  C   UNL A   1      42.810  36.959  35.073  1.00  0.00     0.000 A 
ENDBRANCH  44  63
BRANCH  56  69
ATOM     69  C   UNL A   1      45.983  28.969  31.895  1.00  0.00    -0.014 A 
ATOM     70  C   UNL A   1      47.100  29.306  31.115  1.00  0.00     0.009 A 
ATOM     71  C   UNL A   1      46.172  28.216  33.064  1.00  0.00     0.009 A 
ATOM     72  C   UNL A   1      48.374  28.865  31.480  1.00  0.00     0.001 A 
ATOM     73  C   UNL A   1      47.451  27.805  33.444  1.00  0.00     0.001 A 
ATOM     74  C   UNL A   1      48.549  28.120  32.646  1.00  0.00     0.000 A 
ENDBRANCH  56  69
ENDBRANCH  30  31
ENDBRANCH  22  25
ENDBRANCH  20  21
ENDBRANCH  19  20
ENDBRANCH   1  19
TORSDOF 13
ENDMDL
MODEL 2
REMARK VINA RESULT:      -8.5      4.549      7.223
REMARK SMILES C[C@@H](C(=O)NCCCCNC(=O)c1ccc(-c2c3nc(c(-c4ccccc4)c4ccc([nH]4)c(-c4ccccc4)c4nc(c(-c5ccccc5)c5ccc2[nH]5)C=C4)C=C3)cc1)c1ccn(C(F)F)c(=O)c1
REMARK SMILES IDX 7 1 6 2 5 3 3 4 4 5 2 7 1 8 61 9 62 10 70 11 63 12 68 13
REMARK SMILES IDX 64 14 69 15 65 16 66 17 67 18 8 19 9 20 10 21 11 22 12 24
REMARK SMILES IDX 13 25 14 26 60 27 15 28 59 29 16 30 17 31 18 32 53 33 19 34
REMARK SMILES IDX 58 35 52 36 54 37 20 38 57 39 51 40 50 41 21 43 43 44 28 45
REMARK SMILES IDX 42 46 29 47 32 48 41 49 55 50 30 51 31 52 40 54 56 55 33 56
REMARK SMILES IDX 22 57 23 58 27 59 24 60 26 61 25 62 44 63 45 64 49 65 46 66
REMARK SMILES IDX 48 67 47 68 34 69 35 70 39 71 36 72 38 73 37 74
REMARK H PARENT 5 6 10 23 54 42 32 53
REMARK Flexibility Score: inf
ROOT
ATOM      1  C   UNL A   1      31.473  28.560  25.955  1.00  0.00     0.023 C 
ENDROOT
BRANCH   1   2
ATOM      2  C   UNL A   1      31.333  27.170  25.331  1.00  0.00     0.116 C 
BRANCH   2   3
ATOM      3  N   UNL A   1      31.263  26.134  26.342  1.00  0.00    -0.356 N 
ATOM      4  C   UNL A   1      31.633  24.822  26.301  1.00  0.00     0.227 C 
ATOM      5  O   UNL A   1      31.441  24.178  27.335  1.00  0.00    -0.274 OA
ATOM      6  H   UNL A   1      30.884  26.427  27.203  1.00  0.00     0.163 HD
BRANCH   4   7
ATOM      7  C   UNL A   1      32.268  24.227  25.019  1.00  0.00     0.105 C 
ATOM      8  C   UNL A   1      31.372  23.177  24.361  1.00  0.00     0.023 C 
BRANCH   7   9
ATOM      9  C   UNL A   1      33.665  23.635  25.193  1.00  0.00    -0.029 A 
ATOM     10  C   UNL A   1      34.806  24.487  25.477  1.00  0.00     0.023 A 
ATOM     11  C   UNL A   1      33.864  22.304  25.137  1.00  0.00     0.076 A 
ATOM     12  C   UNL A   1      36.034  23.970  25.600  1.00  0.00     0.095 A 
ATOM     13  C   UNL A   1      35.214  21.706  25.342  1.00  0.00     0.255 A 
ATOM     14  N   UNL A   1      36.248  22.609  25.519  1.00  0.00    -0.258 N 
ATOM     15  O   UNL A   1      35.318  20.484  25.340  1.00  0.00    -0.269 OA
BRANCH  14  16
ATOM     16  C   UNL A   1      37.575  22.068  25.663  1.00  0.00     0.451 C 
ATOM     17  F   UNL A   1      38.051  21.624  24.475  1.00  0.00    -0.185 F 
ATOM     18  F   UNL A   1      38.437  23.001  26.138  1.00  0.00    -0.185 F 
ENDBRANCH  14  16
ENDBRANCH   7   9
ENDBRANCH   4   7
ENDBRANCH   2   3
ENDBRANCH   1   2
BRANCH   1  19
ATOM     19  C   UNL A   1      32.179  28.596  27.314  1.00  0.00     0.023 C 
BRANCH  19  20
ATOM     20  C   UNL A   1      33.595  29.159  27.302  1.00  0.00     0.116 C 
BRANCH  20  21
ATOM     21  N   UNL A   1      33.681  30.485  27.892  1.00  0.00    -0.352 N 
ATOM     22  C   UNL A   1      34.715  31.069  28.581  1.00  0.00     0.251 C 
ATOM     23  H   UNL A   1      32.880  31.046  27.781  1.00  0.00     0.163 HD
ATOM     24  O   UNL A   1      34.551  32.155  29.131  1.00  0.00    -0.269 OA
BRANCH  22  25
ATOM     25  C   UNL A   1      36.016  30.375  28.695  1.00  0.00     0.039 A 
ATOM     26  C   UNL A   1      36.874  30.373  27.592  1.00  0.00     0.014 A 
ATOM     27  C   UNL A   1      36.397  29.744  29.882  1.00  0.00     0.014 A 
ATOM     28  C   UNL A   1      38.146  29.812  27.707  1.00  0.00     0.010 A 
ATOM     29  C   UNL A   1      37.692  29.248  30.016  1.00  0.00     0.010 A 
ATOM     30  C   UNL A   1      38.585  29.289  28.935  1.00  0.00    -0.014 A 
BRANCH  30  31
ATOM     31  C   UNL A   1      39.985  28.828  29.114  1.00  0.00     0.031 A 
ATOM     32  C   UNL A   1      40.400  27.447  28.688  1.00  0.00     0.074 A 
ATOM     33  C   UNL A   1      40.873  29.639  29.723  1.00  0.00     0.049 A 
ATOM     34  N   UNL A   1      41.564  26.862  28.813  1.00  0.00    -0.248 NA
ATOM     35  C   UNL A   1      39.369  26.604  28.059  1.00  0.00     0.031 C 
ATOM     36  C   UNL A   1      40.588  30.989  30.219  1.00  0.00     0.029 A 
ATOM     37  N   UNL A   1      42.196  29.447  30.035  1.00  0.00    -0.354 N 
ATOM     38  C   UNL A   1      41.406  25.585  28.290  1.00  0.00     0.074 A 
ATOM     39  C   UNL A   1      40.021  25.463  27.887  1.00  0.00     0.031 C 
ATOM     40  C   UNL A   1      41.706  31.509  30.749  1.00  0.00     0.029 A 
ATOM     41  C   UNL A   1      42.774  30.518  30.673  1.00  0.00     0.049 A 
ATOM     42  H   UNL A   1      42.685  28.619  29.822  1.00  0.00     0.167 HD
ATOM     43  C   UNL A   1      42.331  24.608  28.144  1.00  0.00     0.031 A 
ATOM     44  C   UNL A   1      44.021  30.682  31.156  1.00  0.00     0.031 A 
ATOM     45  C   UNL A   1      43.710  24.730  28.541  1.00  0.00     0.049 A 
ATOM     46  C   UNL A   1      45.018  29.567  31.007  1.00  0.00     0.074 A 
ATOM     47  C   UNL A   1      44.735  23.814  28.378  1.00  0.00     0.029 A 
ATOM     48  N   UNL A   1      44.254  25.829  29.186  1.00  0.00    -0.354 N 
ATOM     49  N   UNL A   1      44.871  28.397  30.437  1.00  0.00    -0.248 NA
ATOM     50  C   UNL A   1      46.359  29.801  31.563  1.00  0.00     0.031 C 
ATOM     51  C   UNL A   1      45.886  24.333  28.980  1.00  0.00     0.029 A 
ATOM     52  C   UNL A   1      45.593  25.600  29.459  1.00  0.00     0.049 A 
ATOM     53  H   UNL A   1      43.762  26.650  29.416  1.00  0.00     0.167 HD
ATOM     54  C   UNL A   1      46.104  27.768  30.540  1.00  0.00     0.074 A 
ATOM     55  C   UNL A   1      46.994  28.695  31.206  1.00  0.00     0.031 C 
ATOM     56  C   UNL A   1      46.467  26.530  30.124  1.00  0.00     0.031 A 
BRANCH  43  57
ATOM     57  C   UNL A   1      41.888  23.307  27.535  1.00  0.00    -0.014 A 
ATOM     58  C   UNL A   1      42.084  23.038  26.171  1.00  0.00     0.009 A 
ATOM     59  C   UNL A   1      41.332  22.308  28.350  1.00  0.00     0.009 A 
ATOM     60  C   UNL A   1      41.709  21.805  25.632  1.00  0.00     0.001 A 
ATOM     61  C   UNL A   1      40.985  21.066  27.815  1.00  0.00     0.001 A 
ATOM     62  C   UNL A   1      41.168  20.818  26.456  1.00  0.00     0.000 A 
ENDBRANCH  43  57
BRANCH  44  63
ATOM     63  C   UNL A   1      44.402  31.948  31.839  1.00  0.00    -0.014 A 
ATOM     64  C   UNL A   1      44.960  33.012  31.113  1.00  0.00     0.009 A 
ATOM     65  C   UNL A   1      44.243  32.086  33.227  1.00  0.00     0.009 A 
ATOM     66  C   UNL A   1      45.384  34.170  31.768  1.00  0.00     0.001 A 
ATOM     67  C   UNL A   1      44.636  33.259  33.874  1.00  0.00     0.001 A 
ATOM     68  C   UNL A   1      45.220  34.294  33.147  1.00  0.00     0.000 A 
ENDBRANCH  44  63
BRANCH  56  69
ATOM     69  C   UNL A   1      47.897  26.121  30.346  1.00  0.00    -0.014 A 
ATOM     70  C   UNL A   1      48.344  25.685  31.603  1.00  0.00     0.009 A 
ATOM     71  C   UNL A   1      48.800  26.141  29.273  1.00  0.00     0.009 A 
ATOM     72  C   UNL A   1      49.677  25.313  31.788  1.00  0.00     0.001 A 
ATOM     73  C   UNL A   1      50.125  25.738  29.452  1.00  0.00     0.001 A 
ATOM     74  C   UNL A   1      50.564  25.334  30.712  1.00  0.00     0.000 A 
ENDBRANCH  56  69
ENDBRANCH  30  31
ENDBRANCH  22  25
ENDBRANCH  20  21
ENDBRANCH  19  20
ENDBRANCH   1  19
TORSDOF 13
ENDMDL
MODEL 3
REMARK VINA RESULT:      -8.5      5.091     10.821
REMARK SMILES C[C@@H](C(=O)NCCCCNC(=O)c1ccc(-c2c3nc(c(-c4ccccc4)c4ccc([nH]4)c(-c4ccccc4)c4nc(c(-c5ccccc5)c5ccc2[nH]5)C=C4)C=C3)cc1)c1ccn(C(F)F)c(=O)c1
REMARK SMILES IDX 7 1 6 2 5 3 3 4 4 5 2 7 1 8 61 9 62 10 70 11 63 12 68 13
REMARK SMILES IDX 64 14 69 15 65 16 66 17 67 18 8 19 9 20 10 21 11 22 12 24
REMARK SMILES IDX 13 25 14 26 60 27 15 28 59 29 16 30 17 31 18 32 53 33 19 34
REMARK SMILES IDX 58 35 52 36 54 37 20 38 57 39 51 40 50 41 21 43 43 44 28 45
REMARK SMILES IDX 42 46 29 47 32 48 41 49 55 50 30 51 31 52 40 54 56 55 33 56
REMARK SMILES IDX 22 57 23 58 27 59 24 60 26 61 25 62 44 63 45 64 49 65 46 66
REMARK SMILES IDX 48 67 47 68 34 69 35 70 39 71 36 72 38 73 37 74
REMARK H PARENT 5 6 10 23 54 42 32 53
REMARK Flexibility Score: inf
ROOT
ATOM      1  C   UNL A   1      36.302  19.622  24.986  1.00  0.00     0.023 C 
ENDROOT
BRANCH   1   2
ATOM      2  C   UNL A   1      34.955  20.337  24.864  1.00  0.00     0.116 C 
BRANCH   2   3
ATOM      3  N   UNL A   1      34.637  21.091  26.060  1.00  0.00    -0.356 N 
ATOM      4  C   UNL A   1      34.910  22.384  26.397  1.00  0.00     0.227 C 
ATOM      5  O   UNL A   1      34.511  22.744  27.507  1.00  0.00    -0.274 OA
ATOM      6  H   UNL A   1      34.143  20.584  26.745  1.00  0.00     0.163 HD
BRANCH   4   7
ATOM      7  C   UNL A   1      35.661  23.310  25.407  1.00  0.00     0.105 C 
ATOM      8  C   UNL A   1      36.831  24.040  26.069  1.00  0.00     0.023 C 
BRANCH   7   9
ATOM      9  C   UNL A   1      34.793  24.336  24.683  1.00  0.00    -0.029 A 
ATOM     10  C   UNL A   1      34.403  25.574  25.332  1.00  0.00     0.023 A 
ATOM     11  C   UNL A   1      34.410  24.140  23.407  1.00  0.00     0.076 A 
ATOM     12  C   UNL A   1      33.617  26.459  24.707  1.00  0.00     0.095 A 
ATOM     13  C   UNL A   1      33.595  25.148  22.671  1.00  0.00     0.255 A 
ATOM     14  N   UNL A   1      33.201  26.252  23.407  1.00  0.00    -0.258 N 
ATOM     15  O   UNL A   1      33.331  24.938  21.491  1.00  0.00    -0.269 OA
BRANCH  14  16
ATOM     16  C   UNL A   1      32.364  27.218  22.745  1.00  0.00     0.451 C 
ATOM     17  F   UNL A   1      31.164  27.327  23.363  1.00  0.00    -0.185 F 
ATOM     18  F   UNL A   1      32.943  28.444  22.734  1.00  0.00    -0.185 F 
ENDBRANCH  14  16
ENDBRANCH   7   9
ENDBRANCH   4   7
ENDBRANCH   2   3
ENDBRANCH   1   2
BRANCH   1  19
ATOM     19  C   UNL A   1      37.522  20.463  24.598  1.00  0.00     0.023 C 
BRANCH  19  20
ATOM     20  C   UNL A   1      38.567  20.645  25.692  1.00  0.00     0.116 C 
BRANCH  20  21
ATOM     21  N   UNL A   1      39.587  19.609  25.678  1.00  0.00    -0.352 N 
ATOM     22  C   UNL A   1      40.920  19.690  25.999  1.00  0.00     0.251 C 
ATOM     23  H   UNL A   1      39.276  18.718  25.397  1.00  0.00     0.163 HD
ATOM     24  O   UNL A   1      41.662  18.735  25.788  1.00  0.00    -0.269 OA
BRANCH  22  25
ATOM     25  C   UNL A   1      41.471  20.942  26.561  1.00  0.00     0.039 A 
ATOM     26  C   UNL A   1      42.047  21.871  25.691  1.00  0.00     0.014 A 
ATOM     27  C   UNL A   1      41.409  21.208  27.931  1.00  0.00     0.014 A 
ATOM     28  C   UNL A   1      42.484  23.101  26.184  1.00  0.00     0.010 A 
ATOM     29  C   UNL A   1      41.779  22.463  28.409  1.00  0.00     0.010 A 
ATOM     30  C   UNL A   1      42.308  23.428  27.539  1.00  0.00    -0.014 A 
BRANCH  30  31
ATOM     31  C   UNL A   1      42.628  24.786  28.046  1.00  0.00     0.031 A 
ATOM     32  C   UNL A   1      44.025  25.139  28.474  1.00  0.00     0.074 A 
ATOM     33  C   UNL A   1      41.635  25.689  28.182  1.00  0.00     0.049 A 
ATOM     34  N   UNL A   1      44.473  26.258  28.985  1.00  0.00    -0.248 NA
ATOM     35  C   UNL A   1      45.052  24.093  28.327  1.00  0.00     0.031 C 
ATOM     36  C   UNL A   1      40.228  25.461  27.841  1.00  0.00     0.029 A 
ATOM     37  N   UNL A   1      41.655  26.980  28.649  1.00  0.00    -0.354 N 
ATOM     38  C   UNL A   1      45.824  26.049  29.230  1.00  0.00     0.074 A 
ATOM     39  C   UNL A   1      46.115  24.683  28.853  1.00  0.00     0.031 C 
ATOM     40  C   UNL A   1      39.528  26.579  28.087  1.00  0.00     0.029 A 
ATOM     41  C   UNL A   1      40.422  27.587  28.644  1.00  0.00     0.049 A 
ATOM     42  H   UNL A   1      42.475  27.428  28.958  1.00  0.00     0.167 HD
ATOM     43  C   UNL A   1      46.742  26.921  29.711  1.00  0.00     0.031 A 
ATOM     44  C   UNL A   1      40.049  28.815  29.054  1.00  0.00     0.031 A 
ATOM     45  C   UNL A   1      46.454  28.282  30.081  1.00  0.00     0.049 A 
ATOM     46  C   UNL A   1      41.085  29.749  29.612  1.00  0.00     0.074 A 
ATOM     47  C   UNL A   1      47.332  29.257  30.522  1.00  0.00     0.029 A 
ATOM     48  N   UNL A   1      45.194  28.857  30.064  1.00  0.00    -0.354 N 
ATOM     49  N   UNL A   1      42.374  29.562  29.761  1.00  0.00    -0.248 NA
ATOM     50  C   UNL A   1      40.615  31.071  30.052  1.00  0.00     0.031 C 
ATOM     51  C   UNL A   1      46.594  30.404  30.830  1.00  0.00     0.029 A 
ATOM     52  C   UNL A   1      45.265  30.164  30.519  1.00  0.00     0.049 A 
ATOM     53  H   UNL A   1      44.369  28.405  29.772  1.00  0.00     0.167 HD
ATOM     54  C   UNL A   1      42.871  30.748  30.283  1.00  0.00     0.074 A 
ATOM     55  C   UNL A   1      41.751  31.656  30.403  1.00  0.00     0.031 C 
ATOM     56  C   UNL A   1      44.143  31.056  30.636  1.00  0.00     0.031 A 
BRANCH  43  57
ATOM     57  C   UNL A   1      48.154  26.432  29.875  1.00  0.00    -0.014 A 
ATOM     58  C   UNL A   1      49.108  26.606  28.859  1.00  0.00     0.009 A 
ATOM     59  C   UNL A   1      48.556  25.853  31.090  1.00  0.00     0.009 A 
ATOM     60  C   UNL A   1      50.427  26.189  29.048  1.00  0.00     0.001 A 
ATOM     61  C   UNL A   1      49.881  25.464  31.286  1.00  0.00     0.001 A 
ATOM     62  C   UNL A   1      50.814  25.626  30.264  1.00  0.00     0.000 A 
ENDBRANCH  43  57
BRANCH  44  63
ATOM     63  C   UNL A   1      38.624  29.236  28.965  1.00  0.00    -0.014 A 
ATOM     64  C   UNL A   1      37.776  29.131  30.078  1.00  0.00     0.009 A 
ATOM     65  C   UNL A   1      38.096  29.714  27.756  1.00  0.00     0.009 A 
ATOM     66  C   UNL A   1      36.423  29.459  29.971  1.00  0.00     0.001 A 
ATOM     67  C   UNL A   1      36.750  30.075  27.661  1.00  0.00     0.001 A 
ATOM     68  C   UNL A   1      35.911  29.933  28.764  1.00  0.00     0.000 A 
ENDBRANCH  44  63
BRANCH  56  69
ATOM     69  C   UNL A   1      44.395  32.446  31.154  1.00  0.00    -0.014 A 
ATOM     70  C   UNL A   1      44.719  33.500  30.287  1.00  0.00     0.009 A 
ATOM     71  C   UNL A   1      44.273  32.707  32.527  1.00  0.00     0.009 A 
ATOM     72  C   UNL A   1      44.952  34.782  30.791  1.00  0.00     0.001 A 
ATOM     73  C   UNL A   1      44.474  33.996  33.024  1.00  0.00     0.001 A 
ATOM     74  C   UNL A   1      44.824  35.030  32.157  1.00  0.00     0.000 A 
ENDBRANCH  56  69
ENDBRANCH  30  31
ENDBRANCH  22  25
ENDBRANCH  20  21
ENDBRANCH  19  20
ENDBRANCH   1  19
TORSDOF 13
ENDMDL
