MODEL 1
REMARK VINA RESULT:     -10.4      0.000      0.000
REMARK SMILES CCC[NH2+][C@@]1(C(=O)NCCCCNC(=O)c2ccc(-c3c4nc(c(-c5ccccc5)c5ccc([nH]5)c(-c5ccccc5)c5nc(c(-c6ccccc6)c6ccc3[nH]6)C=C5)C=C4)cc2)CC[C@@H](SC2CCCC2)C1
REMARK SMILES IDX 10 1 9 2 8 3 6 4 7 5 5 7 64 8 73 9 65 10 66 11 4 12 3 15
REMARK SMILES IDX 2 16 1 17 67 18 68 19 69 20 72 21 70 22 71 23 11 24 12 25
REMARK SMILES IDX 13 26 14 27 15 29 16 30 17 31 63 32 18 33 62 34 19 35 20 36
REMARK SMILES IDX 21 37 56 38 22 39 61 40 55 41 57 42 23 43 60 44 54 45 53 46
REMARK SMILES IDX 24 48 46 49 31 50 45 51 32 52 35 53 44 54 58 55 33 56 34 57
REMARK SMILES IDX 43 59 59 60 36 61 25 62 26 63 30 64 27 65 29 66 28 67 47 68
REMARK SMILES IDX 48 69 52 70 49 71 51 72 50 73 37 74 38 75 42 76 39 77 41 78
REMARK SMILES IDX 40 79
REMARK H PARENT 8 6 4 13 4 14 13 28 57 47 35 58
REMARK Flexibility Score: inf
ROOT
ATOM      1  C   UNL A   1      37.084  21.622  24.466  1.00  0.00     0.023 C 
ENDROOT
BRANCH   1   2
ATOM      2  C   UNL A   1      36.849  22.649  25.572  1.00  0.00     0.116 C 
BRANCH   2   3
ATOM      3  N   UNL A   1      35.849  22.206  26.505  1.00  0.00    -0.351 N 
ATOM      4  C   UNL A   1      34.512  22.399  26.579  1.00  0.00     0.281 C 
ATOM      5  O   UNL A   1      33.999  21.978  27.630  1.00  0.00    -0.268 OA
ATOM      6  H   UNL A   1      36.208  21.653  27.236  1.00  0.00     0.163 HD
BRANCH   4   7
ATOM      7  C   UNL A   1      33.601  23.134  25.493  1.00  0.00     0.176 C 
ATOM      8  C   UNL A   1      34.214  24.442  24.954  1.00  0.00     0.080 C 
ATOM      9  C   UNL A   1      32.227  23.514  26.080  1.00  0.00     0.093 C 
ATOM     10  C   UNL A   1      33.411  25.622  25.500  1.00  0.00     0.022 C 
ATOM     11  C   UNL A   1      32.190  25.039  26.200  1.00  0.00     0.054 C 
BRANCH   7  12
ATOM     12  N   UNL A   1      33.578  22.146  24.373  1.00  0.00    -0.334 N 
ATOM     13  H   UNL A   1      33.399  22.674  23.518  1.00  0.00     0.347 HD
ATOM     14  H   UNL A   1      34.479  21.678  24.454  1.00  0.00     0.347 HD
BRANCH  12  15
ATOM     15  C   UNL A   1      32.629  21.049  24.394  1.00  0.00     0.261 C 
BRANCH  15  16
ATOM     16  C   UNL A   1      33.345  19.698  24.513  1.00  0.00     0.058 C 
ATOM     17  C   UNL A   1      32.527  18.543  23.946  1.00  0.00     0.010 C 
ENDBRANCH  15  16
ENDBRANCH  12  15
ENDBRANCH   7  12
BRANCH  11  18
ATOM     18  S   UNL A   1      30.571  25.862  25.946  1.00  0.00    -0.155 SA
BRANCH  18  19
ATOM     19  C   UNL A   1      30.713  27.016  24.534  1.00  0.00     0.047 C 
ATOM     20  C   UNL A   1      29.549  27.198  23.574  1.00  0.00     0.014 C 
ATOM     21  C   UNL A   1      31.149  28.443  24.856  1.00  0.00     0.014 C 
ATOM     22  C   UNL A   1      30.039  28.319  22.672  1.00  0.00     0.001 C 
ATOM     23  C   UNL A   1      30.763  29.271  23.621  1.00  0.00     0.001 C 
ENDBRANCH  18  19
ENDBRANCH  11  18
ENDBRANCH   4   7
ENDBRANCH   2   3
ENDBRANCH   1   2
BRANCH   1  24
ATOM     24  C   UNL A   1      37.800  20.356  24.932  1.00  0.00     0.023 C 
BRANCH  24  25
ATOM     25  C   UNL A   1      39.042  20.597  25.783  1.00  0.00     0.116 C 
BRANCH  25  26
ATOM     26  N   UNL A   1      40.020  19.519  25.736  1.00  0.00    -0.352 N 
ATOM     27  C   UNL A   1      41.344  19.575  26.103  1.00  0.00     0.251 C 
ATOM     28  H   UNL A   1      39.696  18.651  25.403  1.00  0.00     0.163 HD
ATOM     29  O   UNL A   1      42.086  18.613  25.946  1.00  0.00    -0.269 OA
BRANCH  27  30
ATOM     30  C   UNL A   1      41.869  20.845  26.641  1.00  0.00     0.039 A 
ATOM     31  C   UNL A   1      42.290  21.830  25.748  1.00  0.00     0.014 A 
ATOM     32  C   UNL A   1      41.845  21.089  28.017  1.00  0.00     0.014 A 
ATOM     33  C   UNL A   1      42.623  23.095  26.234  1.00  0.00     0.010 A 
ATOM     34  C   UNL A   1      42.097  22.371  28.488  1.00  0.00     0.010 A 
ATOM     35  C   UNL A   1      42.488  23.385  27.602  1.00  0.00    -0.014 A 
BRANCH  35  36
ATOM     36  C   UNL A   1      42.756  24.747  28.122  1.00  0.00     0.031 A 
ATOM     37  C   UNL A   1      44.152  25.144  28.512  1.00  0.00     0.074 A 
ATOM     38  C   UNL A   1      41.733  25.607  28.296  1.00  0.00     0.049 A 
ATOM     39  N   UNL A   1      44.580  26.281  28.997  1.00  0.00    -0.248 NA
ATOM     40  C   UNL A   1      45.199  24.119  28.366  1.00  0.00     0.031 C 
ATOM     41  C   UNL A   1      40.324  25.321  28.014  1.00  0.00     0.029 A 
ATOM     42  N   UNL A   1      41.724  26.901  28.751  1.00  0.00    -0.354 N 
ATOM     43  C   UNL A   1      45.938  26.102  29.228  1.00  0.00     0.074 A 
ATOM     44  C   UNL A   1      46.250  24.733  28.887  1.00  0.00     0.031 C 
ATOM     45  C   UNL A   1      39.594  26.420  28.266  1.00  0.00     0.029 A 
ATOM     46  C   UNL A   1      40.476  27.475  28.752  1.00  0.00     0.049 A 
ATOM     47  H   UNL A   1      42.535  27.373  29.048  1.00  0.00     0.167 HD
ATOM     48  C   UNL A   1      46.850  27.004  29.662  1.00  0.00     0.031 A 
ATOM     49  C   UNL A   1      40.089  28.718  29.096  1.00  0.00     0.031 A 
ATOM     50  C   UNL A   1      46.545  28.371  29.982  1.00  0.00     0.049 A 
ATOM     51  C   UNL A   1      41.125  29.708  29.552  1.00  0.00     0.074 A 
ATOM     52  C   UNL A   1      47.408  29.380  30.369  1.00  0.00     0.029 A 
ATOM     53  N   UNL A   1      45.272  28.920  29.948  1.00  0.00    -0.354 N 
ATOM     54  N   UNL A   1      42.418  29.546  29.690  1.00  0.00    -0.248 NA
ATOM     55  C   UNL A   1      40.646  31.058  29.880  1.00  0.00     0.031 C 
ATOM     56  C   UNL A   1      46.651  30.533  30.607  1.00  0.00     0.029 A 
ATOM     57  C   UNL A   1      45.324  30.251  30.323  1.00  0.00     0.049 A 
ATOM     58  H   UNL A   1      44.454  28.435  29.695  1.00  0.00     0.167 HD
ATOM     59  C   UNL A   1      42.912  30.779  30.096  1.00  0.00     0.074 A 
ATOM     60  C   UNL A   1      41.781  31.681  30.164  1.00  0.00     0.031 C 
ATOM     61  C   UNL A   1      44.188  31.133  30.386  1.00  0.00     0.031 A 
BRANCH  48  62
ATOM     62  C   UNL A   1      48.268  26.528  29.807  1.00  0.00    -0.014 A 
ATOM     63  C   UNL A   1      48.712  25.923  30.994  1.00  0.00     0.009 A 
ATOM     64  C   UNL A   1      49.167  26.670  28.739  1.00  0.00     0.009 A 
ATOM     65  C   UNL A   1      50.039  25.508  31.124  1.00  0.00     0.001 A 
ATOM     66  C   UNL A   1      50.486  26.229  28.862  1.00  0.00     0.001 A 
ATOM     67  C   UNL A   1      50.923  25.658  30.057  1.00  0.00     0.000 A 
ENDBRANCH  48  62
BRANCH  49  68
ATOM     68  C   UNL A   1      38.662  29.113  28.983  1.00  0.00    -0.014 A 
ATOM     69  C   UNL A   1      37.817  29.047  30.101  1.00  0.00     0.009 A 
ATOM     70  C   UNL A   1      38.135  29.553  27.759  1.00  0.00     0.009 A 
ATOM     71  C   UNL A   1      36.466  29.386  29.990  1.00  0.00     0.001 A 
ATOM     72  C   UNL A   1      36.790  29.917  27.657  1.00  0.00     0.001 A 
ATOM     73  C   UNL A   1      35.955  29.824  28.770  1.00  0.00     0.000 A 
ENDBRANCH  49  68
BRANCH  61  74
ATOM     74  C   UNL A   1      44.428  32.564  30.772  1.00  0.00    -0.014 A 
ATOM     75  C   UNL A   1      44.692  33.544  29.803  1.00  0.00     0.009 A 
ATOM     76  C   UNL A   1      44.357  32.940  32.122  1.00  0.00     0.009 A 
ATOM     77  C   UNL A   1      44.916  34.868  30.185  1.00  0.00     0.001 A 
ATOM     78  C   UNL A   1      44.554  34.268  32.497  1.00  0.00     0.001 A 
ATOM     79  C   UNL A   1      44.843  35.230  31.530  1.00  0.00     0.000 A 
ENDBRANCH  61  74
ENDBRANCH  35  36
ENDBRANCH  27  30
ENDBRANCH  25  26
ENDBRANCH  24  25
ENDBRANCH   1  24
TORSDOF 16
ENDMDL
MODEL 2
REMARK VINA RESULT:     -10.4      1.299      3.654
REMARK SMILES CCC[NH2+][C@@]1(C(=O)NCCCCNC(=O)c2ccc(-c3c4nc(c(-c5ccccc5)c5ccc([nH]5)c(-c5ccccc5)c5nc(c(-c6ccccc6)c6ccc3[nH]6)C=C5)C=C4)cc2)CC[C@@H](SC2CCCC2)C1
REMARK SMILES IDX 10 1 9 2 8 3 6 4 7 5 5 7 64 8 73 9 65 10 66 11 4 12 3 15
REMARK SMILES IDX 2 16 1 17 67 18 68 19 69 20 72 21 70 22 71 23 11 24 12 25
REMARK SMILES IDX 13 26 14 27 15 29 16 30 17 31 63 32 18 33 62 34 19 35 20 36
REMARK SMILES IDX 21 37 56 38 22 39 61 40 55 41 57 42 23 43 60 44 54 45 53 46
REMARK SMILES IDX 24 48 46 49 31 50 45 51 32 52 35 53 44 54 58 55 33 56 34 57
REMARK SMILES IDX 43 59 59 60 36 61 25 62 26 63 30 64 27 65 29 66 28 67 47 68
REMARK SMILES IDX 48 69 52 70 49 71 51 72 50 73 37 74 38 75 42 76 39 77 41 78
REMARK SMILES IDX 40 79
REMARK H PARENT 8 6 4 13 4 14 13 28 57 47 35 58
REMARK Flexibility Score: inf
ROOT
ATOM      1  C   UNL A   1      36.973  21.648  24.588  1.00  0.00     0.023 C 
ENDROOT
BRANCH   1   2
ATOM      2  C   UNL A   1      36.376  22.366  25.796  1.00  0.00     0.116 C 
BRANCH   2   3
ATOM      3  N   UNL A   1      35.872  23.666  25.447  1.00  0.00    -0.351 N 
ATOM      4  C   UNL A   1      34.640  24.112  25.107  1.00  0.00     0.281 C 
ATOM      5  O   UNL A   1      34.622  25.293  24.719  1.00  0.00    -0.268 OA
ATOM      6  H   UNL A   1      36.558  24.372  25.456  1.00  0.00     0.163 HD
BRANCH   4   7
ATOM      7  C   UNL A   1      33.289  23.262  25.120  1.00  0.00     0.176 C 
ATOM      8  C   UNL A   1      33.132  22.369  26.367  1.00  0.00     0.080 C 
ATOM      9  C   UNL A   1      33.210  22.318  23.903  1.00  0.00     0.093 C 
ATOM     10  C   UNL A   1      33.303  20.909  25.949  1.00  0.00     0.022 C 
ATOM     11  C   UNL A   1      33.357  20.888  24.427  1.00  0.00     0.054 C 
BRANCH   7  12
ATOM     12  N   UNL A   1      32.242  24.326  25.186  1.00  0.00    -0.334 N 
ATOM     13  H   UNL A   1      32.674  25.138  25.628  1.00  0.00     0.347 HD
ATOM     14  H   UNL A   1      31.946  24.423  24.215  1.00  0.00     0.347 HD
BRANCH  12  15
ATOM     15  C   UNL A   1      30.999  24.077  25.891  1.00  0.00     0.261 C 
BRANCH  15  16
ATOM     16  C   UNL A   1      30.109  25.327  25.903  1.00  0.00     0.058 C 
ATOM     17  C   UNL A   1      30.642  26.442  25.010  1.00  0.00     0.010 C 
ENDBRANCH  15  16
ENDBRANCH  12  15
ENDBRANCH   7  12
BRANCH  11  18
ATOM     18  S   UNL A   1      32.434  19.571  23.546  1.00  0.00    -0.155 SA
BRANCH  18  19
ATOM     19  C   UNL A   1      33.123  17.947  24.027  1.00  0.00     0.047 C 
ATOM     20  C   UNL A   1      34.614  17.791  24.275  1.00  0.00     0.014 C 
ATOM     21  C   UNL A   1      32.478  17.257  25.227  1.00  0.00     0.014 C 
ATOM     22  C   UNL A   1      34.716  16.360  24.777  1.00  0.00     0.001 C 
ATOM     23  C   UNL A   1      33.490  16.191  25.670  1.00  0.00     0.001 C 
ENDBRANCH  18  19
ENDBRANCH  11  18
ENDBRANCH   4   7
ENDBRANCH   2   3
ENDBRANCH   1   2
BRANCH   1  24
ATOM     24  C   UNL A   1      37.753  20.381  24.937  1.00  0.00     0.023 C 
BRANCH  24  25
ATOM     25  C   UNL A   1      39.004  20.610  25.778  1.00  0.00     0.116 C 
BRANCH  25  26
ATOM     26  N   UNL A   1      39.980  19.533  25.707  1.00  0.00    -0.352 N 
ATOM     27  C   UNL A   1      41.308  19.582  26.063  1.00  0.00     0.251 C 
ATOM     28  H   UNL A   1      39.653  18.670  25.364  1.00  0.00     0.163 HD
ATOM     29  O   UNL A   1      42.048  18.622  25.885  1.00  0.00    -0.269 OA
BRANCH  27  30
ATOM     30  C   UNL A   1      41.838  20.843  26.615  1.00  0.00     0.039 A 
ATOM     31  C   UNL A   1      42.296  21.823  25.734  1.00  0.00     0.014 A 
ATOM     32  C   UNL A   1      41.785  21.086  27.990  1.00  0.00     0.014 A 
ATOM     33  C   UNL A   1      42.636  23.082  26.229  1.00  0.00     0.010 A 
ATOM     34  C   UNL A   1      42.044  22.364  28.469  1.00  0.00     0.010 A 
ATOM     35  C   UNL A   1      42.472  23.372  27.594  1.00  0.00    -0.014 A 
BRANCH  35  36
ATOM     36  C   UNL A   1      42.748  24.730  28.122  1.00  0.00     0.031 A 
ATOM     37  C   UNL A   1      44.145  25.114  28.520  1.00  0.00     0.074 A 
ATOM     38  C   UNL A   1      41.731  25.597  28.295  1.00  0.00     0.049 A 
ATOM     39  N   UNL A   1      44.580  26.246  29.014  1.00  0.00    -0.248 NA
ATOM     40  C   UNL A   1      45.185  24.082  28.375  1.00  0.00     0.031 C 
ATOM     41  C   UNL A   1      40.321  25.323  28.005  1.00  0.00     0.029 A 
ATOM     42  N   UNL A   1      41.729  26.889  28.757  1.00  0.00    -0.354 N 
ATOM     43  C   UNL A   1      45.934  26.055  29.251  1.00  0.00     0.074 A 
ATOM     44  C   UNL A   1      46.238  24.686  28.904  1.00  0.00     0.031 C 
ATOM     45  C   UNL A   1      39.598  26.427  28.258  1.00  0.00     0.029 A 
ATOM     46  C   UNL A   1      40.486  27.473  28.754  1.00  0.00     0.049 A 
ATOM     47  H   UNL A   1      42.542  27.353  29.060  1.00  0.00     0.167 HD
ATOM     48  C   UNL A   1      46.852  26.948  29.693  1.00  0.00     0.031 A 
ATOM     49  C   UNL A   1      40.107  28.717  29.102  1.00  0.00     0.031 A 
ATOM     50  C   UNL A   1      46.555  28.316  30.019  1.00  0.00     0.049 A 
ATOM     51  C   UNL A   1      41.148  29.696  29.568  1.00  0.00     0.074 A 
ATOM     52  C   UNL A   1      47.424  29.316  30.415  1.00  0.00     0.029 A 
ATOM     53  N   UNL A   1      45.287  28.874  29.981  1.00  0.00    -0.354 N 
ATOM     54  N   UNL A   1      42.439  29.524  29.712  1.00  0.00    -0.248 NA
ATOM     55  C   UNL A   1      40.678  31.048  29.901  1.00  0.00     0.031 C 
ATOM     56  C   UNL A   1      46.675  30.474  30.655  1.00  0.00     0.029 A 
ATOM     57  C   UNL A   1      45.348  30.204  30.363  1.00  0.00     0.049 A 
ATOM     58  H   UNL A   1      44.466  28.397  29.722  1.00  0.00     0.167 HD
ATOM     59  C   UNL A   1      42.941  30.751  30.127  1.00  0.00     0.074 A 
ATOM     60  C   UNL A   1      41.816  31.662  30.194  1.00  0.00     0.031 C 
ATOM     61  C   UNL A   1      44.217  31.094  30.425  1.00  0.00     0.031 A 
BRANCH  48  62
ATOM     62  C   UNL A   1      48.265  26.460  29.843  1.00  0.00    -0.014 A 
ATOM     63  C   UNL A   1      48.717  25.906  31.052  1.00  0.00     0.009 A 
ATOM     64  C   UNL A   1      49.152  26.541  28.758  1.00  0.00     0.009 A 
ATOM     65  C   UNL A   1      50.040  25.480  31.185  1.00  0.00     0.001 A 
ATOM     66  C   UNL A   1      50.467  26.088  28.886  1.00  0.00     0.001 A 
ATOM     67  C   UNL A   1      50.912  25.567  30.100  1.00  0.00     0.000 A 
ENDBRANCH  48  62
BRANCH  49  68
ATOM     68  C   UNL A   1      38.684  29.123  28.984  1.00  0.00    -0.014 A 
ATOM     69  C   UNL A   1      37.826  29.033  30.091  1.00  0.00     0.009 A 
ATOM     70  C   UNL A   1      38.173  29.598  27.766  1.00  0.00     0.009 A 
ATOM     71  C   UNL A   1      36.478  29.382  29.974  1.00  0.00     0.001 A 
ATOM     72  C   UNL A   1      36.831  29.972  27.660  1.00  0.00     0.001 A 
ATOM     73  C   UNL A   1      35.983  29.855  28.761  1.00  0.00     0.000 A 
ENDBRANCH  49  68
BRANCH  61  74
ATOM     74  C   UNL A   1      44.466  32.520  30.819  1.00  0.00    -0.014 A 
ATOM     75  C   UNL A   1      44.434  32.921  32.163  1.00  0.00     0.009 A 
ATOM     76  C   UNL A   1      44.768  33.471  29.831  1.00  0.00     0.009 A 
ATOM     77  C   UNL A   1      44.664  34.254  32.506  1.00  0.00     0.001 A 
ATOM     78  C   UNL A   1      45.025  34.796  30.180  1.00  0.00     0.001 A 
ATOM     79  C   UNL A   1      44.964  35.189  31.516  1.00  0.00     0.000 A 
ENDBRANCH  61  74
ENDBRANCH  35  36
ENDBRANCH  27  30
ENDBRANCH  25  26
ENDBRANCH  24  25
ENDBRANCH   1  24
TORSDOF 16
ENDMDL
MODEL 3
REMARK VINA RESULT:     -10.4      1.044      6.115
REMARK SMILES CCC[NH2+][C@@]1(C(=O)NCCCCNC(=O)c2ccc(-c3c4nc(c(-c5ccccc5)c5ccc([nH]5)c(-c5ccccc5)c5nc(c(-c6ccccc6)c6ccc3[nH]6)C=C5)C=C4)cc2)CC[C@@H](SC2CCCC2)C1
REMARK SMILES IDX 10 1 9 2 8 3 6 4 7 5 5 7 64 8 73 9 65 10 66 11 4 12 3 15
REMARK SMILES IDX 2 16 1 17 67 18 68 19 69 20 72 21 70 22 71 23 11 24 12 25
REMARK SMILES IDX 13 26 14 27 15 29 16 30 17 31 63 32 18 33 62 34 19 35 20 36
REMARK SMILES IDX 21 37 56 38 22 39 61 40 55 41 57 42 23 43 60 44 54 45 53 46
REMARK SMILES IDX 24 48 46 49 31 50 45 51 32 52 35 53 44 54 58 55 33 56 34 57
REMARK SMILES IDX 43 59 59 60 36 61 25 62 26 63 30 64 27 65 29 66 28 67 47 68
REMARK SMILES IDX 48 69 52 70 49 71 51 72 50 73 37 74 38 75 42 76 39 77 41 78
REMARK SMILES IDX 40 79
REMARK H PARENT 8 6 4 13 4 14 13 28 57 47 35 58
REMARK Flexibility Score: inf
ROOT
ATOM      1  C   UNL A   1      37.214  21.886  24.413  1.00  0.00     0.023 C 
ENDROOT
BRANCH   1   2
ATOM      2  C   UNL A   1      36.443  22.828  25.336  1.00  0.00     0.116 C 
BRANCH   2   3
ATOM      3  N   UNL A   1      35.753  22.111  26.373  1.00  0.00    -0.351 N 
ATOM      4  C   UNL A   1      34.443  21.858  26.599  1.00  0.00     0.281 C 
ATOM      5  O   UNL A   1      34.216  21.324  27.698  1.00  0.00    -0.268 OA
ATOM      6  H   UNL A   1      36.352  21.728  27.054  1.00  0.00     0.163 HD
BRANCH   4   7
ATOM      7  C   UNL A   1      33.229  22.221  25.629  1.00  0.00     0.176 C 
ATOM      8  C   UNL A   1      33.631  22.322  24.144  1.00  0.00     0.080 C 
ATOM      9  C   UNL A   1      32.606  23.583  25.998  1.00  0.00     0.093 C 
ATOM     10  C   UNL A   1      33.581  23.790  23.721  1.00  0.00     0.022 C 
ATOM     11  C   UNL A   1      32.954  24.561  24.874  1.00  0.00     0.054 C 
BRANCH   7  12
ATOM     12  N   UNL A   1      32.332  21.036  25.780  1.00  0.00    -0.334 N 
ATOM     13  H   UNL A   1      32.627  20.550  26.627  1.00  0.00     0.347 HD
ATOM     14  H   UNL A   1      31.399  21.446  25.776  1.00  0.00     0.347 HD
BRANCH  12  15
ATOM     15  C   UNL A   1      32.264  20.040  24.728  1.00  0.00     0.261 C 
BRANCH  15  16
ATOM     16  C   UNL A   1      32.964  18.741  25.149  1.00  0.00     0.058 C 
ATOM     17  C   UNL A   1      34.345  18.583  24.521  1.00  0.00     0.010 C 
ENDBRANCH  15  16
ENDBRANCH  12  15
ENDBRANCH   7  12
BRANCH  11  18
ATOM     18  S   UNL A   1      31.719  25.859  24.478  1.00  0.00    -0.155 SA
BRANCH  18  19
ATOM     19  C   UNL A   1      32.103  27.354  25.460  1.00  0.00     0.047 C 
ATOM     20  C   UNL A   1      31.420  27.587  26.797  1.00  0.00     0.014 C 
ATOM     21  C   UNL A   1      33.577  27.624  25.749  1.00  0.00     0.014 C 
ATOM     22  C   UNL A   1      32.123  28.832  27.312  1.00  0.00     0.001 C 
ATOM     23  C   UNL A   1      33.582  28.629  26.911  1.00  0.00     0.001 C 
ENDBRANCH  18  19
ENDBRANCH  11  18
ENDBRANCH   4   7
ENDBRANCH   2   3
ENDBRANCH   1   2
BRANCH   1  24
ATOM     24  C   UNL A   1      37.792  20.659  25.115  1.00  0.00     0.023 C 
BRANCH  24  25
ATOM     25  C   UNL A   1      39.136  20.884  25.799  1.00  0.00     0.116 C 
BRANCH  25  26
ATOM     26  N   UNL A   1      40.033  19.739  25.752  1.00  0.00    -0.352 N 
ATOM     27  C   UNL A   1      41.364  19.705  26.094  1.00  0.00     0.251 C 
ATOM     28  H   UNL A   1      39.641  18.892  25.439  1.00  0.00     0.163 HD
ATOM     29  O   UNL A   1      42.033  18.690  25.939  1.00  0.00    -0.269 OA
BRANCH  27  30
ATOM     30  C   UNL A   1      41.988  20.941  26.602  1.00  0.00     0.039 A 
ATOM     31  C   UNL A   1      42.465  21.880  25.687  1.00  0.00     0.014 A 
ATOM     32  C   UNL A   1      42.006  21.207  27.974  1.00  0.00     0.014 A 
ATOM     33  C   UNL A   1      42.896  23.124  26.146  1.00  0.00     0.010 A 
ATOM     34  C   UNL A   1      42.358  22.475  28.420  1.00  0.00     0.010 A 
ATOM     35  C   UNL A   1      42.806  23.444  27.511  1.00  0.00    -0.014 A 
BRANCH  35  36
ATOM     36  C   UNL A   1      43.181  24.791  28.004  1.00  0.00     0.031 A 
ATOM     37  C   UNL A   1      42.119  25.824  28.255  1.00  0.00     0.074 A 
ATOM     38  C   UNL A   1      44.482  25.101  28.173  1.00  0.00     0.049 A 
ATOM     39  N   UNL A   1      42.251  27.058  28.672  1.00  0.00    -0.248 NA
ATOM     40  C   UNL A   1      40.729  25.431  27.970  1.00  0.00     0.031 C 
ATOM     41  C   UNL A   1      45.611  24.206  27.905  1.00  0.00     0.029 A 
ATOM     42  N   UNL A   1      45.073  26.258  28.613  1.00  0.00    -0.354 N 
ATOM     43  C   UNL A   1      40.968  27.588  28.684  1.00  0.00     0.074 A 
ATOM     44  C   UNL A   1      40.080  26.566  28.177  1.00  0.00     0.031 C 
ATOM     45  C   UNL A   1      46.754  24.836  28.224  1.00  0.00     0.029 A 
ATOM     46  C   UNL A   1      46.442  26.182  28.690  1.00  0.00     0.049 A 
ATOM     47  H   UNL A   1      44.563  27.066  28.852  1.00  0.00     0.167 HD
ATOM     48  C   UNL A   1      40.559  28.809  29.103  1.00  0.00     0.031 A 
ATOM     49  C   UNL A   1      47.343  27.093  29.102  1.00  0.00     0.031 A 
ATOM     50  C   UNL A   1      41.438  29.819  29.626  1.00  0.00     0.049 A 
ATOM     51  C   UNL A   1      46.863  28.433  29.585  1.00  0.00     0.074 A 
ATOM     52  C   UNL A   1      41.115  31.064  30.135  1.00  0.00     0.029 A 
ATOM     53  N   UNL A   1      42.816  29.694  29.709  1.00  0.00    -0.354 N 
ATOM     54  N   UNL A   1      45.637  28.892  29.663  1.00  0.00    -0.248 NA
ATOM     55  C   UNL A   1      47.891  29.373  30.053  1.00  0.00     0.031 C 
ATOM     56  C   UNL A   1      42.305  31.710  30.492  1.00  0.00     0.029 A 
ATOM     57  C   UNL A   1      43.361  30.847  30.247  1.00  0.00     0.049 A 
ATOM     58  H   UNL A   1      43.330  28.904  29.426  1.00  0.00     0.167 HD
ATOM     59  C   UNL A   1      45.744  30.163  30.214  1.00  0.00     0.074 A 
ATOM     60  C   UNL A   1      47.152  30.393  30.465  1.00  0.00     0.031 C 
ATOM     61  C   UNL A   1      44.765  31.059  30.488  1.00  0.00     0.031 A 
BRANCH  48  62
ATOM     62  C   UNL A   1      39.089  29.108  29.012  1.00  0.00    -0.014 A 
ATOM     63  C   UNL A   1      38.516  29.568  27.816  1.00  0.00     0.009 A 
ATOM     64  C   UNL A   1      38.264  28.912  30.130  1.00  0.00     0.009 A 
ATOM     65  C   UNL A   1      37.153  29.866  27.753  1.00  0.00     0.001 A 
ATOM     66  C   UNL A   1      36.897  29.183  30.056  1.00  0.00     0.001 A 
ATOM     67  C   UNL A   1      36.344  29.669  28.871  1.00  0.00     0.000 A 
ENDBRANCH  48  62
BRANCH  49  68
ATOM     68  C   UNL A   1      48.790  26.758  29.117  1.00  0.00    -0.014 A 
ATOM     69  C   UNL A   1      49.370  26.171  30.252  1.00  0.00     0.009 A 
ATOM     70  C   UNL A   1      49.599  27.026  28.002  1.00  0.00     0.009 A 
ATOM     71  C   UNL A   1      50.738  25.885  30.282  1.00  0.00     0.001 A 
ATOM     72  C   UNL A   1      50.961  26.715  28.025  1.00  0.00     0.001 A 
ATOM     73  C   UNL A   1      51.530  26.154  29.168  1.00  0.00     0.000 A 
ENDBRANCH  49  68
BRANCH  61  74
ATOM     74  C   UNL A   1      45.183  32.355  31.119  1.00  0.00    -0.014 A 
ATOM     75  C   UNL A   1      45.502  33.476  30.337  1.00  0.00     0.009 A 
ATOM     76  C   UNL A   1      45.228  32.463  32.518  1.00  0.00     0.009 A 
ATOM     77  C   UNL A   1      45.892  34.670  30.945  1.00  0.00     0.001 A 
ATOM     78  C   UNL A   1      45.592  33.666  33.122  1.00  0.00     0.001 A 
ATOM     79  C   UNL A   1      45.933  34.766  32.336  1.00  0.00     0.000 A 
ENDBRANCH  61  74
ENDBRANCH  35  36
ENDBRANCH  27  30
ENDBRANCH  25  26
ENDBRANCH  24  25
ENDBRANCH   1  24
TORSDOF 16
ENDMDL
