MODEL 1
REMARK VINA RESULT:     -12.9      0.000      0.000
REMARK SMILES Cc1cc(C(=O)NCCCCNC(=O)c2ccc(-c3c4nc(c(-c5ccccc5)c5ccc([nH]5)c(-c5ccccc5)c5nc(c(-c6ccccc6)c6ccc3[nH]6)C=C5)C=C4)cc2)ccc1NC(=O)N1C[C@@H](C)[C@H](C)C1
REMARK SMILES IDX 10 1 9 2 8 3 7 4 5 5 6 6 4 8 1 9 2 10 3 11 65 12 64 13 63 14
REMARK SMILES IDX 66 15 67 16 68 18 69 19 70 20 75 21 71 22 73 23 72 24 74 25
REMARK SMILES IDX 11 26 12 27 13 28 14 30 15 31 16 32 62 33 17 34 61 35 18 36
REMARK SMILES IDX 19 37 20 38 55 39 21 40 60 41 54 42 56 43 22 44 59 45 53 46
REMARK SMILES IDX 52 47 23 49 45 50 30 51 44 52 31 53 34 54 43 55 57 56 32 57
REMARK SMILES IDX 33 58 42 60 58 61 35 62 24 63 25 64 29 65 26 66 28 67 27 68
REMARK SMILES IDX 46 69 47 70 51 71 48 72 50 73 49 74 36 75 37 76 41 77 38 78
REMARK SMILES IDX 40 79 39 80
REMARK H PARENT 7 7 66 17 12 29 56 48 34 59
REMARK Flexibility Score: inf
ROOT
ATOM      1  C   UNL A   1      38.437  22.521  25.708  1.00  0.00     0.023 C 
ENDROOT
BRANCH   1   2
ATOM      2  C   UNL A   1      37.525  21.361  25.318  1.00  0.00     0.023 C 
BRANCH   2   3
ATOM      3  C   UNL A   1      36.034  21.565  25.644  1.00  0.00     0.116 C 
BRANCH   3   4
ATOM      4  N   UNL A   1      35.202  20.405  25.334  1.00  0.00    -0.352 N 
ATOM      5  C   UNL A   1      33.945  20.298  24.776  1.00  0.00     0.251 C 
ATOM      6  O   UNL A   1      33.545  19.188  24.430  1.00  0.00    -0.269 OA
ATOM      7  H   UNL A   1      35.615  19.541  25.564  1.00  0.00     0.163 HD
BRANCH   5   8
ATOM      8  C   UNL A   1      33.085  21.486  24.547  1.00  0.00     0.040 A 
ATOM      9  C   UNL A   1      30.545  23.520  26.504  1.00  0.00     0.046 C 
ATOM     10  C   UNL A   1      31.314  22.997  25.323  1.00  0.00    -0.027 A 
ATOM     11  C   UNL A   1      32.220  21.933  25.553  1.00  0.00     0.019 A 
ATOM     12  C   UNL A   1      31.239  23.547  24.031  1.00  0.00     0.045 A 
ATOM     13  C   UNL A   1      32.235  23.221  23.110  1.00  0.00     0.027 A 
ATOM     14  C   UNL A   1      33.160  22.224  23.379  1.00  0.00     0.016 A 
BRANCH  12  15
ATOM     15  N   UNL A   1      30.221  24.450  23.662  1.00  0.00    -0.308 N 
ATOM     16  C   UNL A   1      30.076  25.761  24.033  1.00  0.00     0.321 C 
ATOM     17  H   UNL A   1      29.527  24.094  23.060  1.00  0.00     0.171 HD
ATOM     18  O   UNL A   1      28.942  26.221  24.174  1.00  0.00    -0.248 OA
ATOM     19  N   UNL A   1      31.203  26.524  24.218  1.00  0.00    -0.324 N 
ATOM     20  C   UNL A   1      31.204  27.668  25.111  1.00  0.00     0.125 C 
ATOM     21  C   UNL A   1      32.339  26.567  23.302  1.00  0.00     0.125 C 
ATOM     22  C   UNL A   1      32.307  28.590  24.593  1.00  0.00     0.010 C 
ATOM     23  C   UNL A   1      33.278  27.624  23.890  1.00  0.00     0.010 C 
ATOM     24  C   UNL A   1      32.965  29.401  25.700  1.00  0.00     0.010 C 
ATOM     25  C   UNL A   1      34.151  28.311  22.844  1.00  0.00     0.010 C 
ENDBRANCH  12  15
ENDBRANCH   5   8
ENDBRANCH   3   4
ENDBRANCH   2   3
ENDBRANCH   1   2
BRANCH   1  26
ATOM     26  C   UNL A   1      39.588  22.105  26.607  1.00  0.00     0.116 C 
BRANCH  26  27
ATOM     27  N   UNL A   1      40.371  20.983  26.102  1.00  0.00    -0.352 N 
ATOM     28  C   UNL A   1      41.746  20.788  26.108  1.00  0.00     0.251 C 
ATOM     29  H   UNL A   1      39.846  20.255  25.698  1.00  0.00     0.163 HD
ATOM     30  O   UNL A   1      42.225  19.798  25.588  1.00  0.00    -0.269 OA
BRANCH  28  31
ATOM     31  C   UNL A   1      42.609  21.707  26.899  1.00  0.00     0.039 A 
ATOM     32  C   UNL A   1      42.437  21.704  28.288  1.00  0.00     0.014 A 
ATOM     33  C   UNL A   1      43.323  22.730  26.288  1.00  0.00     0.014 A 
ATOM     34  C   UNL A   1      42.686  22.870  29.002  1.00  0.00     0.010 A 
ATOM     35  C   UNL A   1      43.446  23.928  26.961  1.00  0.00     0.010 A 
ATOM     36  C   UNL A   1      43.035  24.017  28.294  1.00  0.00    -0.014 A 
BRANCH  36  37
ATOM     37  C   UNL A   1      42.824  25.364  28.813  1.00  0.00     0.031 A 
ATOM     38  C   UNL A   1      41.664  26.162  28.357  1.00  0.00     0.074 A 
ATOM     39  C   UNL A   1      43.638  25.831  29.790  1.00  0.00     0.049 A 
ATOM     40  N   UNL A   1      41.600  27.451  28.408  1.00  0.00    -0.248 NA
ATOM     41  C   UNL A   1      40.484  25.558  27.745  1.00  0.00     0.031 C 
ATOM     42  C   UNL A   1      43.426  27.025  30.608  1.00  0.00     0.029 A 
ATOM     43  N   UNL A   1      44.936  25.434  30.134  1.00  0.00    -0.354 N 
ATOM     44  C   UNL A   1      40.289  27.804  28.176  1.00  0.00     0.074 A 
ATOM     45  C   UNL A   1      39.671  26.613  27.645  1.00  0.00     0.031 C 
ATOM     46  C   UNL A   1      44.614  27.436  31.081  1.00  0.00     0.029 A 
ATOM     47  C   UNL A   1      45.629  26.617  30.439  1.00  0.00     0.049 A 
ATOM     48  H   UNL A   1      45.290  24.515  30.158  1.00  0.00     0.167 HD
ATOM     49  C   UNL A   1      39.831  29.010  28.620  1.00  0.00     0.031 A 
ATOM     50  C   UNL A   1      46.671  27.109  29.703  1.00  0.00     0.031 A 
ATOM     51  C   UNL A   1      40.919  29.838  29.148  1.00  0.00     0.049 A 
ATOM     52  C   UNL A   1      46.430  28.517  29.181  1.00  0.00     0.074 A 
ATOM     53  C   UNL A   1      41.323  30.161  30.432  1.00  0.00     0.029 A 
ATOM     54  N   UNL A   1      41.952  30.227  28.302  1.00  0.00    -0.354 N 
ATOM     55  N   UNL A   1      45.252  29.073  29.125  1.00  0.00    -0.248 NA
ATOM     56  C   UNL A   1      47.473  29.380  28.627  1.00  0.00     0.031 C 
ATOM     57  C   UNL A   1      42.648  30.666  30.361  1.00  0.00     0.029 A 
ATOM     58  C   UNL A   1      43.033  30.680  29.032  1.00  0.00     0.049 A 
ATOM     59  H   UNL A   1      41.917  30.185  27.318  1.00  0.00     0.167 HD
ATOM     60  C   UNL A   1      45.349  30.314  28.555  1.00  0.00     0.074 A 
ATOM     61  C   UNL A   1      46.763  30.467  28.266  1.00  0.00     0.031 C 
ATOM     62  C   UNL A   1      44.253  31.101  28.355  1.00  0.00     0.031 A 
BRANCH  49  63
ATOM     63  C   UNL A   1      38.365  29.312  28.867  1.00  0.00    -0.014 A 
ATOM     64  C   UNL A   1      37.571  29.809  27.815  1.00  0.00     0.009 A 
ATOM     65  C   UNL A   1      37.720  29.216  30.112  1.00  0.00     0.009 A 
ATOM     66  C   UNL A   1      36.263  30.275  28.017  1.00  0.00     0.001 A 
ATOM     67  C   UNL A   1      36.423  29.703  30.332  1.00  0.00     0.001 A 
ATOM     68  C   UNL A   1      35.698  30.248  29.285  1.00  0.00     0.000 A 
ENDBRANCH  49  63
BRANCH  50  69
ATOM     69  C   UNL A   1      47.471  26.083  28.982  1.00  0.00    -0.014 A 
ATOM     70  C   UNL A   1      47.150  25.800  27.642  1.00  0.00     0.009 A 
ATOM     71  C   UNL A   1      48.713  25.659  29.477  1.00  0.00     0.009 A 
ATOM     72  C   UNL A   1      48.091  25.220  26.786  1.00  0.00     0.001 A 
ATOM     73  C   UNL A   1      49.649  25.068  28.618  1.00  0.00     0.001 A 
ATOM     74  C   UNL A   1      49.353  24.884  27.268  1.00  0.00     0.000 A 
ENDBRANCH  50  69
BRANCH  62  75
ATOM     75  C   UNL A   1      44.212  32.377  27.552  1.00  0.00    -0.014 A 
ATOM     76  C   UNL A   1      44.340  32.434  26.158  1.00  0.00     0.009 A 
ATOM     77  C   UNL A   1      43.882  33.584  28.210  1.00  0.00     0.009 A 
ATOM     78  C   UNL A   1      44.186  33.643  25.462  1.00  0.00     0.001 A 
ATOM     79  C   UNL A   1      43.684  34.781  27.517  1.00  0.00     0.001 A 
ATOM     80  C   UNL A   1      43.847  34.811  26.140  1.00  0.00     0.000 A 
ENDBRANCH  62  75
ENDBRANCH  36  37
ENDBRANCH  28  31
ENDBRANCH  26  27
ENDBRANCH   1  26
TORSDOF 12
ENDMDL
MODEL 2
REMARK VINA RESULT:     -12.7      3.588      9.005
REMARK SMILES Cc1cc(C(=O)NCCCCNC(=O)c2ccc(-c3c4nc(c(-c5ccccc5)c5ccc([nH]5)c(-c5ccccc5)c5nc(c(-c6ccccc6)c6ccc3[nH]6)C=C5)C=C4)cc2)ccc1NC(=O)N1C[C@@H](C)[C@H](C)C1
REMARK SMILES IDX 10 1 9 2 8 3 7 4 5 5 6 6 4 8 1 9 2 10 3 11 65 12 64 13 63 14
REMARK SMILES IDX 66 15 67 16 68 18 69 19 70 20 75 21 71 22 73 23 72 24 74 25
REMARK SMILES IDX 11 26 12 27 13 28 14 30 15 31 16 32 62 33 17 34 61 35 18 36
REMARK SMILES IDX 19 37 20 38 55 39 21 40 60 41 54 42 56 43 22 44 59 45 53 46
REMARK SMILES IDX 52 47 23 49 45 50 30 51 44 52 31 53 34 54 43 55 57 56 32 57
REMARK SMILES IDX 33 58 42 60 58 61 35 62 24 63 25 64 29 65 26 66 28 67 27 68
REMARK SMILES IDX 46 69 47 70 51 71 48 72 50 73 49 74 36 75 37 76 41 77 38 78
REMARK SMILES IDX 40 79 39 80
REMARK H PARENT 7 7 66 17 12 29 56 48 34 59
REMARK Flexibility Score: inf
ROOT
ATOM      1  C   UNL A   1      34.165  29.311  27.299  1.00  0.00     0.023 C 
ENDROOT
BRANCH   1   2
ATOM      2  C   UNL A   1      32.847  29.557  26.570  1.00  0.00     0.023 C 
BRANCH   2   3
ATOM      3  C   UNL A   1      32.939  29.546  25.033  1.00  0.00     0.116 C 
BRANCH   3   4
ATOM      4  N   UNL A   1      31.674  29.847  24.368  1.00  0.00    -0.352 N 
ATOM      5  C   UNL A   1      30.689  29.031  23.852  1.00  0.00     0.251 C 
ATOM      6  O   UNL A   1      29.617  29.534  23.522  1.00  0.00    -0.269 OA
ATOM      7  H   UNL A   1      31.489  30.809  24.271  1.00  0.00     0.163 HD
BRANCH   5   8
ATOM      8  C   UNL A   1      30.874  27.563  23.726  1.00  0.00     0.040 A 
ATOM      9  C   UNL A   1      32.856  25.171  21.542  1.00  0.00     0.046 C 
ATOM     10  C   UNL A   1      31.817  25.645  22.519  1.00  0.00    -0.027 A 
ATOM     11  C   UNL A   1      31.706  27.041  22.728  1.00  0.00     0.019 A 
ATOM     12  C   UNL A   1      31.007  24.786  23.282  1.00  0.00     0.045 A 
ATOM     13  C   UNL A   1      30.339  25.311  24.389  1.00  0.00     0.027 A 
ATOM     14  C   UNL A   1      30.299  26.677  24.620  1.00  0.00     0.016 A 
BRANCH  12  15
ATOM     15  N   UNL A   1      30.892  23.412  22.990  1.00  0.00    -0.308 N 
ATOM     16  C   UNL A   1      31.837  22.431  23.143  1.00  0.00     0.321 C 
ATOM     17  H   UNL A   1      30.022  23.119  22.631  1.00  0.00     0.171 HD
ATOM     18  O   UNL A   1      31.863  21.496  22.343  1.00  0.00    -0.248 OA
ATOM     19  N   UNL A   1      32.713  22.517  24.198  1.00  0.00    -0.324 N 
ATOM     20  C   UNL A   1      34.030  21.909  24.138  1.00  0.00     0.125 C 
ATOM     21  C   UNL A   1      32.333  22.824  25.573  1.00  0.00     0.125 C 
ATOM     22  C   UNL A   1      34.422  21.640  25.590  1.00  0.00     0.010 C 
ATOM     23  C   UNL A   1      33.632  22.704  26.376  1.00  0.00     0.010 C 
ATOM     24  C   UNL A   1      35.924  21.718  25.820  1.00  0.00     0.010 C 
ATOM     25  C   UNL A   1      33.411  22.325  27.837  1.00  0.00     0.010 C 
ENDBRANCH  12  15
ENDBRANCH   5   8
ENDBRANCH   3   4
ENDBRANCH   2   3
ENDBRANCH   1   2
BRANCH   1  26
ATOM     26  C   UNL A   1      34.896  30.590  27.668  1.00  0.00     0.116 C 
BRANCH  26  27
ATOM     27  N   UNL A   1      34.053  31.780  27.693  1.00  0.00    -0.352 N 
ATOM     28  C   UNL A   1      34.119  32.896  28.516  1.00  0.00     0.251 C 
ATOM     29  H   UNL A   1      33.329  31.793  27.025  1.00  0.00     0.163 HD
ATOM     30  O   UNL A   1      33.286  33.777  28.419  1.00  0.00    -0.269 OA
BRANCH  28  31
ATOM     31  C   UNL A   1      35.306  33.085  29.393  1.00  0.00     0.039 A 
ATOM     32  C   UNL A   1      36.380  33.809  28.861  1.00  0.00     0.014 A 
ATOM     33  C   UNL A   1      35.477  32.335  30.549  1.00  0.00     0.014 A 
ATOM     34  C   UNL A   1      37.669  33.517  29.291  1.00  0.00     0.010 A 
ATOM     35  C   UNL A   1      36.755  31.942  30.886  1.00  0.00     0.010 A 
ATOM     36  C   UNL A   1      37.846  32.465  30.186  1.00  0.00    -0.014 A 
BRANCH  36  37
ATOM     37  C   UNL A   1      39.102  31.735  30.314  1.00  0.00     0.031 A 
ATOM     38  C   UNL A   1      39.273  30.428  29.642  1.00  0.00     0.074 A 
ATOM     39  C   UNL A   1      40.141  32.315  30.964  1.00  0.00     0.049 A 
ATOM     40  N   UNL A   1      40.128  29.528  30.001  1.00  0.00    -0.248 NA
ATOM     41  C   UNL A   1      38.438  30.003  28.522  1.00  0.00     0.031 C 
ATOM     42  C   UNL A   1      41.532  31.864  30.966  1.00  0.00     0.029 A 
ATOM     43  N   UNL A   1      40.133  33.334  31.924  1.00  0.00    -0.354 N 
ATOM     44  C   UNL A   1      40.194  28.599  28.987  1.00  0.00     0.074 A 
ATOM     45  C   UNL A   1      39.041  28.867  28.161  1.00  0.00     0.031 C 
ATOM     46  C   UNL A   1      42.137  32.347  32.063  1.00  0.00     0.029 A 
ATOM     47  C   UNL A   1      41.104  32.972  32.872  1.00  0.00     0.049 A 
ATOM     48  H   UNL A   1      39.565  34.139  31.933  1.00  0.00     0.167 HD
ATOM     49  C   UNL A   1      41.308  27.822  28.863  1.00  0.00     0.031 A 
ATOM     50  C   UNL A   1      40.826  32.637  34.169  1.00  0.00     0.031 A 
ATOM     51  C   UNL A   1      42.220  28.002  29.995  1.00  0.00     0.049 A 
ATOM     52  C   UNL A   1      41.314  31.249  34.551  1.00  0.00     0.074 A 
ATOM     53  C   UNL A   1      43.413  28.689  30.148  1.00  0.00     0.029 A 
ATOM     54  N   UNL A   1      41.792  27.671  31.276  1.00  0.00    -0.354 N 
ATOM     55  N   UNL A   1      41.642  30.334  33.681  1.00  0.00    -0.248 NA
ATOM     56  C   UNL A   1      41.410  30.759  35.926  1.00  0.00     0.031 C 
ATOM     57  C   UNL A   1      43.653  28.848  31.538  1.00  0.00     0.029 A 
ATOM     58  C   UNL A   1      42.624  28.229  32.227  1.00  0.00     0.049 A 
ATOM     59  H   UNL A   1      41.003  27.116  31.478  1.00  0.00     0.167 HD
ATOM     60  C   UNL A   1      41.982  29.176  34.328  1.00  0.00     0.074 A 
ATOM     61  C   UNL A   1      41.829  29.493  35.735  1.00  0.00     0.031 C 
ATOM     62  C   UNL A   1      42.343  28.051  33.645  1.00  0.00     0.031 A 
BRANCH  49  63
ATOM     63  C   UNL A   1      41.716  27.141  27.570  1.00  0.00    -0.014 A 
ATOM     64  C   UNL A   1      42.029  25.767  27.577  1.00  0.00     0.009 A 
ATOM     65  C   UNL A   1      41.897  27.792  26.338  1.00  0.00     0.009 A 
ATOM     66  C   UNL A   1      42.583  25.118  26.462  1.00  0.00     0.001 A 
ATOM     67  C   UNL A   1      42.474  27.160  25.226  1.00  0.00     0.001 A 
ATOM     68  C   UNL A   1      42.832  25.823  25.293  1.00  0.00     0.000 A 
ENDBRANCH  49  63
BRANCH  50  69
ATOM     69  C   UNL A   1      39.605  33.272  34.733  1.00  0.00    -0.014 A 
ATOM     70  C   UNL A   1      38.347  32.783  34.333  1.00  0.00     0.009 A 
ATOM     71  C   UNL A   1      39.676  34.080  35.877  1.00  0.00     0.009 A 
ATOM     72  C   UNL A   1      37.213  32.994  35.122  1.00  0.00     0.001 A 
ATOM     73  C   UNL A   1      38.533  34.298  36.658  1.00  0.00     0.001 A 
ATOM     74  C   UNL A   1      37.313  33.724  36.302  1.00  0.00     0.000 A 
ENDBRANCH  50  69
BRANCH  62  75
ATOM     75  C   UNL A   1      42.526  26.677  34.237  1.00  0.00    -0.014 A 
ATOM     76  C   UNL A   1      41.575  26.030  35.036  1.00  0.00     0.009 A 
ATOM     77  C   UNL A   1      43.658  25.919  33.856  1.00  0.00     0.009 A 
ATOM     78  C   UNL A   1      41.763  24.708  35.465  1.00  0.00     0.001 A 
ATOM     79  C   UNL A   1      43.828  24.588  34.245  1.00  0.00     0.001 A 
ATOM     80  C   UNL A   1      42.882  23.985  35.061  1.00  0.00     0.000 A 
ENDBRANCH  62  75
ENDBRANCH  36  37
ENDBRANCH  28  31
ENDBRANCH  26  27
ENDBRANCH   1  26
TORSDOF 12
ENDMDL
MODEL 3
REMARK VINA RESULT:     -12.7      2.995      8.409
REMARK SMILES Cc1cc(C(=O)NCCCCNC(=O)c2ccc(-c3c4nc(c(-c5ccccc5)c5ccc([nH]5)c(-c5ccccc5)c5nc(c(-c6ccccc6)c6ccc3[nH]6)C=C5)C=C4)cc2)ccc1NC(=O)N1C[C@@H](C)[C@H](C)C1
REMARK SMILES IDX 10 1 9 2 8 3 7 4 5 5 6 6 4 8 1 9 2 10 3 11 65 12 64 13 63 14
REMARK SMILES IDX 66 15 67 16 68 18 69 19 70 20 75 21 71 22 73 23 72 24 74 25
REMARK SMILES IDX 11 26 12 27 13 28 14 30 15 31 16 32 62 33 17 34 61 35 18 36
REMARK SMILES IDX 19 37 20 38 55 39 21 40 60 41 54 42 56 43 22 44 59 45 53 46
REMARK SMILES IDX 52 47 23 49 45 50 30 51 44 52 31 53 34 54 43 55 57 56 32 57
REMARK SMILES IDX 33 58 42 60 58 61 35 62 24 63 25 64 29 65 26 66 28 67 27 68
REMARK SMILES IDX 46 69 47 70 51 71 48 72 50 73 49 74 36 75 37 76 41 77 38 78
REMARK SMILES IDX 40 79 39 80
REMARK H PARENT 7 7 66 17 12 29 56 48 34 59
REMARK Flexibility Score: inf
ROOT
ATOM      1  C   UNL A   1      32.995  30.954  27.255  1.00  0.00     0.023 C 
ENDROOT
BRANCH   1   2
ATOM      2  C   UNL A   1      32.081  29.900  26.635  1.00  0.00     0.023 C 
BRANCH   2   3
ATOM      3  C   UNL A   1      32.336  29.611  25.144  1.00  0.00     0.116 C 
BRANCH   3   4
ATOM      4  N   UNL A   1      31.166  29.827  24.297  1.00  0.00    -0.352 N 
ATOM      5  C   UNL A   1      30.332  28.948  23.639  1.00  0.00     0.251 C 
ATOM      6  O   UNL A   1      29.288  29.376  23.151  1.00  0.00    -0.269 OA
ATOM      7  H   UNL A   1      30.929  30.775  24.173  1.00  0.00     0.163 HD
BRANCH   5   8
ATOM      8  C   UNL A   1      30.640  27.499  23.541  1.00  0.00     0.040 A 
ATOM      9  C   UNL A   1      32.868  25.249  21.445  1.00  0.00     0.046 C 
ATOM     10  C   UNL A   1      31.768  25.649  22.389  1.00  0.00    -0.027 A 
ATOM     11  C   UNL A   1      31.538  27.034  22.572  1.00  0.00     0.019 A 
ATOM     12  C   UNL A   1      31.013  24.737  23.146  1.00  0.00     0.045 A 
ATOM     13  C   UNL A   1      30.276  25.220  24.228  1.00  0.00     0.027 A 
ATOM     14  C   UNL A   1      30.118  26.582  24.436  1.00  0.00     0.016 A 
BRANCH  12  15
ATOM     15  N   UNL A   1      31.019  23.354  22.874  1.00  0.00    -0.308 N 
ATOM     16  C   UNL A   1      32.047  22.463  23.038  1.00  0.00     0.321 C 
ATOM     17  H   UNL A   1      30.178  22.980  22.522  1.00  0.00     0.171 HD
ATOM     18  O   UNL A   1      32.154  21.522  22.251  1.00  0.00    -0.248 OA
ATOM     19  N   UNL A   1      32.914  22.641  24.089  1.00  0.00    -0.324 N 
ATOM     20  C   UNL A   1      34.279  22.150  24.033  1.00  0.00     0.125 C 
ATOM     21  C   UNL A   1      32.512  22.932  25.461  1.00  0.00     0.125 C 
ATOM     22  C   UNL A   1      34.696  21.937  25.488  1.00  0.00     0.010 C 
ATOM     23  C   UNL A   1      33.817  22.939  26.261  1.00  0.00     0.010 C 
ATOM     24  C   UNL A   1      36.186  22.151  25.712  1.00  0.00     0.010 C 
ATOM     25  C   UNL A   1      33.633  22.563  27.728  1.00  0.00     0.010 C 
ENDBRANCH  12  15
ENDBRANCH   5   8
ENDBRANCH   3   4
ENDBRANCH   2   3
ENDBRANCH   1   2
BRANCH   1  26
ATOM     26  C   UNL A   1      34.459  30.551  27.261  1.00  0.00     0.116 C 
BRANCH  26  27
ATOM     27  N   UNL A   1      35.330  31.457  28.004  1.00  0.00    -0.352 N 
ATOM     28  C   UNL A   1      36.552  31.210  28.614  1.00  0.00     0.251 C 
ATOM     29  H   UNL A   1      35.001  32.382  28.082  1.00  0.00     0.163 HD
ATOM     30  O   UNL A   1      37.113  32.091  29.238  1.00  0.00    -0.269 OA
BRANCH  28  31
ATOM     31  C   UNL A   1      37.248  29.919  28.357  1.00  0.00     0.039 A 
ATOM     32  C   UNL A   1      37.302  29.005  29.415  1.00  0.00     0.014 A 
ATOM     33  C   UNL A   1      38.063  29.748  27.245  1.00  0.00     0.014 A 
ATOM     34  C   UNL A   1      38.383  28.135  29.500  1.00  0.00     0.010 A 
ATOM     35  C   UNL A   1      39.204  28.987  27.388  1.00  0.00     0.010 A 
ATOM     36  C   UNL A   1      39.405  28.256  28.562  1.00  0.00    -0.014 A 
BRANCH  36  37
ATOM     37  C   UNL A   1      40.769  27.805  28.814  1.00  0.00     0.031 A 
ATOM     38  C   UNL A   1      41.219  26.485  28.318  1.00  0.00     0.074 A 
ATOM     39  C   UNL A   1      41.645  28.649  29.412  1.00  0.00     0.049 A 
ATOM     40  N   UNL A   1      42.209  25.818  28.811  1.00  0.00    -0.248 NA
ATOM     41  C   UNL A   1      40.536  25.776  27.239  1.00  0.00     0.031 C 
ATOM     42  C   UNL A   1      43.095  28.481  29.507  1.00  0.00     0.029 A 
ATOM     43  N   UNL A   1      41.397  29.754  30.235  1.00  0.00    -0.354 N 
ATOM     44  C   UNL A   1      42.501  24.805  27.924  1.00  0.00     0.074 A 
ATOM     45  C   UNL A   1      41.361  24.744  27.041  1.00  0.00     0.031 C 
ATOM     46  C   UNL A   1      43.542  29.199  30.550  1.00  0.00     0.029 A 
ATOM     47  C   UNL A   1      42.370  29.704  31.246  1.00  0.00     0.049 A 
ATOM     48  H   UNL A   1      40.687  30.428  30.127  1.00  0.00     0.167 HD
ATOM     49  C   UNL A   1      43.746  24.250  27.929  1.00  0.00     0.031 A 
ATOM     50  C   UNL A   1      42.095  29.478  32.567  1.00  0.00     0.031 A 
ATOM     51  C   UNL A   1      44.550  24.738  29.052  1.00  0.00     0.049 A 
ATOM     52  C   UNL A   1      42.818  28.267  33.135  1.00  0.00     0.074 A 
ATOM     53  C   UNL A   1      45.582  25.657  29.147  1.00  0.00     0.029 A 
ATOM     54  N   UNL A   1      44.129  24.486  30.353  1.00  0.00    -0.354 N 
ATOM     55  N   UNL A   1      43.357  27.336  32.396  1.00  0.00    -0.248 NA
ATOM     56  C   UNL A   1      42.937  27.972  34.563  1.00  0.00     0.031 C 
ATOM     57  C   UNL A   1      45.718  26.024  30.512  1.00  0.00     0.029 A 
ATOM     58  C   UNL A   1      44.792  25.304  31.247  1.00  0.00     0.049 A 
ATOM     59  H   UNL A   1      43.450  23.816  30.603  1.00  0.00     0.167 HD
ATOM     60  C   UNL A   1      43.877  26.352  33.194  1.00  0.00     0.074 A 
ATOM     61  C   UNL A   1      43.597  26.798  34.545  1.00  0.00     0.031 C 
ATOM     62  C   UNL A   1      44.479  25.245  32.668  1.00  0.00     0.031 A 
BRANCH  49  63
ATOM     63  C   UNL A   1      44.341  23.512  26.743  1.00  0.00    -0.014 A 
ATOM     64  C   UNL A   1      45.199  24.196  25.859  1.00  0.00     0.009 A 
ATOM     65  C   UNL A   1      44.040  22.188  26.385  1.00  0.00     0.009 A 
ATOM     66  C   UNL A   1      45.638  23.629  24.652  1.00  0.00     0.001 A 
ATOM     67  C   UNL A   1      44.450  21.621  25.169  1.00  0.00     0.001 A 
ATOM     68  C   UNL A   1      45.239  22.350  24.293  1.00  0.00     0.000 A 
ENDBRANCH  49  63
BRANCH  50  69
ATOM     69  C   UNL A   1      40.750  29.926  33.015  1.00  0.00    -0.014 A 
ATOM     70  C   UNL A   1      40.510  31.305  33.149  1.00  0.00     0.009 A 
ATOM     71  C   UNL A   1      39.649  29.057  32.969  1.00  0.00     0.009 A 
ATOM     72  C   UNL A   1      39.209  31.814  33.116  1.00  0.00     0.001 A 
ATOM     73  C   UNL A   1      38.346  29.571  32.946  1.00  0.00     0.001 A 
ATOM     74  C   UNL A   1      38.128  30.947  32.981  1.00  0.00     0.000 A 
ENDBRANCH  50  69
BRANCH  62  75
ATOM     75  C   UNL A   1      44.890  24.013  33.434  1.00  0.00    -0.014 A 
ATOM     76  C   UNL A   1      46.174  23.798  33.950  1.00  0.00     0.009 A 
ATOM     77  C   UNL A   1      43.896  23.072  33.789  1.00  0.00     0.009 A 
ATOM     78  C   UNL A   1      46.460  22.679  34.746  1.00  0.00     0.001 A 
ATOM     79  C   UNL A   1      44.166  21.980  34.617  1.00  0.00     0.001 A 
ATOM     80  C   UNL A   1      45.455  21.778  35.088  1.00  0.00     0.000 A 
ENDBRANCH  62  75
ENDBRANCH  36  37
ENDBRANCH  28  31
ENDBRANCH  26  27
ENDBRANCH   1  26
TORSDOF 12
ENDMDL
