MODEL 1
REMARK VINA RESULT:     -12.7      0.000      0.000
REMARK SMILES Cc1ccc(-c2nc(C)c(C(=O)N3CCC(C(=O)NCCCCNC(=O)c4ccc(-c5c6nc(c(-c7ccccc7)c7ccc([nH]7)c(-c7ccccc7)c7nc(c(-c8ccccc8)c8ccc5[nH]8)C=C7)C=C6)cc4)CC3)s2)o1
REMARK SMILES IDX 21 1 20 2 19 3 17 4 18 5 16 7 11 8 12 9 13 10 14 11 76 12
REMARK SMILES IDX 15 13 75 14 10 15 6 16 7 17 77 18 8 19 9 20 5 21 1 22 2 23
REMARK SMILES IDX 3 24 78 25 4 26 22 27 23 28 24 29 25 30 26 32 27 33 28 34
REMARK SMILES IDX 74 35 29 36 73 37 30 38 31 39 32 40 67 41 33 42 72 43 66 44
REMARK SMILES IDX 68 45 34 46 71 47 65 48 64 49 35 51 57 52 42 53 56 54 43 55
REMARK SMILES IDX 46 56 55 57 69 58 44 59 45 60 54 62 70 63 47 64 36 65 37 66
REMARK SMILES IDX 41 67 38 68 40 69 39 70 58 71 59 72 63 73 60 74 62 75 61 76
REMARK SMILES IDX 48 77 49 78 53 79 50 80 52 81 51 82
REMARK H PARENT 19 6 24 31 68 50 46 61
REMARK Flexibility Score: inf
ROOT
ATOM      1  C   UNL A   1      32.913  29.560  24.992  1.00  0.00     0.023 C 
ENDROOT
BRANCH   1   2
ATOM      2  C   UNL A   1      31.438  29.169  24.970  1.00  0.00     0.116 C 
BRANCH   2   3
ATOM      3  N   UNL A   1      30.782  29.596  23.744  1.00  0.00    -0.356 N 
ATOM      4  C   UNL A   1      30.582  28.939  22.570  1.00  0.00     0.223 C 
ATOM      5  O   UNL A   1      30.000  29.537  21.663  1.00  0.00    -0.275 OA
ATOM      6  H   UNL A   1      30.422  30.512  23.769  1.00  0.00     0.163 HD
BRANCH   4   7
ATOM      7  C   UNL A   1      31.044  27.502  22.373  1.00  0.00     0.082 C 
ATOM      8  C   UNL A   1      32.911  24.653  24.645  1.00  0.00     0.265 C 
ATOM      9  O   UNL A   1      33.750  25.331  25.242  1.00  0.00    -0.268 OA
ATOM     10  N   UNL A   1      32.278  25.187  23.525  1.00  0.00    -0.338 N 
ATOM     11  C   UNL A   1      33.057  25.961  22.575  1.00  0.00     0.120 C 
ATOM     12  C   UNL A   1      30.841  25.138  23.302  1.00  0.00     0.120 C 
ATOM     13  C   UNL A   1      32.573  27.392  22.461  1.00  0.00     0.035 C 
ATOM     14  C   UNL A   1      30.251  26.541  23.278  1.00  0.00     0.035 C 
BRANCH   8  15
ATOM     15  C   UNL A   1      32.633  23.262  24.979  1.00  0.00     0.115 A 
ATOM     16  C   UNL A   1      32.478  20.834  24.858  1.00  0.00     0.159 A 
ATOM     17  N   UNL A   1      31.579  21.300  25.694  1.00  0.00    -0.237 NA
ATOM     18  S   UNL A   1      33.529  22.008  24.192  1.00  0.00    -0.105 S 
ATOM     19  C   UNL A   1      31.638  22.680  25.759  1.00  0.00     0.062 A 
ATOM     20  C   UNL A   1      30.587  23.326  26.585  1.00  0.00     0.068 C 
BRANCH  16  21
ATOM     21  C   UNL A   1      32.511  19.444  24.503  1.00  0.00     0.162 A 
ATOM     22  C   UNL A   1      32.523  16.066  25.708  1.00  0.00     0.087 C 
ATOM     23  C   UNL A   1      32.550  17.253  24.832  1.00  0.00     0.101 A 
ATOM     24  C   UNL A   1      32.624  17.437  23.471  1.00  0.00     0.046 A 
ATOM     25  O   UNL A   1      32.495  18.457  25.460  1.00  0.00    -0.459 OA
ATOM     26  C   UNL A   1      32.581  18.839  23.258  1.00  0.00     0.054 A 
ENDBRANCH  16  21
ENDBRANCH   8  15
ENDBRANCH   4   7
ENDBRANCH   2   3
ENDBRANCH   1   2
BRANCH   1  27
ATOM     27  C   UNL A   1      33.793  28.662  25.859  1.00  0.00     0.023 C 
BRANCH  27  28
ATOM     28  C   UNL A   1      33.556  28.783  27.358  1.00  0.00     0.116 C 
BRANCH  28  29
ATOM     29  N   UNL A   1      33.587  30.159  27.833  1.00  0.00    -0.352 N 
ATOM     30  C   UNL A   1      34.620  30.837  28.433  1.00  0.00     0.251 C 
ATOM     31  H   UNL A   1      32.756  30.672  27.709  1.00  0.00     0.163 HD
ATOM     32  O   UNL A   1      34.449  31.965  28.883  1.00  0.00    -0.269 OA
BRANCH  30  33
ATOM     33  C   UNL A   1      35.934  30.177  28.565  1.00  0.00     0.039 A 
ATOM     34  C   UNL A   1      36.823  30.224  27.490  1.00  0.00     0.014 A 
ATOM     35  C   UNL A   1      36.298  29.554  29.762  1.00  0.00     0.014 A 
ATOM     36  C   UNL A   1      38.112  29.709  27.641  1.00  0.00     0.010 A 
ATOM     37  C   UNL A   1      37.605  29.110  29.934  1.00  0.00     0.010 A 
ATOM     38  C   UNL A   1      38.524  29.185  28.877  1.00  0.00    -0.014 A 
BRANCH  38  39
ATOM     39  C   UNL A   1      39.916  28.714  29.085  1.00  0.00     0.031 A 
ATOM     40  C   UNL A   1      40.945  29.642  29.669  1.00  0.00     0.074 A 
ATOM     41  C   UNL A   1      40.271  27.477  28.682  1.00  0.00     0.049 A 
ATOM     42  N   UNL A   1      42.222  29.437  29.868  1.00  0.00    -0.248 NA
ATOM     43  C   UNL A   1      40.487  30.987  30.058  1.00  0.00     0.031 C 
ATOM     44  C   UNL A   1      39.378  26.495  28.060  1.00  0.00     0.029 A 
ATOM     45  N   UNL A   1      41.484  26.836  28.729  1.00  0.00    -0.354 N 
ATOM     46  C   UNL A   1      42.722  30.629  30.375  1.00  0.00     0.074 A 
ATOM     47  C   UNL A   1      41.623  31.567  30.419  1.00  0.00     0.031 C 
ATOM     48  C   UNL A   1      40.067  25.369  27.809  1.00  0.00     0.029 A 
ATOM     49  C   UNL A   1      41.456  25.562  28.213  1.00  0.00     0.049 A 
ATOM     50  H   UNL A   1      42.297  27.250  29.098  1.00  0.00     0.167 HD
ATOM     51  C   UNL A   1      43.981  30.913  30.783  1.00  0.00     0.031 A 
ATOM     52  C   UNL A   1      42.441  24.655  28.073  1.00  0.00     0.031 A 
ATOM     53  C   UNL A   1      45.067  29.973  30.771  1.00  0.00     0.049 A 
ATOM     54  C   UNL A   1      43.829  25.002  28.538  1.00  0.00     0.074 A 
ATOM     55  C   UNL A   1      46.357  30.142  31.245  1.00  0.00     0.029 A 
ATOM     56  N   UNL A   1      44.993  28.688  30.258  1.00  0.00    -0.354 N 
ATOM     57  N   UNL A   1      44.262  26.104  29.101  1.00  0.00    -0.248 NA
ATOM     58  C   UNL A   1      44.863  23.972  28.355  1.00  0.00     0.031 C 
ATOM     59  C   UNL A   1      47.079  28.976  30.970  1.00  0.00     0.029 A 
ATOM     60  C   UNL A   1      46.223  28.064  30.376  1.00  0.00     0.049 A 
ATOM     61  H   UNL A   1      44.186  28.280  29.867  1.00  0.00     0.167 HD
ATOM     62  C   UNL A   1      45.607  25.886  29.371  1.00  0.00     0.074 A 
ATOM     63  C   UNL A   1      45.914  24.543  28.925  1.00  0.00     0.031 C 
ATOM     64  C   UNL A   1      46.508  26.723  29.938  1.00  0.00     0.031 A 
BRANCH  51  65
ATOM     65  C   UNL A   1      44.260  32.304  31.278  1.00  0.00    -0.014 A 
ATOM     66  C   UNL A   1      44.618  33.335  30.394  1.00  0.00     0.009 A 
ATOM     67  C   UNL A   1      44.099  32.602  32.640  1.00  0.00     0.009 A 
ATOM     68  C   UNL A   1      44.830  34.630  30.869  1.00  0.00     0.001 A 
ATOM     69  C   UNL A   1      44.286  33.903  33.108  1.00  0.00     0.001 A 
ATOM     70  C   UNL A   1      44.657  34.915  32.224  1.00  0.00     0.000 A 
ENDBRANCH  51  65
BRANCH  52  71
ATOM     71  C   UNL A   1      42.162  23.322  27.476  1.00  0.00    -0.014 A 
ATOM     72  C   UNL A   1      41.440  22.357  28.195  1.00  0.00     0.009 A 
ATOM     73  C   UNL A   1      42.655  22.991  26.204  1.00  0.00     0.009 A 
ATOM     74  C   UNL A   1      41.253  21.076  27.671  1.00  0.00     0.001 A 
ATOM     75  C   UNL A   1      42.438  21.719  25.669  1.00  0.00     0.001 A 
ATOM     76  C   UNL A   1      41.749  20.759  26.408  1.00  0.00     0.000 A 
ENDBRANCH  52  71
BRANCH  64  77
ATOM     77  C   UNL A   1      47.898  26.195  30.153  1.00  0.00    -0.014 A 
ATOM     78  C   UNL A   1      48.852  26.208  29.124  1.00  0.00     0.009 A 
ATOM     79  C   UNL A   1      48.269  25.718  31.420  1.00  0.00     0.009 A 
ATOM     80  C   UNL A   1      50.139  25.719  29.350  1.00  0.00     0.001 A 
ATOM     81  C   UNL A   1      49.566  25.259  31.652  1.00  0.00     0.001 A 
ATOM     82  C   UNL A   1      50.497  25.251  30.615  1.00  0.00     0.000 A 
ENDBRANCH  64  77
ENDBRANCH  38  39
ENDBRANCH  30  33
ENDBRANCH  28  29
ENDBRANCH  27  28
ENDBRANCH   1  27
TORSDOF 13
ENDMDL
MODEL 2
REMARK VINA RESULT:     -12.7      3.745      7.511
REMARK SMILES Cc1ccc(-c2nc(C)c(C(=O)N3CCC(C(=O)NCCCCNC(=O)c4ccc(-c5c6nc(c(-c7ccccc7)c7ccc([nH]7)c(-c7ccccc7)c7nc(c(-c8ccccc8)c8ccc5[nH]8)C=C7)C=C6)cc4)CC3)s2)o1
REMARK SMILES IDX 21 1 20 2 19 3 17 4 18 5 16 7 11 8 12 9 13 10 14 11 76 12
REMARK SMILES IDX 15 13 75 14 10 15 6 16 7 17 77 18 8 19 9 20 5 21 1 22 2 23
REMARK SMILES IDX 3 24 78 25 4 26 22 27 23 28 24 29 25 30 26 32 27 33 28 34
REMARK SMILES IDX 74 35 29 36 73 37 30 38 31 39 32 40 67 41 33 42 72 43 66 44
REMARK SMILES IDX 68 45 34 46 71 47 65 48 64 49 35 51 57 52 42 53 56 54 43 55
REMARK SMILES IDX 46 56 55 57 69 58 44 59 45 60 54 62 70 63 47 64 36 65 37 66
REMARK SMILES IDX 41 67 38 68 40 69 39 70 58 71 59 72 63 73 60 74 62 75 61 76
REMARK SMILES IDX 48 77 49 78 53 79 50 80 52 81 51 82
REMARK H PARENT 19 6 24 31 68 50 46 61
REMARK Flexibility Score: inf
ROOT
ATOM      1  C   UNL A   1      31.808  30.522  26.611  1.00  0.00     0.023 C 
ENDROOT
BRANCH   1   2
ATOM      2  C   UNL A   1      33.175  30.171  26.029  1.00  0.00     0.116 C 
BRANCH   2   3
ATOM      3  N   UNL A   1      33.073  29.676  24.666  1.00  0.00    -0.356 N 
ATOM      4  C   UNL A   1      33.076  28.404  24.182  1.00  0.00     0.223 C 
ATOM      5  O   UNL A   1      32.989  28.248  22.962  1.00  0.00    -0.275 OA
ATOM      6  H   UNL A   1      32.986  30.376  23.980  1.00  0.00     0.163 HD
BRANCH   4   7
ATOM      7  C   UNL A   1      33.168  27.200  25.108  1.00  0.00     0.082 C 
ATOM      8  C   UNL A   1      31.943  23.294  25.021  1.00  0.00     0.265 C 
ATOM      9  O   UNL A   1      30.825  23.403  24.512  1.00  0.00    -0.268 OA
ATOM     10  N   UNL A   1      32.571  24.429  25.529  1.00  0.00    -0.338 N 
ATOM     11  C   UNL A   1      31.786  25.404  26.262  1.00  0.00     0.120 C 
ATOM     12  C   UNL A   1      33.957  24.782  25.256  1.00  0.00     0.120 C 
ATOM     13  C   UNL A   1      31.778  26.764  25.592  1.00  0.00     0.035 C 
ATOM     14  C   UNL A   1      34.039  26.093  24.487  1.00  0.00     0.035 C 
BRANCH   8  15
ATOM     15  C   UNL A   1      32.595  22.009  25.234  1.00  0.00     0.115 A 
ATOM     16  C   UNL A   1      33.210  19.660  25.044  1.00  0.00     0.159 A 
ATOM     17  N   UNL A   1      33.526  20.111  26.235  1.00  0.00    -0.237 NA
ATOM     18  S   UNL A   1      32.573  20.829  23.969  1.00  0.00    -0.105 S 
ATOM     19  C   UNL A   1      33.164  21.439  26.369  1.00  0.00     0.062 A 
ATOM     20  C   UNL A   1      33.366  22.023  27.720  1.00  0.00     0.068 C 
BRANCH  16  21
ATOM     21  C   UNL A   1      33.344  18.269  24.717  1.00  0.00     0.162 A 
ATOM     22  C   UNL A   1      32.444  14.909  25.590  1.00  0.00     0.087 C 
ATOM     23  C   UNL A   1      33.043  16.084  24.928  1.00  0.00     0.101 A 
ATOM     24  C   UNL A   1      33.887  16.252  23.855  1.00  0.00     0.046 A 
ATOM     25  O   UNL A   1      32.722  17.293  25.460  1.00  0.00    -0.459 OA
ATOM     26  C   UNL A   1      34.066  17.652  23.709  1.00  0.00     0.054 A 
ENDBRANCH  16  21
ENDBRANCH   8  15
ENDBRANCH   4   7
ENDBRANCH   2   3
ENDBRANCH   1   2
BRANCH   1  27
ATOM     27  C   UNL A   1      31.557  32.018  26.781  1.00  0.00     0.023 C 
BRANCH  27  28
ATOM     28  C   UNL A   1      32.712  32.799  27.393  1.00  0.00     0.116 C 
BRANCH  28  29
ATOM     29  N   UNL A   1      32.374  34.184  27.689  1.00  0.00    -0.352 N 
ATOM     30  C   UNL A   1      32.955  35.034  28.598  1.00  0.00     0.251 C 
ATOM     31  H   UNL A   1      31.628  34.561  27.169  1.00  0.00     0.163 HD
ATOM     32  O   UNL A   1      32.476  36.143  28.811  1.00  0.00    -0.269 OA
BRANCH  30  33
ATOM     33  C   UNL A   1      34.145  34.584  29.347  1.00  0.00     0.039 A 
ATOM     34  C   UNL A   1      33.978  34.081  30.638  1.00  0.00     0.014 A 
ATOM     35  C   UNL A   1      35.411  34.618  28.756  1.00  0.00     0.014 A 
ATOM     36  C   UNL A   1      35.074  33.541  31.312  1.00  0.00     0.010 A 
ATOM     37  C   UNL A   1      36.485  34.012  29.398  1.00  0.00     0.010 A 
ATOM     38  C   UNL A   1      36.327  33.467  30.682  1.00  0.00    -0.014 A 
BRANCH  38  39
ATOM     39  C   UNL A   1      37.484  32.818  31.347  1.00  0.00     0.031 A 
ATOM     40  C   UNL A   1      38.154  31.634  30.704  1.00  0.00     0.074 A 
ATOM     41  C   UNL A   1      37.885  33.246  32.560  1.00  0.00     0.049 A 
ATOM     42  N   UNL A   1      39.134  30.895  31.157  1.00  0.00    -0.248 NA
ATOM     43  C   UNL A   1      37.640  31.208  29.391  1.00  0.00     0.031 C 
ATOM     44  C   UNL A   1      37.290  34.355  33.311  1.00  0.00     0.029 A 
ATOM     45  N   UNL A   1      38.887  32.792  33.382  1.00  0.00    -0.354 N 
ATOM     46  C   UNL A   1      39.333  29.905  30.203  1.00  0.00     0.074 A 
ATOM     47  C   UNL A   1      38.350  30.111  29.164  1.00  0.00     0.031 C 
ATOM     48  C   UNL A   1      37.955  34.511  34.468  1.00  0.00     0.029 A 
ATOM     49  C   UNL A   1      38.994  33.490  34.561  1.00  0.00     0.049 A 
ATOM     50  H   UNL A   1      39.473  32.037  33.148  1.00  0.00     0.167 HD
ATOM     51  C   UNL A   1      40.262  28.922  30.187  1.00  0.00     0.031 A 
ATOM     52  C   UNL A   1      39.831  33.323  35.602  1.00  0.00     0.031 A 
ATOM     53  C   UNL A   1      41.262  28.735  31.202  1.00  0.00     0.049 A 
ATOM     54  C   UNL A   1      40.853  32.220  35.552  1.00  0.00     0.074 A 
ATOM     55  C   UNL A   1      42.301  27.820  31.229  1.00  0.00     0.029 A 
ATOM     56  N   UNL A   1      41.347  29.475  32.370  1.00  0.00    -0.354 N 
ATOM     57  N   UNL A   1      41.086  31.351  34.598  1.00  0.00    -0.248 NA
ATOM     58  C   UNL A   1      41.735  32.083  36.720  1.00  0.00     0.031 C 
ATOM     59  C   UNL A   1      42.983  27.971  32.440  1.00  0.00     0.029 A 
ATOM     60  C   UNL A   1      42.403  29.016  33.140  1.00  0.00     0.049 A 
ATOM     61  H   UNL A   1      40.747  30.215  32.617  1.00  0.00     0.167 HD
ATOM     62  C   UNL A   1      42.162  30.590  35.036  1.00  0.00     0.074 A 
ATOM     63  C   UNL A   1      42.545  31.109  36.333  1.00  0.00     0.031 C 
ATOM     64  C   UNL A   1      42.779  29.553  34.421  1.00  0.00     0.031 A 
BRANCH  51  65
ATOM     65  C   UNL A   1      40.245  27.960  29.032  1.00  0.00    -0.014 A 
ATOM     66  C   UNL A   1      39.535  26.751  29.099  1.00  0.00     0.009 A 
ATOM     67  C   UNL A   1      40.894  28.301  27.836  1.00  0.00     0.009 A 
ATOM     68  C   UNL A   1      39.496  25.893  27.999  1.00  0.00     0.001 A 
ATOM     69  C   UNL A   1      40.832  27.454  26.729  1.00  0.00     0.001 A 
ATOM     70  C   UNL A   1      40.138  26.248  26.813  1.00  0.00     0.000 A 
ENDBRANCH  51  65
BRANCH  52  71
ATOM     71  C   UNL A   1      39.753  34.219  36.786  1.00  0.00    -0.014 A 
ATOM     72  C   UNL A   1      39.052  33.820  37.935  1.00  0.00     0.009 A 
ATOM     73  C   UNL A   1      40.339  35.494  36.759  1.00  0.00     0.009 A 
ATOM     74  C   UNL A   1      38.904  34.694  39.014  1.00  0.00     0.001 A 
ATOM     75  C   UNL A   1      40.217  36.353  37.852  1.00  0.00     0.001 A 
ATOM     76  C   UNL A   1      39.488  35.958  38.974  1.00  0.00     0.000 A 
ENDBRANCH  52  71
BRANCH  64  77
ATOM     77  C   UNL A   1      43.961  28.942  35.118  1.00  0.00    -0.014 A 
ATOM     78  C   UNL A   1      43.812  27.858  35.996  1.00  0.00     0.009 A 
ATOM     79  C   UNL A   1      45.249  29.436  34.858  1.00  0.00     0.009 A 
ATOM     80  C   UNL A   1      44.927  27.303  36.626  1.00  0.00     0.001 A 
ATOM     81  C   UNL A   1      46.365  28.860  35.465  1.00  0.00     0.001 A 
ATOM     82  C   UNL A   1      46.202  27.799  36.356  1.00  0.00     0.000 A 
ENDBRANCH  64  77
ENDBRANCH  38  39
ENDBRANCH  30  33
ENDBRANCH  28  29
ENDBRANCH  27  28
ENDBRANCH   1  27
TORSDOF 13
ENDMDL
MODEL 3
REMARK VINA RESULT:     -12.6      2.098      8.292
REMARK SMILES Cc1ccc(-c2nc(C)c(C(=O)N3CCC(C(=O)NCCCCNC(=O)c4ccc(-c5c6nc(c(-c7ccccc7)c7ccc([nH]7)c(-c7ccccc7)c7nc(c(-c8ccccc8)c8ccc5[nH]8)C=C7)C=C6)cc4)CC3)s2)o1
REMARK SMILES IDX 21 1 20 2 19 3 17 4 18 5 16 7 11 8 12 9 13 10 14 11 76 12
REMARK SMILES IDX 15 13 75 14 10 15 6 16 7 17 77 18 8 19 9 20 5 21 1 22 2 23
REMARK SMILES IDX 3 24 78 25 4 26 22 27 23 28 24 29 25 30 26 32 27 33 28 34
REMARK SMILES IDX 74 35 29 36 73 37 30 38 31 39 32 40 67 41 33 42 72 43 66 44
REMARK SMILES IDX 68 45 34 46 71 47 65 48 64 49 35 51 57 52 42 53 56 54 43 55
REMARK SMILES IDX 46 56 55 57 69 58 44 59 45 60 54 62 70 63 47 64 36 65 37 66
REMARK SMILES IDX 41 67 38 68 40 69 39 70 58 71 59 72 63 73 60 74 62 75 61 76
REMARK SMILES IDX 48 77 49 78 53 79 50 80 52 81 51 82
REMARK H PARENT 19 6 24 31 68 50 46 61
REMARK Flexibility Score: inf
ROOT
ATOM      1  C   UNL A   1      36.836  21.197  24.618  1.00  0.00     0.023 C 
ENDROOT
BRANCH   1   2
ATOM      2  C   UNL A   1      35.489  21.152  25.335  1.00  0.00     0.116 C 
BRANCH   2   3
ATOM      3  N   UNL A   1      34.749  19.940  25.024  1.00  0.00    -0.356 N 
ATOM      4  C   UNL A   1      33.422  19.746  24.792  1.00  0.00     0.223 C 
ATOM      5  O   UNL A   1      33.036  18.598  24.559  1.00  0.00    -0.275 OA
ATOM      6  H   UNL A   1      35.298  19.125  24.972  1.00  0.00     0.163 HD
BRANCH   4   7
ATOM      7  C   UNL A   1      32.435  20.905  24.798  1.00  0.00     0.082 C 
ATOM      8  C   UNL A   1      32.651  24.983  24.517  1.00  0.00     0.265 C 
ATOM      9  O   UNL A   1      33.648  25.220  25.203  1.00  0.00    -0.268 OA
ATOM     10  N   UNL A   1      32.038  23.736  24.617  1.00  0.00    -0.338 N 
ATOM     11  C   UNL A   1      31.899  23.121  25.924  1.00  0.00     0.120 C 
ATOM     12  C   UNL A   1      31.642  22.931  23.472  1.00  0.00     0.120 C 
ATOM     13  C   UNL A   1      32.641  21.803  26.025  1.00  0.00     0.035 C 
ATOM     14  C   UNL A   1      32.421  21.623  23.437  1.00  0.00     0.035 C 
BRANCH   8  15
ATOM     15  C   UNL A   1      32.000  25.991  23.690  1.00  0.00     0.115 A 
ATOM     16  C   UNL A   1      30.404  27.635  22.863  1.00  0.00     0.159 A 
ATOM     17  N   UNL A   1      31.113  27.158  21.867  1.00  0.00    -0.237 NA
ATOM     18  S   UNL A   1      30.852  27.065  24.412  1.00  0.00    -0.105 S 
ATOM     19  C   UNL A   1      32.010  26.206  22.315  1.00  0.00     0.062 A 
ATOM     20  C   UNL A   1      32.786  25.509  21.256  1.00  0.00     0.068 C 
BRANCH  16  21
ATOM     21  C   UNL A   1      29.301  28.523  22.630  1.00  0.00     0.162 A 
ATOM     22  C   UNL A   1      28.074  31.308  20.732  1.00  0.00     0.087 C 
ATOM     23  C   UNL A   1      28.193  30.202  21.702  1.00  0.00     0.101 A 
ATOM     24  C   UNL A   1      27.359  29.679  22.663  1.00  0.00     0.046 A 
ATOM     25  O   UNL A   1      29.368  29.520  21.686  1.00  0.00    -0.459 OA
ATOM     26  C   UNL A   1      28.062  28.592  23.245  1.00  0.00     0.054 A 
ENDBRANCH  16  21
ENDBRANCH   8  15
ENDBRANCH   4   7
ENDBRANCH   2   3
ENDBRANCH   1   2
BRANCH   1  27
ATOM     27  C   UNL A   1      37.777  20.045  24.965  1.00  0.00     0.023 C 
BRANCH  27  28
ATOM     28  C   UNL A   1      38.992  20.436  25.795  1.00  0.00     0.116 C 
BRANCH  28  29
ATOM     29  N   UNL A   1      40.039  19.424  25.789  1.00  0.00    -0.352 N 
ATOM     30  C   UNL A   1      41.367  19.561  26.110  1.00  0.00     0.251 C 
ATOM     31  H   UNL A   1      39.757  18.520  25.519  1.00  0.00     0.163 HD
ATOM     32  O   UNL A   1      42.150  18.631  25.943  1.00  0.00    -0.269 OA
BRANCH  30  33
ATOM     33  C   UNL A   1      41.854  20.856  26.624  1.00  0.00     0.039 A 
ATOM     34  C   UNL A   1      42.331  21.804  25.719  1.00  0.00     0.014 A 
ATOM     35  C   UNL A   1      41.794  21.146  27.990  1.00  0.00     0.014 A 
ATOM     36  C   UNL A   1      42.683  23.076  26.175  1.00  0.00     0.010 A 
ATOM     37  C   UNL A   1      42.072  22.435  28.432  1.00  0.00     0.010 A 
ATOM     38  C   UNL A   1      42.518  23.412  27.529  1.00  0.00    -0.014 A 
BRANCH  38  39
ATOM     39  C   UNL A   1      42.802  24.784  28.019  1.00  0.00     0.031 A 
ATOM     40  C   UNL A   1      44.200  25.167  28.416  1.00  0.00     0.074 A 
ATOM     41  C   UNL A   1      41.789  25.660  28.177  1.00  0.00     0.049 A 
ATOM     42  N   UNL A   1      44.634  26.292  28.926  1.00  0.00    -0.248 NA
ATOM     43  C   UNL A   1      45.248  24.146  28.242  1.00  0.00     0.031 C 
ATOM     44  C   UNL A   1      40.380  25.396  27.871  1.00  0.00     0.029 A 
ATOM     45  N   UNL A   1      41.790  26.952  28.642  1.00  0.00    -0.354 N 
ATOM     46  C   UNL A   1      45.990  26.103  29.158  1.00  0.00     0.074 A 
ATOM     47  C   UNL A   1      46.304  24.747  28.772  1.00  0.00     0.031 C 
ATOM     48  C   UNL A   1      39.659  26.500  28.131  1.00  0.00     0.029 A 
ATOM     49  C   UNL A   1      40.544  27.533  28.660  1.00  0.00     0.049 A 
ATOM     50  H   UNL A   1      42.606  27.417  28.936  1.00  0.00     0.167 HD
ATOM     51  C   UNL A   1      46.897  26.987  29.636  1.00  0.00     0.031 A 
ATOM     52  C   UNL A   1      40.158  28.758  29.064  1.00  0.00     0.031 A 
ATOM     53  C   UNL A   1      46.594  28.347  29.990  1.00  0.00     0.049 A 
ATOM     54  C   UNL A   1      41.191  29.716  29.590  1.00  0.00     0.074 A 
ATOM     55  C   UNL A   1      47.464  29.343  30.401  1.00  0.00     0.029 A 
ATOM     56  N   UNL A   1      45.325  28.901  29.976  1.00  0.00    -0.354 N 
ATOM     57  N   UNL A   1      42.486  29.550  29.716  1.00  0.00    -0.248 NA
ATOM     58  C   UNL A   1      40.709  31.037  30.020  1.00  0.00     0.031 C 
ATOM     59  C   UNL A   1      46.712  30.486  30.688  1.00  0.00     0.029 A 
ATOM     60  C   UNL A   1      45.384  30.218  30.402  1.00  0.00     0.049 A 
ATOM     61  H   UNL A   1      44.504  28.430  29.705  1.00  0.00     0.167 HD
ATOM     62  C   UNL A   1      42.974  30.755  30.204  1.00  0.00     0.074 A 
ATOM     63  C   UNL A   1      41.841  31.647  30.338  1.00  0.00     0.031 C 
ATOM     64  C   UNL A   1      44.248  31.094  30.516  1.00  0.00     0.031 A 
BRANCH  51  65
ATOM     65  C   UNL A   1      48.313  26.513  29.811  1.00  0.00    -0.014 A 
ATOM     66  C   UNL A   1      48.723  25.856  30.982  1.00  0.00     0.009 A 
ATOM     67  C   UNL A   1      49.231  26.668  28.761  1.00  0.00     0.009 A 
ATOM     68  C   UNL A   1      50.031  25.386  31.106  1.00  0.00     0.001 A 
ATOM     69  C   UNL A   1      50.530  26.174  28.877  1.00  0.00     0.001 A 
ATOM     70  C   UNL A   1      50.931  25.538  30.051  1.00  0.00     0.000 A 
ENDBRANCH  51  65
BRANCH  52  71
ATOM     71  C   UNL A   1      38.730  29.165  28.987  1.00  0.00    -0.014 A 
ATOM     72  C   UNL A   1      37.888  29.023  30.102  1.00  0.00     0.009 A 
ATOM     73  C   UNL A   1      38.188  29.652  27.787  1.00  0.00     0.009 A 
ATOM     74  C   UNL A   1      36.528  29.323  30.005  1.00  0.00     0.001 A 
ATOM     75  C   UNL A   1      36.834  29.981  27.703  1.00  0.00     0.001 A 
ATOM     76  C   UNL A   1      36.002  29.803  28.807  1.00  0.00     0.000 A 
ENDBRANCH  52  71
BRANCH  64  77
ATOM     77  C   UNL A   1      44.492  32.500  30.984  1.00  0.00    -0.014 A 
ATOM     78  C   UNL A   1      44.476  32.829  32.349  1.00  0.00     0.009 A 
ATOM     79  C   UNL A   1      44.784  33.502  30.045  1.00  0.00     0.009 A 
ATOM     80  C   UNL A   1      44.713  34.141  32.759  1.00  0.00     0.001 A 
ATOM     81  C   UNL A   1      45.051  34.807  30.461  1.00  0.00     0.001 A 
ATOM     82  C   UNL A   1      45.007  35.128  31.817  1.00  0.00     0.000 A 
ENDBRANCH  64  77
ENDBRANCH  38  39
ENDBRANCH  30  33
ENDBRANCH  28  29
ENDBRANCH  27  28
ENDBRANCH   1  27
TORSDOF 13
ENDMDL
