MODEL 1
REMARK VINA RESULT:     -10.8      0.000      0.000
REMARK SMILES O=C(NCCCCNC(=O)[C@@H]1CS[C@@H](C2CC2)N1C(=O)Cc1ccn[nH]1)c1ccc(-c2c3nc(c(-c4ccccc4)c4ccc([nH]4)c(-c4ccccc4)c4nc(c(-c5ccccc5)c5ccc2[nH]5)C=C4)C=C3)cc1
REMARK SMILES IDX 6 1 5 2 4 3 3 4 1 5 2 6 27 8 28 9 74 10 29 11 73 12 30 13
REMARK SMILES IDX 31 14 32 15 67 16 33 17 72 18 66 19 68 20 34 21 71 22 65 23
REMARK SMILES IDX 64 24 35 26 57 27 42 28 56 29 43 30 46 31 55 32 69 33 44 34
REMARK SMILES IDX 45 35 54 37 70 38 47 39 36 40 37 41 41 42 38 43 40 44 39 45
REMARK SMILES IDX 58 46 59 47 63 48 60 49 62 50 61 51 48 52 49 53 53 54 50 55
REMARK SMILES IDX 52 56 51 57 7 58 8 59 9 60 10 62 11 63 12 64 18 65 13 66
REMARK SMILES IDX 14 67 19 68 20 69 21 70 22 71 23 72 26 73 24 74 25 75 15 77
REMARK SMILES IDX 16 78 17 79
REMARK H PARENT 3 7 68 25 46 36 8 61 26 76
REMARK Flexibility Score: inf
ROOT
ATOM      1  C   UNL A   1      31.752  30.545  26.575  1.00  0.00     0.023 C 
ENDROOT
BRANCH   1   2
ATOM      2  C   UNL A   1      31.465  32.017  26.876  1.00  0.00     0.023 C 
BRANCH   2   3
ATOM      3  C   UNL A   1      32.695  32.887  27.098  1.00  0.00     0.116 C 
BRANCH   3   4
ATOM      4  N   UNL A   1      32.378  34.199  27.640  1.00  0.00    -0.352 N 
ATOM      5  O   UNL A   1      32.536  35.938  29.074  1.00  0.00    -0.269 OA
ATOM      6  C   UNL A   1      33.010  34.888  28.650  1.00  0.00     0.251 C 
ATOM      7  H   UNL A   1      31.609  34.656  27.230  1.00  0.00     0.163 HD
BRANCH   6   8
ATOM      8  C   UNL A   1      34.250  34.341  29.246  1.00  0.00     0.039 A 
ATOM      9  C   UNL A   1      35.491  34.608  28.663  1.00  0.00     0.014 A 
ATOM     10  C   UNL A   1      34.169  33.543  30.390  1.00  0.00     0.014 A 
ATOM     11  C   UNL A   1      36.624  33.958  29.133  1.00  0.00     0.010 A 
ATOM     12  C   UNL A   1      35.328  32.962  30.917  1.00  0.00     0.010 A 
ATOM     13  C   UNL A   1      36.561  33.141  30.275  1.00  0.00    -0.014 A 
BRANCH  13  14
ATOM     14  C   UNL A   1      37.820  32.555  30.801  1.00  0.00     0.031 A 
ATOM     15  C   UNL A   1      38.457  33.056  32.068  1.00  0.00     0.074 A 
ATOM     16  C   UNL A   1      38.354  31.504  30.148  1.00  0.00     0.049 A 
ATOM     17  N   UNL A   1      39.504  32.586  32.699  1.00  0.00    -0.248 NA
ATOM     18  C   UNL A   1      37.848  34.232  32.709  1.00  0.00     0.031 C 
ATOM     19  C   UNL A   1      37.834  30.937  28.900  1.00  0.00     0.029 A 
ATOM     20  N   UNL A   1      39.421  30.701  30.457  1.00  0.00    -0.354 N 
ATOM     21  C   UNL A   1      39.688  33.411  33.802  1.00  0.00     0.074 A 
ATOM     22  C   UNL A   1      38.659  34.427  33.742  1.00  0.00     0.031 C 
ATOM     23  C   UNL A   1      38.539  29.841  28.588  1.00  0.00     0.029 A 
ATOM     24  C   UNL A   1      39.595  29.662  29.576  1.00  0.00     0.049 A 
ATOM     25  H   UNL A   1      40.004  30.855  31.235  1.00  0.00     0.167 HD
ATOM     26  C   UNL A   1      40.626  33.325  34.777  1.00  0.00     0.031 A 
ATOM     27  C   UNL A   1      40.506  28.673  29.557  1.00  0.00     0.031 A 
ATOM     28  C   UNL A   1      41.651  32.315  34.835  1.00  0.00     0.049 A 
ATOM     29  C   UNL A   1      41.536  28.611  30.645  1.00  0.00     0.074 A 
ATOM     30  C   UNL A   1      42.639  32.142  35.791  1.00  0.00     0.029 A 
ATOM     31  N   UNL A   1      41.820  31.305  33.901  1.00  0.00    -0.354 N 
ATOM     32  N   UNL A   1      41.679  29.390  31.690  1.00  0.00    -0.248 NA
ATOM     33  C   UNL A   1      42.530  27.534  30.550  1.00  0.00     0.031 C 
ATOM     34  C   UNL A   1      43.431  31.052  35.412  1.00  0.00     0.029 A 
ATOM     35  C   UNL A   1      42.905  30.518  34.247  1.00  0.00     0.049 A 
ATOM     36  H   UNL A   1      41.253  31.168  33.108  1.00  0.00     0.167 HD
ATOM     37  C   UNL A   1      42.778  28.896  32.378  1.00  0.00     0.074 A 
ATOM     38  C   UNL A   1      43.239  27.730  31.652  1.00  0.00     0.031 C 
ATOM     39  C   UNL A   1      43.360  29.372  33.504  1.00  0.00     0.031 A 
BRANCH  26  40
ATOM     40  C   UNL A   1      40.600  34.363  35.864  1.00  0.00    -0.014 A 
ATOM     41  C   UNL A   1      41.299  35.573  35.729  1.00  0.00     0.009 A 
ATOM     42  C   UNL A   1      39.811  34.158  37.007  1.00  0.00     0.009 A 
ATOM     43  C   UNL A   1      41.222  36.549  36.726  1.00  0.00     0.001 A 
ATOM     44  C   UNL A   1      39.719  35.145  37.991  1.00  0.00     0.001 A 
ATOM     45  C   UNL A   1      40.428  36.337  37.852  1.00  0.00     0.000 A 
ENDBRANCH  26  40
BRANCH  27  46
ATOM     46  C   UNL A   1      40.494  27.676  28.458  1.00  0.00    -0.014 A 
ATOM     47  C   UNL A   1      41.208  27.902  27.273  1.00  0.00     0.009 A 
ATOM     48  C   UNL A   1      39.764  26.483  28.595  1.00  0.00     0.009 A 
ATOM     49  C   UNL A   1      41.171  26.966  26.237  1.00  0.00     0.001 A 
ATOM     50  C   UNL A   1      39.757  25.535  27.572  1.00  0.00     0.001 A 
ATOM     51  C   UNL A   1      40.451  25.781  26.391  1.00  0.00     0.000 A 
ENDBRANCH  27  46
BRANCH  39  52
ATOM     52  C   UNL A   1      44.555  28.618  34.013  1.00  0.00    -0.014 A 
ATOM     53  C   UNL A   1      44.405  27.549  34.911  1.00  0.00     0.009 A 
ATOM     54  C   UNL A   1      45.842  28.981  33.591  1.00  0.00     0.009 A 
ATOM     55  C   UNL A   1      45.526  26.885  35.409  1.00  0.00     0.001 A 
ATOM     56  C   UNL A   1      46.960  28.297  34.071  1.00  0.00     0.001 A 
ATOM     57  C   UNL A   1      46.802  27.259  34.988  1.00  0.00     0.000 A 
ENDBRANCH  39  52
ENDBRANCH  13  14
ENDBRANCH   6   8
ENDBRANCH   3   4
ENDBRANCH   2   3
ENDBRANCH   1   2
BRANCH   1  58
ATOM     58  C   UNL A   1      31.418  30.102  25.151  1.00  0.00     0.116 C 
BRANCH  58  59
ATOM     59  N   UNL A   1      32.601  29.669  24.429  1.00  0.00    -0.354 N 
ATOM     60  C   UNL A   1      33.113  28.410  24.285  1.00  0.00     0.243 C 
ATOM     61  H   UNL A   1      33.106  30.384  23.979  1.00  0.00     0.163 HD
ATOM     62  O   UNL A   1      34.119  28.271  23.580  1.00  0.00    -0.273 OA
BRANCH  60  63
ATOM     63  C   UNL A   1      32.440  27.215  25.008  1.00  0.00     0.185 C 
ATOM     64  C   UNL A   1      33.366  26.684  26.084  1.00  0.00     0.107 C 
ATOM     65  N   UNL A   1      32.122  26.178  24.014  1.00  0.00    -0.317 N 
ATOM     66  S   UNL A   1      34.295  25.358  25.297  1.00  0.00    -0.134 SA
ATOM     67  C   UNL A   1      33.040  25.039  23.992  1.00  0.00     0.147 C 
BRANCH  65  68
ATOM     68  C   UNL A   1      31.181  26.565  23.072  1.00  0.00     0.230 C 
ATOM     69  O   UNL A   1      31.442  26.447  21.865  1.00  0.00    -0.274 OA
BRANCH  68  70
ATOM     70  C   UNL A   1      29.826  27.128  23.449  1.00  0.00     0.155 C 
BRANCH  70  71
ATOM     71  C   UNL A   1      29.396  28.361  22.735  1.00  0.00     0.044 A 
ATOM     72  C   UNL A   1      28.179  29.012  22.778  1.00  0.00     0.045 A 
ATOM     73  N   UNL A   1      30.188  29.118  21.904  1.00  0.00    -0.282 N 
ATOM     74  C   UNL A   1      28.308  30.085  21.884  1.00  0.00     0.135 A 
ATOM     75  N   UNL A   1      29.519  30.138  21.332  1.00  0.00    -0.184 NA
ATOM     76  H   UNL A   1      31.142  28.934  21.744  1.00  0.00     0.190 HD
ENDBRANCH  70  71
ENDBRANCH  68  70
ENDBRANCH  65  68
BRANCH  67  77
ATOM     77  C   UNL A   1      32.431  23.686  24.316  1.00  0.00     0.022 C 
ATOM     78  C   UNL A   1      30.960  23.331  24.287  1.00  0.00     0.007 C 
ATOM     79  C   UNL A   1      31.858  22.861  23.181  1.00  0.00     0.007 C 
ENDBRANCH  67  77
ENDBRANCH  60  63
ENDBRANCH  58  59
ENDBRANCH   1  58
TORSDOF 15
ENDMDL
MODEL 2
REMARK VINA RESULT:     -10.7      0.468      6.037
REMARK SMILES O=C(NCCCCNC(=O)[C@@H]1CS[C@@H](C2CC2)N1C(=O)Cc1ccn[nH]1)c1ccc(-c2c3nc(c(-c4ccccc4)c4ccc([nH]4)c(-c4ccccc4)c4nc(c(-c5ccccc5)c5ccc2[nH]5)C=C4)C=C3)cc1
REMARK SMILES IDX 6 1 5 2 4 3 3 4 1 5 2 6 27 8 28 9 74 10 29 11 73 12 30 13
REMARK SMILES IDX 31 14 32 15 67 16 33 17 72 18 66 19 68 20 34 21 71 22 65 23
REMARK SMILES IDX 64 24 35 26 57 27 42 28 56 29 43 30 46 31 55 32 69 33 44 34
REMARK SMILES IDX 45 35 54 37 70 38 47 39 36 40 37 41 41 42 38 43 40 44 39 45
REMARK SMILES IDX 58 46 59 47 63 48 60 49 62 50 61 51 48 52 49 53 53 54 50 55
REMARK SMILES IDX 52 56 51 57 7 58 8 59 9 60 10 62 11 63 12 64 18 65 13 66
REMARK SMILES IDX 14 67 19 68 20 69 21 70 22 71 23 72 26 73 24 74 25 75 15 77
REMARK SMILES IDX 16 78 17 79
REMARK H PARENT 3 7 68 25 46 36 8 61 26 76
REMARK Flexibility Score: inf
ROOT
ATOM      1  C   UNL A   1      31.347  30.863  25.911  1.00  0.00     0.023 C 
ENDROOT
BRANCH   1   2
ATOM      2  C   UNL A   1      31.215  32.273  26.487  1.00  0.00     0.023 C 
BRANCH   2   3
ATOM      3  C   UNL A   1      32.511  32.895  26.990  1.00  0.00     0.116 C 
BRANCH   3   4
ATOM      4  N   UNL A   1      32.320  34.197  27.608  1.00  0.00    -0.352 N 
ATOM      5  O   UNL A   1      32.641  35.828  29.139  1.00  0.00    -0.269 OA
ATOM      6  C   UNL A   1      33.014  34.764  28.652  1.00  0.00     0.251 C 
ATOM      7  H   UNL A   1      31.597  34.747  27.229  1.00  0.00     0.163 HD
BRANCH   6   8
ATOM      8  C   UNL A   1      34.196  34.070  29.209  1.00  0.00     0.039 A 
ATOM      9  C   UNL A   1      34.042  33.090  30.191  1.00  0.00     0.014 A 
ATOM     10  C   UNL A   1      35.473  34.413  28.754  1.00  0.00     0.014 A 
ATOM     11  C   UNL A   1      35.164  32.565  30.821  1.00  0.00     0.010 A 
ATOM     12  C   UNL A   1      36.601  33.815  29.328  1.00  0.00     0.010 A 
ATOM     13  C   UNL A   1      36.456  32.908  30.387  1.00  0.00    -0.014 A 
BRANCH  13  14
ATOM     14  C   UNL A   1      37.620  32.239  31.021  1.00  0.00     0.031 A 
ATOM     15  C   UNL A   1      38.301  31.061  30.379  1.00  0.00     0.074 A 
ATOM     16  C   UNL A   1      38.105  32.756  32.167  1.00  0.00     0.049 A 
ATOM     17  N   UNL A   1      39.381  30.429  30.766  1.00  0.00    -0.248 NA
ATOM     18  C   UNL A   1      37.696  30.518  29.153  1.00  0.00     0.031 C 
ATOM     19  C   UNL A   1      37.521  33.889  32.891  1.00  0.00     0.029 A 
ATOM     20  N   UNL A   1      39.216  32.430  32.901  1.00  0.00    -0.354 N 
ATOM     21  C   UNL A   1      39.581  29.412  29.842  1.00  0.00     0.074 A 
ATOM     22  C   UNL A   1      38.496  29.493  28.888  1.00  0.00     0.031 C 
ATOM     23  C   UNL A   1      38.314  34.206  33.924  1.00  0.00     0.029 A 
ATOM     24  C   UNL A   1      39.426  33.264  33.972  1.00  0.00     0.049 A 
ATOM     25  H   UNL A   1      39.804  31.672  32.682  1.00  0.00     0.167 HD
ATOM     26  C   UNL A   1      40.580  28.497  29.792  1.00  0.00     0.031 A 
ATOM     27  C   UNL A   1      40.401  33.273  34.897  1.00  0.00     0.031 A 
ATOM     28  C   UNL A   1      41.659  28.415  30.743  1.00  0.00     0.049 A 
ATOM     29  C   UNL A   1      41.487  32.242  34.819  1.00  0.00     0.074 A 
ATOM     30  C   UNL A   1      42.723  27.528  30.768  1.00  0.00     0.029 A 
ATOM     31  N   UNL A   1      41.813  29.251  31.838  1.00  0.00    -0.354 N 
ATOM     32  N   UNL A   1      41.668  31.301  33.924  1.00  0.00    -0.248 NA
ATOM     33  C   UNL A   1      42.503  32.275  35.880  1.00  0.00     0.031 C 
ATOM     34  C   UNL A   1      43.497  27.802  31.900  1.00  0.00     0.029 A 
ATOM     35  C   UNL A   1      42.942  28.890  32.553  1.00  0.00     0.049 A 
ATOM     36  H   UNL A   1      41.208  29.992  32.073  1.00  0.00     0.167 HD
ATOM     37  C   UNL A   1      42.819  30.631  34.312  1.00  0.00     0.074 A 
ATOM     38  C   UNL A   1      43.313  31.297  35.501  1.00  0.00     0.031 C 
ATOM     39  C   UNL A   1      43.409  29.553  33.743  1.00  0.00     0.031 A 
BRANCH  26  40
ATOM     40  C   UNL A   1      40.553  27.493  28.673  1.00  0.00    -0.014 A 
ATOM     41  C   UNL A   1      39.866  26.277  28.807  1.00  0.00     0.009 A 
ATOM     42  C   UNL A   1      41.163  27.798  27.446  1.00  0.00     0.009 A 
ATOM     43  C   UNL A   1      39.806  25.377  27.739  1.00  0.00     0.001 A 
ATOM     44  C   UNL A   1      41.082  26.907  26.374  1.00  0.00     0.001 A 
ATOM     45  C   UNL A   1      40.409  25.696  26.522  1.00  0.00     0.000 A 
ENDBRANCH  26  40
BRANCH  27  46
ATOM     46  C   UNL A   1      40.381  34.281  35.986  1.00  0.00    -0.014 A 
ATOM     47  C   UNL A   1      39.694  34.032  37.184  1.00  0.00     0.009 A 
ATOM     48  C   UNL A   1      41.055  35.503  35.830  1.00  0.00     0.009 A 
ATOM     49  C   UNL A   1      39.664  34.998  38.193  1.00  0.00     0.001 A 
ATOM     50  C   UNL A   1      41.050  36.451  36.853  1.00  0.00     0.001 A 
ATOM     51  C   UNL A   1      40.347  36.202  38.028  1.00  0.00     0.000 A 
ENDBRANCH  27  46
BRANCH  39  52
ATOM     52  C   UNL A   1      44.655  29.042  34.404  1.00  0.00    -0.014 A 
ATOM     53  C   UNL A   1      45.919  29.539  34.044  1.00  0.00     0.009 A 
ATOM     54  C   UNL A   1      44.567  28.053  35.395  1.00  0.00     0.009 A 
ATOM     55  C   UNL A   1      47.073  29.024  34.636  1.00  0.00     0.001 A 
ATOM     56  C   UNL A   1      45.722  27.559  36.003  1.00  0.00     0.001 A 
ATOM     57  C   UNL A   1      46.973  28.036  35.615  1.00  0.00     0.000 A 
ENDBRANCH  39  52
ENDBRANCH  13  14
ENDBRANCH   6   8
ENDBRANCH   3   4
ENDBRANCH   2   3
ENDBRANCH   1   2
BRANCH   1  58
ATOM     58  C   UNL A   1      32.634  30.131  26.289  1.00  0.00     0.116 C 
BRANCH  58  59
ATOM     59  N   UNL A   1      33.389  29.725  25.117  1.00  0.00    -0.354 N 
ATOM     60  C   UNL A   1      33.457  28.502  24.513  1.00  0.00     0.243 C 
ATOM     61  H   UNL A   1      33.929  30.433  24.697  1.00  0.00     0.163 HD
ATOM     62  O   UNL A   1      34.139  28.398  23.488  1.00  0.00    -0.273 OA
BRANCH  60  63
ATOM     63  C   UNL A   1      32.703  27.295  25.128  1.00  0.00     0.185 C 
ATOM     64  C   UNL A   1      33.639  26.515  26.029  1.00  0.00     0.107 C 
ATOM     65  N   UNL A   1      32.185  26.453  24.037  1.00  0.00    -0.317 N 
ATOM     66  S   UNL A   1      34.337  25.224  24.986  1.00  0.00    -0.134 SA
ATOM     67  C   UNL A   1      32.954  25.237  23.774  1.00  0.00     0.147 C 
BRANCH  65  68
ATOM     68  C   UNL A   1      31.228  27.073  23.249  1.00  0.00     0.230 C 
ATOM     69  O   UNL A   1      31.259  26.923  22.018  1.00  0.00    -0.274 OA
BRANCH  68  70
ATOM     70  C   UNL A   1      30.122  27.935  23.827  1.00  0.00     0.155 C 
BRANCH  70  71
ATOM     71  C   UNL A   1      29.470  28.893  22.893  1.00  0.00     0.044 A 
ATOM     72  C   UNL A   1      28.126  29.159  22.718  1.00  0.00     0.045 A 
ATOM     73  N   UNL A   1      30.127  29.744  22.036  1.00  0.00    -0.282 N 
ATOM     74  C   UNL A   1      28.073  30.107  21.687  1.00  0.00     0.135 A 
ATOM     75  N   UNL A   1      29.286  30.446  21.252  1.00  0.00    -0.184 NA
ATOM     76  H   UNL A   1      31.107  29.830  21.999  1.00  0.00     0.190 HD
ENDBRANCH  70  71
ENDBRANCH  68  70
ENDBRANCH  65  68
BRANCH  67  77
ATOM     77  C   UNL A   1      32.213  23.926  23.968  1.00  0.00     0.022 C 
ATOM     78  C   UNL A   1      30.795  23.620  23.536  1.00  0.00     0.007 C 
ATOM     79  C   UNL A   1      31.945  23.061  22.752  1.00  0.00     0.007 C 
ENDBRANCH  67  77
ENDBRANCH  60  63
ENDBRANCH  58  59
ENDBRANCH   1  58
TORSDOF 15
ENDMDL
MODEL 3
REMARK VINA RESULT:     -10.1      3.685      7.730
REMARK SMILES O=C(NCCCCNC(=O)[C@@H]1CS[C@@H](C2CC2)N1C(=O)Cc1ccn[nH]1)c1ccc(-c2c3nc(c(-c4ccccc4)c4ccc([nH]4)c(-c4ccccc4)c4nc(c(-c5ccccc5)c5ccc2[nH]5)C=C4)C=C3)cc1
REMARK SMILES IDX 6 1 5 2 4 3 3 4 1 5 2 6 27 8 28 9 74 10 29 11 73 12 30 13
REMARK SMILES IDX 31 14 32 15 67 16 33 17 72 18 66 19 68 20 34 21 71 22 65 23
REMARK SMILES IDX 64 24 35 26 57 27 42 28 56 29 43 30 46 31 55 32 69 33 44 34
REMARK SMILES IDX 45 35 54 37 70 38 47 39 36 40 37 41 41 42 38 43 40 44 39 45
REMARK SMILES IDX 58 46 59 47 63 48 60 49 62 50 61 51 48 52 49 53 53 54 50 55
REMARK SMILES IDX 52 56 51 57 7 58 8 59 9 60 10 62 11 63 12 64 18 65 13 66
REMARK SMILES IDX 14 67 19 68 20 69 21 70 22 71 23 72 26 73 24 74 25 75 15 77
REMARK SMILES IDX 16 78 17 79
REMARK H PARENT 3 7 68 25 46 36 8 61 26 76
REMARK Flexibility Score: inf
ROOT
ATOM      1  C   UNL A   1      33.669  27.730  24.905  1.00  0.00     0.023 C 
ENDROOT
BRANCH   1   2
ATOM      2  C   UNL A   1      32.892  28.379  26.051  1.00  0.00     0.023 C 
BRANCH   2   3
ATOM      3  C   UNL A   1      33.697  28.643  27.316  1.00  0.00     0.116 C 
BRANCH   3   4
ATOM      4  N   UNL A   1      33.644  30.030  27.751  1.00  0.00    -0.352 N 
ATOM      5  O   UNL A   1      34.369  31.903  28.786  1.00  0.00    -0.269 OA
ATOM      6  C   UNL A   1      34.621  30.776  28.368  1.00  0.00     0.251 C 
ATOM      7  H   UNL A   1      32.795  30.498  27.581  1.00  0.00     0.163 HD
BRANCH   6   8
ATOM      8  C   UNL A   1      35.973  30.203  28.556  1.00  0.00     0.039 A 
ATOM      9  C   UNL A   1      36.332  29.627  29.775  1.00  0.00     0.014 A 
ATOM     10  C   UNL A   1      36.893  30.254  27.505  1.00  0.00     0.014 A 
ATOM     11  C   UNL A   1      37.649  29.242  29.992  1.00  0.00     0.010 A 
ATOM     12  C   UNL A   1      38.197  29.782  27.697  1.00  0.00     0.010 A 
ATOM     13  C   UNL A   1      38.593  29.300  28.952  1.00  0.00    -0.014 A 
BRANCH  13  14
ATOM     14  C   UNL A   1      39.960  28.777  29.204  1.00  0.00     0.031 A 
ATOM     15  C   UNL A   1      40.377  27.403  28.752  1.00  0.00     0.074 A 
ATOM     16  C   UNL A   1      40.856  29.594  29.793  1.00  0.00     0.049 A 
ATOM     17  N   UNL A   1      41.560  26.844  28.819  1.00  0.00    -0.248 NA
ATOM     18  C   UNL A   1      39.342  26.547  28.155  1.00  0.00     0.031 C 
ATOM     19  C   UNL A   1      40.565  30.943  30.286  1.00  0.00     0.029 A 
ATOM     20  N   UNL A   1      42.194  29.432  30.039  1.00  0.00    -0.354 N 
ATOM     21  C   UNL A   1      41.411  25.570  28.285  1.00  0.00     0.074 A 
ATOM     22  C   UNL A   1      40.017  25.428  27.921  1.00  0.00     0.031 C 
ATOM     23  C   UNL A   1      41.702  31.509  30.712  1.00  0.00     0.029 A 
ATOM     24  C   UNL A   1      42.788  30.546  30.580  1.00  0.00     0.049 A 
ATOM     25  H   UNL A   1      42.681  28.598  29.848  1.00  0.00     0.167 HD
ATOM     26  C   UNL A   1      42.351  24.610  28.110  1.00  0.00     0.031 A 
ATOM     27  C   UNL A   1      44.064  30.772  30.938  1.00  0.00     0.031 A 
ATOM     28  C   UNL A   1      43.738  24.751  28.475  1.00  0.00     0.049 A 
ATOM     29  C   UNL A   1      45.079  29.686  30.741  1.00  0.00     0.074 A 
ATOM     30  C   UNL A   1      44.767  23.835  28.326  1.00  0.00     0.029 A 
ATOM     31  N   UNL A   1      44.291  25.879  29.059  1.00  0.00    -0.354 N 
ATOM     32  N   UNL A   1      44.920  28.495  30.214  1.00  0.00    -0.248 NA
ATOM     33  C   UNL A   1      46.447  29.975  31.187  1.00  0.00     0.031 C 
ATOM     34  C   UNL A   1      45.933  24.394  28.859  1.00  0.00     0.029 A 
ATOM     35  C   UNL A   1      45.641  25.676  29.294  1.00  0.00     0.049 A 
ATOM     36  H   UNL A   1      43.797  26.703  29.276  1.00  0.00     0.167 HD
ATOM     37  C   UNL A   1      46.169  27.894  30.264  1.00  0.00     0.074 A 
ATOM     38  C   UNL A   1      47.080  28.864  30.837  1.00  0.00     0.031 C 
ATOM     39  C   UNL A   1      46.528  26.645  29.880  1.00  0.00     0.031 A 
BRANCH  26  40
ATOM     40  C   UNL A   1      41.914  23.305  27.505  1.00  0.00    -0.014 A 
ATOM     41  C   UNL A   1      42.180  23.003  26.160  1.00  0.00     0.009 A 
ATOM     42  C   UNL A   1      41.291  22.336  28.308  1.00  0.00     0.009 A 
ATOM     43  C   UNL A   1      41.814  21.764  25.628  1.00  0.00     0.001 A 
ATOM     44  C   UNL A   1      40.947  21.091  27.778  1.00  0.00     0.001 A 
ATOM     45  C   UNL A   1      41.203  20.808  26.438  1.00  0.00     0.000 A 
ENDBRANCH  26  40
BRANCH  27  46
ATOM     46  C   UNL A   1      44.446  32.075  31.537  1.00  0.00    -0.014 A 
ATOM     47  C   UNL A   1      44.386  32.274  32.925  1.00  0.00     0.009 A 
ATOM     48  C   UNL A   1      44.877  33.130  30.717  1.00  0.00     0.009 A 
ATOM     49  C   UNL A   1      44.728  33.512  33.475  1.00  0.00     0.001 A 
ATOM     50  C   UNL A   1      45.249  34.354  31.272  1.00  0.00     0.001 A 
ATOM     51  C   UNL A   1      45.164  34.547  32.649  1.00  0.00     0.000 A 
ENDBRANCH  27  46
BRANCH  39  52
ATOM     52  C   UNL A   1      47.970  26.274  30.067  1.00  0.00    -0.014 A 
ATOM     53  C   UNL A   1      48.455  25.873  31.323  1.00  0.00     0.009 A 
ATOM     54  C   UNL A   1      48.853  26.326  28.979  1.00  0.00     0.009 A 
ATOM     55  C   UNL A   1      49.807  25.572  31.492  1.00  0.00     0.001 A 
ATOM     56  C   UNL A   1      50.199  25.999  29.146  1.00  0.00     0.001 A 
ATOM     57  C   UNL A   1      50.677  25.635  30.404  1.00  0.00     0.000 A 
ENDBRANCH  39  52
ENDBRANCH  13  14
ENDBRANCH   6   8
ENDBRANCH   3   4
ENDBRANCH   2   3
ENDBRANCH   1   2
BRANCH   1  58
ATOM     58  C   UNL A   1      33.078  26.421  24.384  1.00  0.00     0.116 C 
BRANCH  58  59
ATOM     59  N   UNL A   1      34.017  25.700  23.545  1.00  0.00    -0.354 N 
ATOM     60  C   UNL A   1      34.446  24.406  23.643  1.00  0.00     0.243 C 
ATOM     61  H   UNL A   1      34.400  26.216  22.800  1.00  0.00     0.163 HD
ATOM     62  O   UNL A   1      35.226  23.988  22.780  1.00  0.00    -0.273 OA
BRANCH  60  63
ATOM     63  C   UNL A   1      33.964  23.519  24.819  1.00  0.00     0.185 C 
ATOM     64  C   UNL A   1      35.118  23.259  25.767  1.00  0.00     0.107 C 
ATOM     65  N   UNL A   1      33.424  22.263  24.276  1.00  0.00    -0.317 N 
ATOM     66  S   UNL A   1      35.839  21.703  25.221  1.00  0.00    -0.134 SA
ATOM     67  C   UNL A   1      34.313  21.107  24.386  1.00  0.00     0.147 C 
BRANCH  65  68
ATOM     68  C   UNL A   1      32.287  22.425  23.498  1.00  0.00     0.230 C 
ATOM     69  O   UNL A   1      32.126  21.709  22.498  1.00  0.00    -0.274 OA
BRANCH  68  70
ATOM     70  C   UNL A   1      31.212  23.444  23.818  1.00  0.00     0.155 C 
BRANCH  70  71
ATOM     71  C   UNL A   1      30.638  23.395  25.191  1.00  0.00     0.044 A 
ATOM     72  C   UNL A   1      30.552  22.326  26.061  1.00  0.00     0.045 A 
ATOM     73  N   UNL A   1      30.110  24.467  25.872  1.00  0.00    -0.282 N 
ATOM     74  C   UNL A   1      29.886  22.827  27.188  1.00  0.00     0.135 A 
ATOM     75  N   UNL A   1      29.594  24.121  27.068  1.00  0.00    -0.184 NA
ATOM     76  H   UNL A   1      30.109  25.387  25.524  1.00  0.00     0.190 HD
ENDBRANCH  70  71
ENDBRANCH  68  70
ENDBRANCH  65  68
BRANCH  67  77
ATOM     77  C   UNL A   1      33.800  19.949  25.225  1.00  0.00     0.022 C 
ATOM     78  C   UNL A   1      32.506  19.192  25.018  1.00  0.00     0.007 C 
ATOM     79  C   UNL A   1      33.806  18.560  24.620  1.00  0.00     0.007 C 
ENDBRANCH  67  77
ENDBRANCH  60  63
ENDBRANCH  58  59
ENDBRANCH   1  58
TORSDOF 15
ENDMDL
