MODEL 1
REMARK VINA RESULT:     -11.3      0.000      0.000
REMARK SMILES Cc1n[nH]c(C)c1CC(=O)N1CC[C@H](C(=O)NCCCCNC(=O)c2ccc(-c3c4nc(c(-c5ccccc5)c5ccc([nH]5)c(-c5ccccc5)c5nc(c(-c6ccccc6)c6ccc3[nH]6)C=C5)C=C4)cc2)[C@H]1C
REMARK SMILES IDX 19 1 18 2 17 3 15 4 16 5 14 7 11 8 12 9 73 10 13 11 74 12
REMARK SMILES IDX 9 13 10 14 8 15 7 16 1 17 2 18 3 19 4 20 5 21 6 23 20 24
REMARK SMILES IDX 21 25 22 26 23 27 24 29 25 30 26 31 72 32 27 33 71 34 28 35
REMARK SMILES IDX 29 36 30 37 65 38 31 39 70 40 64 41 66 42 32 43 69 44 63 45
REMARK SMILES IDX 62 46 33 48 55 49 40 50 54 51 41 52 44 53 53 54 67 55 42 56
REMARK SMILES IDX 43 57 52 59 68 60 45 61 34 62 35 63 39 64 36 65 38 66 37 67
REMARK SMILES IDX 56 68 57 69 61 70 58 71 60 72 59 73 46 74 47 75 51 76 48 77
REMARK SMILES IDX 50 78 49 79
REMARK H PARENT 17 6 4 22 22 28 66 47 44 58
REMARK Flexibility Score: inf
ROOT
ATOM      1  C   UNL A   1      36.729  20.406  25.033  1.00  0.00     0.023 C 
ENDROOT
BRANCH   1   2
ATOM      2  C   UNL A   1      36.758  21.793  25.670  1.00  0.00     0.116 C 
BRANCH   2   3
ATOM      3  N   UNL A   1      35.601  21.969  26.516  1.00  0.00    -0.356 N 
ATOM      4  C   UNL A   1      34.680  22.964  26.546  1.00  0.00     0.225 C 
ATOM      5  O   UNL A   1      33.909  22.955  27.511  1.00  0.00    -0.275 OA
ATOM      6  H   UNL A   1      35.460  21.253  27.176  1.00  0.00     0.163 HD
BRANCH   4   7
ATOM      7  C   UNL A   1      34.503  23.943  25.380  1.00  0.00     0.102 C 
ATOM      8  N   UNL A   1      32.266  24.766  25.316  1.00  0.00    -0.339 N 
ATOM      9  C   UNL A   1      32.277  23.449  24.694  1.00  0.00     0.120 C 
ATOM     10  C   UNL A   1      33.634  25.203  25.606  1.00  0.00     0.094 C 
ATOM     11  C   UNL A   1      33.719  23.246  24.253  1.00  0.00     0.037 C 
ATOM     12  C   UNL A   1      34.099  26.321  24.671  1.00  0.00     0.032 C 
BRANCH   8  13
ATOM     13  C   UNL A   1      31.085  25.272  25.831  1.00  0.00     0.227 C 
ATOM     14  O   UNL A   1      30.540  24.715  26.792  1.00  0.00    -0.275 OA
BRANCH  13  15
ATOM     15  C   UNL A   1      30.329  26.377  25.102  1.00  0.00     0.139 C 
BRANCH  15  16
ATOM     16  C   UNL A   1      30.923  27.745  25.037  1.00  0.00     0.005 A 
ATOM     17  C   UNL A   1      31.600  28.191  27.534  1.00  0.00     0.069 C 
ATOM     18  C   UNL A   1      31.485  28.522  26.091  1.00  0.00     0.063 A 
ATOM     19  N   UNL A   1      31.913  29.713  25.654  1.00  0.00    -0.181 NA
ATOM     20  N   UNL A   1      31.525  29.758  24.376  1.00  0.00    -0.282 N 
ATOM     21  C   UNL A   1      30.875  28.629  23.967  1.00  0.00     0.036 A 
ATOM     22  H   UNL A   1      31.691  30.529  23.788  1.00  0.00     0.190 HD
ATOM     23  C   UNL A   1      30.222  28.562  22.635  1.00  0.00     0.066 C 
ENDBRANCH  15  16
ENDBRANCH  13  15
ENDBRANCH   8  13
ENDBRANCH   4   7
ENDBRANCH   2   3
ENDBRANCH   1   2
BRANCH   1  24
ATOM     24  C   UNL A   1      38.092  19.762  24.786  1.00  0.00     0.023 C 
BRANCH  24  25
ATOM     25  C   UNL A   1      39.119  20.023  25.871  1.00  0.00     0.116 C 
BRANCH  25  26
ATOM     26  N   UNL A   1      40.282  19.155  25.783  1.00  0.00    -0.352 N 
ATOM     27  C   UNL A   1      41.591  19.445  26.076  1.00  0.00     0.251 C 
ATOM     28  H   UNL A   1      40.107  18.237  25.472  1.00  0.00     0.163 HD
ATOM     29  O   UNL A   1      42.475  18.619  25.875  1.00  0.00    -0.269 OA
BRANCH  27  30
ATOM     30  C   UNL A   1      41.938  20.784  26.597  1.00  0.00     0.039 A 
ATOM     31  C   UNL A   1      42.263  21.794  25.689  1.00  0.00     0.014 A 
ATOM     32  C   UNL A   1      41.911  21.052  27.968  1.00  0.00     0.014 A 
ATOM     33  C   UNL A   1      42.514  23.086  26.153  1.00  0.00     0.010 A 
ATOM     34  C   UNL A   1      42.069  22.355  28.420  1.00  0.00     0.010 A 
ATOM     35  C   UNL A   1      42.395  23.381  27.521  1.00  0.00    -0.014 A 
BRANCH  35  36
ATOM     36  C   UNL A   1      42.659  24.742  28.042  1.00  0.00     0.031 A 
ATOM     37  C   UNL A   1      44.062  25.140  28.411  1.00  0.00     0.074 A 
ATOM     38  C   UNL A   1      41.640  25.600  28.238  1.00  0.00     0.049 A 
ATOM     39  N   UNL A   1      44.498  26.265  28.919  1.00  0.00    -0.248 NA
ATOM     40  C   UNL A   1      45.110  24.125  28.212  1.00  0.00     0.031 C 
ATOM     41  C   UNL A   1      40.231  25.324  27.954  1.00  0.00     0.029 A 
ATOM     42  N   UNL A   1      41.638  26.884  28.719  1.00  0.00    -0.354 N 
ATOM     43  C   UNL A   1      45.860  26.081  29.124  1.00  0.00     0.074 A 
ATOM     44  C   UNL A   1      46.165  24.719  28.746  1.00  0.00     0.031 C 
ATOM     45  C   UNL A   1      39.507  26.423  28.223  1.00  0.00     0.029 A 
ATOM     46  C   UNL A   1      40.394  27.464  28.733  1.00  0.00     0.049 A 
ATOM     47  H   UNL A   1      42.452  27.346  29.027  1.00  0.00     0.167 HD
ATOM     48  C   UNL A   1      46.782  26.969  29.564  1.00  0.00     0.031 A 
ATOM     49  C   UNL A   1      40.015  28.701  29.104  1.00  0.00     0.031 A 
ATOM     50  C   UNL A   1      46.480  28.328  29.923  1.00  0.00     0.049 A 
ATOM     51  C   UNL A   1      41.052  29.670  29.596  1.00  0.00     0.074 A 
ATOM     52  C   UNL A   1      47.348  29.330  30.322  1.00  0.00     0.029 A 
ATOM     53  N   UNL A   1      45.206  28.876  29.926  1.00  0.00    -0.354 N 
ATOM     54  N   UNL A   1      42.347  29.504  29.722  1.00  0.00    -0.248 NA
ATOM     55  C   UNL A   1      40.573  31.004  29.986  1.00  0.00     0.031 C 
ATOM     56  C   UNL A   1      46.592  30.470  30.612  1.00  0.00     0.029 A 
ATOM     57  C   UNL A   1      45.261  30.195  30.339  1.00  0.00     0.049 A 
ATOM     58  H   UNL A   1      44.385  28.397  29.672  1.00  0.00     0.167 HD
ATOM     59  C   UNL A   1      42.842  30.723  30.168  1.00  0.00     0.074 A 
ATOM     60  C   UNL A   1      41.709  31.619  30.285  1.00  0.00     0.031 C 
ATOM     61  C   UNL A   1      44.123  31.072  30.448  1.00  0.00     0.031 A 
BRANCH  48  62
ATOM     62  C   UNL A   1      48.198  26.478  29.689  1.00  0.00    -0.014 A 
ATOM     63  C   UNL A   1      49.108  26.591  28.624  1.00  0.00     0.009 A 
ATOM     64  C   UNL A   1      48.624  25.874  30.882  1.00  0.00     0.009 A 
ATOM     65  C   UNL A   1      50.394  26.058  28.731  1.00  0.00     0.001 A 
ATOM     66  C   UNL A   1      49.922  25.375  30.999  1.00  0.00     0.001 A 
ATOM     67  C   UNL A   1      50.801  25.452  29.919  1.00  0.00     0.000 A 
ENDBRANCH  48  62
BRANCH  49  68
ATOM     68  C   UNL A   1      38.595  29.114  28.966  1.00  0.00    -0.014 A 
ATOM     69  C   UNL A   1      38.118  29.587  27.734  1.00  0.00     0.009 A 
ATOM     70  C   UNL A   1      37.709  29.030  30.051  1.00  0.00     0.009 A 
ATOM     71  C   UNL A   1      36.787  29.989  27.596  1.00  0.00     0.001 A 
ATOM     72  C   UNL A   1      36.373  29.409  29.903  1.00  0.00     0.001 A 
ATOM     73  C   UNL A   1      35.915  29.894  28.680  1.00  0.00     0.000 A 
ENDBRANCH  49  68
BRANCH  61  74
ATOM     74  C   UNL A   1      44.371  32.496  30.860  1.00  0.00    -0.014 A 
ATOM     75  C   UNL A   1      44.609  33.503  29.913  1.00  0.00     0.009 A 
ATOM     76  C   UNL A   1      44.329  32.837  32.222  1.00  0.00     0.009 A 
ATOM     77  C   UNL A   1      44.837  34.818  30.324  1.00  0.00     0.001 A 
ATOM     78  C   UNL A   1      44.527  34.157  32.628  1.00  0.00     0.001 A 
ATOM     79  C   UNL A   1      44.791  35.144  31.680  1.00  0.00     0.000 A 
ENDBRANCH  61  74
ENDBRANCH  35  36
ENDBRANCH  27  30
ENDBRANCH  25  26
ENDBRANCH  24  25
ENDBRANCH   1  24
TORSDOF 14
ENDMDL
MODEL 2
REMARK VINA RESULT:     -11.1      3.995      8.958
REMARK SMILES Cc1n[nH]c(C)c1CC(=O)N1CC[C@H](C(=O)NCCCCNC(=O)c2ccc(-c3c4nc(c(-c5ccccc5)c5ccc([nH]5)c(-c5ccccc5)c5nc(c(-c6ccccc6)c6ccc3[nH]6)C=C5)C=C4)cc2)[C@H]1C
REMARK SMILES IDX 19 1 18 2 17 3 15 4 16 5 14 7 11 8 12 9 73 10 13 11 74 12
REMARK SMILES IDX 9 13 10 14 8 15 7 16 1 17 2 18 3 19 4 20 5 21 6 23 20 24
REMARK SMILES IDX 21 25 22 26 23 27 24 29 25 30 26 31 72 32 27 33 71 34 28 35
REMARK SMILES IDX 29 36 30 37 65 38 31 39 70 40 64 41 66 42 32 43 69 44 63 45
REMARK SMILES IDX 62 46 33 48 55 49 40 50 54 51 41 52 44 53 53 54 67 55 42 56
REMARK SMILES IDX 43 57 52 59 68 60 45 61 34 62 35 63 39 64 36 65 38 66 37 67
REMARK SMILES IDX 56 68 57 69 61 70 58 71 60 72 59 73 46 74 47 75 51 76 48 77
REMARK SMILES IDX 50 78 49 79
REMARK H PARENT 17 6 4 22 22 28 66 47 44 58
REMARK Flexibility Score: inf
ROOT
ATOM      1  C   UNL A   1      31.572  30.775  26.323  1.00  0.00     0.023 C 
ENDROOT
BRANCH   1   2
ATOM      2  C   UNL A   1      32.597  30.023  27.166  1.00  0.00     0.116 C 
BRANCH   2   3
ATOM      3  N   UNL A   1      32.124  28.686  27.439  1.00  0.00    -0.356 N 
ATOM      4  C   UNL A   1      32.228  27.551  26.703  1.00  0.00     0.225 C 
ATOM      5  O   UNL A   1      31.554  26.593  27.093  1.00  0.00    -0.275 OA
ATOM      6  H   UNL A   1      31.651  28.583  28.296  1.00  0.00     0.163 HD
BRANCH   4   7
ATOM      7  C   UNL A   1      33.236  27.418  25.556  1.00  0.00     0.102 C 
ATOM      8  N   UNL A   1      32.099  27.199  23.471  1.00  0.00    -0.339 N 
ATOM      9  C   UNL A   1      32.103  25.894  24.119  1.00  0.00     0.120 C 
ATOM     10  C   UNL A   1      32.929  28.143  24.223  1.00  0.00     0.094 C 
ATOM     11  C   UNL A   1      33.274  25.951  25.088  1.00  0.00     0.037 C 
ATOM     12  C   UNL A   1      34.240  28.468  23.503  1.00  0.00     0.032 C 
BRANCH   8  13
ATOM     13  C   UNL A   1      31.145  27.486  22.511  1.00  0.00     0.227 C 
ATOM     14  O   UNL A   1      31.038  26.768  21.509  1.00  0.00    -0.275 OA
BRANCH  13  15
ATOM     15  C   UNL A   1      30.364  28.795  22.558  1.00  0.00     0.139 C 
BRANCH  15  16
ATOM     16  C   UNL A   1      28.896  28.758  22.827  1.00  0.00     0.005 A 
ATOM     17  C   UNL A   1      28.169  31.238  22.362  1.00  0.00     0.069 C 
ATOM     18  C   UNL A   1      27.946  29.816  22.728  1.00  0.00     0.063 A 
ATOM     19  N   UNL A   1      26.715  29.408  23.057  1.00  0.00    -0.181 NA
ATOM     20  N   UNL A   1      26.883  28.152  23.481  1.00  0.00    -0.282 N 
ATOM     21  C   UNL A   1      28.179  27.727  23.420  1.00  0.00     0.036 A 
ATOM     22  H   UNL A   1      26.144  27.588  23.806  1.00  0.00     0.190 HD
ATOM     23  C   UNL A   1      28.587  26.425  24.005  1.00  0.00     0.066 C 
ENDBRANCH  15  16
ENDBRANCH  13  15
ENDBRANCH   8  13
ENDBRANCH   4   7
ENDBRANCH   2   3
ENDBRANCH   1   2
BRANCH   1  24
ATOM     24  C   UNL A   1      31.385  32.252  26.666  1.00  0.00     0.023 C 
BRANCH  24  25
ATOM     25  C   UNL A   1      32.637  32.946  27.166  1.00  0.00     0.116 C 
BRANCH  25  26
ATOM     26  N   UNL A   1      32.372  34.235  27.784  1.00  0.00    -0.352 N 
ATOM     27  C   UNL A   1      33.095  34.884  28.754  1.00  0.00     0.251 C 
ATOM     28  H   UNL A   1      31.568  34.705  27.465  1.00  0.00     0.163 HD
ATOM     29  O   UNL A   1      32.694  35.941  29.231  1.00  0.00    -0.269 OA
BRANCH  27  30
ATOM     30  C   UNL A   1      34.345  34.275  29.257  1.00  0.00     0.039 A 
ATOM     31  C   UNL A   1      34.289  33.472  30.398  1.00  0.00     0.014 A 
ATOM     32  C   UNL A   1      35.557  34.467  28.589  1.00  0.00     0.014 A 
ATOM     33  C   UNL A   1      35.441  32.822  30.842  1.00  0.00     0.010 A 
ATOM     34  C   UNL A   1      36.680  33.748  28.977  1.00  0.00     0.010 A 
ATOM     35  C   UNL A   1      36.640  32.937  30.120  1.00  0.00    -0.014 A 
BRANCH  35  36
ATOM     36  C   UNL A   1      37.879  32.261  30.570  1.00  0.00     0.031 A 
ATOM     37  C   UNL A   1      38.681  32.848  31.699  1.00  0.00     0.074 A 
ATOM     38  C   UNL A   1      38.315  31.157  29.935  1.00  0.00     0.049 A 
ATOM     39  N   UNL A   1      39.810  32.436  32.216  1.00  0.00    -0.248 NA
ATOM     40  C   UNL A   1      38.159  34.084  32.306  1.00  0.00     0.031 C 
ATOM     41  C   UNL A   1      37.649  30.508  28.804  1.00  0.00     0.029 A 
ATOM     42  N   UNL A   1      39.425  30.383  30.157  1.00  0.00    -0.354 N 
ATOM     43  C   UNL A   1      40.144  33.374  33.185  1.00  0.00     0.074 A 
ATOM     44  C   UNL A   1      39.134  34.407  33.141  1.00  0.00     0.031 C 
ATOM     45  C   UNL A   1      38.339  29.407  28.463  1.00  0.00     0.029 A 
ATOM     46  C   UNL A   1      39.514  29.296  29.323  1.00  0.00     0.049 A 
ATOM     47  H   UNL A   1      40.096  30.587  30.849  1.00  0.00     0.167 HD
ATOM     48  C   UNL A   1      41.183  33.368  34.053  1.00  0.00     0.031 A 
ATOM     49  C   UNL A   1      40.433  28.315  29.266  1.00  0.00     0.031 A 
ATOM     50  C   UNL A   1      42.177  32.331  34.109  1.00  0.00     0.049 A 
ATOM     51  C   UNL A   1      41.583  28.330  30.233  1.00  0.00     0.074 A 
ATOM     52  C   UNL A   1      43.236  32.195  34.989  1.00  0.00     0.029 A 
ATOM     53  N   UNL A   1      42.233  31.248  33.243  1.00  0.00    -0.354 N 
ATOM     54  N   UNL A   1      41.850  29.187  31.189  1.00  0.00    -0.248 NA
ATOM     55  C   UNL A   1      42.552  27.230  30.120  1.00  0.00     0.031 C 
ATOM     56  C   UNL A   1      43.961  31.054  34.625  1.00  0.00     0.029 A 
ATOM     57  C   UNL A   1      43.319  30.451  33.555  1.00  0.00     0.049 A 
ATOM     58  H   UNL A   1      41.594  31.074  32.515  1.00  0.00     0.167 HD
ATOM     59  C   UNL A   1      42.995  28.711  31.815  1.00  0.00     0.074 A 
ATOM     60  C   UNL A   1      43.366  27.487  31.134  1.00  0.00     0.031 C 
ATOM     61  C   UNL A   1      43.673  29.236  32.866  1.00  0.00     0.031 A 
BRANCH  48  62
ATOM     62  C   UNL A   1      41.290  34.533  34.998  1.00  0.00    -0.014 A 
ATOM     63  C   UNL A   1      42.057  35.667  34.676  1.00  0.00     0.009 A 
ATOM     64  C   UNL A   1      40.633  34.491  36.236  1.00  0.00     0.009 A 
ATOM     65  C   UNL A   1      42.210  36.704  35.597  1.00  0.00     0.001 A 
ATOM     66  C   UNL A   1      40.758  35.546  37.142  1.00  0.00     0.001 A 
ATOM     67  C   UNL A   1      41.559  36.644  36.829  1.00  0.00     0.000 A 
ENDBRANCH  48  62
BRANCH  49  68
ATOM     68  C   UNL A   1      40.271  27.201  28.297  1.00  0.00    -0.014 A 
ATOM     69  C   UNL A   1      39.541  26.058  28.658  1.00  0.00     0.009 A 
ATOM     70  C   UNL A   1      40.828  27.274  27.013  1.00  0.00     0.009 A 
ATOM     71  C   UNL A   1      39.391  24.999  27.759  1.00  0.00     0.001 A 
ATOM     72  C   UNL A   1      40.656  26.225  26.107  1.00  0.00     0.001 A 
ATOM     73  C   UNL A   1      39.944  25.087  26.482  1.00  0.00     0.000 A 
ENDBRANCH  49  68
BRANCH  61  74
ATOM     74  C   UNL A   1      44.857  28.460  33.374  1.00  0.00    -0.014 A 
ATOM     75  C   UNL A   1      46.153  28.705  32.898  1.00  0.00     0.009 A 
ATOM     76  C   UNL A   1      44.669  27.491  34.373  1.00  0.00     0.009 A 
ATOM     77  C   UNL A   1      47.234  27.969  33.386  1.00  0.00     0.001 A 
ATOM     78  C   UNL A   1      45.755  26.779  34.882  1.00  0.00     0.001 A 
ATOM     79  C   UNL A   1      47.035  27.010  34.381  1.00  0.00     0.000 A 
ENDBRANCH  61  74
ENDBRANCH  35  36
ENDBRANCH  27  30
ENDBRANCH  25  26
ENDBRANCH  24  25
ENDBRANCH   1  24
TORSDOF 14
ENDMDL
MODEL 3
REMARK VINA RESULT:     -11.1      0.764      5.950
REMARK SMILES Cc1n[nH]c(C)c1CC(=O)N1CC[C@H](C(=O)NCCCCNC(=O)c2ccc(-c3c4nc(c(-c5ccccc5)c5ccc([nH]5)c(-c5ccccc5)c5nc(c(-c6ccccc6)c6ccc3[nH]6)C=C5)C=C4)cc2)[C@H]1C
REMARK SMILES IDX 19 1 18 2 17 3 15 4 16 5 14 7 11 8 12 9 73 10 13 11 74 12
REMARK SMILES IDX 9 13 10 14 8 15 7 16 1 17 2 18 3 19 4 20 5 21 6 23 20 24
REMARK SMILES IDX 21 25 22 26 23 27 24 29 25 30 26 31 72 32 27 33 71 34 28 35
REMARK SMILES IDX 29 36 30 37 65 38 31 39 70 40 64 41 66 42 32 43 69 44 63 45
REMARK SMILES IDX 62 46 33 48 55 49 40 50 54 51 41 52 44 53 53 54 67 55 42 56
REMARK SMILES IDX 43 57 52 59 68 60 45 61 34 62 35 63 39 64 36 65 38 66 37 67
REMARK SMILES IDX 56 68 57 69 61 70 58 71 60 72 59 73 46 74 47 75 51 76 48 77
REMARK SMILES IDX 50 78 49 79
REMARK H PARENT 17 6 4 22 22 28 66 47 44 58
REMARK Flexibility Score: inf
ROOT
ATOM      1  C   UNL A   1      36.940  20.871  24.739  1.00  0.00     0.023 C 
ENDROOT
BRANCH   1   2
ATOM      2  C   UNL A   1      36.966  22.040  25.719  1.00  0.00     0.116 C 
BRANCH   2   3
ATOM      3  N   UNL A   1      35.747  22.061  26.493  1.00  0.00    -0.356 N 
ATOM      4  C   UNL A   1      34.756  22.986  26.544  1.00  0.00     0.225 C 
ATOM      5  O   UNL A   1      33.928  22.837  27.447  1.00  0.00    -0.275 OA
ATOM      6  H   UNL A   1      35.615  21.279  27.075  1.00  0.00     0.163 HD
BRANCH   4   7
ATOM      7  C   UNL A   1      34.587  24.055  25.459  1.00  0.00     0.102 C 
ATOM      8  N   UNL A   1      32.329  24.822  25.393  1.00  0.00    -0.339 N 
ATOM      9  C   UNL A   1      32.397  23.563  24.663  1.00  0.00     0.120 C 
ATOM     10  C   UNL A   1      33.675  25.268  25.762  1.00  0.00     0.094 C 
ATOM     11  C   UNL A   1      33.857  23.435  24.253  1.00  0.00     0.037 C 
ATOM     12  C   UNL A   1      34.135  26.474  24.939  1.00  0.00     0.032 C 
BRANCH   8  13
ATOM     13  C   UNL A   1      31.120  25.251  25.911  1.00  0.00     0.227 C 
ATOM     14  O   UNL A   1      30.602  24.646  26.857  1.00  0.00    -0.275 OA
BRANCH  13  15
ATOM     15  C   UNL A   1      30.307  26.327  25.198  1.00  0.00     0.139 C 
BRANCH  15  16
ATOM     16  C   UNL A   1      30.872  27.703  25.074  1.00  0.00     0.005 A 
ATOM     17  C   UNL A   1      31.627  28.233  27.532  1.00  0.00     0.069 C 
ATOM     18  C   UNL A   1      31.455  28.520  26.085  1.00  0.00     0.063 A 
ATOM     19  N   UNL A   1      31.845  29.706  25.600  1.00  0.00    -0.181 NA
ATOM     20  N   UNL A   1      31.411  29.707  24.336  1.00  0.00    -0.282 N 
ATOM     21  C   UNL A   1      30.769  28.555  23.982  1.00  0.00     0.036 A 
ATOM     22  H   UNL A   1      31.542  30.464  23.721  1.00  0.00     0.190 HD
ATOM     23  C   UNL A   1      30.071  28.437  22.676  1.00  0.00     0.066 C 
ENDBRANCH  15  16
ENDBRANCH  13  15
ENDBRANCH   8  13
ENDBRANCH   4   7
ENDBRANCH   2   3
ENDBRANCH   1   2
BRANCH   1  24
ATOM     24  C   UNL A   1      37.963  19.766  24.996  1.00  0.00     0.023 C 
BRANCH  24  25
ATOM     25  C   UNL A   1      39.195  20.214  25.759  1.00  0.00     0.116 C 
BRANCH  25  26
ATOM     26  N   UNL A   1      40.238  19.201  25.811  1.00  0.00    -0.352 N 
ATOM     27  C   UNL A   1      41.559  19.350  26.153  1.00  0.00     0.251 C 
ATOM     28  H   UNL A   1      39.959  18.288  25.570  1.00  0.00     0.163 HD
ATOM     29  O   UNL A   1      42.336  18.404  26.073  1.00  0.00    -0.269 OA
BRANCH  27  30
ATOM     30  C   UNL A   1      42.053  20.676  26.578  1.00  0.00     0.039 A 
ATOM     31  C   UNL A   1      42.459  21.586  25.599  1.00  0.00     0.014 A 
ATOM     32  C   UNL A   1      42.085  21.033  27.928  1.00  0.00     0.014 A 
ATOM     33  C   UNL A   1      42.853  22.872  25.972  1.00  0.00     0.010 A 
ATOM     34  C   UNL A   1      42.387  22.340  28.289  1.00  0.00     0.010 A 
ATOM     35  C   UNL A   1      42.796  23.266  27.319  1.00  0.00    -0.014 A 
BRANCH  35  36
ATOM     36  C   UNL A   1      43.210  24.623  27.744  1.00  0.00     0.031 A 
ATOM     37  C   UNL A   1      42.165  25.663  28.041  1.00  0.00     0.074 A 
ATOM     38  C   UNL A   1      44.517  24.941  27.808  1.00  0.00     0.049 A 
ATOM     39  N   UNL A   1      42.316  26.916  28.388  1.00  0.00    -0.248 NA
ATOM     40  C   UNL A   1      40.759  25.246  27.898  1.00  0.00     0.031 C 
ATOM     41  C   UNL A   1      45.628  24.036  27.511  1.00  0.00     0.029 A 
ATOM     42  N   UNL A   1      45.129  26.119  28.152  1.00  0.00    -0.354 N 
ATOM     43  C   UNL A   1      41.032  27.439  28.476  1.00  0.00     0.074 A 
ATOM     44  C   UNL A   1      40.119  26.388  28.087  1.00  0.00     0.031 C 
ATOM     45  C   UNL A   1      46.787  24.678  27.731  1.00  0.00     0.029 A 
ATOM     46  C   UNL A   1      46.500  26.048  28.146  1.00  0.00     0.049 A 
ATOM     47  H   UNL A   1      44.633  26.938  28.382  1.00  0.00     0.167 HD
ATOM     48  C   UNL A   1      40.642  28.673  28.870  1.00  0.00     0.031 A 
ATOM     49  C   UNL A   1      47.421  26.980  28.452  1.00  0.00     0.031 A 
ATOM     50  C   UNL A   1      41.550  29.712  29.275  1.00  0.00     0.049 A 
ATOM     51  C   UNL A   1      46.968  28.348  28.879  1.00  0.00     0.074 A 
ATOM     52  C   UNL A   1      41.258  30.979  29.750  1.00  0.00     0.029 A 
ATOM     53  N   UNL A   1      42.932  29.601  29.250  1.00  0.00    -0.354 N 
ATOM     54  N   UNL A   1      45.749  28.808  29.023  1.00  0.00    -0.248 NA
ATOM     55  C   UNL A   1      48.023  29.320  29.200  1.00  0.00     0.031 C 
ATOM     56  C   UNL A   1      42.466  31.650  29.968  1.00  0.00     0.029 A 
ATOM     57  C   UNL A   1      43.508  30.782  29.683  1.00  0.00     0.049 A 
ATOM     58  H   UNL A   1      43.429  28.800  28.967  1.00  0.00     0.167 HD
ATOM     59  C   UNL A   1      45.889  30.110  29.487  1.00  0.00     0.074 A 
ATOM     60  C   UNL A   1      47.311  30.362  29.605  1.00  0.00     0.031 C 
ATOM     61  C   UNL A   1      44.925  31.014  29.795  1.00  0.00     0.031 A 
BRANCH  48  62
ATOM     62  C   UNL A   1      39.165  28.958  28.862  1.00  0.00    -0.014 A 
ATOM     63  C   UNL A   1      38.526  29.478  27.723  1.00  0.00     0.009 A 
ATOM     64  C   UNL A   1      38.403  28.721  30.016  1.00  0.00     0.009 A 
ATOM     65  C   UNL A   1      37.171  29.810  27.760  1.00  0.00     0.001 A 
ATOM     66  C   UNL A   1      37.039  29.020  30.038  1.00  0.00     0.001 A 
ATOM     67  C   UNL A   1      36.428  29.579  28.917  1.00  0.00     0.000 A 
ENDBRANCH  48  62
BRANCH  49  68
ATOM     68  C   UNL A   1      48.865  26.633  28.424  1.00  0.00    -0.014 A 
ATOM     69  C   UNL A   1      49.602  26.789  27.241  1.00  0.00     0.009 A 
ATOM     70  C   UNL A   1      49.516  26.159  29.572  1.00  0.00     0.009 A 
ATOM     71  C   UNL A   1      50.958  26.456  27.200  1.00  0.00     0.001 A 
ATOM     72  C   UNL A   1      50.878  25.850  29.536  1.00  0.00     0.001 A 
ATOM     73  C   UNL A   1      51.595  25.991  28.349  1.00  0.00     0.000 A 
ENDBRANCH  49  68
BRANCH  61  74
ATOM     74  C   UNL A   1      45.379  32.341  30.337  1.00  0.00    -0.014 A 
ATOM     75  C   UNL A   1      45.612  33.437  29.494  1.00  0.00     0.009 A 
ATOM     76  C   UNL A   1      45.540  32.500  31.723  1.00  0.00     0.009 A 
ATOM     77  C   UNL A   1      46.034  34.658  30.026  1.00  0.00     0.001 A 
ATOM     78  C   UNL A   1      45.932  33.729  32.255  1.00  0.00     0.001 A 
ATOM     79  C   UNL A   1      46.188  34.804  31.405  1.00  0.00     0.000 A 
ENDBRANCH  61  74
ENDBRANCH  35  36
ENDBRANCH  27  30
ENDBRANCH  25  26
ENDBRANCH  24  25
ENDBRANCH   1  24
TORSDOF 14
ENDMDL
