MODEL 1
REMARK VINA RESULT:     -11.5      0.000      0.000
REMARK SMILES Cc1sc(-c2ccco2)nc1C(=O)N[C@@H](C(=O)NCCCCNC(=O)c1ccc(-c2c3nc(c(-c4ccccc4)c4ccc([nH]4)c(-c4ccccc4)c4nc(c(-c5ccccc5)c5ccc2[nH]5)C=C4)C=C3)cc1)C(C)C
REMARK SMILES IDX 20 1 19 2 18 3 16 4 17 5 15 7 14 8 12 9 13 10 11 12 1 13
REMARK SMILES IDX 2 14 3 15 4 16 10 17 5 18 6 19 9 20 7 21 8 22 74 23 75 24
REMARK SMILES IDX 76 25 21 26 22 27 23 28 24 29 25 31 26 32 27 33 73 34 28 35
REMARK SMILES IDX 72 36 29 37 30 38 31 39 66 40 32 41 71 42 65 43 67 44 33 45
REMARK SMILES IDX 70 46 64 47 63 48 34 50 56 51 41 52 55 53 42 54 45 55 54 56
REMARK SMILES IDX 68 57 43 58 44 59 53 61 69 62 46 63 35 64 36 65 40 66 37 67
REMARK SMILES IDX 39 68 38 69 57 70 58 71 62 72 59 73 61 74 60 75 47 76 48 77
REMARK SMILES IDX 52 78 49 79 51 80 50 81
REMARK H PARENT 18 6 14 11 23 30 67 49 45 60
REMARK Flexibility Score: inf
ROOT
ATOM      1  C   UNL A   1      36.778  21.898  24.102  1.00  0.00     0.023 C 
ENDROOT
BRANCH   1   2
ATOM      2  C   UNL A   1      35.463  22.457  24.634  1.00  0.00     0.116 C 
BRANCH   2   3
ATOM      3  N   UNL A   1      35.135  21.898  25.930  1.00  0.00    -0.354 N 
ATOM      4  C   UNL A   1      33.922  21.678  26.525  1.00  0.00     0.242 C 
ATOM      5  O   UNL A   1      33.945  21.233  27.675  1.00  0.00    -0.273 OA
ATOM      6  H   UNL A   1      35.912  21.631  26.471  1.00  0.00     0.163 HD
BRANCH   4   7
ATOM      7  C   UNL A   1      32.605  21.826  25.715  1.00  0.00     0.174 C 
BRANCH   7   8
ATOM      8  N   UNL A   1      31.503  22.236  26.562  1.00  0.00    -0.339 N 
ATOM      9  C   UNL A   1      30.723  23.361  26.644  1.00  0.00     0.271 C 
ATOM     10  O   UNL A   1      29.893  23.295  27.558  1.00  0.00    -0.267 OA
ATOM     11  H   UNL A   1      31.261  21.553  27.229  1.00  0.00     0.164 HD
BRANCH   9  12
ATOM     12  C   UNL A   1      30.800  24.592  25.794  1.00  0.00     0.142 A 
ATOM     13  C   UNL A   1      30.563  24.122  23.145  1.00  0.00     0.059 C 
ATOM     14  C   UNL A   1      30.682  24.879  24.425  1.00  0.00     0.035 A 
ATOM     15  S   UNL A   1      30.674  26.599  24.186  1.00  0.00    -0.115 S 
ATOM     16  C   UNL A   1      31.163  26.830  25.787  1.00  0.00     0.160 A 
ATOM     17  N   UNL A   1      31.181  25.750  26.523  1.00  0.00    -0.227 NA
BRANCH  16  18
ATOM     18  C   UNL A   1      31.595  28.119  26.229  1.00  0.00     0.162 A 
ATOM     19  C   UNL A   1      32.380  28.433  27.326  1.00  0.00     0.053 A 
ATOM     20  O   UNL A   1      31.348  29.270  25.523  1.00  0.00    -0.462 OA
ATOM     21  C   UNL A   1      32.641  29.823  27.268  1.00  0.00     0.043 A 
ATOM     22  C   UNL A   1      31.970  30.288  26.164  1.00  0.00     0.196 A 
ENDBRANCH  16  18
ENDBRANCH   9  12
ENDBRANCH   7   8
BRANCH   7  23
ATOM     23  C   UNL A   1      32.270  20.587  24.849  1.00  0.00     0.015 C 
ATOM     24  C   UNL A   1      32.409  20.871  23.346  1.00  0.00     0.010 C 
ATOM     25  C   UNL A   1      33.212  19.425  25.204  1.00  0.00     0.010 C 
ENDBRANCH   7  23
ENDBRANCH   4   7
ENDBRANCH   2   3
ENDBRANCH   1   2
BRANCH   1  26
ATOM     26  C   UNL A   1      37.299  20.713  24.914  1.00  0.00     0.023 C 
BRANCH  26  27
ATOM     27  C   UNL A   1      38.579  20.993  25.696  1.00  0.00     0.116 C 
BRANCH  27  28
ATOM     28  N   UNL A   1      39.526  19.889  25.657  1.00  0.00    -0.352 N 
ATOM     29  C   UNL A   1      40.857  19.894  25.998  1.00  0.00     0.251 C 
ATOM     30  H   UNL A   1      39.166  19.026  25.346  1.00  0.00     0.163 HD
ATOM     31  O   UNL A   1      41.560  18.912  25.786  1.00  0.00    -0.269 OA
BRANCH  29  32
ATOM     32  C   UNL A   1      41.444  21.113  26.588  1.00  0.00     0.039 A 
ATOM     33  C   UNL A   1      41.997  22.075  25.741  1.00  0.00     0.014 A 
ATOM     34  C   UNL A   1      41.405  21.325  27.969  1.00  0.00     0.014 A 
ATOM     35  C   UNL A   1      42.452  23.282  26.274  1.00  0.00     0.010 A 
ATOM     36  C   UNL A   1      41.784  22.559  28.488  1.00  0.00     0.010 A 
ATOM     37  C   UNL A   1      42.312  23.549  27.646  1.00  0.00    -0.014 A 
BRANCH  37  38
ATOM     38  C   UNL A   1      42.709  24.862  28.216  1.00  0.00     0.031 A 
ATOM     39  C   UNL A   1      41.679  25.936  28.432  1.00  0.00     0.074 A 
ATOM     40  C   UNL A   1      44.006  25.109  28.484  1.00  0.00     0.049 A 
ATOM     41  N   UNL A   1      41.840  27.158  28.875  1.00  0.00    -0.248 NA
ATOM     42  C   UNL A   1      40.288  25.603  28.082  1.00  0.00     0.031 C 
ATOM     43  C   UNL A   1      45.110  24.168  28.281  1.00  0.00     0.029 A 
ATOM     44  N   UNL A   1      44.617  26.233  28.982  1.00  0.00    -0.354 N 
ATOM     45  C   UNL A   1      40.579  27.740  28.842  1.00  0.00     0.074 A 
ATOM     46  C   UNL A   1      39.674  26.759  28.284  1.00  0.00     0.031 C 
ATOM     47  C   UNL A   1      46.256  24.742  28.681  1.00  0.00     0.029 A 
ATOM     48  C   UNL A   1      45.977  26.104  29.126  1.00  0.00     0.049 A 
ATOM     49  H   UNL A   1      44.126  27.054  29.215  1.00  0.00     0.167 HD
ATOM     50  C   UNL A   1      40.202  28.972  29.260  1.00  0.00     0.031 A 
ATOM     51  C   UNL A   1      46.899  26.984  29.560  1.00  0.00     0.031 A 
ATOM     52  C   UNL A   1      41.100  29.946  29.819  1.00  0.00     0.049 A 
ATOM     53  C   UNL A   1      46.458  28.354  29.995  1.00  0.00     0.074 A 
ATOM     54  C   UNL A   1      40.806  31.203  30.318  1.00  0.00     0.029 A 
ATOM     55  N   UNL A   1      42.470  29.776  29.946  1.00  0.00    -0.354 N 
ATOM     56  N   UNL A   1      45.251  28.864  30.025  1.00  0.00    -0.248 NA
ATOM     57  C   UNL A   1      47.509  29.266  30.468  1.00  0.00     0.031 C 
ATOM     58  C   UNL A   1      42.005  31.815  30.694  1.00  0.00     0.029 A 
ATOM     59  C   UNL A   1      43.039  30.915  30.491  1.00  0.00     0.049 A 
ATOM     60  H   UNL A   1      42.966  28.965  29.687  1.00  0.00     0.167 HD
ATOM     61  C   UNL A   1      45.392  30.143  30.547  1.00  0.00     0.074 A 
ATOM     62  C   UNL A   1      46.801  30.324  30.836  1.00  0.00     0.031 C 
ATOM     63  C   UNL A   1      44.441  31.083  30.770  1.00  0.00     0.031 A 
BRANCH  50  64
ATOM     64  C   UNL A   1      38.749  29.336  29.118  1.00  0.00    -0.014 A 
ATOM     65  C   UNL A   1      38.243  29.861  27.917  1.00  0.00     0.009 A 
ATOM     66  C   UNL A   1      37.867  29.123  30.188  1.00  0.00     0.009 A 
ATOM     67  C   UNL A   1      36.893  30.201  27.805  1.00  0.00     0.001 A 
ATOM     68  C   UNL A   1      36.512  29.432  30.063  1.00  0.00     0.001 A 
ATOM     69  C   UNL A   1      36.028  29.981  28.876  1.00  0.00     0.000 A 
ENDBRANCH  50  64
BRANCH  51  70
ATOM     70  C   UNL A   1      48.333  26.595  29.618  1.00  0.00    -0.014 A 
ATOM     71  C   UNL A   1      48.857  25.965  30.758  1.00  0.00     0.009 A 
ATOM     72  C   UNL A   1      49.190  26.862  28.539  1.00  0.00     0.009 A 
ATOM     73  C   UNL A   1      50.213  25.639  30.828  1.00  0.00     0.001 A 
ATOM     74  C   UNL A   1      50.539  26.505  28.598  1.00  0.00     0.001 A 
ATOM     75  C   UNL A   1      51.052  25.905  29.746  1.00  0.00     0.000 A 
ENDBRANCH  51  70
BRANCH  63  76
ATOM     76  C   UNL A   1      44.886  32.380  31.389  1.00  0.00    -0.014 A 
ATOM     77  C   UNL A   1      45.236  33.487  30.601  1.00  0.00     0.009 A 
ATOM     78  C   UNL A   1      44.918  32.504  32.787  1.00  0.00     0.009 A 
ATOM     79  C   UNL A   1      45.644  34.680  31.202  1.00  0.00     0.001 A 
ATOM     80  C   UNL A   1      45.293  33.707  33.385  1.00  0.00     0.001 A 
ATOM     81  C   UNL A   1      45.666  34.791  32.591  1.00  0.00     0.000 A 
ENDBRANCH  63  76
ENDBRANCH  37  38
ENDBRANCH  29  32
ENDBRANCH  27  28
ENDBRANCH  26  27
ENDBRANCH   1  26
TORSDOF 15
ENDMDL
MODEL 2
REMARK VINA RESULT:     -11.4      0.342      5.893
REMARK SMILES Cc1sc(-c2ccco2)nc1C(=O)N[C@@H](C(=O)NCCCCNC(=O)c1ccc(-c2c3nc(c(-c4ccccc4)c4ccc([nH]4)c(-c4ccccc4)c4nc(c(-c5ccccc5)c5ccc2[nH]5)C=C4)C=C3)cc1)C(C)C
REMARK SMILES IDX 20 1 19 2 18 3 16 4 17 5 15 7 14 8 12 9 13 10 11 12 1 13
REMARK SMILES IDX 2 14 3 15 4 16 10 17 5 18 6 19 9 20 7 21 8 22 74 23 75 24
REMARK SMILES IDX 76 25 21 26 22 27 23 28 24 29 25 31 26 32 27 33 73 34 28 35
REMARK SMILES IDX 72 36 29 37 30 38 31 39 66 40 32 41 71 42 65 43 67 44 33 45
REMARK SMILES IDX 70 46 64 47 63 48 34 50 56 51 41 52 55 53 42 54 45 55 54 56
REMARK SMILES IDX 68 57 43 58 44 59 53 61 69 62 46 63 35 64 36 65 40 66 37 67
REMARK SMILES IDX 39 68 38 69 57 70 58 71 62 72 59 73 61 74 60 75 47 76 48 77
REMARK SMILES IDX 52 78 49 79 51 80 50 81
REMARK H PARENT 18 6 14 11 23 30 67 49 45 60
REMARK Flexibility Score: inf
ROOT
ATOM      1  C   UNL A   1      36.821  21.702  24.082  1.00  0.00     0.023 C 
ENDROOT
BRANCH   1   2
ATOM      2  C   UNL A   1      35.420  22.128  24.510  1.00  0.00     0.116 C 
BRANCH   2   3
ATOM      3  N   UNL A   1      35.110  21.663  25.847  1.00  0.00    -0.354 N 
ATOM      4  C   UNL A   1      33.910  21.549  26.495  1.00  0.00     0.242 C 
ATOM      5  O   UNL A   1      33.950  21.168  27.667  1.00  0.00    -0.273 OA
ATOM      6  H   UNL A   1      35.891  21.381  26.375  1.00  0.00     0.163 HD
BRANCH   4   7
ATOM      7  C   UNL A   1      32.574  21.729  25.723  1.00  0.00     0.174 C 
BRANCH   7   8
ATOM      8  N   UNL A   1      31.508  22.167  26.601  1.00  0.00    -0.339 N 
ATOM      9  C   UNL A   1      30.743  23.302  26.690  1.00  0.00     0.271 C 
ATOM     10  O   UNL A   1      29.946  23.263  27.635  1.00  0.00    -0.267 OA
ATOM     11  H   UNL A   1      31.283  21.500  27.290  1.00  0.00     0.164 HD
BRANCH   9  12
ATOM     12  C   UNL A   1      30.801  24.516  25.814  1.00  0.00     0.142 A 
ATOM     13  C   UNL A   1      30.586  23.985  23.175  1.00  0.00     0.059 C 
ATOM     14  C   UNL A   1      30.685  24.771  24.438  1.00  0.00     0.035 A 
ATOM     15  S   UNL A   1      30.646  26.485  24.162  1.00  0.00    -0.115 S 
ATOM     16  C   UNL A   1      31.124  26.760  25.761  1.00  0.00     0.160 A 
ATOM     17  N   UNL A   1      31.157  25.696  26.520  1.00  0.00    -0.227 NA
BRANCH  16  18
ATOM     18  C   UNL A   1      31.529  28.066  26.176  1.00  0.00     0.162 A 
ATOM     19  C   UNL A   1      32.186  28.432  27.340  1.00  0.00     0.053 A 
ATOM     20  O   UNL A   1      31.393  29.177  25.381  1.00  0.00    -0.462 OA
ATOM     21  C   UNL A   1      32.483  29.812  27.234  1.00  0.00     0.043 A 
ATOM     22  C   UNL A   1      31.958  30.221  26.033  1.00  0.00     0.196 A 
ENDBRANCH  16  18
ENDBRANCH   9  12
ENDBRANCH   7   8
BRANCH   7  23
ATOM     23  C   UNL A   1      32.182  20.498  24.870  1.00  0.00     0.015 C 
ATOM     24  C   UNL A   1      32.456  20.715  23.374  1.00  0.00     0.010 C 
ATOM     25  C   UNL A   1      32.980  19.266  25.326  1.00  0.00     0.010 C 
ENDBRANCH   7  23
ENDBRANCH   4   7
ENDBRANCH   2   3
ENDBRANCH   1   2
BRANCH   1  26
ATOM     26  C   UNL A   1      37.354  20.509  24.875  1.00  0.00     0.023 C 
BRANCH  26  27
ATOM     27  C   UNL A   1      38.572  20.815  25.741  1.00  0.00     0.116 C 
BRANCH  27  28
ATOM     28  N   UNL A   1      39.583  19.770  25.697  1.00  0.00    -0.352 N 
ATOM     29  C   UNL A   1      40.915  19.857  26.021  1.00  0.00     0.251 C 
ATOM     30  H   UNL A   1      39.272  18.886  25.396  1.00  0.00     0.163 HD
ATOM     31  O   UNL A   1      41.674  18.917  25.807  1.00  0.00    -0.269 OA
BRANCH  29  32
ATOM     32  C   UNL A   1      41.435  21.113  26.597  1.00  0.00     0.039 A 
ATOM     33  C   UNL A   1      41.933  22.095  25.739  1.00  0.00     0.014 A 
ATOM     34  C   UNL A   1      41.388  21.337  27.977  1.00  0.00     0.014 A 
ATOM     35  C   UNL A   1      42.321  23.330  26.258  1.00  0.00     0.010 A 
ATOM     36  C   UNL A   1      41.698  22.595  28.481  1.00  0.00     0.010 A 
ATOM     37  C   UNL A   1      42.169  23.604  27.628  1.00  0.00    -0.014 A 
BRANCH  37  38
ATOM     38  C   UNL A   1      42.494  24.943  28.183  1.00  0.00     0.031 A 
ATOM     39  C   UNL A   1      43.896  25.259  28.628  1.00  0.00     0.074 A 
ATOM     40  C   UNL A   1      41.515  25.854  28.344  1.00  0.00     0.049 A 
ATOM     41  N   UNL A   1      44.361  26.352  29.178  1.00  0.00    -0.248 NA
ATOM     42  C   UNL A   1      44.903  24.198  28.454  1.00  0.00     0.031 C 
ATOM     43  C   UNL A   1      40.107  25.659  27.993  1.00  0.00     0.029 A 
ATOM     44  N   UNL A   1      41.556  27.130  28.850  1.00  0.00    -0.354 N 
ATOM     45  C   UNL A   1      45.705  26.105  29.428  1.00  0.00     0.074 A 
ATOM     46  C   UNL A   1      45.968  24.742  29.023  1.00  0.00     0.031 C 
ATOM     47  C   UNL A   1      39.427  26.785  28.262  1.00  0.00     0.029 A 
ATOM     48  C   UNL A   1      40.338  27.764  28.847  1.00  0.00     0.049 A 
ATOM     49  H   UNL A   1      42.382  27.551  29.182  1.00  0.00     0.167 HD
ATOM     50  C   UNL A   1      46.643  26.945  29.928  1.00  0.00     0.031 A 
ATOM     51  C   UNL A   1      39.989  28.993  29.273  1.00  0.00     0.031 A 
ATOM     52  C   UNL A   1      46.383  28.301  30.327  1.00  0.00     0.049 A 
ATOM     53  C   UNL A   1      41.045  29.897  29.848  1.00  0.00     0.074 A 
ATOM     54  C   UNL A   1      47.277  29.248  30.798  1.00  0.00     0.029 A 
ATOM     55  N   UNL A   1      45.135  28.905  30.310  1.00  0.00    -0.354 N 
ATOM     56  N   UNL A   1      42.326  29.673  30.011  1.00  0.00    -0.248 NA
ATOM     57  C   UNL A   1      40.605  31.229  30.287  1.00  0.00     0.031 C 
ATOM     58  C   UNL A   1      46.560  30.404  31.120  1.00  0.00     0.029 A 
ATOM     59  C   UNL A   1      45.231  30.202  30.788  1.00  0.00     0.049 A 
ATOM     60  H   UNL A   1      44.303  28.475  30.003  1.00  0.00     0.167 HD
ATOM     61  C   UNL A   1      42.851  30.845  30.541  1.00  0.00     0.074 A 
ATOM     62  C   UNL A   1      41.751  31.782  30.656  1.00  0.00     0.031 C 
ATOM     63  C   UNL A   1      44.129  31.122  30.899  1.00  0.00     0.031 A 
BRANCH  50  64
ATOM     64  C   UNL A   1      48.041  26.409  30.079  1.00  0.00    -0.014 A 
ATOM     65  C   UNL A   1      48.464  25.800  31.272  1.00  0.00     0.009 A 
ATOM     66  C   UNL A   1      48.938  26.486  29.003  1.00  0.00     0.009 A 
ATOM     67  C   UNL A   1      49.768  25.316  31.397  1.00  0.00     0.001 A 
ATOM     68  C   UNL A   1      50.230  25.971  29.119  1.00  0.00     0.001 A 
ATOM     69  C   UNL A   1      50.648  25.396  30.319  1.00  0.00     0.000 A 
ENDBRANCH  50  64
BRANCH  51  70
ATOM     70  C   UNL A   1      38.579  29.449  29.163  1.00  0.00    -0.014 A 
ATOM     71  C   UNL A   1      37.694  29.303  30.244  1.00  0.00     0.009 A 
ATOM     72  C   UNL A   1      38.104  30.024  27.974  1.00  0.00     0.009 A 
ATOM     73  C   UNL A   1      36.358  29.693  30.125  1.00  0.00     0.001 A 
ATOM     74  C   UNL A   1      36.776  30.444  27.869  1.00  0.00     0.001 A 
ATOM     75  C   UNL A   1      35.902  30.267  28.939  1.00  0.00     0.000 A 
ENDBRANCH  51  70
BRANCH  63  76
ATOM     76  C   UNL A   1      44.416  32.505  31.415  1.00  0.00    -0.014 A 
ATOM     77  C   UNL A   1      44.365  32.802  32.786  1.00  0.00     0.009 A 
ATOM     78  C   UNL A   1      44.780  33.518  30.514  1.00  0.00     0.009 A 
ATOM     79  C   UNL A   1      44.638  34.094  33.238  1.00  0.00     0.001 A 
ATOM     80  C   UNL A   1      45.084  34.800  30.972  1.00  0.00     0.001 A 
ATOM     81  C   UNL A   1      45.003  35.090  32.333  1.00  0.00     0.000 A 
ENDBRANCH  63  76
ENDBRANCH  37  38
ENDBRANCH  29  32
ENDBRANCH  27  28
ENDBRANCH  26  27
ENDBRANCH   1  26
TORSDOF 15
ENDMDL
MODEL 3
REMARK VINA RESULT:     -11.3      3.113      8.749
REMARK SMILES Cc1sc(-c2ccco2)nc1C(=O)N[C@@H](C(=O)NCCCCNC(=O)c1ccc(-c2c3nc(c(-c4ccccc4)c4ccc([nH]4)c(-c4ccccc4)c4nc(c(-c5ccccc5)c5ccc2[nH]5)C=C4)C=C3)cc1)C(C)C
REMARK SMILES IDX 20 1 19 2 18 3 16 4 17 5 15 7 14 8 12 9 13 10 11 12 1 13
REMARK SMILES IDX 2 14 3 15 4 16 10 17 5 18 6 19 9 20 7 21 8 22 74 23 75 24
REMARK SMILES IDX 76 25 21 26 22 27 23 28 24 29 25 31 26 32 27 33 73 34 28 35
REMARK SMILES IDX 72 36 29 37 30 38 31 39 66 40 32 41 71 42 65 43 67 44 33 45
REMARK SMILES IDX 70 46 64 47 63 48 34 50 56 51 41 52 55 53 42 54 45 55 54 56
REMARK SMILES IDX 68 57 43 58 44 59 53 61 69 62 46 63 35 64 36 65 40 66 37 67
REMARK SMILES IDX 39 68 38 69 57 70 58 71 62 72 59 73 61 74 60 75 47 76 48 77
REMARK SMILES IDX 52 78 49 79 51 80 50 81
REMARK H PARENT 18 6 14 11 23 30 67 49 45 60
REMARK Flexibility Score: inf
ROOT
ATOM      1  C   UNL A   1      31.878  29.618  26.837  1.00  0.00     0.023 C 
ENDROOT
BRANCH   1   2
ATOM      2  C   UNL A   1      31.697  28.749  25.596  1.00  0.00     0.116 C 
BRANCH   2   3
ATOM      3  N   UNL A   1      32.455  29.264  24.473  1.00  0.00    -0.354 N 
ATOM      4  C   UNL A   1      32.585  28.794  23.195  1.00  0.00     0.242 C 
ATOM      5  O   UNL A   1      33.351  29.414  22.454  1.00  0.00    -0.273 OA
ATOM      6  H   UNL A   1      32.958  30.089  24.661  1.00  0.00     0.163 HD
BRANCH   4   7
ATOM      7  C   UNL A   1      31.676  27.645  22.679  1.00  0.00     0.174 C 
BRANCH   7   8
ATOM      8  N   UNL A   1      32.275  26.959  21.552  1.00  0.00    -0.339 N 
ATOM      9  C   UNL A   1      32.753  25.690  21.345  1.00  0.00     0.271 C 
ATOM     10  O   UNL A   1      33.216  25.538  20.207  1.00  0.00    -0.267 OA
ATOM     11  H   UNL A   1      32.359  27.534  20.757  1.00  0.00     0.164 HD
BRANCH   9  12
ATOM     12  C   UNL A   1      32.785  24.552  22.319  1.00  0.00     0.142 A 
ATOM     13  C   UNL A   1      30.399  24.015  23.464  1.00  0.00     0.059 C 
ATOM     14  C   UNL A   1      31.839  23.873  23.104  1.00  0.00     0.035 A 
ATOM     15  S   UNL A   1      32.579  22.489  23.845  1.00  0.00    -0.115 S 
ATOM     16  C   UNL A   1      34.107  23.055  23.392  1.00  0.00     0.160 A 
ATOM     17  N   UNL A   1      34.100  24.099  22.606  1.00  0.00    -0.227 NA
BRANCH  16  18
ATOM     18  C   UNL A   1      35.286  22.450  23.926  1.00  0.00     0.162 A 
ATOM     19  C   UNL A   1      36.605  22.829  23.741  1.00  0.00     0.053 A 
ATOM     20  O   UNL A   1      35.250  21.408  24.818  1.00  0.00    -0.462 OA
ATOM     21  C   UNL A   1      37.397  22.003  24.574  1.00  0.00     0.043 A 
ATOM     22  C   UNL A   1      36.525  21.140  25.191  1.00  0.00     0.196 A 
ENDBRANCH  16  18
ENDBRANCH   9  12
ENDBRANCH   7   8
BRANCH   7  23
ATOM     23  C   UNL A   1      30.217  28.084  22.408  1.00  0.00     0.015 C 
ATOM     24  C   UNL A   1      29.248  27.587  23.491  1.00  0.00     0.010 C 
ATOM     25  C   UNL A   1      30.130  29.619  22.359  1.00  0.00     0.010 C 
ENDBRANCH   7  23
ENDBRANCH   4   7
ENDBRANCH   2   3
ENDBRANCH   1   2
BRANCH   1  26
ATOM     26  C   UNL A   1      31.624  31.102  26.573  1.00  0.00     0.023 C 
BRANCH  26  27
ATOM     27  C   UNL A   1      32.819  32.010  26.848  1.00  0.00     0.116 C 
BRANCH  27  28
ATOM     28  N   UNL A   1      32.437  33.320  27.352  1.00  0.00    -0.352 N 
ATOM     29  C   UNL A   1      33.084  34.098  28.282  1.00  0.00     0.251 C 
ATOM     30  H   UNL A   1      31.608  33.698  26.980  1.00  0.00     0.163 HD
ATOM     31  O   UNL A   1      32.568  35.128  28.704  1.00  0.00    -0.269 OA
BRANCH  29  32
ATOM     32  C   UNL A   1      34.396  33.661  28.798  1.00  0.00     0.039 A 
ATOM     33  C   UNL A   1      34.443  32.911  29.975  1.00  0.00     0.014 A 
ATOM     34  C   UNL A   1      35.570  33.951  28.097  1.00  0.00     0.014 A 
ATOM     35  C   UNL A   1      35.663  32.394  30.414  1.00  0.00     0.010 A 
ATOM     36  C   UNL A   1      36.770  33.368  28.491  1.00  0.00     0.010 A 
ATOM     37  C   UNL A   1      36.829  32.585  29.654  1.00  0.00    -0.014 A 
BRANCH  37  38
ATOM     38  C   UNL A   1      38.118  31.968  30.059  1.00  0.00     0.031 A 
ATOM     39  C   UNL A   1      39.048  32.698  30.988  1.00  0.00     0.074 A 
ATOM     40  C   UNL A   1      38.479  30.777  29.542  1.00  0.00     0.049 A 
ATOM     41  N   UNL A   1      40.233  32.343  31.417  1.00  0.00    -0.248 NA
ATOM     42  C   UNL A   1      38.600  34.011  31.481  1.00  0.00     0.031 C 
ATOM     43  C   UNL A   1      37.688  29.985  28.598  1.00  0.00     0.029 A 
ATOM     44  N   UNL A   1      39.612  30.025  29.737  1.00  0.00    -0.354 N 
ATOM     45  C   UNL A   1      40.675  33.390  32.215  1.00  0.00     0.074 A 
ATOM     46  C   UNL A   1      39.658  34.418  32.166  1.00  0.00     0.031 C 
ATOM     47  C   UNL A   1      38.343  28.846  28.323  1.00  0.00     0.029 A 
ATOM     48  C   UNL A   1      39.619  28.846  29.033  1.00  0.00     0.049 A 
ATOM     49  H   UNL A   1      40.348  30.305  30.327  1.00  0.00     0.167 HD
ATOM     50  C   UNL A   1      41.813  33.481  32.943  1.00  0.00     0.031 A 
ATOM     51  C   UNL A   1      40.549  27.876  28.959  1.00  0.00     0.031 A 
ATOM     52  C   UNL A   1      42.823  32.459  32.996  1.00  0.00     0.049 A 
ATOM     53  C   UNL A   1      41.816  28.012  29.758  1.00  0.00     0.074 A 
ATOM     54  C   UNL A   1      43.988  32.436  33.744  1.00  0.00     0.029 A 
ATOM     55  N   UNL A   1      42.792  31.280  32.266  1.00  0.00    -0.354 N 
ATOM     56  N   UNL A   1      42.186  28.977  30.564  1.00  0.00    -0.248 NA
ATOM     57  C   UNL A   1      42.789  26.917  29.643  1.00  0.00     0.031 C 
ATOM     58  C   UNL A   1      44.689  31.270  33.422  1.00  0.00     0.029 A 
ATOM     59  C   UNL A   1      43.931  30.535  32.525  1.00  0.00     0.049 A 
ATOM     60  H   UNL A   1      42.068  31.012  31.655  1.00  0.00     0.167 HD
ATOM     61  C   UNL A   1      43.418  28.592  31.077  1.00  0.00     0.074 A 
ATOM     62  C   UNL A   1      43.724  27.297  30.502  1.00  0.00     0.031 C 
ATOM     63  C   UNL A   1      44.224  29.250  31.946  1.00  0.00     0.031 A 
BRANCH  50  64
ATOM     64  C   UNL A   1      42.028  34.742  33.737  1.00  0.00    -0.014 A 
ATOM     65  C   UNL A   1      41.543  34.869  35.049  1.00  0.00     0.009 A 
ATOM     66  C   UNL A   1      42.754  35.804  33.177  1.00  0.00     0.009 A 
ATOM     67  C   UNL A   1      41.746  36.049  35.768  1.00  0.00     0.001 A 
ATOM     68  C   UNL A   1      42.983  36.970  33.910  1.00  0.00     0.001 A 
ATOM     69  C   UNL A   1      42.470  37.096  35.200  1.00  0.00     0.000 A 
ENDBRANCH  50  64
BRANCH  51  70
ATOM     70  C   UNL A   1      40.316  26.680  28.106  1.00  0.00    -0.014 A 
ATOM     71  C   UNL A   1      40.857  26.609  26.812  1.00  0.00     0.009 A 
ATOM     72  C   UNL A   1      39.542  25.608  28.575  1.00  0.00     0.009 A 
ATOM     73  C   UNL A   1      40.602  25.504  25.997  1.00  0.00     0.001 A 
ATOM     74  C   UNL A   1      39.315  24.490  27.770  1.00  0.00     0.001 A 
ATOM     75  C   UNL A   1      39.836  24.444  26.478  1.00  0.00     0.000 A 
ENDBRANCH  51  70
BRANCH  63  76
ATOM     76  C   UNL A   1      45.497  28.565  32.359  1.00  0.00    -0.014 A 
ATOM     77  C   UNL A   1      46.700  28.772  31.666  1.00  0.00     0.009 A 
ATOM     78  C   UNL A   1      45.498  27.726  33.485  1.00  0.00     0.009 A 
ATOM     79  C   UNL A   1      47.868  28.125  32.072  1.00  0.00     0.001 A 
ATOM     80  C   UNL A   1      46.674  27.107  33.908  1.00  0.00     0.001 A 
ATOM     81  C   UNL A   1      47.856  27.298  33.195  1.00  0.00     0.000 A 
ENDBRANCH  63  76
ENDBRANCH  37  38
ENDBRANCH  29  32
ENDBRANCH  27  28
ENDBRANCH  26  27
ENDBRANCH   1  26
TORSDOF 15
ENDMDL
