MODEL 1
REMARK VINA RESULT:     -11.2      0.000      0.000
REMARK SMILES Cc1ccccc1CCNS(=O)(=O)c1ccc(C(=O)NCCCCNC(=O)c2ccc(-c3c4nc(c(-c5ccccc5)c5ccc([nH]5)c(-c5ccccc5)c5nc(c(-c6ccccc6)c6ccc3[nH]6)C=C5)C=C4)cc2)o1
REMARK SMILES IDX 21 1 20 2 18 3 19 4 17 6 14 7 15 8 76 9 16 10 11 11 12 12
REMARK SMILES IDX 13 13 10 14 9 16 8 17 7 18 1 19 2 20 3 21 4 22 6 23 5 24
REMARK SMILES IDX 22 25 23 26 24 27 25 28 26 29 27 31 28 32 29 33 75 34 30 35
REMARK SMILES IDX 74 36 31 37 32 38 33 39 68 40 34 41 73 42 67 43 69 44 35 45
REMARK SMILES IDX 72 46 66 47 65 48 36 50 58 51 43 52 57 53 44 54 47 55 56 56
REMARK SMILES IDX 70 57 45 58 46 59 55 61 71 62 48 63 37 64 38 65 42 66 39 67
REMARK SMILES IDX 41 68 40 69 59 70 60 71 64 72 61 73 63 74 62 75 49 76 50 77
REMARK SMILES IDX 54 78 51 79 53 80 52 81
REMARK H PARENT 20 5 10 15 25 30 69 49 47 60
REMARK Flexibility Score: inf
ROOT
ATOM      1  C   UNL A   1      36.494  21.707  25.044  1.00  0.00     0.116 C 
ENDROOT
BRANCH   1   2
ATOM      2  N   UNL A   1      35.615  21.448  26.167  1.00  0.00    -0.349 N 
ATOM      3  C   UNL A   1      34.618  22.199  26.742  1.00  0.00     0.287 C 
ATOM      4  O   UNL A   1      34.019  21.657  27.675  1.00  0.00    -0.266 OA
ATOM      5  H   UNL A   1      35.760  20.574  26.597  1.00  0.00     0.163 HD
BRANCH   3   6
ATOM      6  C   UNL A   1      34.290  23.534  26.275  1.00  0.00     0.193 A 
ATOM      7  C   UNL A   1      32.881  25.273  26.123  1.00  0.00     0.234 A 
ATOM      8  C   UNL A   1      34.030  25.603  25.424  1.00  0.00     0.065 A 
ATOM      9  O   UNL A   1      33.056  24.011  26.642  1.00  0.00    -0.438 OA
ATOM     10  C   UNL A   1      34.928  24.515  25.540  1.00  0.00     0.058 A 
BRANCH   7  11
ATOM     11  S   UNL A   1      31.383  26.196  26.432  1.00  0.00     0.273 S 
ATOM     12  O   UNL A   1      31.706  27.200  27.405  1.00  0.00    -0.204 OA
ATOM     13  O   UNL A   1      30.364  25.184  26.680  1.00  0.00    -0.204 OA
BRANCH  11  14
ATOM     14  N   UNL A   1      30.939  26.963  24.996  1.00  0.00    -0.208 NA
ATOM     15  H   UNL A   1      30.672  27.920  25.227  1.00  0.00     0.141 HD
BRANCH  14  16
ATOM     16  C   UNL A   1      29.820  26.359  24.226  1.00  0.00     0.104 C 
BRANCH  16  17
ATOM     17  C   UNL A   1      30.308  25.949  22.821  1.00  0.00     0.052 C 
BRANCH  17  18
ATOM     18  C   UNL A   1      31.334  24.830  22.861  1.00  0.00    -0.044 A 
ATOM     19  C   UNL A   1      33.163  26.133  21.594  1.00  0.00     0.044 C 
ATOM     20  C   UNL A   1      32.594  24.896  22.234  1.00  0.00    -0.048 A 
ATOM     21  C   UNL A   1      33.414  23.751  22.235  1.00  0.00     0.004 A 
ATOM     22  C   UNL A   1      33.003  22.561  22.835  1.00  0.00     0.000 A 
ATOM     23  C   UNL A   1      30.962  23.634  23.514  1.00  0.00     0.004 A 
ATOM     24  C   UNL A   1      31.777  22.506  23.484  1.00  0.00     0.000 A 
ENDBRANCH  17  18
ENDBRANCH  16  17
ENDBRANCH  14  16
ENDBRANCH  11  14
ENDBRANCH   7  11
ENDBRANCH   3   6
ENDBRANCH   1   2
BRANCH   1  25
ATOM     25  C   UNL A   1      37.968  21.468  25.400  1.00  0.00     0.023 C 
BRANCH  25  26
ATOM     26  C   UNL A   1      38.657  22.659  26.074  1.00  0.00     0.023 C 
BRANCH  26  27
ATOM     27  C   UNL A   1      39.912  22.293  26.855  1.00  0.00     0.116 C 
BRANCH  27  28
ATOM     28  N   UNL A   1      40.748  21.258  26.257  1.00  0.00    -0.352 N 
ATOM     29  C   UNL A   1      42.132  21.179  26.179  1.00  0.00     0.251 C 
ATOM     30  H   UNL A   1      40.260  20.507  25.849  1.00  0.00     0.163 HD
ATOM     31  O   UNL A   1      42.656  20.255  25.564  1.00  0.00    -0.269 OA
BRANCH  29  32
ATOM     32  C   UNL A   1      42.976  22.102  26.982  1.00  0.00     0.039 A 
ATOM     33  C   UNL A   1      42.829  22.045  28.374  1.00  0.00     0.014 A 
ATOM     34  C   UNL A   1      43.590  23.198  26.388  1.00  0.00     0.014 A 
ATOM     35  C   UNL A   1      42.956  23.216  29.111  1.00  0.00     0.010 A 
ATOM     36  C   UNL A   1      43.584  24.384  27.078  1.00  0.00     0.010 A 
ATOM     37  C   UNL A   1      43.188  24.395  28.414  1.00  0.00    -0.014 A 
BRANCH  37  38
ATOM     38  C   UNL A   1      42.991  25.712  28.980  1.00  0.00     0.031 A 
ATOM     39  C   UNL A   1      41.768  26.438  28.626  1.00  0.00     0.074 A 
ATOM     40  C   UNL A   1      43.889  26.182  29.873  1.00  0.00     0.049 A 
ATOM     41  N   UNL A   1      41.686  27.717  28.570  1.00  0.00    -0.248 NA
ATOM     42  C   UNL A   1      40.535  25.756  28.240  1.00  0.00     0.031 C 
ATOM     43  C   UNL A   1      43.795  27.360  30.727  1.00  0.00     0.029 A 
ATOM     44  N   UNL A   1      45.204  25.751  30.030  1.00  0.00    -0.354 N 
ATOM     45  C   UNL A   1      40.349  28.022  28.475  1.00  0.00     0.074 A 
ATOM     46  C   UNL A   1      39.685  26.782  28.152  1.00  0.00     0.031 C 
ATOM     47  C   UNL A   1      45.036  27.719  31.106  1.00  0.00     0.029 A 
ATOM     48  C   UNL A   1      45.975  26.866  30.394  1.00  0.00     0.049 A 
ATOM     49  H   UNL A   1      45.533  24.831  29.908  1.00  0.00     0.167 HD
ATOM     50  C   UNL A   1      39.927  29.252  28.869  1.00  0.00     0.031 A 
ATOM     51  C   UNL A   1      46.950  27.314  29.547  1.00  0.00     0.031 A 
ATOM     52  C   UNL A   1      41.052  30.071  29.304  1.00  0.00     0.049 A 
ATOM     53  C   UNL A   1      46.625  28.674  28.961  1.00  0.00     0.074 A 
ATOM     54  C   UNL A   1      41.580  30.337  30.558  1.00  0.00     0.029 A 
ATOM     55  N   UNL A   1      42.036  30.408  28.383  1.00  0.00    -0.354 N 
ATOM     56  N   UNL A   1      45.422  29.182  28.915  1.00  0.00    -0.248 NA
ATOM     57  C   UNL A   1      47.627  29.574  28.400  1.00  0.00     0.031 C 
ATOM     58  C   UNL A   1      42.920  30.773  30.385  1.00  0.00     0.029 A 
ATOM     59  C   UNL A   1      43.193  30.802  29.028  1.00  0.00     0.049 A 
ATOM     60  H   UNL A   1      41.924  30.371  27.405  1.00  0.00     0.167 HD
ATOM     61  C   UNL A   1      45.471  30.446  28.382  1.00  0.00     0.074 A 
ATOM     62  C   UNL A   1      46.876  30.640  28.069  1.00  0.00     0.031 C 
ATOM     63  C   UNL A   1      44.354  31.226  28.255  1.00  0.00     0.031 A 
BRANCH  50  64
ATOM     64  C   UNL A   1      38.486  29.562  29.167  1.00  0.00    -0.014 A 
ATOM     65  C   UNL A   1      37.624  29.899  28.108  1.00  0.00     0.009 A 
ATOM     66  C   UNL A   1      37.928  29.577  30.457  1.00  0.00     0.009 A 
ATOM     67  C   UNL A   1      36.300  30.295  28.327  1.00  0.00     0.001 A 
ATOM     68  C   UNL A   1      36.613  30.005  30.686  1.00  0.00     0.001 A 
ATOM     69  C   UNL A   1      35.800  30.369  29.619  1.00  0.00     0.000 A 
ENDBRANCH  50  64
BRANCH  51  70
ATOM     70  C   UNL A   1      47.654  26.194  28.847  1.00  0.00    -0.014 A 
ATOM     71  C   UNL A   1      47.441  26.063  27.455  1.00  0.00     0.009 A 
ATOM     72  C   UNL A   1      48.787  25.585  29.402  1.00  0.00     0.009 A 
ATOM     73  C   UNL A   1      48.412  25.489  26.627  1.00  0.00     0.001 A 
ATOM     74  C   UNL A   1      49.742  24.984  28.568  1.00  0.00     0.001 A 
ATOM     75  C   UNL A   1      49.582  24.984  27.182  1.00  0.00     0.000 A 
ENDBRANCH  51  70
BRANCH  63  76
ATOM     76  C   UNL A   1      44.225  32.509  27.458  1.00  0.00    -0.014 A 
ATOM     77  C   UNL A   1      44.347  32.604  26.069  1.00  0.00     0.009 A 
ATOM     78  C   UNL A   1      43.827  33.692  28.130  1.00  0.00     0.009 A 
ATOM     79  C   UNL A   1      44.122  33.815  25.396  1.00  0.00     0.001 A 
ATOM     80  C   UNL A   1      43.541  34.883  27.460  1.00  0.00     0.001 A 
ATOM     81  C   UNL A   1      43.705  34.947  26.088  1.00  0.00     0.000 A 
ENDBRANCH  63  76
ENDBRANCH  37  38
ENDBRANCH  29  32
ENDBRANCH  27  28
ENDBRANCH  26  27
ENDBRANCH  25  26
ENDBRANCH   1  25
TORSDOF 16
ENDMDL
MODEL 2
REMARK VINA RESULT:     -11.0      1.668      2.329
REMARK SMILES Cc1ccccc1CCNS(=O)(=O)c1ccc(C(=O)NCCCCNC(=O)c2ccc(-c3c4nc(c(-c5ccccc5)c5ccc([nH]5)c(-c5ccccc5)c5nc(c(-c6ccccc6)c6ccc3[nH]6)C=C5)C=C4)cc2)o1
REMARK SMILES IDX 21 1 20 2 18 3 19 4 17 6 14 7 15 8 76 9 16 10 11 11 12 12
REMARK SMILES IDX 13 13 10 14 9 16 8 17 7 18 1 19 2 20 3 21 4 22 6 23 5 24
REMARK SMILES IDX 22 25 23 26 24 27 25 28 26 29 27 31 28 32 29 33 75 34 30 35
REMARK SMILES IDX 74 36 31 37 32 38 33 39 68 40 34 41 73 42 67 43 69 44 35 45
REMARK SMILES IDX 72 46 66 47 65 48 36 50 58 51 43 52 57 53 44 54 47 55 56 56
REMARK SMILES IDX 70 57 45 58 46 59 55 61 71 62 48 63 37 64 38 65 42 66 39 67
REMARK SMILES IDX 41 68 40 69 59 70 60 71 64 72 61 73 63 74 62 75 49 76 50 77
REMARK SMILES IDX 54 78 51 79 53 80 52 81
REMARK H PARENT 20 5 10 15 25 30 69 49 47 60
REMARK Flexibility Score: inf
ROOT
ATOM      1  C   UNL A   1      37.789  22.103  25.747  1.00  0.00     0.116 C 
ENDROOT
BRANCH   1   2
ATOM      2  N   UNL A   1      37.383  22.331  24.375  1.00  0.00    -0.349 N 
ATOM      3  C   UNL A   1      36.286  22.961  23.837  1.00  0.00     0.287 C 
ATOM      4  O   UNL A   1      36.263  23.023  22.605  1.00  0.00    -0.266 OA
ATOM      5  H   UNL A   1      38.006  21.967  23.706  1.00  0.00     0.163 HD
BRANCH   3   6
ATOM      6  C   UNL A   1      35.234  23.522  24.666  1.00  0.00     0.193 A 
ATOM      7  C   UNL A   1      33.184  23.425  25.572  1.00  0.00     0.234 A 
ATOM      8  C   UNL A   1      33.771  24.607  25.990  1.00  0.00     0.065 A 
ATOM      9  O   UNL A   1      34.090  22.770  24.770  1.00  0.00    -0.438 OA
ATOM     10  C   UNL A   1      35.074  24.656  25.439  1.00  0.00     0.058 A 
BRANCH   7  11
ATOM     11  S   UNL A   1      31.588  22.709  25.935  1.00  0.00     0.273 S 
ATOM     12  O   UNL A   1      31.278  23.050  27.293  1.00  0.00    -0.204 OA
ATOM     13  O   UNL A   1      31.691  21.323  25.494  1.00  0.00    -0.204 OA
BRANCH  11  14
ATOM     14  N   UNL A   1      30.449  23.436  24.924  1.00  0.00    -0.208 NA
ATOM     15  H   UNL A   1      29.911  22.692  24.481  1.00  0.00     0.141 HD
BRANCH  14  16
ATOM     16  C   UNL A   1      30.969  24.317  23.845  1.00  0.00     0.104 C 
BRANCH  16  17
ATOM     17  C   UNL A   1      30.408  25.744  24.015  1.00  0.00     0.052 C 
BRANCH  17  18
ATOM     18  C   UNL A   1      31.495  26.804  24.026  1.00  0.00    -0.044 A 
ATOM     19  C   UNL A   1      31.294  27.328  26.543  1.00  0.00     0.044 C 
ATOM     20  C   UNL A   1      31.834  27.570  25.160  1.00  0.00    -0.048 A 
ATOM     21  C   UNL A   1      32.775  28.609  25.021  1.00  0.00     0.004 A 
ATOM     22  C   UNL A   1      33.369  28.894  23.792  1.00  0.00     0.000 A 
ATOM     23  C   UNL A   1      32.152  27.071  22.806  1.00  0.00     0.004 A 
ATOM     24  C   UNL A   1      33.063  28.117  22.684  1.00  0.00     0.000 A 
ENDBRANCH  17  18
ENDBRANCH  16  17
ENDBRANCH  14  16
ENDBRANCH  11  14
ENDBRANCH   7  11
ENDBRANCH   3   6
ENDBRANCH   1   2
BRANCH   1  25
ATOM     25  C   UNL A   1      39.236  21.603  25.844  1.00  0.00     0.023 C 
BRANCH  25  26
ATOM     26  C   UNL A   1      40.100  22.361  26.857  1.00  0.00     0.023 C 
BRANCH  26  27
ATOM     27  C   UNL A   1      41.251  21.544  27.431  1.00  0.00     0.116 C 
BRANCH  27  28
ATOM     28  N   UNL A   1      41.947  20.682  26.482  1.00  0.00    -0.352 N 
ATOM     29  C   UNL A   1      43.029  20.967  25.662  1.00  0.00     0.251 C 
ATOM     30  H   UNL A   1      41.597  19.764  26.415  1.00  0.00     0.163 HD
ATOM     31  O   UNL A   1      43.433  20.121  24.869  1.00  0.00    -0.269 OA
BRANCH  29  32
ATOM     32  C   UNL A   1      43.807  22.217  25.865  1.00  0.00     0.039 A 
ATOM     33  C   UNL A   1      44.622  22.278  27.002  1.00  0.00     0.014 A 
ATOM     34  C   UNL A   1      43.469  23.380  25.184  1.00  0.00     0.014 A 
ATOM     35  C   UNL A   1      44.782  23.496  27.649  1.00  0.00     0.010 A 
ATOM     36  C   UNL A   1      43.502  24.561  25.882  1.00  0.00     0.010 A 
ATOM     37  C   UNL A   1      44.088  24.591  27.146  1.00  0.00    -0.014 A 
BRANCH  37  38
ATOM     38  C   UNL A   1      43.866  25.810  27.892  1.00  0.00     0.031 A 
ATOM     39  C   UNL A   1      42.536  26.422  27.832  1.00  0.00     0.074 A 
ATOM     40  C   UNL A   1      44.856  26.287  28.677  1.00  0.00     0.049 A 
ATOM     41  N   UNL A   1      42.321  27.682  27.945  1.00  0.00    -0.248 NA
ATOM     42  C   UNL A   1      41.326  25.644  27.572  1.00  0.00     0.031 C 
ATOM     43  C   UNL A   1      44.799  27.351  29.672  1.00  0.00     0.029 A 
ATOM     44  N   UNL A   1      46.214  25.997  28.565  1.00  0.00    -0.354 N 
ATOM     45  C   UNL A   1      40.965  27.837  28.106  1.00  0.00     0.074 A 
ATOM     46  C   UNL A   1      40.379  26.569  27.748  1.00  0.00     0.031 C 
ATOM     47  C   UNL A   1      46.047  27.811  29.885  1.00  0.00     0.029 A 
ATOM     48  C   UNL A   1      46.925  27.151  28.931  1.00  0.00     0.049 A 
ATOM     49  H   UNL A   1      46.604  25.139  28.281  1.00  0.00     0.167 HD
ATOM     50  C   UNL A   1      40.501  28.963  28.710  1.00  0.00     0.031 A 
ATOM     51  C   UNL A   1      47.689  27.793  27.998  1.00  0.00     0.031 A 
ATOM     52  C   UNL A   1      41.601  29.859  29.052  1.00  0.00     0.049 A 
ATOM     53  C   UNL A   1      47.137  29.159  27.641  1.00  0.00     0.074 A 
ATOM     54  C   UNL A   1      42.311  30.053  30.227  1.00  0.00     0.029 A 
ATOM     55  N   UNL A   1      42.372  30.400  28.031  1.00  0.00    -0.354 N 
ATOM     56  N   UNL A   1      45.901  29.527  27.853  1.00  0.00    -0.248 NA
ATOM     57  C   UNL A   1      47.934  30.222  27.038  1.00  0.00     0.031 C 
ATOM     58  C   UNL A   1      43.552  30.657  29.892  1.00  0.00     0.029 A 
ATOM     59  C   UNL A   1      43.579  30.857  28.523  1.00  0.00     0.049 A 
ATOM     60  H   UNL A   1      42.095  30.451  27.088  1.00  0.00     0.167 HD
ATOM     61  C   UNL A   1      45.733  30.836  27.476  1.00  0.00     0.074 A 
ATOM     62  C   UNL A   1      47.036  31.223  26.966  1.00  0.00     0.031 C 
ATOM     63  C   UNL A   1      44.541  31.490  27.628  1.00  0.00     0.031 A 
BRANCH  50  64
ATOM     64  C   UNL A   1      39.112  29.072  29.274  1.00  0.00    -0.014 A 
ATOM     65  C   UNL A   1      38.068  29.519  28.444  1.00  0.00     0.009 A 
ATOM     66  C   UNL A   1      38.772  28.788  30.608  1.00  0.00     0.009 A 
ATOM     67  C   UNL A   1      36.775  29.738  28.931  1.00  0.00     0.001 A 
ATOM     68  C   UNL A   1      37.487  29.038  31.110  1.00  0.00     0.001 A 
ATOM     69  C   UNL A   1      36.489  29.517  30.271  1.00  0.00     0.000 A 
ENDBRANCH  50  64
BRANCH  51  70
ATOM     70  C   UNL A   1      48.365  26.841  27.062  1.00  0.00    -0.014 A 
ATOM     71  C   UNL A   1      47.927  26.831  25.718  1.00  0.00     0.009 A 
ATOM     72  C   UNL A   1      49.630  26.312  27.349  1.00  0.00     0.009 A 
ATOM     73  C   UNL A   1      48.790  26.462  24.680  1.00  0.00     0.001 A 
ATOM     74  C   UNL A   1      50.480  25.915  26.304  1.00  0.00     0.001 A 
ATOM     75  C   UNL A   1      50.081  26.040  24.972  1.00  0.00     0.000 A 
ENDBRANCH  51  70
BRANCH  63  76
ATOM     76  C   UNL A   1      44.151  32.824  27.024  1.00  0.00    -0.014 A 
ATOM     77  C   UNL A   1      44.007  33.073  25.656  1.00  0.00     0.009 A 
ATOM     78  C   UNL A   1      43.777  33.882  27.891  1.00  0.00     0.009 A 
ATOM     79  C   UNL A   1      43.553  34.313  25.181  1.00  0.00     0.001 A 
ATOM     80  C   UNL A   1      43.265  35.096  27.427  1.00  0.00     0.001 A 
ATOM     81  C   UNL A   1      43.167  35.316  26.065  1.00  0.00     0.000 A 
ENDBRANCH  63  76
ENDBRANCH  37  38
ENDBRANCH  29  32
ENDBRANCH  27  28
ENDBRANCH  26  27
ENDBRANCH  25  26
ENDBRANCH   1  25
TORSDOF 16
ENDMDL
MODEL 3
REMARK VINA RESULT:     -10.7      1.636      2.551
REMARK SMILES Cc1ccccc1CCNS(=O)(=O)c1ccc(C(=O)NCCCCNC(=O)c2ccc(-c3c4nc(c(-c5ccccc5)c5ccc([nH]5)c(-c5ccccc5)c5nc(c(-c6ccccc6)c6ccc3[nH]6)C=C5)C=C4)cc2)o1
REMARK SMILES IDX 21 1 20 2 18 3 19 4 17 6 14 7 15 8 76 9 16 10 11 11 12 12
REMARK SMILES IDX 13 13 10 14 9 16 8 17 7 18 1 19 2 20 3 21 4 22 6 23 5 24
REMARK SMILES IDX 22 25 23 26 24 27 25 28 26 29 27 31 28 32 29 33 75 34 30 35
REMARK SMILES IDX 74 36 31 37 32 38 33 39 68 40 34 41 73 42 67 43 69 44 35 45
REMARK SMILES IDX 72 46 66 47 65 48 36 50 58 51 43 52 57 53 44 54 47 55 56 56
REMARK SMILES IDX 70 57 45 58 46 59 55 61 71 62 48 63 37 64 38 65 42 66 39 67
REMARK SMILES IDX 41 68 40 69 59 70 60 71 64 72 61 73 63 74 62 75 49 76 50 77
REMARK SMILES IDX 54 78 51 79 53 80 52 81
REMARK H PARENT 20 5 10 15 25 30 69 49 47 60
REMARK Flexibility Score: inf
ROOT
ATOM      1  C   UNL A   1      36.335  21.333  25.678  1.00  0.00     0.116 C 
ENDROOT
BRANCH   1   2
ATOM      2  N   UNL A   1      35.680  20.097  25.298  1.00  0.00    -0.349 N 
ATOM      3  C   UNL A   1      34.450  19.847  24.737  1.00  0.00     0.287 C 
ATOM      4  O   UNL A   1      34.211  18.662  24.493  1.00  0.00    -0.266 OA
ATOM      5  H   UNL A   1      36.214  19.288  25.475  1.00  0.00     0.163 HD
BRANCH   3   6
ATOM      6  C   UNL A   1      33.504  20.910  24.447  1.00  0.00     0.193 A 
ATOM      7  C   UNL A   1      33.015  22.928  23.597  1.00  0.00     0.234 A 
ATOM      8  C   UNL A   1      31.848  22.401  24.125  1.00  0.00     0.065 A 
ATOM      9  O   UNL A   1      34.016  22.005  23.795  1.00  0.00    -0.438 OA
ATOM     10  C   UNL A   1      32.152  21.118  24.639  1.00  0.00     0.058 A 
BRANCH   7  11
ATOM     11  S   UNL A   1      33.336  24.469  22.752  1.00  0.00     0.273 S 
ATOM     12  O   UNL A   1      33.224  24.204  21.347  1.00  0.00    -0.204 OA
ATOM     13  O   UNL A   1      34.571  24.970  23.345  1.00  0.00    -0.204 OA
BRANCH  11  14
ATOM     14  N   UNL A   1      32.130  25.564  23.191  1.00  0.00    -0.208 NA
ATOM     15  H   UNL A   1      31.234  25.082  23.115  1.00  0.00     0.141 HD
BRANCH  14  16
ATOM     16  C   UNL A   1      32.034  26.817  22.397  1.00  0.00     0.104 C 
BRANCH  16  17
ATOM     17  C   UNL A   1      33.019  27.868  22.950  1.00  0.00     0.052 C 
BRANCH  17  18
ATOM     18  C   UNL A   1      32.799  28.159  24.424  1.00  0.00    -0.044 A 
ATOM     19  C   UNL A   1      30.611  29.481  24.084  1.00  0.00     0.044 C 
ATOM     20  C   UNL A   1      31.748  28.957  24.919  1.00  0.00    -0.048 A 
ATOM     21  C   UNL A   1      31.714  29.259  26.294  1.00  0.00     0.004 A 
ATOM     22  C   UNL A   1      32.696  28.790  27.167  1.00  0.00     0.000 A 
ATOM     23  C   UNL A   1      33.748  27.647  25.333  1.00  0.00     0.004 A 
ATOM     24  C   UNL A   1      33.710  27.975  26.686  1.00  0.00     0.000 A 
ENDBRANCH  17  18
ENDBRANCH  16  17
ENDBRANCH  14  16
ENDBRANCH  11  14
ENDBRANCH   7  11
ENDBRANCH   3   6
ENDBRANCH   1   2
BRANCH   1  25
ATOM     25  C   UNL A   1      37.856  21.261  25.485  1.00  0.00     0.023 C 
BRANCH  25  26
ATOM     26  C   UNL A   1      38.605  22.534  25.894  1.00  0.00     0.023 C 
BRANCH  26  27
ATOM     27  C   UNL A   1      39.906  22.278  26.642  1.00  0.00     0.116 C 
BRANCH  27  28
ATOM     28  N   UNL A   1      40.745  21.214  26.104  1.00  0.00    -0.352 N 
ATOM     29  C   UNL A   1      42.129  21.102  26.092  1.00  0.00     0.251 C 
ATOM     30  H   UNL A   1      40.259  20.465  25.689  1.00  0.00     0.163 HD
ATOM     31  O   UNL A   1      42.660  20.154  25.520  1.00  0.00    -0.269 OA
BRANCH  29  32
ATOM     32  C   UNL A   1      42.956  22.023  26.915  1.00  0.00     0.039 A 
ATOM     33  C   UNL A   1      42.776  21.966  28.303  1.00  0.00     0.014 A 
ATOM     34  C   UNL A   1      43.587  23.116  26.337  1.00  0.00     0.014 A 
ATOM     35  C   UNL A   1      42.888  23.136  29.043  1.00  0.00     0.010 A 
ATOM     36  C   UNL A   1      43.568  24.303  27.026  1.00  0.00     0.010 A 
ATOM     37  C   UNL A   1      43.141  24.315  28.353  1.00  0.00    -0.014 A 
BRANCH  37  38
ATOM     38  C   UNL A   1      42.934  25.632  28.914  1.00  0.00     0.031 A 
ATOM     39  C   UNL A   1      41.731  26.368  28.517  1.00  0.00     0.074 A 
ATOM     40  C   UNL A   1      43.802  26.093  29.840  1.00  0.00     0.049 A 
ATOM     41  N   UNL A   1      41.661  27.649  28.461  1.00  0.00    -0.248 NA
ATOM     42  C   UNL A   1      40.507  25.697  28.085  1.00  0.00     0.031 C 
ATOM     43  C   UNL A   1      43.687  27.269  30.693  1.00  0.00     0.029 A 
ATOM     44  N   UNL A   1      45.107  25.650  30.044  1.00  0.00    -0.354 N 
ATOM     45  C   UNL A   1      40.331  27.964  28.318  1.00  0.00     0.074 A 
ATOM     46  C   UNL A   1      39.669  26.731  27.968  1.00  0.00     0.031 C 
ATOM     47  C   UNL A   1      44.916  27.618  31.118  1.00  0.00     0.029 A 
ATOM     48  C   UNL A   1      45.873  26.758  30.438  1.00  0.00     0.049 A 
ATOM     49  H   UNL A   1      45.433  24.728  29.932  1.00  0.00     0.167 HD
ATOM     50  C   UNL A   1      39.904  29.197  28.700  1.00  0.00     0.031 A 
ATOM     51  C   UNL A   1      46.882  27.199  29.629  1.00  0.00     0.031 A 
ATOM     52  C   UNL A   1      41.020  30.007  29.177  1.00  0.00     0.049 A 
ATOM     53  C   UNL A   1      46.590  28.564  29.034  1.00  0.00     0.074 A 
ATOM     54  C   UNL A   1      41.504  30.265  30.450  1.00  0.00     0.029 A 
ATOM     55  N   UNL A   1      42.040  30.337  28.293  1.00  0.00    -0.354 N 
ATOM     56  N   UNL A   1      45.394  29.082  28.946  1.00  0.00    -0.248 NA
ATOM     57  C   UNL A   1      47.620  29.456  28.513  1.00  0.00     0.031 C 
ATOM     58  C   UNL A   1      42.853  30.690  30.327  1.00  0.00     0.029 A 
ATOM     59  C   UNL A   1      43.175  30.720  28.981  1.00  0.00     0.049 A 
ATOM     60  H   UNL A   1      41.963  30.302  27.312  1.00  0.00     0.167 HD
ATOM     61  C   UNL A   1      45.472  30.346  28.418  1.00  0.00     0.074 A 
ATOM     62  C   UNL A   1      46.889  30.530  28.157  1.00  0.00     0.031 C 
ATOM     63  C   UNL A   1      44.368  31.136  28.252  1.00  0.00     0.031 A 
BRANCH  50  64
ATOM     64  C   UNL A   1      38.457  29.519  28.945  1.00  0.00    -0.014 A 
ATOM     65  C   UNL A   1      37.909  29.283  30.219  1.00  0.00     0.009 A 
ATOM     66  C   UNL A   1      37.577  30.015  27.968  1.00  0.00     0.009 A 
ATOM     67  C   UNL A   1      36.548  29.465  30.486  1.00  0.00     0.001 A 
ATOM     68  C   UNL A   1      36.206  30.168  28.220  1.00  0.00     0.001 A 
ATOM     69  C   UNL A   1      35.690  29.888  29.480  1.00  0.00     0.000 A 
ENDBRANCH  50  64
BRANCH  51  70
ATOM     70  C   UNL A   1      47.602  26.076  28.952  1.00  0.00    -0.014 A 
ATOM     71  C   UNL A   1      47.289  25.827  27.596  1.00  0.00     0.009 A 
ATOM     72  C   UNL A   1      48.814  25.580  29.452  1.00  0.00     0.009 A 
ATOM     73  C   UNL A   1      48.227  25.253  26.731  1.00  0.00     0.001 A 
ATOM     74  C   UNL A   1      49.738  24.978  28.584  1.00  0.00     0.001 A 
ATOM     75  C   UNL A   1      49.468  24.864  27.220  1.00  0.00     0.000 A 
ENDBRANCH  51  70
BRANCH  63  76
ATOM     76  C   UNL A   1      44.278  32.421  27.453  1.00  0.00    -0.014 A 
ATOM     77  C   UNL A   1      44.491  32.525  26.076  1.00  0.00     0.009 A 
ATOM     78  C   UNL A   1      43.824  33.597  28.103  1.00  0.00     0.009 A 
ATOM     79  C   UNL A   1      44.299  33.737  25.395  1.00  0.00     0.001 A 
ATOM     80  C   UNL A   1      43.571  34.789  27.421  1.00  0.00     0.001 A 
ATOM     81  C   UNL A   1      43.824  34.861  26.063  1.00  0.00     0.000 A 
ENDBRANCH  63  76
ENDBRANCH  37  38
ENDBRANCH  29  32
ENDBRANCH  27  28
ENDBRANCH  26  27
ENDBRANCH  25  26
ENDBRANCH   1  25
TORSDOF 16
ENDMDL
