MODEL 1
REMARK VINA RESULT:     -10.7      0.000      0.000
REMARK SMILES CCOc1ccc(-c2nn(-c3ccccc3)cc2/C=C2/SC(=S)N(CC(=O)NCCCCNC(=O)c3ccc(-c4c5nc(c(-c6ccccc6)c6ccc([nH]6)c(-c6ccccc6)c6nc(c(-c7ccccc7)c7ccc4[nH]7)C=C6)C=C5)cc3)C2=O)cc1F
REMARK SMILES IDX 29 1 28 2 26 3 27 4 25 6 24 7 19 8 20 9 21 10 84 11 22 12
REMARK SMILES IDX 85 13 23 14 18 15 8 16 9 17 10 18 17 19 7 20 4 21 5 22 87 23
REMARK SMILES IDX 6 24 86 25 88 26 3 27 2 28 1 29 11 30 12 31 16 32 13 33
REMARK SMILES IDX 15 34 14 35 30 36 31 37 32 38 33 39 34 40 35 42 36 43 37 44
REMARK SMILES IDX 83 45 38 46 82 47 39 48 40 49 41 50 76 51 42 52 81 53 75 54
REMARK SMILES IDX 77 55 43 56 80 57 74 58 73 59 44 61 66 62 51 63 65 64 52 65
REMARK SMILES IDX 55 66 64 67 78 68 53 69 54 70 63 72 79 73 56 74 45 75 46 76
REMARK SMILES IDX 50 77 47 78 49 79 48 80 67 81 68 82 72 83 69 84 71 85 70 86
REMARK SMILES IDX 57 87 58 88 62 89 59 90 61 91 60 92
REMARK H PARENT 28 5 33 41 77 60 55 71
REMARK Flexibility Score: inf
ROOT
ATOM      1  C   UNL A   1      38.990  31.605  35.979  1.00  0.00     0.116 C 
ENDROOT
BRANCH   1   2
ATOM      2  N   UNL A   1      37.865  32.243  35.331  1.00  0.00    -0.355 N 
ATOM      3  C   UNL A   1      37.281  31.971  34.126  1.00  0.00     0.240 C 
ATOM      4  O   UNL A   1      36.129  32.386  33.960  1.00  0.00    -0.273 OA
ATOM      5  H   UNL A   1      37.460  32.985  35.834  1.00  0.00     0.163 HD
BRANCH   3   6
ATOM      6  C   UNL A   1      37.944  31.053  33.086  1.00  0.00     0.227 C 
BRANCH   6   7
ATOM      7  N   UNL A   1      38.295  31.752  31.849  1.00  0.00    -0.283 N 
ATOM      8  C   UNL A   1      37.164  32.631  28.503  1.00  0.00     0.033 C 
ATOM      9  C   UNL A   1      37.861  32.436  29.633  1.00  0.00     0.081 C 
ATOM     10  S   UNL A   1      39.386  33.150  29.980  1.00  0.00    -0.054 SA
ATOM     11  C   UNL A   1      37.436  31.580  30.778  1.00  0.00     0.266 C 
ATOM     12  C   UNL A   1      39.462  32.431  31.589  1.00  0.00     0.148 C 
ATOM     13  O   UNL A   1      36.484  30.823  30.771  1.00  0.00    -0.268 OA
ATOM     14  S   UNL A   1      40.800  32.601  32.571  1.00  0.00    -0.052 S 
BRANCH   8  15
ATOM     15  C   UNL A   1      35.916  32.006  28.230  1.00  0.00     0.022 A 
ATOM     16  C   UNL A   1      34.606  32.504  28.441  1.00  0.00     0.100 A 
ATOM     17  N   UNL A   1      33.700  31.716  27.846  1.00  0.00    -0.167 NA
ATOM     18  N   UNL A   1      34.409  30.677  27.348  1.00  0.00    -0.240 N 
ATOM     19  C   UNL A   1      35.751  30.777  27.637  1.00  0.00     0.123 A 
BRANCH  16  20
ATOM     20  C   UNL A   1      34.187  33.658  29.225  1.00  0.00     0.006 A 
ATOM     21  C   UNL A   1      33.221  35.854  30.667  1.00  0.00     0.154 A 
ATOM     22  C   UNL A   1      34.010  34.896  31.306  1.00  0.00     0.050 A 
ATOM     23  C   UNL A   1      32.967  35.738  29.303  1.00  0.00     0.165 A 
ATOM     24  C   UNL A   1      34.491  33.793  30.586  1.00  0.00     0.014 A 
ATOM     25  C   UNL A   1      33.429  34.645  28.586  1.00  0.00     0.053 A 
ATOM     26  F   UNL A   1      32.285  36.687  28.646  1.00  0.00    -0.203 F 
BRANCH  21  27
ATOM     27  O   UNL A   1      32.823  36.954  31.376  1.00  0.00    -0.491 OA
BRANCH  27  28
ATOM     28  C   UNL A   1      32.431  36.644  32.719  1.00  0.00     0.226 C 
ATOM     29  C   UNL A   1      31.081  35.946  32.785  1.00  0.00     0.049 C 
ENDBRANCH  27  28
ENDBRANCH  21  27
ENDBRANCH  16  20
BRANCH  18  30
ATOM     30  C   UNL A   1      33.765  29.630  26.652  1.00  0.00     0.065 A 
ATOM     31  C   UNL A   1      32.656  29.923  25.849  1.00  0.00     0.028 A 
ATOM     32  C   UNL A   1      34.228  28.315  26.770  1.00  0.00     0.028 A 
ATOM     33  C   UNL A   1      32.027  28.899  25.140  1.00  0.00     0.002 A 
ATOM     34  C   UNL A   1      33.557  27.289  26.102  1.00  0.00     0.002 A 
ATOM     35  C   UNL A   1      32.468  27.583  25.279  1.00  0.00     0.000 A 
ENDBRANCH  18  30
ENDBRANCH   8  15
ENDBRANCH   6   7
ENDBRANCH   3   6
ENDBRANCH   1   2
BRANCH   1  36
ATOM     36  C   UNL A   1      40.185  32.537  36.177  1.00  0.00     0.023 C 
BRANCH  36  37
ATOM     37  C   UNL A   1      41.560  31.862  36.286  1.00  0.00     0.023 C 
BRANCH  37  38
ATOM     38  C   UNL A   1      41.685  30.510  35.591  1.00  0.00     0.116 C 
BRANCH  38  39
ATOM     39  N   UNL A   1      42.000  29.417  36.505  1.00  0.00    -0.352 N 
ATOM     40  C   UNL A   1      42.436  28.146  36.182  1.00  0.00     0.251 C 
ATOM     41  H   UNL A   1      41.887  29.608  37.464  1.00  0.00     0.163 HD
ATOM     42  O   UNL A   1      42.261  27.213  36.955  1.00  0.00    -0.269 OA
BRANCH  40  43
ATOM     43  C   UNL A   1      43.112  27.922  34.889  1.00  0.00     0.039 A 
ATOM     44  C   UNL A   1      42.373  27.628  33.742  1.00  0.00     0.014 A 
ATOM     45  C   UNL A   1      44.502  28.019  34.826  1.00  0.00     0.014 A 
ATOM     46  C   UNL A   1      43.040  27.533  32.522  1.00  0.00     0.010 A 
ATOM     47  C   UNL A   1      45.145  28.046  33.606  1.00  0.00     0.010 A 
ATOM     48  C   UNL A   1      44.425  27.783  32.448  1.00  0.00    -0.014 A 
BRANCH  48  49
ATOM     49  C   UNL A   1      45.065  27.933  31.140  1.00  0.00     0.031 A 
ATOM     50  C   UNL A   1      44.704  29.195  30.442  1.00  0.00     0.074 A 
ATOM     51  C   UNL A   1      46.011  27.124  30.615  1.00  0.00     0.049 A 
ATOM     52  N   UNL A   1      43.897  29.309  29.442  1.00  0.00    -0.248 NA
ATOM     53  C   UNL A   1      45.151  30.479  31.004  1.00  0.00     0.031 C 
ATOM     54  C   UNL A   1      46.702  25.995  31.242  1.00  0.00     0.029 A 
ATOM     55  N   UNL A   1      46.623  27.205  29.395  1.00  0.00    -0.354 N 
ATOM     56  C   UNL A   1      43.905  30.654  29.095  1.00  0.00     0.074 A 
ATOM     57  C   UNL A   1      44.539  31.345  30.191  1.00  0.00     0.031 C 
ATOM     58  C   UNL A   1      47.779  25.649  30.500  1.00  0.00     0.029 A 
ATOM     59  C   UNL A   1      47.755  26.408  29.262  1.00  0.00     0.049 A 
ATOM     60  H   UNL A   1      46.289  27.781  28.671  1.00  0.00     0.167 HD
ATOM     61  C   UNL A   1      43.644  31.035  27.814  1.00  0.00     0.031 A 
ATOM     62  C   UNL A   1      48.612  26.369  28.210  1.00  0.00     0.031 A 
ATOM     63  C   UNL A   1      43.030  29.966  27.059  1.00  0.00     0.049 A 
ATOM     64  C   UNL A   1      47.884  26.880  27.030  1.00  0.00     0.074 A 
ATOM     65  C   UNL A   1      41.904  29.179  27.210  1.00  0.00     0.029 A 
ATOM     66  N   UNL A   1      43.833  29.298  26.166  1.00  0.00    -0.354 N 
ATOM     67  N   UNL A   1      46.907  26.237  26.462  1.00  0.00    -0.248 NA
ATOM     68  C   UNL A   1      47.964  28.297  26.727  1.00  0.00     0.031 C 
ATOM     69  C   UNL A   1      42.306  27.875  26.787  1.00  0.00     0.029 A 
ATOM     70  C   UNL A   1      43.620  27.956  26.326  1.00  0.00     0.049 A 
ATOM     71  H   UNL A   1      44.454  29.713  25.524  1.00  0.00     0.167 HD
ATOM     72  C   UNL A   1      45.989  27.225  26.143  1.00  0.00     0.074 A 
ATOM     73  C   UNL A   1      46.745  28.475  26.212  1.00  0.00     0.031 C 
ATOM     74  C   UNL A   1      44.649  26.957  26.139  1.00  0.00     0.031 A 
BRANCH  61  75
ATOM     75  C   UNL A   1      44.387  32.159  27.126  1.00  0.00    -0.014 A 
ATOM     76  C   UNL A   1      45.743  31.962  26.804  1.00  0.00     0.009 A 
ATOM     77  C   UNL A   1      43.915  33.485  27.078  1.00  0.00     0.009 A 
ATOM     78  C   UNL A   1      46.602  33.043  26.571  1.00  0.00     0.001 A 
ATOM     79  C   UNL A   1      44.760  34.563  26.802  1.00  0.00     0.001 A 
ATOM     80  C   UNL A   1      46.112  34.344  26.585  1.00  0.00     0.000 A 
ENDBRANCH  61  75
BRANCH  62  81
ATOM     81  C   UNL A   1      50.068  26.115  28.162  1.00  0.00    -0.014 A 
ATOM     82  C   UNL A   1      50.628  25.371  27.108  1.00  0.00     0.009 A 
ATOM     83  C   UNL A   1      50.941  26.861  28.971  1.00  0.00     0.009 A 
ATOM     84  C   UNL A   1      52.002  25.424  26.835  1.00  0.00     0.001 A 
ATOM     85  C   UNL A   1      52.314  26.911  28.701  1.00  0.00     0.001 A 
ATOM     86  C   UNL A   1      52.841  26.210  27.620  1.00  0.00     0.000 A 
ENDBRANCH  62  81
BRANCH  74  87
ATOM     87  C   UNL A   1      44.213  25.511  26.182  1.00  0.00    -0.014 A 
ATOM     88  C   UNL A   1      43.944  24.740  25.037  1.00  0.00     0.009 A 
ATOM     89  C   UNL A   1      44.180  24.874  27.431  1.00  0.00     0.009 A 
ATOM     90  C   UNL A   1      43.609  23.386  25.147  1.00  0.00     0.001 A 
ATOM     91  C   UNL A   1      43.871  23.517  27.540  1.00  0.00     0.001 A 
ATOM     92  C   UNL A   1      43.576  22.775  26.399  1.00  0.00     0.000 A 
ENDBRANCH  74  87
ENDBRANCH  48  49
ENDBRANCH  40  43
ENDBRANCH  38  39
ENDBRANCH  37  38
ENDBRANCH  36  37
ENDBRANCH   1  36
TORSDOF 17
ENDMDL
MODEL 2
REMARK VINA RESULT:     -10.7      4.536     11.870
REMARK SMILES CCOc1ccc(-c2nn(-c3ccccc3)cc2/C=C2/SC(=S)N(CC(=O)NCCCCNC(=O)c3ccc(-c4c5nc(c(-c6ccccc6)c6ccc([nH]6)c(-c6ccccc6)c6nc(c(-c7ccccc7)c7ccc4[nH]7)C=C6)C=C5)cc3)C2=O)cc1F
REMARK SMILES IDX 29 1 28 2 26 3 27 4 25 6 24 7 19 8 20 9 21 10 84 11 22 12
REMARK SMILES IDX 85 13 23 14 18 15 8 16 9 17 10 18 17 19 7 20 4 21 5 22 87 23
REMARK SMILES IDX 6 24 86 25 88 26 3 27 2 28 1 29 11 30 12 31 16 32 13 33
REMARK SMILES IDX 15 34 14 35 30 36 31 37 32 38 33 39 34 40 35 42 36 43 37 44
REMARK SMILES IDX 83 45 38 46 82 47 39 48 40 49 41 50 76 51 42 52 81 53 75 54
REMARK SMILES IDX 77 55 43 56 80 57 74 58 73 59 44 61 66 62 51 63 65 64 52 65
REMARK SMILES IDX 55 66 64 67 78 68 53 69 54 70 63 72 79 73 56 74 45 75 46 76
REMARK SMILES IDX 50 77 47 78 49 79 48 80 67 81 68 82 72 83 69 84 71 85 70 86
REMARK SMILES IDX 57 87 58 88 62 89 59 90 61 91 60 92
REMARK H PARENT 28 5 33 41 77 60 55 71
REMARK Flexibility Score: inf
ROOT
ATOM      1  C   UNL A   1      44.763  30.859  26.968  1.00  0.00     0.116 C 
ENDROOT
BRANCH   1   2
ATOM      2  N   UNL A   1      43.851  30.166  26.083  1.00  0.00    -0.355 N 
ATOM      3  C   UNL A   1      43.511  28.844  26.039  1.00  0.00     0.240 C 
ATOM      4  O   UNL A   1      42.456  28.560  25.463  1.00  0.00    -0.273 OA
ATOM      5  H   UNL A   1      43.410  30.735  25.411  1.00  0.00     0.163 HD
BRANCH   3   6
ATOM      6  C   UNL A   1      44.302  27.772  26.807  1.00  0.00     0.227 C 
BRANCH   6   7
ATOM      7  N   UNL A   1      43.487  27.055  27.789  1.00  0.00    -0.283 N 
ATOM      8  C   UNL A   1      41.986  23.852  28.642  1.00  0.00     0.033 C 
ATOM      9  C   UNL A   1      42.365  25.138  28.582  1.00  0.00     0.081 C 
ATOM     10  S   UNL A   1      42.096  26.299  29.821  1.00  0.00    -0.054 SA
ATOM     11  C   UNL A   1      43.087  25.777  27.444  1.00  0.00     0.266 C 
ATOM     12  C   UNL A   1      42.948  27.571  28.944  1.00  0.00     0.148 C 
ATOM     13  O   UNL A   1      43.282  25.261  26.360  1.00  0.00    -0.268 OA
ATOM     14  S   UNL A   1      43.024  29.137  29.512  1.00  0.00    -0.052 S 
BRANCH   8  15
ATOM     15  C   UNL A   1      42.197  22.918  27.590  1.00  0.00     0.022 A 
ATOM     16  C   UNL A   1      41.336  22.577  26.518  1.00  0.00     0.100 A 
ATOM     17  N   UNL A   1      41.982  21.830  25.613  1.00  0.00    -0.167 NA
ATOM     18  N   UNL A   1      43.206  21.611  26.146  1.00  0.00    -0.240 N 
ATOM     19  C   UNL A   1      43.343  22.187  27.388  1.00  0.00     0.123 A 
BRANCH  16  20
ATOM     20  C   UNL A   1      39.922  22.887  26.352  1.00  0.00     0.006 A 
ATOM     21  C   UNL A   1      37.169  23.330  26.112  1.00  0.00     0.154 A 
ATOM     22  C   UNL A   1      37.999  24.350  26.582  1.00  0.00     0.050 A 
ATOM     23  C   UNL A   1      37.726  22.118  25.714  1.00  0.00     0.165 A 
ATOM     24  C   UNL A   1      39.377  24.128  26.707  1.00  0.00     0.014 A 
ATOM     25  C   UNL A   1      39.086  21.885  25.845  1.00  0.00     0.053 A 
ATOM     26  F   UNL A   1      36.965  21.152  25.180  1.00  0.00    -0.203 F 
BRANCH  21  27
ATOM     27  O   UNL A   1      35.838  23.597  25.935  1.00  0.00    -0.491 OA
BRANCH  27  28
ATOM     28  C   UNL A   1      35.020  23.099  27.002  1.00  0.00     0.226 C 
ATOM     29  C   UNL A   1      33.714  22.501  26.503  1.00  0.00     0.049 C 
ENDBRANCH  27  28
ENDBRANCH  21  27
ENDBRANCH  16  20
BRANCH  18  30
ATOM     30  C   UNL A   1      44.168  20.839  25.456  1.00  0.00     0.065 A 
ATOM     31  C   UNL A   1      43.791  19.606  24.910  1.00  0.00     0.028 A 
ATOM     32  C   UNL A   1      45.482  21.301  25.327  1.00  0.00     0.028 A 
ATOM     33  C   UNL A   1      44.728  18.847  24.209  1.00  0.00     0.002 A 
ATOM     34  C   UNL A   1      46.426  20.507  24.672  1.00  0.00     0.002 A 
ATOM     35  C   UNL A   1      46.046  19.290  24.104  1.00  0.00     0.000 A 
ENDBRANCH  18  30
ENDBRANCH   8  15
ENDBRANCH   6   7
ENDBRANCH   3   6
ENDBRANCH   1   2
BRANCH   1  36
ATOM     36  C   UNL A   1      44.539  32.370  27.008  1.00  0.00     0.023 C 
BRANCH  36  37
ATOM     37  C   UNL A   1      44.427  33.075  25.649  1.00  0.00     0.023 C 
BRANCH  37  38
ATOM     38  C   UNL A   1      44.173  34.577  25.707  1.00  0.00     0.116 C 
BRANCH  38  39
ATOM     39  N   UNL A   1      45.242  35.319  26.368  1.00  0.00    -0.352 N 
ATOM     40  C   UNL A   1      45.173  36.019  27.558  1.00  0.00     0.251 C 
ATOM     41  H   UNL A   1      46.115  35.321  25.913  1.00  0.00     0.163 HD
ATOM     42  O   UNL A   1      45.962  36.924  27.794  1.00  0.00    -0.269 OA
BRANCH  40  43
ATOM     43  C   UNL A   1      44.130  35.668  28.543  1.00  0.00     0.039 A 
ATOM     44  C   UNL A   1      42.896  36.318  28.534  1.00  0.00     0.014 A 
ATOM     45  C   UNL A   1      44.393  34.667  29.478  1.00  0.00     0.014 A 
ATOM     46  C   UNL A   1      41.902  35.880  29.407  1.00  0.00     0.010 A 
ATOM     47  C   UNL A   1      43.375  34.154  30.256  1.00  0.00     0.010 A 
ATOM     48  C   UNL A   1      42.130  34.768  30.243  1.00  0.00    -0.014 A 
BRANCH  48  49
ATOM     49  C   UNL A   1      41.009  34.161  30.963  1.00  0.00     0.031 A 
ATOM     50  C   UNL A   1      41.296  33.899  32.398  1.00  0.00     0.074 A 
ATOM     51  C   UNL A   1      39.762  33.963  30.483  1.00  0.00     0.049 A 
ATOM     52  N   UNL A   1      41.540  32.749  32.929  1.00  0.00    -0.248 NA
ATOM     53  C   UNL A   1      41.495  35.036  33.309  1.00  0.00     0.031 C 
ATOM     54  C   UNL A   1      39.194  34.395  29.203  1.00  0.00     0.029 A 
ATOM     55  N   UNL A   1      38.690  33.384  31.102  1.00  0.00    -0.354 N 
ATOM     56  C   UNL A   1      41.700  32.981  34.288  1.00  0.00     0.074 A 
ATOM     57  C   UNL A   1      41.846  34.408  34.436  1.00  0.00     0.031 C 
ATOM     58  C   UNL A   1      37.847  34.270  29.236  1.00  0.00     0.029 A 
ATOM     59  C   UNL A   1      37.472  33.589  30.463  1.00  0.00     0.049 A 
ATOM     60  H   UNL A   1      38.774  32.865  31.934  1.00  0.00     0.167 HD
ATOM     61  C   UNL A   1      41.413  32.003  35.192  1.00  0.00     0.031 A 
ATOM     62  C   UNL A   1      36.242  33.223  30.904  1.00  0.00     0.031 A 
ATOM     63  C   UNL A   1      41.317  30.708  34.555  1.00  0.00     0.049 A 
ATOM     64  C   UNL A   1      36.431  32.123  31.872  1.00  0.00     0.074 A 
ATOM     65  C   UNL A   1      42.150  29.938  33.766  1.00  0.00     0.029 A 
ATOM     66  N   UNL A   1      40.052  30.204  34.362  1.00  0.00    -0.354 N 
ATOM     67  N   UNL A   1      36.835  30.935  31.531  1.00  0.00    -0.248 NA
ATOM     68  C   UNL A   1      36.567  32.453  33.278  1.00  0.00     0.031 C 
ATOM     69  C   UNL A   1      41.291  29.349  32.788  1.00  0.00     0.029 A 
ATOM     70  C   UNL A   1      39.980  29.722  33.083  1.00  0.00     0.049 A 
ATOM     71  H   UNL A   1      39.326  30.194  35.026  1.00  0.00     0.167 HD
ATOM     72  C   UNL A   1      37.706  30.568  32.544  1.00  0.00     0.074 A 
ATOM     73  C   UNL A   1      37.403  31.479  33.647  1.00  0.00     0.031 C 
ATOM     74  C   UNL A   1      38.775  29.757  32.284  1.00  0.00     0.031 A 
BRANCH  61  75
ATOM     75  C   UNL A   1      40.734  32.281  36.515  1.00  0.00    -0.014 A 
ATOM     76  C   UNL A   1      39.410  32.757  36.498  1.00  0.00     0.009 A 
ATOM     77  C   UNL A   1      41.432  32.406  37.732  1.00  0.00     0.009 A 
ATOM     78  C   UNL A   1      38.862  33.430  37.596  1.00  0.00     0.001 A 
ATOM     79  C   UNL A   1      40.872  33.037  38.845  1.00  0.00     0.001 A 
ATOM     80  C   UNL A   1      39.600  33.583  38.764  1.00  0.00     0.000 A 
ENDBRANCH  61  75
BRANCH  62  81
ATOM     81  C   UNL A   1      34.922  33.865  30.719  1.00  0.00    -0.014 A 
ATOM     82  C   UNL A   1      34.429  34.770  31.676  1.00  0.00     0.009 A 
ATOM     83  C   UNL A   1      34.291  33.834  29.464  1.00  0.00     0.009 A 
ATOM     84  C   UNL A   1      33.387  35.654  31.367  1.00  0.00     0.001 A 
ATOM     85  C   UNL A   1      33.248  34.715  29.156  1.00  0.00     0.001 A 
ATOM     86  C   UNL A   1      32.810  35.639  30.100  1.00  0.00     0.000 A 
ENDBRANCH  62  81
BRANCH  74  87
ATOM     87  C   UNL A   1      38.811  29.029  30.962  1.00  0.00    -0.014 A 
ATOM     88  C   UNL A   1      39.085  29.652  29.731  1.00  0.00     0.009 A 
ATOM     89  C   UNL A   1      38.668  27.633  30.979  1.00  0.00     0.009 A 
ATOM     90  C   UNL A   1      39.168  28.903  28.552  1.00  0.00     0.001 A 
ATOM     91  C   UNL A   1      38.776  26.883  29.807  1.00  0.00     0.001 A 
ATOM     92  C   UNL A   1      39.016  27.519  28.591  1.00  0.00     0.000 A 
ENDBRANCH  74  87
ENDBRANCH  48  49
ENDBRANCH  40  43
ENDBRANCH  38  39
ENDBRANCH  37  38
ENDBRANCH  36  37
ENDBRANCH   1  36
TORSDOF 17
ENDMDL
MODEL 3
REMARK VINA RESULT:     -10.5      2.602      6.908
REMARK SMILES CCOc1ccc(-c2nn(-c3ccccc3)cc2/C=C2/SC(=S)N(CC(=O)NCCCCNC(=O)c3ccc(-c4c5nc(c(-c6ccccc6)c6ccc([nH]6)c(-c6ccccc6)c6nc(c(-c7ccccc7)c7ccc4[nH]7)C=C6)C=C5)cc3)C2=O)cc1F
REMARK SMILES IDX 29 1 28 2 26 3 27 4 25 6 24 7 19 8 20 9 21 10 84 11 22 12
REMARK SMILES IDX 85 13 23 14 18 15 8 16 9 17 10 18 17 19 7 20 4 21 5 22 87 23
REMARK SMILES IDX 6 24 86 25 88 26 3 27 2 28 1 29 11 30 12 31 16 32 13 33
REMARK SMILES IDX 15 34 14 35 30 36 31 37 32 38 33 39 34 40 35 42 36 43 37 44
REMARK SMILES IDX 83 45 38 46 82 47 39 48 40 49 41 50 76 51 42 52 81 53 75 54
REMARK SMILES IDX 77 55 43 56 80 57 74 58 73 59 44 61 66 62 51 63 65 64 52 65
REMARK SMILES IDX 55 66 64 67 78 68 53 69 54 70 63 72 79 73 56 74 45 75 46 76
REMARK SMILES IDX 50 77 47 78 49 79 48 80 67 81 68 82 72 83 69 84 71 85 70 86
REMARK SMILES IDX 57 87 58 88 62 89 59 90 61 91 60 92
REMARK H PARENT 28 5 33 41 77 60 55 71
REMARK Flexibility Score: inf
ROOT
ATOM      1  C   UNL A   1      43.481  33.996  29.432  1.00  0.00     0.116 C 
ENDROOT
BRANCH   1   2
ATOM      2  N   UNL A   1      43.655  33.728  30.844  1.00  0.00    -0.355 N 
ATOM      3  C   UNL A   1      42.728  33.696  31.848  1.00  0.00     0.240 C 
ATOM      4  O   UNL A   1      43.043  33.087  32.876  1.00  0.00    -0.273 OA
ATOM      5  H   UNL A   1      44.580  33.540  31.122  1.00  0.00     0.163 HD
BRANCH   3   6
ATOM      6  C   UNL A   1      41.302  34.239  31.660  1.00  0.00     0.227 C 
BRANCH   6   7
ATOM      7  N   UNL A   1      40.276  33.351  32.207  1.00  0.00    -0.283 N 
ATOM      8  C   UNL A   1      38.192  30.443  31.540  1.00  0.00     0.033 C 
ATOM      9  C   UNL A   1      38.778  31.535  32.054  1.00  0.00     0.081 C 
ATOM     10  S   UNL A   1      38.558  32.100  33.664  1.00  0.00    -0.054 SA
ATOM     11  C   UNL A   1      39.718  32.438  31.330  1.00  0.00     0.266 C 
ATOM     12  C   UNL A   1      39.698  33.430  33.452  1.00  0.00     0.148 C 
ATOM     13  O   UNL A   1      39.951  32.395  30.137  1.00  0.00    -0.268 OA
ATOM     14  S   UNL A   1      39.959  34.567  34.643  1.00  0.00    -0.052 S 
BRANCH   8  15
ATOM     15  C   UNL A   1      38.369  30.012  30.196  1.00  0.00     0.022 A 
ATOM     16  C   UNL A   1      37.781  30.525  29.013  1.00  0.00     0.100 A 
ATOM     17  N   UNL A   1      38.371  30.005  27.929  1.00  0.00    -0.167 NA
ATOM     18  N   UNL A   1      39.254  29.099  28.408  1.00  0.00    -0.240 N 
ATOM     19  C   UNL A   1      39.219  29.015  29.781  1.00  0.00     0.123 A 
BRANCH  16  20
ATOM     20  C   UNL A   1      36.655  31.440  28.880  1.00  0.00     0.006 A 
ATOM     21  C   UNL A   1      34.390  33.075  28.698  1.00  0.00     0.154 A 
ATOM     22  C   UNL A   1      35.590  33.600  29.182  1.00  0.00     0.050 A 
ATOM     23  C   UNL A   1      34.345  31.754  28.258  1.00  0.00     0.165 A 
ATOM     24  C   UNL A   1      36.724  32.781  29.277  1.00  0.00     0.014 A 
ATOM     25  C   UNL A   1      35.458  30.934  28.360  1.00  0.00     0.053 A 
ATOM     26  F   UNL A   1      33.231  31.249  27.711  1.00  0.00    -0.203 F 
BRANCH  21  27
ATOM     27  O   UNL A   1      33.319  33.913  28.551  1.00  0.00    -0.491 OA
BRANCH  27  28
ATOM     28  C   UNL A   1      33.673  35.298  28.656  1.00  0.00     0.226 C 
ATOM     29  C   UNL A   1      32.884  36.020  29.738  1.00  0.00     0.049 C 
ENDBRANCH  27  28
ENDBRANCH  21  27
ENDBRANCH  16  20
BRANCH  18  30
ATOM     30  C   UNL A   1      40.060  28.340  27.531  1.00  0.00     0.065 A 
ATOM     31  C   UNL A   1      40.867  29.002  26.598  1.00  0.00     0.028 A 
ATOM     32  C   UNL A   1      40.045  26.942  27.591  1.00  0.00     0.028 A 
ATOM     33  C   UNL A   1      41.683  28.262  25.743  1.00  0.00     0.002 A 
ATOM     34  C   UNL A   1      40.822  26.209  26.692  1.00  0.00     0.002 A 
ATOM     35  C   UNL A   1      41.648  26.867  25.779  1.00  0.00     0.000 A 
ENDBRANCH  18  30
ENDBRANCH   8  15
ENDBRANCH   6   7
ENDBRANCH   3   6
ENDBRANCH   1   2
BRANCH   1  36
ATOM     36  C   UNL A   1      43.724  35.457  29.058  1.00  0.00     0.023 C 
BRANCH  36  37
ATOM     37  C   UNL A   1      42.793  36.046  27.988  1.00  0.00     0.023 C 
BRANCH  37  38
ATOM     38  C   UNL A   1      42.784  35.313  26.651  1.00  0.00     0.116 C 
BRANCH  38  39
ATOM     39  N   UNL A   1      43.949  35.610  25.822  1.00  0.00    -0.352 N 
ATOM     40  C   UNL A   1      45.149  34.925  25.777  1.00  0.00     0.251 C 
ATOM     41  H   UNL A   1      43.871  36.389  25.227  1.00  0.00     0.163 HD
ATOM     42  O   UNL A   1      46.169  35.481  25.393  1.00  0.00    -0.269 OA
BRANCH  40  43
ATOM     43  C   UNL A   1      45.190  33.512  26.204  1.00  0.00     0.039 A 
ATOM     44  C   UNL A   1      46.241  33.036  26.990  1.00  0.00     0.014 A 
ATOM     45  C   UNL A   1      44.156  32.659  25.820  1.00  0.00     0.014 A 
ATOM     46  C   UNL A   1      46.184  31.727  27.463  1.00  0.00     0.010 A 
ATOM     47  C   UNL A   1      44.038  31.406  26.385  1.00  0.00     0.010 A 
ATOM     48  C   UNL A   1      45.059  30.922  27.193  1.00  0.00    -0.014 A 
BRANCH  48  49
ATOM     49  C   UNL A   1      44.891  29.650  27.900  1.00  0.00     0.031 A 
ATOM     50  C   UNL A   1      44.306  29.797  29.258  1.00  0.00     0.074 A 
ATOM     51  C   UNL A   1      45.087  28.418  27.385  1.00  0.00     0.049 A 
ATOM     52  N   UNL A   1      44.941  29.700  30.377  1.00  0.00    -0.248 NA
ATOM     53  C   UNL A   1      42.916  30.259  29.395  1.00  0.00     0.031 C 
ATOM     54  C   UNL A   1      45.393  28.040  26.002  1.00  0.00     0.029 A 
ATOM     55  N   UNL A   1      44.967  27.205  28.003  1.00  0.00    -0.354 N 
ATOM     56  C   UNL A   1      43.989  29.861  31.374  1.00  0.00     0.074 A 
ATOM     57  C   UNL A   1      42.812  30.380  30.721  1.00  0.00     0.031 C 
ATOM     58  C   UNL A   1      45.210  26.709  25.841  1.00  0.00     0.029 A 
ATOM     59  C   UNL A   1      44.947  26.114  27.140  1.00  0.00     0.049 A 
ATOM     60  H   UNL A   1      44.900  27.111  28.980  1.00  0.00     0.167 HD
ATOM     61  C   UNL A   1      44.166  29.284  32.594  1.00  0.00     0.031 A 
ATOM     62  C   UNL A   1      44.734  24.814  27.465  1.00  0.00     0.031 A 
ATOM     63  C   UNL A   1      45.538  28.869  32.788  1.00  0.00     0.049 A 
ATOM     64  C   UNL A   1      45.062  24.659  28.897  1.00  0.00     0.074 A 
ATOM     65  C   UNL A   1      46.769  29.495  32.741  1.00  0.00     0.029 A 
ATOM     66  N   UNL A   1      45.800  27.524  32.671  1.00  0.00    -0.354 N 
ATOM     67  N   UNL A   1      46.272  24.742  29.365  1.00  0.00    -0.248 NA
ATOM     68  C   UNL A   1      44.000  24.822  29.873  1.00  0.00     0.031 C 
ATOM     69  C   UNL A   1      47.641  28.549  32.118  1.00  0.00     0.029 A 
ATOM     70  C   UNL A   1      46.919  27.376  31.897  1.00  0.00     0.049 A 
ATOM     71  H   UNL A   1      45.275  26.795  33.074  1.00  0.00     0.167 HD
ATOM     72  C   UNL A   1      46.132  25.439  30.554  1.00  0.00     0.074 A 
ATOM     73  C   UNL A   1      44.708  25.348  30.875  1.00  0.00     0.031 C 
ATOM     74  C   UNL A   1      47.128  26.260  31.002  1.00  0.00     0.031 A 
BRANCH  61  75
ATOM     75  C   UNL A   1      43.035  28.652  33.376  1.00  0.00    -0.014 A 
ATOM     76  C   UNL A   1      42.152  29.498  34.072  1.00  0.00     0.009 A 
ATOM     77  C   UNL A   1      42.997  27.286  33.717  1.00  0.00     0.009 A 
ATOM     78  C   UNL A   1      41.369  29.024  35.131  1.00  0.00     0.001 A 
ATOM     79  C   UNL A   1      42.184  26.801  34.744  1.00  0.00     0.001 A 
ATOM     80  C   UNL A   1      41.398  27.678  35.476  1.00  0.00     0.000 A 
ENDBRANCH  61  75
BRANCH  62  81
ATOM     81  C   UNL A   1      44.084  23.725  26.704  1.00  0.00    -0.014 A 
ATOM     82  C   UNL A   1      44.828  22.939  25.806  1.00  0.00     0.009 A 
ATOM     83  C   UNL A   1      42.817  23.254  27.089  1.00  0.00     0.009 A 
ATOM     84  C   UNL A   1      44.350  21.699  25.361  1.00  0.00     0.001 A 
ATOM     85  C   UNL A   1      42.338  22.017  26.641  1.00  0.00     0.001 A 
ATOM     86  C   UNL A   1      43.113  21.231  25.794  1.00  0.00     0.000 A 
ENDBRANCH  62  81
BRANCH  74  87
ATOM     87  C   UNL A   1      48.486  26.152  30.351  1.00  0.00    -0.014 A 
ATOM     88  C   UNL A   1      48.824  26.775  29.136  1.00  0.00     0.009 A 
ATOM     89  C   UNL A   1      49.497  25.480  31.053  1.00  0.00     0.009 A 
ATOM     90  C   UNL A   1      50.123  26.687  28.623  1.00  0.00     0.001 A 
ATOM     91  C   UNL A   1      50.800  25.414  30.554  1.00  0.00     0.001 A 
ATOM     92  C   UNL A   1      51.111  26.009  29.334  1.00  0.00     0.000 A 
ENDBRANCH  74  87
ENDBRANCH  48  49
ENDBRANCH  40  43
ENDBRANCH  38  39
ENDBRANCH  37  38
ENDBRANCH  36  37
ENDBRANCH   1  36
TORSDOF 17
ENDMDL
