MODEL 1
REMARK VINA RESULT:     -10.7      0.000      0.000
REMARK SMILES CCN1C(=O)N(CC)[C@H]2NC(=O)N(CCCC(=O)NCCCCNC(=O)c3ccc(-c4c5nc(c(-c6ccccc6)c6ccc([nH]6)c(-c6ccccc6)c6nc(c(-c7ccccc7)c7ccc4[nH]7)C=C6)C=C5)cc3)[C@@H]21
REMARK SMILES IDX 20 1 19 2 17 3 18 4 16 6 15 7 14 8 13 9 3 10 4 11 75 12 5 13
REMARK SMILES IDX 6 14 9 15 10 16 11 17 12 19 2 20 1 21 7 22 8 23 21 24 22 25
REMARK SMILES IDX 23 26 24 27 25 28 26 30 27 31 28 32 74 33 29 34 73 35 30 36
REMARK SMILES IDX 31 37 32 38 67 39 33 40 72 41 66 42 68 43 34 44 71 45 65 46
REMARK SMILES IDX 64 47 35 49 57 50 42 51 56 52 43 53 46 54 55 55 69 56 44 57
REMARK SMILES IDX 45 58 54 60 70 61 47 62 36 63 37 64 41 65 38 66 40 67 39 68
REMARK SMILES IDX 58 69 59 70 63 71 60 72 62 73 61 74 48 75 49 76 53 77 50 78
REMARK SMILES IDX 52 79 51 80
REMARK H PARENT 19 5 10 18 24 29 68 48 46 59
REMARK Flexibility Score: inf
ROOT
ATOM      1  C   UNL A   1      35.730  19.834  24.925  1.00  0.00     0.116 C 
ENDROOT
BRANCH   1   2
ATOM      2  N   UNL A   1      34.294  19.517  25.135  1.00  0.00    -0.356 N 
ATOM      3  C   UNL A   1      33.006  19.886  25.141  1.00  0.00     0.220 C 
ATOM      4  O   UNL A   1      32.331  18.851  25.373  1.00  0.00    -0.275 OA
ATOM      5  H   UNL A   1      34.283  18.569  25.398  1.00  0.00     0.163 HD
BRANCH   3   6
ATOM      6  C   UNL A   1      32.101  21.129  24.777  1.00  0.00     0.102 C 
BRANCH   6   7
ATOM      7  C   UNL A   1      31.851  22.509  24.067  1.00  0.00     0.031 C 
BRANCH   7   8
ATOM      8  C   UNL A   1      30.966  23.760  24.266  1.00  0.00     0.124 C 
BRANCH   8   9
ATOM      9  N   UNL A   1      31.376  24.952  25.018  1.00  0.00    -0.300 N 
ATOM     10  N   UNL A   1      32.418  26.732  23.479  1.00  0.00    -0.300 N 
ATOM     11  C   UNL A   1      32.845  28.046  23.820  1.00  0.00     0.323 C 
ATOM     12  C   UNL A   1      31.619  26.277  24.561  1.00  0.00     0.231 C 
ATOM     13  O   UNL A   1      33.367  28.839  23.053  1.00  0.00    -0.248 OA
ATOM     14  N   UNL A   1      32.655  28.178  25.218  1.00  0.00    -0.300 N 
ATOM     15  C   UNL A   1      32.464  26.851  25.695  1.00  0.00     0.228 C 
ATOM     16  N   UNL A   1      31.844  26.315  26.833  1.00  0.00    -0.314 N 
ATOM     17  C   UNL A   1      31.405  25.016  26.446  1.00  0.00     0.320 C 
ATOM     18  H   UNL A   1      31.734  26.745  27.711  1.00  0.00     0.167 HD
ATOM     19  O   UNL A   1      31.162  24.112  27.224  1.00  0.00    -0.249 OA
BRANCH  10  20
ATOM     20  C   UNL A   1      33.296  25.903  22.728  1.00  0.00     0.120 C 
ATOM     21  C   UNL A   1      32.809  25.649  21.312  1.00  0.00     0.027 C 
ENDBRANCH  10  20
BRANCH  14  22
ATOM     22  C   UNL A   1      32.747  29.393  25.988  1.00  0.00     0.120 C 
ATOM     23  C   UNL A   1      31.636  30.401  25.726  1.00  0.00     0.027 C 
ENDBRANCH  14  22
ENDBRANCH   8   9
ENDBRANCH   7   8
ENDBRANCH   6   7
ENDBRANCH   3   6
ENDBRANCH   1   2
BRANCH   1  24
ATOM     24  C   UNL A   1      36.108  21.304  25.186  1.00  0.00     0.023 C 
BRANCH  24  25
ATOM     25  C   UNL A   1      37.541  21.697  24.804  1.00  0.00     0.023 C 
BRANCH  25  26
ATOM     26  C   UNL A   1      38.656  21.411  25.806  1.00  0.00     0.116 C 
BRANCH  26  27
ATOM     27  N   UNL A   1      39.385  20.159  25.618  1.00  0.00    -0.352 N 
ATOM     28  C   UNL A   1      40.699  19.890  25.977  1.00  0.00     0.251 C 
ATOM     29  H   UNL A   1      38.889  19.424  25.188  1.00  0.00     0.163 HD
ATOM     30  O   UNL A   1      41.208  18.794  25.776  1.00  0.00    -0.269 OA
BRANCH  28  31
ATOM     31  C   UNL A   1      41.500  20.993  26.555  1.00  0.00     0.039 A 
ATOM     32  C   UNL A   1      42.084  21.929  25.700  1.00  0.00     0.014 A 
ATOM     33  C   UNL A   1      41.467  21.210  27.933  1.00  0.00     0.014 A 
ATOM     34  C   UNL A   1      42.513  23.156  26.218  1.00  0.00     0.010 A 
ATOM     35  C   UNL A   1      41.793  22.470  28.424  1.00  0.00     0.010 A 
ATOM     36  C   UNL A   1      42.299  23.465  27.570  1.00  0.00    -0.014 A 
BRANCH  36  37
ATOM     37  C   UNL A   1      42.572  24.826  28.114  1.00  0.00     0.031 A 
ATOM     38  C   UNL A   1      43.961  25.188  28.568  1.00  0.00     0.074 A 
ATOM     39  C   UNL A   1      41.563  25.708  28.285  1.00  0.00     0.049 A 
ATOM     40  N   UNL A   1      44.385  26.287  29.138  1.00  0.00    -0.248 NA
ATOM     41  C   UNL A   1      45.002  24.163  28.392  1.00  0.00     0.031 C 
ATOM     42  C   UNL A   1      40.155  25.472  27.951  1.00  0.00     0.029 A 
ATOM     43  N   UNL A   1      41.569  26.986  28.792  1.00  0.00    -0.354 N 
ATOM     44  C   UNL A   1      45.729  26.072  29.410  1.00  0.00     0.074 A 
ATOM     45  C   UNL A   1      46.034  24.718  29.008  1.00  0.00     0.031 C 
ATOM     46  C   UNL A   1      39.446  26.581  28.222  1.00  0.00     0.029 A 
ATOM     47  C   UNL A   1      40.334  27.592  28.786  1.00  0.00     0.049 A 
ATOM     48  H   UNL A   1      42.382  27.427  29.128  1.00  0.00     0.167 HD
ATOM     49  C   UNL A   1      46.643  26.931  29.920  1.00  0.00     0.031 A 
ATOM     50  C   UNL A   1      39.958  28.822  29.188  1.00  0.00     0.031 A 
ATOM     51  C   UNL A   1      46.355  28.288  30.295  1.00  0.00     0.049 A 
ATOM     52  C   UNL A   1      40.992  29.764  29.745  1.00  0.00     0.074 A 
ATOM     53  C   UNL A   1      47.228  29.258  30.754  1.00  0.00     0.029 A 
ATOM     54  N   UNL A   1      45.097  28.866  30.252  1.00  0.00    -0.354 N 
ATOM     55  N   UNL A   1      42.277  29.570  29.918  1.00  0.00    -0.248 NA
ATOM     56  C   UNL A   1      40.525  31.097  30.151  1.00  0.00     0.031 C 
ATOM     57  C   UNL A   1      46.489  30.411  31.036  1.00  0.00     0.029 A 
ATOM     58  C   UNL A   1      45.166  30.174  30.698  1.00  0.00     0.049 A 
ATOM     59  H   UNL A   1      44.277  28.414  29.949  1.00  0.00     0.167 HD
ATOM     60  C   UNL A   1      42.776  30.764  30.423  1.00  0.00     0.074 A 
ATOM     61  C   UNL A   1      41.658  31.681  30.513  1.00  0.00     0.031 C 
ATOM     62  C   UNL A   1      44.045  31.076  30.778  1.00  0.00     0.031 A 
BRANCH  49  63
ATOM     63  C   UNL A   1      48.046  26.418  30.094  1.00  0.00    -0.014 A 
ATOM     64  C   UNL A   1      48.986  26.505  29.053  1.00  0.00     0.009 A 
ATOM     65  C   UNL A   1      48.438  25.856  31.318  1.00  0.00     0.009 A 
ATOM     66  C   UNL A   1      50.274  25.995  29.220  1.00  0.00     0.001 A 
ATOM     67  C   UNL A   1      49.737  25.378  31.492  1.00  0.00     0.001 A 
ATOM     68  C   UNL A   1      50.650  25.437  30.441  1.00  0.00     0.000 A 
ENDBRANCH  49  63
BRANCH  50  69
ATOM     69  C   UNL A   1      38.540  29.258  29.055  1.00  0.00    -0.014 A 
ATOM     70  C   UNL A   1      38.067  29.777  27.839  1.00  0.00     0.009 A 
ATOM     71  C   UNL A   1      37.660  29.182  30.145  1.00  0.00     0.009 A 
ATOM     72  C   UNL A   1      36.752  30.237  27.726  1.00  0.00     0.001 A 
ATOM     73  C   UNL A   1      36.336  29.615  30.020  1.00  0.00     0.001 A 
ATOM     74  C   UNL A   1      35.887  30.152  28.816  1.00  0.00     0.000 A 
ENDBRANCH  50  69
BRANCH  62  75
ATOM     75  C   UNL A   1      44.307  32.475  31.260  1.00  0.00    -0.014 A 
ATOM     76  C   UNL A   1      44.274  32.794  32.627  1.00  0.00     0.009 A 
ATOM     77  C   UNL A   1      44.641  33.475  30.335  1.00  0.00     0.009 A 
ATOM     78  C   UNL A   1      44.543  34.096  33.053  1.00  0.00     0.001 A 
ATOM     79  C   UNL A   1      44.939  34.769  30.766  1.00  0.00     0.001 A 
ATOM     80  C   UNL A   1      44.880  35.080  32.123  1.00  0.00     0.000 A 
ENDBRANCH  62  75
ENDBRANCH  36  37
ENDBRANCH  28  31
ENDBRANCH  26  27
ENDBRANCH  25  26
ENDBRANCH  24  25
ENDBRANCH   1  24
TORSDOF 16
ENDMDL
MODEL 2
REMARK VINA RESULT:     -10.4      0.710      5.986
REMARK SMILES CCN1C(=O)N(CC)[C@H]2NC(=O)N(CCCC(=O)NCCCCNC(=O)c3ccc(-c4c5nc(c(-c6ccccc6)c6ccc([nH]6)c(-c6ccccc6)c6nc(c(-c7ccccc7)c7ccc4[nH]7)C=C6)C=C5)cc3)[C@@H]21
REMARK SMILES IDX 20 1 19 2 17 3 18 4 16 6 15 7 14 8 13 9 3 10 4 11 75 12 5 13
REMARK SMILES IDX 6 14 9 15 10 16 11 17 12 19 2 20 1 21 7 22 8 23 21 24 22 25
REMARK SMILES IDX 23 26 24 27 25 28 26 30 27 31 28 32 74 33 29 34 73 35 30 36
REMARK SMILES IDX 31 37 32 38 67 39 33 40 72 41 66 42 68 43 34 44 71 45 65 46
REMARK SMILES IDX 64 47 35 49 57 50 42 51 56 52 43 53 46 54 55 55 69 56 44 57
REMARK SMILES IDX 45 58 54 60 70 61 47 62 36 63 37 64 41 65 38 66 40 67 39 68
REMARK SMILES IDX 58 69 59 70 63 71 60 72 62 73 61 74 48 75 49 76 53 77 50 78
REMARK SMILES IDX 52 79 51 80
REMARK H PARENT 19 5 10 18 24 29 68 48 46 59
REMARK Flexibility Score: inf
ROOT
ATOM      1  C   UNL A   1      35.527  21.049  25.763  1.00  0.00     0.116 C 
ENDROOT
BRANCH   1   2
ATOM      2  N   UNL A   1      34.160  20.499  25.576  1.00  0.00    -0.356 N 
ATOM      3  C   UNL A   1      32.947  20.554  25.011  1.00  0.00     0.220 C 
ATOM      4  O   UNL A   1      32.331  19.516  25.364  1.00  0.00    -0.275 OA
ATOM      5  H   UNL A   1      34.133  19.698  26.148  1.00  0.00     0.163 HD
BRANCH   3   6
ATOM      6  C   UNL A   1      32.149  21.392  23.934  1.00  0.00     0.102 C 
BRANCH   6   7
ATOM      7  C   UNL A   1      31.715  22.749  23.268  1.00  0.00     0.031 C 
BRANCH   7   8
ATOM      8  C   UNL A   1      30.672  23.863  23.507  1.00  0.00     0.124 C 
BRANCH   8   9
ATOM      9  N   UNL A   1      30.864  24.992  24.425  1.00  0.00    -0.300 N 
ATOM     10  N   UNL A   1      32.082  26.949  23.280  1.00  0.00    -0.300 N 
ATOM     11  C   UNL A   1      32.363  28.239  23.811  1.00  0.00     0.323 C 
ATOM     12  C   UNL A   1      31.117  26.363  24.141  1.00  0.00     0.231 C 
ATOM     13  O   UNL A   1      32.977  29.121  23.233  1.00  0.00    -0.248 OA
ATOM     14  N   UNL A   1      31.902  28.230  25.151  1.00  0.00    -0.300 N 
ATOM     15  C   UNL A   1      31.696  26.857  25.464  1.00  0.00     0.228 C 
ATOM     16  N   UNL A   1      30.900  26.192  26.408  1.00  0.00    -0.314 N 
ATOM     17  C   UNL A   1      30.616  24.921  25.831  1.00  0.00     0.320 C 
ATOM     18  H   UNL A   1      30.601  26.531  27.281  1.00  0.00     0.167 HD
ATOM     19  O   UNL A   1      30.278  23.938  26.466  1.00  0.00    -0.249 OA
BRANCH  10  20
ATOM     20  C   UNL A   1      33.132  26.229  22.647  1.00  0.00     0.120 C 
ATOM     21  C   UNL A   1      32.787  25.795  21.232  1.00  0.00     0.027 C 
ENDBRANCH  10  20
BRANCH  14  22
ATOM     22  C   UNL A   1      31.777  29.368  26.026  1.00  0.00     0.120 C 
ATOM     23  C   UNL A   1      32.683  29.336  27.249  1.00  0.00     0.027 C 
ENDBRANCH  14  22
ENDBRANCH   8   9
ENDBRANCH   7   8
ENDBRANCH   6   7
ENDBRANCH   3   6
ENDBRANCH   1   2
BRANCH   1  24
ATOM     24  C   UNL A   1      36.004  21.980  24.632  1.00  0.00     0.023 C 
BRANCH  24  25
ATOM     25  C   UNL A   1      37.511  22.266  24.602  1.00  0.00     0.023 C 
BRANCH  25  26
ATOM     26  C   UNL A   1      38.365  21.746  25.756  1.00  0.00     0.116 C 
BRANCH  26  27
ATOM     27  N   UNL A   1      38.937  20.413  25.583  1.00  0.00    -0.352 N 
ATOM     28  C   UNL A   1      40.211  19.994  25.940  1.00  0.00     0.251 C 
ATOM     29  H   UNL A   1      38.354  19.737  25.167  1.00  0.00     0.163 HD
ATOM     30  O   UNL A   1      40.584  18.842  25.753  1.00  0.00    -0.269 OA
BRANCH  28  31
ATOM     31  C   UNL A   1      41.142  21.001  26.498  1.00  0.00     0.039 A 
ATOM     32  C   UNL A   1      41.838  21.841  25.625  1.00  0.00     0.014 A 
ATOM     33  C   UNL A   1      41.137  21.248  27.871  1.00  0.00     0.014 A 
ATOM     34  C   UNL A   1      42.415  23.015  26.119  1.00  0.00     0.010 A 
ATOM     35  C   UNL A   1      41.616  22.468  28.338  1.00  0.00     0.010 A 
ATOM     36  C   UNL A   1      42.241  23.376  27.465  1.00  0.00    -0.014 A 
BRANCH  36  37
ATOM     37  C   UNL A   1      42.679  24.703  27.982  1.00  0.00     0.031 A 
ATOM     38  C   UNL A   1      41.662  25.784  28.234  1.00  0.00     0.074 A 
ATOM     39  C   UNL A   1      43.993  24.974  28.141  1.00  0.00     0.049 A 
ATOM     40  N   UNL A   1      41.847  27.024  28.608  1.00  0.00    -0.248 NA
ATOM     41  C   UNL A   1      40.252  25.433  27.998  1.00  0.00     0.031 C 
ATOM     42  C   UNL A   1      45.096  24.046  27.874  1.00  0.00     0.029 A 
ATOM     43  N   UNL A   1      44.625  26.120  28.564  1.00  0.00    -0.354 N 
ATOM     44  C   UNL A   1      40.585  27.603  28.624  1.00  0.00     0.074 A 
ATOM     45  C   UNL A   1      39.653  26.602  28.158  1.00  0.00     0.031 C 
ATOM     46  C   UNL A   1      46.260  24.645  28.179  1.00  0.00     0.029 A 
ATOM     47  C   UNL A   1      45.995  26.009  28.623  1.00  0.00     0.049 A 
ATOM     48  H   UNL A   1      44.143  26.944  28.802  1.00  0.00     0.167 HD
ATOM     49  C   UNL A   1      40.222  28.846  29.020  1.00  0.00     0.031 A 
ATOM     50  C   UNL A   1      46.933  26.903  28.994  1.00  0.00     0.031 A 
ATOM     51  C   UNL A   1      41.140  29.836  29.512  1.00  0.00     0.049 A 
ATOM     52  C   UNL A   1      46.506  28.277  29.438  1.00  0.00     0.074 A 
ATOM     53  C   UNL A   1      40.860  31.099  30.005  1.00  0.00     0.029 A 
ATOM     54  N   UNL A   1      42.514  29.673  29.576  1.00  0.00    -0.354 N 
ATOM     55  N   UNL A   1      45.299  28.778  29.525  1.00  0.00    -0.248 NA
ATOM     56  C   UNL A   1      47.573  29.202  29.846  1.00  0.00     0.031 C 
ATOM     57  C   UNL A   1      42.072  31.720  30.322  1.00  0.00     0.029 A 
ATOM     58  C   UNL A   1      43.099  30.822  30.079  1.00  0.00     0.049 A 
ATOM     59  H   UNL A   1      43.001  28.863  29.304  1.00  0.00     0.167 HD
ATOM     60  C   UNL A   1      45.458  30.064  30.026  1.00  0.00     0.074 A 
ATOM     61  C   UNL A   1      46.877  30.260  30.237  1.00  0.00     0.031 C 
ATOM     62  C   UNL A   1      44.513  31.000  30.288  1.00  0.00     0.031 A 
BRANCH  49  63
ATOM     63  C   UNL A   1      38.762  29.194  28.938  1.00  0.00    -0.014 A 
ATOM     64  C   UNL A   1      37.914  29.037  30.048  1.00  0.00     0.009 A 
ATOM     65  C   UNL A   1      38.230  29.699  27.743  1.00  0.00     0.009 A 
ATOM     66  C   UNL A   1      36.554  29.335  29.946  1.00  0.00     0.001 A 
ATOM     67  C   UNL A   1      36.876  30.027  27.655  1.00  0.00     0.001 A 
ATOM     68  C   UNL A   1      36.038  29.834  28.752  1.00  0.00     0.000 A 
ENDBRANCH  49  63
BRANCH  50  69
ATOM     69  C   UNL A   1      48.374  26.528  28.993  1.00  0.00    -0.014 A 
ATOM     70  C   UNL A   1      48.955  25.939  30.127  1.00  0.00     0.009 A 
ATOM     71  C   UNL A   1      49.181  26.778  27.873  1.00  0.00     0.009 A 
ATOM     72  C   UNL A   1      50.319  25.634  30.150  1.00  0.00     0.001 A 
ATOM     73  C   UNL A   1      50.539  26.446  27.888  1.00  0.00     0.001 A 
ATOM     74  C   UNL A   1      51.109  25.885  29.029  1.00  0.00     0.000 A 
ENDBRANCH  50  69
BRANCH  62  75
ATOM     75  C   UNL A   1      44.975  32.306  30.871  1.00  0.00    -0.014 A 
ATOM     76  C   UNL A   1      45.313  33.393  30.049  1.00  0.00     0.009 A 
ATOM     77  C   UNL A   1      45.021  32.465  32.265  1.00  0.00     0.009 A 
ATOM     78  C   UNL A   1      45.718  34.604  30.615  1.00  0.00     0.001 A 
ATOM     79  C   UNL A   1      45.397  33.686  32.827  1.00  0.00     0.001 A 
ATOM     80  C   UNL A   1      45.754  34.751  32.002  1.00  0.00     0.000 A 
ENDBRANCH  62  75
ENDBRANCH  36  37
ENDBRANCH  28  31
ENDBRANCH  26  27
ENDBRANCH  25  26
ENDBRANCH  24  25
ENDBRANCH   1  24
TORSDOF 16
ENDMDL
MODEL 3
REMARK VINA RESULT:     -10.4      1.488      8.037
REMARK SMILES CCN1C(=O)N(CC)[C@H]2NC(=O)N(CCCC(=O)NCCCCNC(=O)c3ccc(-c4c5nc(c(-c6ccccc6)c6ccc([nH]6)c(-c6ccccc6)c6nc(c(-c7ccccc7)c7ccc4[nH]7)C=C6)C=C5)cc3)[C@@H]21
REMARK SMILES IDX 20 1 19 2 17 3 18 4 16 6 15 7 14 8 13 9 3 10 4 11 75 12 5 13
REMARK SMILES IDX 6 14 9 15 10 16 11 17 12 19 2 20 1 21 7 22 8 23 21 24 22 25
REMARK SMILES IDX 23 26 24 27 25 28 26 30 27 31 28 32 74 33 29 34 73 35 30 36
REMARK SMILES IDX 31 37 32 38 67 39 33 40 72 41 66 42 68 43 34 44 71 45 65 46
REMARK SMILES IDX 64 47 35 49 57 50 42 51 56 52 43 53 46 54 55 55 69 56 44 57
REMARK SMILES IDX 45 58 54 60 70 61 47 62 36 63 37 64 41 65 38 66 40 67 39 68
REMARK SMILES IDX 58 69 59 70 63 71 60 72 62 73 61 74 48 75 49 76 53 77 50 78
REMARK SMILES IDX 52 79 51 80
REMARK H PARENT 19 5 10 18 24 29 68 48 46 59
REMARK Flexibility Score: inf
ROOT
ATOM      1  C   UNL A   1      31.345  28.739  24.030  1.00  0.00     0.116 C 
ENDROOT
BRANCH   1   2
ATOM      2  N   UNL A   1      32.488  28.183  23.263  1.00  0.00    -0.356 N 
ATOM      3  C   UNL A   1      33.330  27.179  22.986  1.00  0.00     0.220 C 
ATOM      4  O   UNL A   1      34.034  27.550  22.012  1.00  0.00    -0.275 OA
ATOM      5  H   UNL A   1      32.762  28.911  22.660  1.00  0.00     0.163 HD
BRANCH   3   6
ATOM      6  C   UNL A   1      33.576  25.664  23.367  1.00  0.00     0.102 C 
BRANCH   6   7
ATOM      7  C   UNL A   1      34.507  24.414  23.573  1.00  0.00     0.031 C 
BRANCH   7   8
ATOM      8  C   UNL A   1      35.193  23.674  24.744  1.00  0.00     0.124 C 
BRANCH   8   9
ATOM      9  N   UNL A   1      35.422  22.225  24.785  1.00  0.00    -0.300 N 
ATOM     10  N   UNL A   1      33.209  20.912  24.709  1.00  0.00    -0.300 N 
ATOM     11  C   UNL A   1      33.027  19.503  24.636  1.00  0.00     0.323 C 
ATOM     12  C   UNL A   1      34.570  21.158  24.386  1.00  0.00     0.231 C 
ATOM     13  O   UNL A   1      31.949  18.930  24.638  1.00  0.00    -0.248 OA
ATOM     14  N   UNL A   1      34.322  18.929  24.687  1.00  0.00    -0.300 N 
ATOM     15  C   UNL A   1      35.175  19.975  25.137  1.00  0.00     0.228 C 
ATOM     16  N   UNL A   1      36.551  20.216  25.018  1.00  0.00    -0.314 N 
ATOM     17  C   UNL A   1      36.692  21.632  25.065  1.00  0.00     0.320 C 
ATOM     18  H   UNL A   1      37.267  19.548  24.920  1.00  0.00     0.167 HD
ATOM     19  O   UNL A   1      37.721  22.212  25.359  1.00  0.00    -0.249 OA
BRANCH  10  20
ATOM     20  C   UNL A   1      32.472  21.646  25.679  1.00  0.00     0.120 C 
ATOM     21  C   UNL A   1      31.540  22.676  25.063  1.00  0.00     0.027 C 
ENDBRANCH  10  20
BRANCH  14  22
ATOM     22  C   UNL A   1      34.662  17.551  24.437  1.00  0.00     0.120 C 
ATOM     23  C   UNL A   1      34.109  16.981  23.138  1.00  0.00     0.027 C 
ENDBRANCH  14  22
ENDBRANCH   8   9
ENDBRANCH   7   8
ENDBRANCH   6   7
ENDBRANCH   3   6
ENDBRANCH   1   2
BRANCH   1  24
ATOM     24  C   UNL A   1      31.740  29.719  25.151  1.00  0.00     0.023 C 
BRANCH  24  25
ATOM     25  C   UNL A   1      33.189  29.615  25.642  1.00  0.00     0.023 C 
BRANCH  25  26
ATOM     26  C   UNL A   1      33.432  29.473  27.143  1.00  0.00     0.116 C 
BRANCH  26  27
ATOM     27  N   UNL A   1      33.639  30.717  27.881  1.00  0.00    -0.352 N 
ATOM     28  C   UNL A   1      34.801  31.133  28.516  1.00  0.00     0.251 C 
ATOM     29  H   UNL A   1      32.868  31.328  27.934  1.00  0.00     0.163 HD
ATOM     30  O   UNL A   1      34.863  32.206  29.103  1.00  0.00    -0.269 OA
BRANCH  28  31
ATOM     31  C   UNL A   1      35.957  30.207  28.523  1.00  0.00     0.039 A 
ATOM     32  C   UNL A   1      36.822  30.193  27.428  1.00  0.00     0.014 A 
ATOM     33  C   UNL A   1      36.290  29.541  29.703  1.00  0.00     0.014 A 
ATOM     34  C   UNL A   1      38.092  29.624  27.566  1.00  0.00     0.010 A 
ATOM     35  C   UNL A   1      37.590  29.076  29.870  1.00  0.00     0.010 A 
ATOM     36  C   UNL A   1      38.514  29.131  28.812  1.00  0.00    -0.014 A 
BRANCH  36  37
ATOM     37  C   UNL A   1      39.918  28.690  29.043  1.00  0.00     0.031 A 
ATOM     38  C   UNL A   1      40.912  29.641  29.655  1.00  0.00     0.074 A 
ATOM     39  C   UNL A   1      40.330  27.473  28.626  1.00  0.00     0.049 A 
ATOM     40  N   UNL A   1      42.193  29.476  29.867  1.00  0.00    -0.248 NA
ATOM     41  C   UNL A   1      40.406  30.967  30.046  1.00  0.00     0.031 C 
ATOM     42  C   UNL A   1      39.494  26.470  27.959  1.00  0.00     0.029 A 
ATOM     43  N   UNL A   1      41.565  26.872  28.699  1.00  0.00    -0.354 N 
ATOM     44  C   UNL A   1      42.645  30.682  30.387  1.00  0.00     0.074 A 
ATOM     45  C   UNL A   1      41.520  31.589  30.395  1.00  0.00     0.031 C 
ATOM     46  C   UNL A   1      40.228  25.369  27.724  1.00  0.00     0.029 A 
ATOM     47  C   UNL A   1      41.594  25.597  28.183  1.00  0.00     0.049 A 
ATOM     48  H   UNL A   1      42.355  27.314  29.084  1.00  0.00     0.167 HD
ATOM     49  C   UNL A   1      43.877  31.003  30.849  1.00  0.00     0.031 A 
ATOM     50  C   UNL A   1      42.605  24.711  28.091  1.00  0.00     0.031 A 
ATOM     51  C   UNL A   1      44.992  30.097  30.871  1.00  0.00     0.049 A 
ATOM     52  C   UNL A   1      43.965  25.087  28.617  1.00  0.00     0.074 A 
ATOM     53  C   UNL A   1      46.260  30.306  31.384  1.00  0.00     0.029 A 
ATOM     54  N   UNL A   1      44.971  28.810  30.359  1.00  0.00    -0.354 N 
ATOM     55  N   UNL A   1      44.352  26.204  29.182  1.00  0.00    -0.248 NA
ATOM     56  C   UNL A   1      45.023  24.073  28.503  1.00  0.00     0.031 C 
ATOM     57  C   UNL A   1      47.023  29.160  31.138  1.00  0.00     0.029 A 
ATOM     58  C   UNL A   1      46.211  28.219  30.524  1.00  0.00     0.049 A 
ATOM     59  H   UNL A   1      44.191  28.380  29.941  1.00  0.00     0.167 HD
ATOM     60  C   UNL A   1      45.686  26.017  29.518  1.00  0.00     0.074 A 
ATOM     61  C   UNL A   1      46.038  24.673  29.107  1.00  0.00     0.031 C 
ATOM     62  C   UNL A   1      46.545  26.880  30.114  1.00  0.00     0.031 A 
BRANCH  49  63
ATOM     63  C   UNL A   1      44.072  32.399  31.372  1.00  0.00    -0.014 A 
ATOM     64  C   UNL A   1      44.738  33.374  30.610  1.00  0.00     0.009 A 
ATOM     65  C   UNL A   1      43.571  32.748  32.635  1.00  0.00     0.009 A 
ATOM     66  C   UNL A   1      44.939  34.656  31.124  1.00  0.00     0.001 A 
ATOM     67  C   UNL A   1      43.745  34.041  33.131  1.00  0.00     0.001 A 
ATOM     68  C   UNL A   1      44.439  34.990  32.381  1.00  0.00     0.000 A 
ENDBRANCH  49  63
BRANCH  50  69
ATOM     69  C   UNL A   1      42.374  23.363  27.501  1.00  0.00    -0.014 A 
ATOM     70  C   UNL A   1      41.867  22.319  28.292  1.00  0.00     0.009 A 
ATOM     71  C   UNL A   1      42.681  23.105  26.157  1.00  0.00     0.009 A 
ATOM     72  C   UNL A   1      41.700  21.039  27.757  1.00  0.00     0.001 A 
ATOM     73  C   UNL A   1      42.485  21.830  25.616  1.00  0.00     0.001 A 
ATOM     74  C   UNL A   1      42.005  20.796  26.418  1.00  0.00     0.000 A 
ENDBRANCH  50  69
BRANCH  62  75
ATOM     75  C   UNL A   1      47.936  26.388  30.397  1.00  0.00    -0.014 A 
ATOM     76  C   UNL A   1      48.265  25.795  31.626  1.00  0.00     0.009 A 
ATOM     77  C   UNL A   1      48.917  26.472  29.397  1.00  0.00     0.009 A 
ATOM     78  C   UNL A   1      49.560  25.324  31.857  1.00  0.00     0.001 A 
ATOM     79  C   UNL A   1      50.202  25.973  29.619  1.00  0.00     0.001 A 
ATOM     80  C   UNL A   1      50.524  25.409  30.852  1.00  0.00     0.000 A 
ENDBRANCH  62  75
ENDBRANCH  36  37
ENDBRANCH  28  31
ENDBRANCH  26  27
ENDBRANCH  25  26
ENDBRANCH  24  25
ENDBRANCH   1  24
TORSDOF 16
ENDMDL
