MODEL 1
REMARK VINA RESULT:     -11.5      0.000      0.000
REMARK SMILES C[C@@H](C(=O)NCCCCNC(=O)c1ccc(-c2c3nc(c(-c4ccccc4)c4ccc([nH]4)c(-c4ccccc4)c4nc(c(-c5ccccc5)c5ccc2[nH]5)C=C4)C=C3)cc1)c1cc(/C=C/S(C)(=O)=O)cc(C(=O)c2ccccc2)c1
REMARK SMILES IDX 7 1 6 2 5 3 3 4 4 5 2 7 1 8 61 9 62 10 80 11 63 12 71 13
REMARK SMILES IDX 70 14 64 15 65 16 66 17 67 18 68 19 69 20 72 21 73 22 74 23
REMARK SMILES IDX 75 24 79 25 76 26 78 27 77 28 8 29 9 30 10 31 11 32 12 34
REMARK SMILES IDX 13 35 14 36 60 37 15 38 59 39 16 40 17 41 18 42 53 43 19 44
REMARK SMILES IDX 58 45 52 46 54 47 20 48 57 49 51 50 50 51 21 53 43 54 28 55
REMARK SMILES IDX 42 56 29 57 32 58 41 59 55 60 30 61 31 62 40 64 56 65 33 66
REMARK SMILES IDX 22 67 23 68 27 69 24 70 26 71 25 72 44 73 45 74 49 75 46 76
REMARK SMILES IDX 48 77 47 78 34 79 35 80 39 81 36 82 38 83 37 84
REMARK H PARENT 5 6 10 33 54 52 32 63
REMARK Flexibility Score: inf
ROOT
ATOM      1  C   UNL A   1      34.037  33.194  28.383  1.00  0.00     0.023 C 
ENDROOT
BRANCH   1   2
ATOM      2  C   UNL A   1      33.460  31.991  27.634  1.00  0.00     0.116 C 
BRANCH   2   3
ATOM      3  N   UNL A   1      34.406  30.899  27.571  1.00  0.00    -0.356 N 
ATOM      4  C   UNL A   1      34.230  29.585  27.260  1.00  0.00     0.227 C 
ATOM      5  O   UNL A   1      35.265  28.917  27.199  1.00  0.00    -0.274 OA
ATOM      6  H   UNL A   1      35.333  31.147  27.792  1.00  0.00     0.163 HD
BRANCH   4   7
ATOM      7  C   UNL A   1      32.826  29.031  26.947  1.00  0.00     0.105 C 
ATOM      8  C   UNL A   1      32.558  27.657  27.577  1.00  0.00     0.023 C 
BRANCH   7   9
ATOM      9  C   UNL A   1      32.494  28.865  25.461  1.00  0.00    -0.035 A 
ATOM     10  C   UNL A   1      31.446  29.620  24.909  1.00  0.00     0.012 A 
ATOM     11  C   UNL A   1      33.061  27.852  24.682  1.00  0.00     0.016 A 
ATOM     12  C   UNL A   1      30.930  29.345  23.632  1.00  0.00    -0.024 A 
ATOM     13  C   UNL A   1      32.592  27.571  23.396  1.00  0.00     0.023 A 
ATOM     14  C   UNL A   1      31.530  28.324  22.875  1.00  0.00     0.020 A 
BRANCH  12  15
ATOM     15  C   UNL A   1      29.744  30.041  23.091  1.00  0.00     0.020 C 
ATOM     16  C   UNL A   1      29.489  31.351  23.247  1.00  0.00     0.106 C 
BRANCH  16  17
ATOM     17  S   UNL A   1      28.011  32.044  22.655  1.00  0.00     0.168 S 
ATOM     18  C   UNL A   1      27.854  31.222  21.086  1.00  0.00     0.163 C 
ATOM     19  O   UNL A   1      26.924  31.571  23.492  1.00  0.00    -0.225 OA
ATOM     20  O   UNL A   1      28.183  33.456  22.384  1.00  0.00    -0.225 OA
ENDBRANCH  16  17
ENDBRANCH  12  15
BRANCH  13  21
ATOM     21  C   UNL A   1      33.200  26.479  22.575  1.00  0.00     0.193 C 
ATOM     22  O   UNL A   1      33.941  26.748  21.635  1.00  0.00    -0.289 OA
BRANCH  21  23
ATOM     23  C   UNL A   1      32.955  25.051  22.904  1.00  0.00     0.022 A 
ATOM     24  C   UNL A   1      34.051  24.235  23.197  1.00  0.00     0.012 A 
ATOM     25  C   UNL A   1      31.655  24.532  22.962  1.00  0.00     0.012 A 
ATOM     26  C   UNL A   1      33.842  22.915  23.603  1.00  0.00     0.001 A 
ATOM     27  C   UNL A   1      31.451  23.215  23.378  1.00  0.00     0.001 A 
ATOM     28  C   UNL A   1      32.544  22.411  23.705  1.00  0.00     0.000 A 
ENDBRANCH  21  23
ENDBRANCH  13  21
ENDBRANCH   7   9
ENDBRANCH   4   7
ENDBRANCH   2   3
ENDBRANCH   1   2
BRANCH   1  29
ATOM     29  C   UNL A   1      33.085  34.386  28.518  1.00  0.00     0.023 C 
BRANCH  29  30
ATOM     30  C   UNL A   1      33.634  35.568  29.307  1.00  0.00     0.116 C 
BRANCH  30  31
ATOM     31  N   UNL A   1      32.728  36.012  30.354  1.00  0.00    -0.352 N 
ATOM     32  C   UNL A   1      32.771  35.765  31.704  1.00  0.00     0.251 C 
ATOM     33  H   UNL A   1      31.976  36.570  30.051  1.00  0.00     0.163 HD
ATOM     34  O   UNL A   1      31.834  36.101  32.421  1.00  0.00    -0.269 OA
BRANCH  32  35
ATOM     35  C   UNL A   1      33.931  35.058  32.283  1.00  0.00     0.039 A 
ATOM     36  C   UNL A   1      33.794  33.709  32.618  1.00  0.00     0.014 A 
ATOM     37  C   UNL A   1      35.155  35.709  32.462  1.00  0.00     0.014 A 
ATOM     38  C   UNL A   1      34.908  32.991  33.053  1.00  0.00     0.010 A 
ATOM     39  C   UNL A   1      36.281  34.975  32.827  1.00  0.00     0.010 A 
ATOM     40  C   UNL A   1      36.171  33.605  33.113  1.00  0.00    -0.014 A 
BRANCH  40  41
ATOM     41  C   UNL A   1      37.391  32.814  33.413  1.00  0.00     0.031 A 
ATOM     42  C   UNL A   1      38.168  33.051  34.678  1.00  0.00     0.074 A 
ATOM     43  C   UNL A   1      37.835  31.922  32.505  1.00  0.00     0.049 A 
ATOM     44  N   UNL A   1      39.279  32.486  35.077  1.00  0.00    -0.248 NA
ATOM     45  C   UNL A   1      37.640  34.064  35.605  1.00  0.00     0.031 C 
ATOM     46  C   UNL A   1      37.195  31.629  31.219  1.00  0.00     0.029 A 
ATOM     47  N   UNL A   1      38.935  31.100  32.519  1.00  0.00    -0.354 N 
ATOM     48  C   UNL A   1      39.590  33.081  36.294  1.00  0.00     0.074 A 
ATOM     49  C   UNL A   1      38.573  34.080  36.547  1.00  0.00     0.031 C 
ATOM     50  C   UNL A   1      37.897  30.678  30.583  1.00  0.00     0.029 A 
ATOM     51  C   UNL A   1      39.061  30.328  31.388  1.00  0.00     0.049 A 
ATOM     52  H   UNL A   1      39.572  31.066  33.269  1.00  0.00     0.167 HD
ATOM     53  C   UNL A   1      40.618  32.809  37.130  1.00  0.00     0.031 A 
ATOM     54  C   UNL A   1      40.016  29.448  31.031  1.00  0.00     0.031 A 
ATOM     55  C   UNL A   1      41.627  31.812  36.879  1.00  0.00     0.049 A 
ATOM     56  C   UNL A   1      41.166  29.193  31.967  1.00  0.00     0.074 A 
ATOM     57  C   UNL A   1      42.673  31.424  37.698  1.00  0.00     0.029 A 
ATOM     58  N   UNL A   1      41.723  31.057  35.722  1.00  0.00    -0.354 N 
ATOM     59  N   UNL A   1      41.394  29.703  33.152  1.00  0.00    -0.248 NA
ATOM     60  C   UNL A   1      42.184  28.235  31.516  1.00  0.00     0.031 C 
ATOM     61  C   UNL A   1      43.440  30.481  37.010  1.00  0.00     0.029 A 
ATOM     62  C   UNL A   1      42.833  30.232  35.789  1.00  0.00     0.049 A 
ATOM     63  H   UNL A   1      41.095  31.100  34.965  1.00  0.00     0.167 HD
ATOM     64  C   UNL A   1      42.568  29.110  33.599  1.00  0.00     0.074 A 
ATOM     65  C   UNL A   1      42.988  28.183  32.569  1.00  0.00     0.031 C 
ATOM     66  C   UNL A   1      43.242  29.317  34.756  1.00  0.00     0.031 A 
BRANCH  53  67
ATOM     67  C   UNL A   1      40.720  33.605  38.402  1.00  0.00    -0.014 A 
ATOM     68  C   UNL A   1      40.123  33.159  39.590  1.00  0.00     0.009 A 
ATOM     69  C   UNL A   1      41.490  34.779  38.428  1.00  0.00     0.009 A 
ATOM     70  C   UNL A   1      40.277  33.882  40.775  1.00  0.00     0.001 A 
ATOM     71  C   UNL A   1      41.666  35.485  39.619  1.00  0.00     0.001 A 
ATOM     72  C   UNL A   1      41.054  35.040  40.790  1.00  0.00     0.000 A 
ENDBRANCH  53  67
BRANCH  54  73
ATOM     73  C   UNL A   1      39.944  28.750  29.719  1.00  0.00    -0.014 A 
ATOM     74  C   UNL A   1      39.372  27.472  29.618  1.00  0.00     0.009 A 
ATOM     75  C   UNL A   1      40.485  29.342  28.567  1.00  0.00     0.009 A 
ATOM     76  C   UNL A   1      39.378  26.787  28.401  1.00  0.00     0.001 A 
ATOM     77  C   UNL A   1      40.458  28.670  27.344  1.00  0.00     0.001 A 
ATOM     78  C   UNL A   1      39.918  27.387  27.265  1.00  0.00     0.000 A 
ENDBRANCH  54  73
BRANCH  66  79
ATOM     79  C   UNL A   1      44.488  28.505  34.981  1.00  0.00    -0.014 A 
ATOM     80  C   UNL A   1      45.750  28.989  34.606  1.00  0.00     0.009 A 
ATOM     81  C   UNL A   1      44.398  27.254  35.609  1.00  0.00     0.009 A 
ATOM     82  C   UNL A   1      46.894  28.218  34.821  1.00  0.00     0.001 A 
ATOM     83  C   UNL A   1      45.547  26.500  35.853  1.00  0.00     0.001 A 
ATOM     84  C   UNL A   1      46.792  26.977  35.450  1.00  0.00     0.000 A 
ENDBRANCH  66  79
ENDBRANCH  40  41
ENDBRANCH  32  35
ENDBRANCH  30  31
ENDBRANCH  29  30
ENDBRANCH   1  29
TORSDOF 16
ENDMDL
MODEL 2
REMARK VINA RESULT:     -11.5      4.791     11.532
REMARK SMILES C[C@@H](C(=O)NCCCCNC(=O)c1ccc(-c2c3nc(c(-c4ccccc4)c4ccc([nH]4)c(-c4ccccc4)c4nc(c(-c5ccccc5)c5ccc2[nH]5)C=C4)C=C3)cc1)c1cc(/C=C/S(C)(=O)=O)cc(C(=O)c2ccccc2)c1
REMARK SMILES IDX 7 1 6 2 5 3 3 4 4 5 2 7 1 8 61 9 62 10 80 11 63 12 71 13
REMARK SMILES IDX 70 14 64 15 65 16 66 17 67 18 68 19 69 20 72 21 73 22 74 23
REMARK SMILES IDX 75 24 79 25 76 26 78 27 77 28 8 29 9 30 10 31 11 32 12 34
REMARK SMILES IDX 13 35 14 36 60 37 15 38 59 39 16 40 17 41 18 42 53 43 19 44
REMARK SMILES IDX 58 45 52 46 54 47 20 48 57 49 51 50 50 51 21 53 43 54 28 55
REMARK SMILES IDX 42 56 29 57 32 58 41 59 55 60 30 61 31 62 40 64 56 65 33 66
REMARK SMILES IDX 22 67 23 68 27 69 24 70 26 71 25 72 44 73 45 74 49 75 46 76
REMARK SMILES IDX 48 77 47 78 34 79 35 80 39 81 36 82 38 83 37 84
REMARK H PARENT 5 6 10 33 54 52 32 63
REMARK Flexibility Score: inf
ROOT
ATOM      1  C   UNL A   1      33.890  36.464  32.740  1.00  0.00     0.023 C 
ENDROOT
BRANCH   1   2
ATOM      2  C   UNL A   1      34.793  35.242  32.922  1.00  0.00     0.116 C 
BRANCH   2   3
ATOM      3  N   UNL A   1      34.807  34.791  34.296  1.00  0.00    -0.356 N 
ATOM      4  C   UNL A   1      35.690  34.000  34.965  1.00  0.00     0.227 C 
ATOM      5  O   UNL A   1      35.474  33.875  36.172  1.00  0.00    -0.274 OA
ATOM      6  H   UNL A   1      34.049  35.107  34.838  1.00  0.00     0.163 HD
BRANCH   4   7
ATOM      7  C   UNL A   1      36.899  33.380  34.236  1.00  0.00     0.105 C 
ATOM      8  C   UNL A   1      36.568  32.069  33.510  1.00  0.00     0.023 C 
BRANCH   7   9
ATOM      9  C   UNL A   1      38.111  33.057  35.117  1.00  0.00    -0.035 A 
ATOM     10  C   UNL A   1      39.006  32.056  34.705  1.00  0.00     0.012 A 
ATOM     11  C   UNL A   1      38.251  33.580  36.406  1.00  0.00     0.016 A 
ATOM     12  C   UNL A   1      39.988  31.542  35.565  1.00  0.00    -0.024 A 
ATOM     13  C   UNL A   1      39.237  33.112  37.280  1.00  0.00     0.023 A 
ATOM     14  C   UNL A   1      40.104  32.097  36.852  1.00  0.00     0.020 A 
BRANCH  12  15
ATOM     15  C   UNL A   1      40.849  30.401  35.192  1.00  0.00     0.020 C 
ATOM     16  C   UNL A   1      41.134  29.363  35.996  1.00  0.00     0.106 C 
BRANCH  16  17
ATOM     17  S   UNL A   1      42.242  28.126  35.490  1.00  0.00     0.168 S 
ATOM     18  C   UNL A   1      41.758  27.909  33.792  1.00  0.00     0.163 C 
ATOM     19  O   UNL A   1      43.578  28.693  35.480  1.00  0.00    -0.225 OA
ATOM     20  O   UNL A   1      41.966  26.881  36.177  1.00  0.00    -0.225 OA
ENDBRANCH  16  17
ENDBRANCH  12  15
BRANCH  13  21
ATOM     21  C   UNL A   1      39.373  33.672  38.660  1.00  0.00     0.193 C 
ATOM     22  O   UNL A   1      38.939  33.053  39.626  1.00  0.00    -0.289 OA
BRANCH  21  23
ATOM     23  C   UNL A   1      40.072  34.961  38.894  1.00  0.00     0.022 A 
ATOM     24  C   UNL A   1      41.450  34.943  39.124  1.00  0.00     0.012 A 
ATOM     25  C   UNL A   1      39.382  36.180  38.849  1.00  0.00     0.012 A 
ATOM     26  C   UNL A   1      42.147  36.147  39.253  1.00  0.00     0.001 A 
ATOM     27  C   UNL A   1      40.084  37.381  38.968  1.00  0.00     0.001 A 
ATOM     28  C   UNL A   1      41.467  37.363  39.162  1.00  0.00     0.000 A 
ENDBRANCH  21  23
ENDBRANCH  13  21
ENDBRANCH   7   9
ENDBRANCH   4   7
ENDBRANCH   2   3
ENDBRANCH   1   2
BRANCH   1  29
ATOM     29  C   UNL A   1      32.913  36.372  31.564  1.00  0.00     0.023 C 
BRANCH  29  30
ATOM     30  C   UNL A   1      33.561  36.216  30.194  1.00  0.00     0.116 C 
BRANCH  30  31
ATOM     31  N   UNL A   1      32.723  35.483  29.259  1.00  0.00    -0.352 N 
ATOM     32  C   UNL A   1      33.010  34.350  28.538  1.00  0.00     0.251 C 
ATOM     33  H   UNL A   1      31.820  35.851  29.123  1.00  0.00     0.163 HD
ATOM     34  O   UNL A   1      32.228  33.952  27.680  1.00  0.00    -0.269 OA
BRANCH  32  35
ATOM     35  C   UNL A   1      34.281  33.635  28.771  1.00  0.00     0.039 A 
ATOM     36  C   UNL A   1      35.363  33.902  27.929  1.00  0.00     0.014 A 
ATOM     37  C   UNL A   1      34.417  32.735  29.832  1.00  0.00     0.014 A 
ATOM     38  C   UNL A   1      36.605  33.330  28.203  1.00  0.00     0.010 A 
ATOM     39  C   UNL A   1      35.673  32.222  30.146  1.00  0.00     0.010 A 
ATOM     40  C   UNL A   1      36.783  32.526  29.343  1.00  0.00    -0.014 A 
BRANCH  40  41
ATOM     41  C   UNL A   1      38.132  32.049  29.737  1.00  0.00     0.031 A 
ATOM     42  C   UNL A   1      38.639  30.711  29.275  1.00  0.00     0.074 A 
ATOM     43  C   UNL A   1      38.877  32.801  30.572  1.00  0.00     0.049 A 
ATOM     44  N   UNL A   1      39.770  30.118  29.562  1.00  0.00    -0.248 NA
ATOM     45  C   UNL A   1      37.756  29.932  28.393  1.00  0.00     0.031 C 
ATOM     46  C   UNL A   1      38.482  34.100  31.126  1.00  0.00     0.029 A 
ATOM     47  N   UNL A   1      40.122  32.580  31.109  1.00  0.00    -0.354 N 
ATOM     48  C   UNL A   1      39.731  28.893  28.906  1.00  0.00     0.074 A 
ATOM     49  C   UNL A   1      38.448  28.811  28.241  1.00  0.00     0.031 C 
ATOM     50  C   UNL A   1      39.472  34.570  31.900  1.00  0.00     0.029 A 
ATOM     51  C   UNL A   1      40.551  33.589  31.939  1.00  0.00     0.049 A 
ATOM     52  H   UNL A   1      40.656  31.776  30.917  1.00  0.00     0.167 HD
ATOM     53  C   UNL A   1      40.683  27.933  28.850  1.00  0.00     0.031 A 
ATOM     54  C   UNL A   1      41.679  33.705  32.665  1.00  0.00     0.031 A 
ATOM     55  C   UNL A   1      41.961  28.018  29.508  1.00  0.00     0.049 A 
ATOM     56  C   UNL A   1      42.704  32.604  32.609  1.00  0.00     0.074 A 
ATOM     57  C   UNL A   1      43.014  27.120  29.458  1.00  0.00     0.029 A 
ATOM     58  N   UNL A   1      42.354  29.050  30.343  1.00  0.00    -0.354 N 
ATOM     59  N   UNL A   1      42.685  31.493  31.914  1.00  0.00    -0.248 NA
ATOM     60  C   UNL A   1      43.907  32.779  33.434  1.00  0.00     0.031 C 
ATOM     61  C   UNL A   1      44.019  27.578  30.314  1.00  0.00     0.029 A 
ATOM     62  C   UNL A   1      43.620  28.794  30.845  1.00  0.00     0.049 A 
ATOM     63  H   UNL A   1      41.816  29.848  30.548  1.00  0.00     0.167 HD
ATOM     64  C   UNL A   1      43.883  30.850  32.198  1.00  0.00     0.074 A 
ATOM     65  C   UNL A   1      44.615  31.707  33.107  1.00  0.00     0.031 C 
ATOM     66  C   UNL A   1      44.335  29.653  31.751  1.00  0.00     0.031 A 
BRANCH  53  67
ATOM     67  C   UNL A   1      40.384  26.692  28.055  1.00  0.00    -0.014 A 
ATOM     68  C   UNL A   1      39.601  25.658  28.587  1.00  0.00     0.009 A 
ATOM     69  C   UNL A   1      40.829  26.593  26.727  1.00  0.00     0.009 A 
ATOM     70  C   UNL A   1      39.286  24.538  27.813  1.00  0.00     0.001 A 
ATOM     71  C   UNL A   1      40.489  25.487  25.946  1.00  0.00     0.001 A 
ATOM     72  C   UNL A   1      39.724  24.458  26.492  1.00  0.00     0.000 A 
ENDBRANCH  53  67
BRANCH  54  73
ATOM     73  C   UNL A   1      41.903  34.898  33.525  1.00  0.00    -0.014 A 
ATOM     74  C   UNL A   1      42.755  35.933  33.107  1.00  0.00     0.009 A 
ATOM     75  C   UNL A   1      41.296  34.990  34.787  1.00  0.00     0.009 A 
ATOM     76  C   UNL A   1      43.025  37.012  33.951  1.00  0.00     0.001 A 
ATOM     77  C   UNL A   1      41.539  36.088  35.614  1.00  0.00     0.001 A 
ATOM     78  C   UNL A   1      42.414  37.091  35.202  1.00  0.00     0.000 A 
ENDBRANCH  54  73
BRANCH  66  79
ATOM     79  C   UNL A   1      45.697  29.216  32.217  1.00  0.00    -0.014 A 
ATOM     80  C   UNL A   1      45.849  28.354  33.313  1.00  0.00     0.009 A 
ATOM     81  C   UNL A   1      46.839  29.645  31.524  1.00  0.00     0.009 A 
ATOM     82  C   UNL A   1      47.123  27.962  33.731  1.00  0.00     0.001 A 
ATOM     83  C   UNL A   1      48.109  29.225  31.923  1.00  0.00     0.001 A 
ATOM     84  C   UNL A   1      48.250  28.393  33.032  1.00  0.00     0.000 A 
ENDBRANCH  66  79
ENDBRANCH  40  41
ENDBRANCH  32  35
ENDBRANCH  30  31
ENDBRANCH  29  30
ENDBRANCH   1  29
TORSDOF 16
ENDMDL
MODEL 3
REMARK VINA RESULT:     -11.4      7.018     12.314
REMARK SMILES C[C@@H](C(=O)NCCCCNC(=O)c1ccc(-c2c3nc(c(-c4ccccc4)c4ccc([nH]4)c(-c4ccccc4)c4nc(c(-c5ccccc5)c5ccc2[nH]5)C=C4)C=C3)cc1)c1cc(/C=C/S(C)(=O)=O)cc(C(=O)c2ccccc2)c1
REMARK SMILES IDX 7 1 6 2 5 3 3 4 4 5 2 7 1 8 61 9 62 10 80 11 63 12 71 13
REMARK SMILES IDX 70 14 64 15 65 16 66 17 67 18 68 19 69 20 72 21 73 22 74 23
REMARK SMILES IDX 75 24 79 25 76 26 78 27 77 28 8 29 9 30 10 31 11 32 12 34
REMARK SMILES IDX 13 35 14 36 60 37 15 38 59 39 16 40 17 41 18 42 53 43 19 44
REMARK SMILES IDX 58 45 52 46 54 47 20 48 57 49 51 50 50 51 21 53 43 54 28 55
REMARK SMILES IDX 42 56 29 57 32 58 41 59 55 60 30 61 31 62 40 64 56 65 33 66
REMARK SMILES IDX 22 67 23 68 27 69 24 70 26 71 25 72 44 73 45 74 49 75 46 76
REMARK SMILES IDX 48 77 47 78 34 79 35 80 39 81 36 82 38 83 37 84
REMARK H PARENT 5 6 10 33 54 52 32 63
REMARK Flexibility Score: inf
ROOT
ATOM      1  C   UNL A   1      40.859  21.011  26.159  1.00  0.00     0.023 C 
ENDROOT
BRANCH   1   2
ATOM      2  C   UNL A   1      39.337  21.154  26.084  1.00  0.00     0.116 C 
BRANCH   2   3
ATOM      3  N   UNL A   1      38.919  22.520  26.309  1.00  0.00    -0.356 N 
ATOM      4  C   UNL A   1      37.894  23.238  25.771  1.00  0.00     0.227 C 
ATOM      5  O   UNL A   1      37.737  24.365  26.246  1.00  0.00    -0.274 OA
ATOM      6  H   UNL A   1      39.468  23.014  26.960  1.00  0.00     0.163 HD
BRANCH   4   7
ATOM      7  C   UNL A   1      36.980  22.620  24.695  1.00  0.00     0.105 C 
ATOM      8  C   UNL A   1      36.571  23.613  23.599  1.00  0.00     0.023 C 
BRANCH   7   9
ATOM      9  C   UNL A   1      35.667  22.018  25.205  1.00  0.00    -0.035 A 
ATOM     10  C   UNL A   1      35.411  20.655  24.985  1.00  0.00     0.012 A 
ATOM     11  C   UNL A   1      34.631  22.813  25.704  1.00  0.00     0.016 A 
ATOM     12  C   UNL A   1      34.142  20.096  25.201  1.00  0.00    -0.024 A 
ATOM     13  C   UNL A   1      33.363  22.283  25.960  1.00  0.00     0.023 A 
ATOM     14  C   UNL A   1      33.127  20.924  25.711  1.00  0.00     0.020 A 
BRANCH  12  15
ATOM     15  C   UNL A   1      33.822  18.697  24.850  1.00  0.00     0.020 C 
ATOM     16  C   UNL A   1      34.678  17.667  24.957  1.00  0.00     0.106 C 
BRANCH  16  17
ATOM     17  S   UNL A   1      34.228  16.079  24.418  1.00  0.00     0.168 S 
ATOM     18  C   UNL A   1      32.621  15.910  25.160  1.00  0.00     0.163 C 
ATOM     19  O   UNL A   1      34.029  16.130  22.982  1.00  0.00    -0.225 OA
ATOM     20  O   UNL A   1      35.084  15.076  25.017  1.00  0.00    -0.225 OA
ENDBRANCH  16  17
ENDBRANCH  12  15
BRANCH  13  21
ATOM     21  C   UNL A   1      32.259  23.144  26.485  1.00  0.00     0.193 C 
ATOM     22  O   UNL A   1      31.740  22.896  27.569  1.00  0.00    -0.289 OA
BRANCH  21  23
ATOM     23  C   UNL A   1      31.799  24.339  25.732  1.00  0.00     0.022 A 
ATOM     24  C   UNL A   1      30.910  24.159  24.669  1.00  0.00     0.012 A 
ATOM     25  C   UNL A   1      32.210  25.629  26.095  1.00  0.00     0.012 A 
ATOM     26  C   UNL A   1      30.388  25.271  24.006  1.00  0.00     0.001 A 
ATOM     27  C   UNL A   1      31.678  26.738  25.435  1.00  0.00     0.001 A 
ATOM     28  C   UNL A   1      30.762  26.558  24.397  1.00  0.00     0.000 A 
ENDBRANCH  21  23
ENDBRANCH  13  21
ENDBRANCH   7   9
ENDBRANCH   4   7
ENDBRANCH   2   3
ENDBRANCH   1   2
BRANCH   1  29
ATOM     29  C   UNL A   1      41.377  19.575  26.042  1.00  0.00     0.023 C 
BRANCH  29  30
ATOM     30  C   UNL A   1      42.877  19.408  26.255  1.00  0.00     0.116 C 
BRANCH  30  31
ATOM     31  N   UNL A   1      43.572  18.990  25.049  1.00  0.00    -0.352 N 
ATOM     32  C   UNL A   1      44.400  19.715  24.227  1.00  0.00     0.251 C 
ATOM     33  H   UNL A   1      43.428  18.053  24.782  1.00  0.00     0.163 HD
ATOM     34  O   UNL A   1      44.783  19.237  23.164  1.00  0.00    -0.269 OA
BRANCH  32  35
ATOM     35  C   UNL A   1      44.794  21.086  24.609  1.00  0.00     0.039 A 
ATOM     36  C   UNL A   1      44.477  22.138  23.748  1.00  0.00     0.014 A 
ATOM     37  C   UNL A   1      45.441  21.336  25.822  1.00  0.00     0.014 A 
ATOM     38  C   UNL A   1      44.733  23.451  24.143  1.00  0.00     0.010 A 
ATOM     39  C   UNL A   1      45.630  22.650  26.246  1.00  0.00     0.010 A 
ATOM     40  C   UNL A   1      45.264  23.721  25.416  1.00  0.00    -0.014 A 
BRANCH  40  41
ATOM     41  C   UNL A   1      45.385  25.114  25.913  1.00  0.00     0.031 A 
ATOM     42  C   UNL A   1      46.710  25.824  25.894  1.00  0.00     0.074 A 
ATOM     43  C   UNL A   1      44.304  25.718  26.446  1.00  0.00     0.049 A 
ATOM     44  N   UNL A   1      47.007  27.021  26.331  1.00  0.00    -0.248 NA
ATOM     45  C   UNL A   1      47.853  25.089  25.328  1.00  0.00     0.031 C 
ATOM     46  C   UNL A   1      42.969  25.122  26.562  1.00  0.00     0.029 A 
ATOM     47  N   UNL A   1      44.155  26.967  26.998  1.00  0.00    -0.354 N 
ATOM     48  C   UNL A   1      48.369  27.180  26.104  1.00  0.00     0.074 A 
ATOM     49  C   UNL A   1      48.848  25.941  25.529  1.00  0.00     0.031 C 
ATOM     50  C   UNL A   1      42.136  26.012  27.123  1.00  0.00     0.029 A 
ATOM     51  C   UNL A   1      42.882  27.222  27.451  1.00  0.00     0.049 A 
ATOM     52  H   UNL A   1      44.890  27.618  27.062  1.00  0.00     0.167 HD
ATOM     53  C   UNL A   1      49.145  28.264  26.338  1.00  0.00     0.031 A 
ATOM     54  C   UNL A   1      42.374  28.300  28.076  1.00  0.00     0.031 A 
ATOM     55  C   UNL A   1      48.666  29.498  26.906  1.00  0.00     0.049 A 
ATOM     56  C   UNL A   1      43.271  29.477  28.354  1.00  0.00     0.074 A 
ATOM     57  C   UNL A   1      49.367  30.671  27.123  1.00  0.00     0.029 A 
ATOM     58  N   UNL A   1      47.374  29.713  27.356  1.00  0.00    -0.354 N 
ATOM     59  N   UNL A   1      44.536  29.640  28.052  1.00  0.00    -0.248 NA
ATOM     60  C   UNL A   1      42.665  30.619  29.052  1.00  0.00     0.031 C 
ATOM     61  C   UNL A   1      48.516  31.576  27.765  1.00  0.00     0.029 A 
ATOM     62  C   UNL A   1      47.267  30.988  27.886  1.00  0.00     0.049 A 
ATOM     63  H   UNL A   1      46.641  29.058  27.307  1.00  0.00     0.167 HD
ATOM     64  C   UNL A   1      44.871  30.911  28.501  1.00  0.00     0.074 A 
ATOM     65  C   UNL A   1      43.669  31.484  29.071  1.00  0.00     0.031 C 
ATOM     66  C   UNL A   1      46.067  31.546  28.452  1.00  0.00     0.031 A 
BRANCH  53  67
ATOM     67  C   UNL A   1      50.605  28.172  25.990  1.00  0.00    -0.014 A 
ATOM     68  C   UNL A   1      51.077  28.551  24.725  1.00  0.00     0.009 A 
ATOM     69  C   UNL A   1      51.530  27.773  26.969  1.00  0.00     0.009 A 
ATOM     70  C   UNL A   1      52.444  28.514  24.439  1.00  0.00     0.001 A 
ATOM     71  C   UNL A   1      52.897  27.764  26.690  1.00  0.00     0.001 A 
ATOM     72  C   UNL A   1      53.353  28.127  25.423  1.00  0.00     0.000 A 
ENDBRANCH  53  67
BRANCH  54  73
ATOM     73  C   UNL A   1      40.949  28.324  28.502  1.00  0.00    -0.014 A 
ATOM     74  C   UNL A   1      39.971  28.932  27.699  1.00  0.00     0.009 A 
ATOM     75  C   UNL A   1      40.566  27.773  29.735  1.00  0.00     0.009 A 
ATOM     76  C   UNL A   1      38.648  29.022  28.140  1.00  0.00     0.001 A 
ATOM     77  C   UNL A   1      39.236  27.832  30.156  1.00  0.00     0.001 A 
ATOM     78  C   UNL A   1      38.282  28.470  29.366  1.00  0.00     0.000 A 
ENDBRANCH  54  73
BRANCH  66  79
ATOM     79  C   UNL A   1      46.126  32.943  29.004  1.00  0.00    -0.014 A 
ATOM     80  C   UNL A   1      45.925  34.061  28.180  1.00  0.00     0.009 A 
ATOM     81  C   UNL A   1      46.350  33.140  30.375  1.00  0.00     0.009 A 
ATOM     82  C   UNL A   1      45.988  35.351  28.712  1.00  0.00     0.001 A 
ATOM     83  C   UNL A   1      46.378  34.429  30.910  1.00  0.00     0.001 A 
ATOM     84  C   UNL A   1      46.207  35.533  30.077  1.00  0.00     0.000 A 
ENDBRANCH  66  79
ENDBRANCH  40  41
ENDBRANCH  32  35
ENDBRANCH  30  31
ENDBRANCH  29  30
ENDBRANCH   1  29
TORSDOF 16
ENDMDL
