MODEL 1
REMARK VINA RESULT:      -9.3      0.000      0.000
REMARK SMILES CC(C)COc1ccc(CC(=O)NCCCCNC(=O)c2ccc(-c3c4nc(c(-c5ccccc5)c5ccc([nH]5)c(-c5ccccc5)c5nc(c(-c6ccccc6)c6ccc3[nH]6)C=C5)C=C4)cc2)cc1
REMARK SMILES IDX 14 1 13 2 11 3 12 4 10 6 9 7 6 8 7 9 70 10 8 11 69 12 5 13
REMARK SMILES IDX 4 14 2 15 1 16 3 17 15 18 16 19 17 20 18 21 19 22 20 24
REMARK SMILES IDX 21 25 22 26 68 27 23 28 67 29 24 30 25 31 26 32 61 33 27 34
REMARK SMILES IDX 66 35 60 36 62 37 28 38 65 39 59 40 58 41 29 43 51 44 36 45
REMARK SMILES IDX 50 46 37 47 40 48 49 49 63 50 38 51 39 52 48 54 64 55 41 56
REMARK SMILES IDX 30 57 31 58 35 59 32 60 34 61 33 62 52 63 53 64 57 65 54 66
REMARK SMILES IDX 56 67 55 68 42 69 43 70 47 71 44 72 46 73 45 74
REMARK H PARENT 13 5 18 23 62 42 40 53
REMARK Flexibility Score: inf
ROOT
ATOM      1  C   UNL A   1      33.741  36.692  33.357  1.00  0.00     0.116 C 
ENDROOT
BRANCH   1   2
ATOM      2  N   UNL A   1      33.437  35.271  33.340  1.00  0.00    -0.356 N 
ATOM      3  C   UNL A   1      34.275  34.199  33.231  1.00  0.00     0.224 C 
ATOM      4  O   UNL A   1      33.769  33.076  33.165  1.00  0.00    -0.275 OA
ATOM      5  H   UNL A   1      32.481  35.049  33.420  1.00  0.00     0.163 HD
BRANCH   3   6
ATOM      6  C   UNL A   1      35.782  34.383  33.258  1.00  0.00     0.135 C 
BRANCH   6   7
ATOM      7  C   UNL A   1      36.532  33.433  34.159  1.00  0.00    -0.038 A 
ATOM      8  C   UNL A   1      38.229  31.885  35.779  1.00  0.00     0.119 A 
ATOM      9  C   UNL A   1      37.823  31.417  34.526  1.00  0.00     0.047 A 
ATOM     10  C   UNL A   1      37.651  33.046  36.277  1.00  0.00     0.047 A 
ATOM     11  C   UNL A   1      36.954  32.172  33.730  1.00  0.00     0.008 A 
ATOM     12  C   UNL A   1      36.833  33.831  35.466  1.00  0.00     0.008 A 
BRANCH   8  13
ATOM     13  O   UNL A   1      39.234  31.175  36.368  1.00  0.00    -0.493 OA
BRANCH  13  14
ATOM     14  C   UNL A   1      40.492  31.041  35.705  1.00  0.00     0.232 C 
BRANCH  14  15
ATOM     15  C   UNL A   1      40.988  29.582  35.570  1.00  0.00     0.020 C 
ATOM     16  C   UNL A   1      40.914  29.013  34.151  1.00  0.00     0.011 C 
ATOM     17  C   UNL A   1      42.442  29.500  36.046  1.00  0.00     0.011 C 
ENDBRANCH  14  15
ENDBRANCH  13  14
ENDBRANCH   8  13
ENDBRANCH   6   7
ENDBRANCH   3   6
ENDBRANCH   1   2
BRANCH   1  18
ATOM     18  C   UNL A   1      33.441  37.360  32.013  1.00  0.00     0.023 C 
BRANCH  18  19
ATOM     19  C   UNL A   1      32.671  36.490  31.014  1.00  0.00     0.023 C 
BRANCH  19  20
ATOM     20  C   UNL A   1      33.419  36.150  29.729  1.00  0.00     0.116 C 
BRANCH  20  21
ATOM     21  N   UNL A   1      32.636  35.331  28.816  1.00  0.00    -0.352 N 
ATOM     22  C   UNL A   1      32.972  34.151  28.195  1.00  0.00     0.251 C 
ATOM     23  H   UNL A   1      31.736  35.672  28.613  1.00  0.00     0.163 HD
ATOM     24  O   UNL A   1      32.229  33.666  27.353  1.00  0.00    -0.269 OA
BRANCH  22  25
ATOM     25  C   UNL A   1      34.254  33.483  28.519  1.00  0.00     0.039 A 
ATOM     26  C   UNL A   1      35.377  33.774  27.741  1.00  0.00     0.014 A 
ATOM     27  C   UNL A   1      34.354  32.590  29.589  1.00  0.00     0.014 A 
ATOM     28  C   UNL A   1      36.619  33.235  28.086  1.00  0.00     0.010 A 
ATOM     29  C   UNL A   1      35.604  32.109  29.973  1.00  0.00     0.010 A 
ATOM     30  C   UNL A   1      36.751  32.437  29.234  1.00  0.00    -0.014 A 
BRANCH  30  31
ATOM     31  C   UNL A   1      38.083  31.972  29.701  1.00  0.00     0.031 A 
ATOM     32  C   UNL A   1      38.627  30.641  29.263  1.00  0.00     0.074 A 
ATOM     33  C   UNL A   1      38.771  32.720  30.586  1.00  0.00     0.049 A 
ATOM     34  N   UNL A   1      39.731  30.040  29.628  1.00  0.00    -0.248 NA
ATOM     35  C   UNL A   1      37.815  29.876  28.304  1.00  0.00     0.031 C 
ATOM     36  C   UNL A   1      38.342  34.015  31.119  1.00  0.00     0.029 A 
ATOM     37  N   UNL A   1      39.976  32.492  31.205  1.00  0.00    -0.354 N 
ATOM     38  C   UNL A   1      39.740  28.824  28.958  1.00  0.00     0.074 A 
ATOM     39  C   UNL A   1      38.509  28.753  28.200  1.00  0.00     0.031 C 
ATOM     40  C   UNL A   1      39.276  34.475  31.965  1.00  0.00     0.029 A 
ATOM     41  C   UNL A   1      40.346  33.489  32.075  1.00  0.00     0.049 A 
ATOM     42  H   UNL A   1      40.523  31.689  31.042  1.00  0.00     0.167 HD
ATOM     43  C   UNL A   1      40.691  27.859  28.962  1.00  0.00     0.031 A 
ATOM     44  C   UNL A   1      41.417  33.594  32.885  1.00  0.00     0.031 A 
ATOM     45  C   UNL A   1      41.913  27.928  29.720  1.00  0.00     0.049 A 
ATOM     46  C   UNL A   1      42.436  32.490  32.903  1.00  0.00     0.074 A 
ATOM     47  C   UNL A   1      42.963  27.025  29.744  1.00  0.00     0.029 A 
ATOM     48  N   UNL A   1      42.244  28.950  30.596  1.00  0.00    -0.354 N 
ATOM     49  N   UNL A   1      42.465  31.379  32.207  1.00  0.00    -0.248 NA
ATOM     50  C   UNL A   1      43.575  32.658  33.817  1.00  0.00     0.031 C 
ATOM     51  C   UNL A   1      43.899  27.469  30.684  1.00  0.00     0.029 A 
ATOM     52  C   UNL A   1      43.465  28.681  31.195  1.00  0.00     0.049 A 
ATOM     53  H   UNL A   1      41.695  29.748  30.766  1.00  0.00     0.167 HD
ATOM     54  C   UNL A   1      43.632  30.726  32.582  1.00  0.00     0.074 A 
ATOM     55  C   UNL A   1      44.296  31.577  33.548  1.00  0.00     0.031 C 
ATOM     56  C   UNL A   1      44.110  29.528  32.165  1.00  0.00     0.031 A 
BRANCH  43  57
ATOM     57  C   UNL A   1      40.436  26.631  28.131  1.00  0.00    -0.014 A 
ATOM     58  C   UNL A   1      39.715  25.540  28.642  1.00  0.00     0.009 A 
ATOM     59  C   UNL A   1      40.888  26.581  26.803  1.00  0.00     0.009 A 
ATOM     60  C   UNL A   1      39.486  24.410  27.853  1.00  0.00     0.001 A 
ATOM     61  C   UNL A   1      40.630  25.464  26.007  1.00  0.00     0.001 A 
ATOM     62  C   UNL A   1      39.939  24.375  26.536  1.00  0.00     0.000 A 
ENDBRANCH  43  57
BRANCH  44  63
ATOM     63  C   UNL A   1      41.579  34.789  33.754  1.00  0.00    -0.014 A 
ATOM     64  C   UNL A   1      42.522  35.779  33.437  1.00  0.00     0.009 A 
ATOM     65  C   UNL A   1      40.798  34.943  34.910  1.00  0.00     0.009 A 
ATOM     66  C   UNL A   1      42.696  36.885  34.274  1.00  0.00     0.001 A 
ATOM     67  C   UNL A   1      40.952  36.065  35.727  1.00  0.00     0.001 A 
ATOM     68  C   UNL A   1      41.908  37.030  35.414  1.00  0.00     0.000 A 
ENDBRANCH  44  63
BRANCH  56  69
ATOM     69  C   UNL A   1      45.425  29.076  32.738  1.00  0.00    -0.014 A 
ATOM     70  C   UNL A   1      45.482  28.287  33.898  1.00  0.00     0.009 A 
ATOM     71  C   UNL A   1      46.621  29.414  32.087  1.00  0.00     0.009 A 
ATOM     72  C   UNL A   1      46.713  27.875  34.412  1.00  0.00     0.001 A 
ATOM     73  C   UNL A   1      47.849  28.974  32.585  1.00  0.00     0.001 A 
ATOM     74  C   UNL A   1      47.894  28.214  33.752  1.00  0.00     0.000 A 
ENDBRANCH  56  69
ENDBRANCH  30  31
ENDBRANCH  22  25
ENDBRANCH  20  21
ENDBRANCH  19  20
ENDBRANCH  18  19
ENDBRANCH   1  18
TORSDOF 15
ENDMDL
MODEL 2
REMARK VINA RESULT:      -8.8      0.511      6.137
REMARK SMILES CC(C)COc1ccc(CC(=O)NCCCCNC(=O)c2ccc(-c3c4nc(c(-c5ccccc5)c5ccc([nH]5)c(-c5ccccc5)c5nc(c(-c6ccccc6)c6ccc3[nH]6)C=C5)C=C4)cc2)cc1
REMARK SMILES IDX 14 1 13 2 11 3 12 4 10 6 9 7 6 8 7 9 70 10 8 11 69 12 5 13
REMARK SMILES IDX 4 14 2 15 1 16 3 17 15 18 16 19 17 20 18 21 19 22 20 24
REMARK SMILES IDX 21 25 22 26 68 27 23 28 67 29 24 30 25 31 26 32 61 33 27 34
REMARK SMILES IDX 66 35 60 36 62 37 28 38 65 39 59 40 58 41 29 43 51 44 36 45
REMARK SMILES IDX 50 46 37 47 40 48 49 49 63 50 38 51 39 52 48 54 64 55 41 56
REMARK SMILES IDX 30 57 31 58 35 59 32 60 34 61 33 62 52 63 53 64 57 65 54 66
REMARK SMILES IDX 56 67 55 68 42 69 43 70 47 71 44 72 46 73 45 74
REMARK H PARENT 13 5 18 23 62 42 40 53
REMARK Flexibility Score: inf
ROOT
ATOM      1  C   UNL A   1      34.183  36.525  33.562  1.00  0.00     0.116 C 
ENDROOT
BRANCH   1   2
ATOM      2  N   UNL A   1      33.620  35.187  33.497  1.00  0.00    -0.356 N 
ATOM      3  C   UNL A   1      34.198  34.012  33.113  1.00  0.00     0.224 C 
ATOM      4  O   UNL A   1      33.487  33.005  33.071  1.00  0.00    -0.275 OA
ATOM      5  H   UNL A   1      32.677  35.119  33.773  1.00  0.00     0.163 HD
BRANCH   3   6
ATOM      6  C   UNL A   1      35.685  33.938  32.811  1.00  0.00     0.135 C 
BRANCH   6   7
ATOM      7  C   UNL A   1      36.487  33.053  33.733  1.00  0.00    -0.038 A 
ATOM      8  C   UNL A   1      38.280  31.608  35.344  1.00  0.00     0.119 A 
ATOM      9  C   UNL A   1      37.749  31.036  34.185  1.00  0.00     0.047 A 
ATOM     10  C   UNL A   1      37.784  32.832  35.773  1.00  0.00     0.047 A 
ATOM     11  C   UNL A   1      36.833  31.741  33.397  1.00  0.00     0.008 A 
ATOM     12  C   UNL A   1      36.917  33.565  34.963  1.00  0.00     0.008 A 
BRANCH   8  13
ATOM     13  O   UNL A   1      39.315  30.922  35.910  1.00  0.00    -0.493 OA
BRANCH  13  14
ATOM     14  C   UNL A   1      40.654  31.388  35.741  1.00  0.00     0.232 C 
BRANCH  14  15
ATOM     15  C   UNL A   1      41.640  30.318  35.217  1.00  0.00     0.020 C 
ATOM     16  C   UNL A   1      42.341  29.508  36.310  1.00  0.00     0.011 C 
ATOM     17  C   UNL A   1      40.885  29.345  34.307  1.00  0.00     0.011 C 
ENDBRANCH  14  15
ENDBRANCH  13  14
ENDBRANCH   8  13
ENDBRANCH   6   7
ENDBRANCH   3   6
ENDBRANCH   1   2
BRANCH   1  18
ATOM     18  C   UNL A   1      33.695  37.410  32.412  1.00  0.00     0.023 C 
BRANCH  18  19
ATOM     19  C   UNL A   1      32.873  36.687  31.340  1.00  0.00     0.023 C 
BRANCH  19  20
ATOM     20  C   UNL A   1      33.654  36.231  30.112  1.00  0.00     0.116 C 
BRANCH  20  21
ATOM     21  N   UNL A   1      32.833  35.514  29.149  1.00  0.00    -0.352 N 
ATOM     22  C   UNL A   1      33.111  34.364  28.450  1.00  0.00     0.251 C 
ATOM     23  H   UNL A   1      31.949  35.911  28.973  1.00  0.00     0.163 HD
ATOM     24  O   UNL A   1      32.344  33.972  27.579  1.00  0.00    -0.269 OA
BRANCH  22  25
ATOM     25  C   UNL A   1      34.359  33.615  28.723  1.00  0.00     0.039 A 
ATOM     26  C   UNL A   1      35.527  33.993  28.056  1.00  0.00     0.014 A 
ATOM     27  C   UNL A   1      34.383  32.559  29.637  1.00  0.00     0.014 A 
ATOM     28  C   UNL A   1      36.738  33.369  28.370  1.00  0.00     0.010 A 
ATOM     29  C   UNL A   1      35.601  31.985  29.999  1.00  0.00     0.010 A 
ATOM     30  C   UNL A   1      36.792  32.393  29.378  1.00  0.00    -0.014 A 
BRANCH  30  31
ATOM     31  C   UNL A   1      38.087  31.820  29.829  1.00  0.00     0.031 A 
ATOM     32  C   UNL A   1      39.003  32.607  30.723  1.00  0.00     0.074 A 
ATOM     33  C   UNL A   1      38.473  30.614  29.367  1.00  0.00     0.049 A 
ATOM     34  N   UNL A   1      40.201  32.300  31.152  1.00  0.00    -0.248 NA
ATOM     35  C   UNL A   1      38.519  33.920  31.177  1.00  0.00     0.031 C 
ATOM     36  C   UNL A   1      37.693  29.760  28.467  1.00  0.00     0.029 A 
ATOM     37  N   UNL A   1      39.626  29.900  29.582  1.00  0.00    -0.354 N 
ATOM     38  C   UNL A   1      40.620  33.384  31.913  1.00  0.00     0.074 A 
ATOM     39  C   UNL A   1      39.567  34.374  31.849  1.00  0.00     0.031 C 
ATOM     40  C   UNL A   1      38.379  28.633  28.226  1.00  0.00     0.029 A 
ATOM     41  C   UNL A   1      39.666  28.702  28.910  1.00  0.00     0.049 A 
ATOM     42  H   UNL A   1      40.356  30.217  30.162  1.00  0.00     0.167 HD
ATOM     43  C   UNL A   1      41.771  33.536  32.613  1.00  0.00     0.031 A 
ATOM     44  C   UNL A   1      40.635  27.769  28.837  1.00  0.00     0.031 A 
ATOM     45  C   UNL A   1      42.819  32.552  32.673  1.00  0.00     0.049 A 
ATOM     46  C   UNL A   1      41.919  27.982  29.588  1.00  0.00     0.074 A 
ATOM     47  C   UNL A   1      43.997  32.593  33.401  1.00  0.00     0.029 A 
ATOM     48  N   UNL A   1      42.825  31.358  31.970  1.00  0.00    -0.354 N 
ATOM     49  N   UNL A   1      42.268  28.981  30.362  1.00  0.00    -0.248 NA
ATOM     50  C   UNL A   1      42.941  26.934  29.458  1.00  0.00     0.031 C 
ATOM     51  C   UNL A   1      44.744  31.452  33.087  1.00  0.00     0.029 A 
ATOM     52  C   UNL A   1      44.003  30.670  32.217  1.00  0.00     0.049 A 
ATOM     53  H   UNL A   1      42.100  31.044  31.384  1.00  0.00     0.167 HD
ATOM     54  C   UNL A   1      43.540  28.672  30.828  1.00  0.00     0.074 A 
ATOM     55  C   UNL A   1      43.890  27.383  30.269  1.00  0.00     0.031 C 
ATOM     56  C   UNL A   1      44.346  29.394  31.645  1.00  0.00     0.031 A 
BRANCH  43  57
ATOM     57  C   UNL A   1      41.962  34.829  33.359  1.00  0.00    -0.014 A 
ATOM     58  C   UNL A   1      41.308  35.072  34.577  1.00  0.00     0.009 A 
ATOM     59  C   UNL A   1      42.842  35.800  32.856  1.00  0.00     0.009 A 
ATOM     60  C   UNL A   1      41.501  36.278  35.256  1.00  0.00     0.001 A 
ATOM     61  C   UNL A   1      43.057  36.991  33.553  1.00  0.00     0.001 A 
ATOM     62  C   UNL A   1      42.379  37.234  34.746  1.00  0.00     0.000 A 
ENDBRANCH  43  57
BRANCH  44  63
ATOM     63  C   UNL A   1      40.431  26.548  28.014  1.00  0.00    -0.014 A 
ATOM     64  C   UNL A   1      40.958  26.466  26.716  1.00  0.00     0.009 A 
ATOM     65  C   UNL A   1      39.703  25.460  28.518  1.00  0.00     0.009 A 
ATOM     66  C   UNL A   1      40.737  25.331  25.932  1.00  0.00     0.001 A 
ATOM     67  C   UNL A   1      39.510  24.313  27.745  1.00  0.00     0.001 A 
ATOM     68  C   UNL A   1      40.019  24.254  26.449  1.00  0.00     0.000 A 
ENDBRANCH  44  63
BRANCH  56  69
ATOM     69  C   UNL A   1      45.680  28.794  31.998  1.00  0.00    -0.014 A 
ATOM     70  C   UNL A   1      46.826  29.066  31.235  1.00  0.00     0.009 A 
ATOM     71  C   UNL A   1      45.797  27.975  33.132  1.00  0.00     0.009 A 
ATOM     72  C   UNL A   1      48.055  28.501  31.581  1.00  0.00     0.001 A 
ATOM     73  C   UNL A   1      47.033  27.439  33.495  1.00  0.00     0.001 A 
ATOM     74  C   UNL A   1      48.159  27.694  32.714  1.00  0.00     0.000 A 
ENDBRANCH  56  69
ENDBRANCH  30  31
ENDBRANCH  22  25
ENDBRANCH  20  21
ENDBRANCH  19  20
ENDBRANCH  18  19
ENDBRANCH   1  18
TORSDOF 15
ENDMDL
MODEL 3
REMARK VINA RESULT:      -8.6      4.192      7.605
REMARK SMILES CC(C)COc1ccc(CC(=O)NCCCCNC(=O)c2ccc(-c3c4nc(c(-c5ccccc5)c5ccc([nH]5)c(-c5ccccc5)c5nc(c(-c6ccccc6)c6ccc3[nH]6)C=C5)C=C4)cc2)cc1
REMARK SMILES IDX 14 1 13 2 11 3 12 4 10 6 9 7 6 8 7 9 70 10 8 11 69 12 5 13
REMARK SMILES IDX 4 14 2 15 1 16 3 17 15 18 16 19 17 20 18 21 19 22 20 24
REMARK SMILES IDX 21 25 22 26 68 27 23 28 67 29 24 30 25 31 26 32 61 33 27 34
REMARK SMILES IDX 66 35 60 36 62 37 28 38 65 39 59 40 58 41 29 43 51 44 36 45
REMARK SMILES IDX 50 46 37 47 40 48 49 49 63 50 38 51 39 52 48 54 64 55 41 56
REMARK SMILES IDX 30 57 31 58 35 59 32 60 34 61 33 62 52 63 53 64 57 65 54 66
REMARK SMILES IDX 56 67 55 68 42 69 43 70 47 71 44 72 46 73 45 74
REMARK H PARENT 13 5 18 23 62 42 40 53
REMARK Flexibility Score: inf
ROOT
ATOM      1  C   UNL A   1      31.917  27.791  26.302  1.00  0.00     0.116 C 
ENDROOT
BRANCH   1   2
ATOM      2  N   UNL A   1      31.179  26.608  26.710  1.00  0.00    -0.356 N 
ATOM      3  C   UNL A   1      30.473  25.714  25.957  1.00  0.00     0.224 C 
ATOM      4  O   UNL A   1      29.861  24.819  26.546  1.00  0.00    -0.275 OA
ATOM      5  H   UNL A   1      31.190  26.423  27.677  1.00  0.00     0.163 HD
BRANCH   3   6
ATOM      6  C   UNL A   1      30.497  25.783  24.440  1.00  0.00     0.135 C 
BRANCH   6   7
ATOM      7  C   UNL A   1      29.605  26.835  23.828  1.00  0.00    -0.038 A 
ATOM      8  C   UNL A   1      28.048  29.014  22.975  1.00  0.00     0.119 A 
ATOM      9  C   UNL A   1      27.443  27.884  23.531  1.00  0.00     0.047 A 
ATOM     10  C   UNL A   1      29.409  28.975  22.699  1.00  0.00     0.047 A 
ATOM     11  C   UNL A   1      28.212  26.785  23.929  1.00  0.00     0.008 A 
ATOM     12  C   UNL A   1      30.189  27.909  23.146  1.00  0.00     0.008 A 
BRANCH   8  13
ATOM     13  O   UNL A   1      27.233  30.097  22.824  1.00  0.00    -0.493 OA
BRANCH  13  14
ATOM     14  C   UNL A   1      27.636  31.368  23.337  1.00  0.00     0.232 C 
BRANCH  14  15
ATOM     15  C   UNL A   1      28.566  32.167  22.395  1.00  0.00     0.020 C 
ATOM     16  C   UNL A   1      27.949  32.521  21.040  1.00  0.00     0.011 C 
ATOM     17  C   UNL A   1      28.982  33.469  23.089  1.00  0.00     0.011 C 
ENDBRANCH  14  15
ENDBRANCH  13  14
ENDBRANCH   8  13
ENDBRANCH   6   7
ENDBRANCH   3   6
ENDBRANCH   1   2
BRANCH   1  18
ATOM     18  C   UNL A   1      31.780  28.931  27.314  1.00  0.00     0.023 C 
BRANCH  18  19
ATOM     19  C   UNL A   1      31.630  30.328  26.703  1.00  0.00     0.023 C 
BRANCH  19  20
ATOM     20  C   UNL A   1      32.802  31.275  26.939  1.00  0.00     0.116 C 
BRANCH  20  21
ATOM     21  N   UNL A   1      32.383  32.631  27.255  1.00  0.00    -0.352 N 
ATOM     22  C   UNL A   1      32.997  33.573  28.045  1.00  0.00     0.251 C 
ATOM     23  H   UNL A   1      31.535  32.915  26.843  1.00  0.00     0.163 HD
ATOM     24  O   UNL A   1      32.429  34.627  28.302  1.00  0.00    -0.269 OA
BRANCH  22  25
ATOM     25  C   UNL A   1      34.335  33.299  28.619  1.00  0.00     0.039 A 
ATOM     26  C   UNL A   1      34.415  32.661  29.860  1.00  0.00     0.014 A 
ATOM     27  C   UNL A   1      35.501  33.654  27.936  1.00  0.00     0.014 A 
ATOM     28  C   UNL A   1      35.662  32.302  30.376  1.00  0.00     0.010 A 
ATOM     29  C   UNL A   1      36.739  33.234  28.419  1.00  0.00     0.010 A 
ATOM     30  C   UNL A   1      36.832  32.543  29.636  1.00  0.00    -0.014 A 
BRANCH  30  31
ATOM     31  C   UNL A   1      38.153  32.042  30.097  1.00  0.00     0.031 A 
ATOM     32  C   UNL A   1      38.700  30.740  29.583  1.00  0.00     0.074 A 
ATOM     33  C   UNL A   1      38.828  32.727  31.041  1.00  0.00     0.049 A 
ATOM     34  N   UNL A   1      39.795  30.111  29.929  1.00  0.00    -0.248 NA
ATOM     35  C   UNL A   1      37.903  30.042  28.563  1.00  0.00     0.031 C 
ATOM     36  C   UNL A   1      38.393  33.987  31.649  1.00  0.00     0.029 A 
ATOM     37  N   UNL A   1      40.020  32.454  31.666  1.00  0.00    -0.354 N 
ATOM     38  C   UNL A   1      39.812  28.941  29.182  1.00  0.00     0.074 A 
ATOM     39  C   UNL A   1      38.595  28.925  28.398  1.00  0.00     0.031 C 
ATOM     40  C   UNL A   1      39.313  34.387  32.540  1.00  0.00     0.029 A 
ATOM     41  C   UNL A   1      40.377  33.391  32.605  1.00  0.00     0.049 A 
ATOM     42  H   UNL A   1      40.567  31.661  31.461  1.00  0.00     0.167 HD
ATOM     43  C   UNL A   1      40.760  27.973  29.141  1.00  0.00     0.031 A 
ATOM     44  C   UNL A   1      41.433  33.438  33.440  1.00  0.00     0.031 A 
ATOM     45  C   UNL A   1      41.967  27.987  29.923  1.00  0.00     0.049 A 
ATOM     46  C   UNL A   1      42.448  32.330  33.405  1.00  0.00     0.074 A 
ATOM     47  C   UNL A   1      43.013  27.080  29.908  1.00  0.00     0.029 A 
ATOM     48  N   UNL A   1      42.286  28.948  30.870  1.00  0.00    -0.354 N 
ATOM     49  N   UNL A   1      42.485  31.267  32.639  1.00  0.00    -0.248 NA
ATOM     50  C   UNL A   1      43.571  32.433  34.348  1.00  0.00     0.031 C 
ATOM     51  C   UNL A   1      43.933  27.457  30.892  1.00  0.00     0.029 A 
ATOM     52  C   UNL A   1      43.494  28.635  31.473  1.00  0.00     0.049 A 
ATOM     53  H   UNL A   1      41.737  29.736  31.082  1.00  0.00     0.167 HD
ATOM     54  C   UNL A   1      43.643  30.586  32.993  1.00  0.00     0.074 A 
ATOM     55  C   UNL A   1      44.292  31.368  34.024  1.00  0.00     0.031 C 
ATOM     56  C   UNL A   1      44.124  29.415  32.507  1.00  0.00     0.031 A 
BRANCH  43  57
ATOM     57  C   UNL A   1      40.516  26.802  28.227  1.00  0.00    -0.014 A 
ATOM     58  C   UNL A   1      39.769  25.691  28.648  1.00  0.00     0.009 A 
ATOM     59  C   UNL A   1      41.005  26.831  26.911  1.00  0.00     0.009 A 
ATOM     60  C   UNL A   1      39.551  24.615  27.783  1.00  0.00     0.001 A 
ATOM     61  C   UNL A   1      40.758  25.769  26.040  1.00  0.00     0.001 A 
ATOM     62  C   UNL A   1      40.041  24.657  26.479  1.00  0.00     0.000 A 
ENDBRANCH  43  57
BRANCH  44  63
ATOM     63  C   UNL A   1      41.584  34.574  34.387  1.00  0.00    -0.014 A 
ATOM     64  C   UNL A   1      42.316  35.714  34.024  1.00  0.00     0.009 A 
ATOM     65  C   UNL A   1      41.002  34.521  35.664  1.00  0.00     0.009 A 
ATOM     66  C   UNL A   1      42.485  36.766  34.929  1.00  0.00     0.001 A 
ATOM     67  C   UNL A   1      41.145  35.587  36.555  1.00  0.00     0.001 A 
ATOM     68  C   UNL A   1      41.895  36.704  36.190  1.00  0.00     0.000 A 
ENDBRANCH  44  63
BRANCH  56  69
ATOM     69  C   UNL A   1      45.427  28.920  33.073  1.00  0.00    -0.014 A 
ATOM     70  C   UNL A   1      45.459  28.051  34.175  1.00  0.00     0.009 A 
ATOM     71  C   UNL A   1      46.637  29.300  32.473  1.00  0.00     0.009 A 
ATOM     72  C   UNL A   1      46.679  27.601  34.685  1.00  0.00     0.001 A 
ATOM     73  C   UNL A   1      47.854  28.823  32.963  1.00  0.00     0.001 A 
ATOM     74  C   UNL A   1      47.873  27.982  34.074  1.00  0.00     0.000 A 
ENDBRANCH  56  69
ENDBRANCH  30  31
ENDBRANCH  22  25
ENDBRANCH  20  21
ENDBRANCH  19  20
ENDBRANCH  18  19
ENDBRANCH   1  18
TORSDOF 15
ENDMDL
