MODEL 1
REMARK VINA RESULT:     -10.8      0.000      0.000
REMARK SMILES CCN(Cc1cn(CC)nc1C)C(=O)c1ccn([C@@H](C)C(=O)NCCCCNC(=O)c2ccc(-c3c4nc(c(-c5ccccc5)c5ccc([nH]5)c(-c5ccccc5)c5nc(c(-c6ccccc6)c6ccc3[nH]6)C=C5)C=C4)cc2)n1
REMARK SMILES IDX 21 1 22 2 23 3 19 5 20 6 18 7 15 8 16 9 79 10 17 11 13 12
REMARK SMILES IDX 14 13 3 14 2 15 1 16 4 17 5 18 6 19 11 20 7 21 10 22 12 23
REMARK SMILES IDX 8 24 9 25 24 26 25 27 26 28 27 29 28 30 29 31 30 33 31 34
REMARK SMILES IDX 32 35 78 36 33 37 77 38 34 39 35 40 36 41 71 42 37 43 76 44
REMARK SMILES IDX 70 45 72 46 38 47 75 48 69 49 68 50 39 52 61 53 46 54 60 55
REMARK SMILES IDX 47 56 50 57 59 58 73 59 48 60 49 61 58 63 74 64 51 65 40 66
REMARK SMILES IDX 41 67 45 68 42 69 44 70 43 71 62 72 63 73 67 74 64 75 66 76
REMARK SMILES IDX 65 77 52 78 53 79 57 80 54 81 56 82 55 83
REMARK H PARENT 23 4 28 32 72 51 50 62
REMARK Flexibility Score: inf
ROOT
ATOM      1  C   UNL A   1      31.573  27.550  26.406  1.00  0.00     0.244 C 
ATOM      2  O   UNL A   1      31.277  26.514  27.020  1.00  0.00    -0.273 OA
ATOM      3  N   UNL A   1      32.099  28.536  27.194  1.00  0.00    -0.354 N 
ATOM      4  H   UNL A   1      32.159  28.271  28.140  1.00  0.00     0.163 HD
ENDROOT
BRANCH   1   5
ATOM      5  C   UNL A   1      31.395  27.593  24.874  1.00  0.00     0.193 C 
ATOM      6  C   UNL A   1      29.981  27.255  24.415  1.00  0.00     0.044 C 
BRANCH   5   7
ATOM      7  N   UNL A   1      32.431  26.854  24.166  1.00  0.00    -0.260 N 
ATOM      8  C   UNL A   1      33.305  25.214  23.135  1.00  0.00     0.150 A 
ATOM      9  C   UNL A   1      33.536  26.395  22.411  1.00  0.00     0.056 A 
ATOM     10  N   UNL A   1      32.543  25.501  24.218  1.00  0.00    -0.167 NA
ATOM     11  C   UNL A   1      33.370  27.384  23.342  1.00  0.00     0.110 A 
BRANCH   8  12
ATOM     12  C   UNL A   1      33.791  23.875  22.759  1.00  0.00     0.274 C 
ATOM     13  O   UNL A   1      33.705  23.474  21.598  1.00  0.00    -0.267 OA
BRANCH  12  14
ATOM     14  N   UNL A   1      34.379  23.075  23.776  1.00  0.00    -0.333 N 
BRANCH  14  15
ATOM     15  C   UNL A   1      35.791  23.322  24.071  1.00  0.00     0.117 C 
ATOM     16  C   UNL A   1      36.738  22.737  23.031  1.00  0.00     0.027 C 
ENDBRANCH  14  15
BRANCH  14  17
ATOM     17  C   UNL A   1      33.778  21.867  24.379  1.00  0.00     0.159 C 
BRANCH  17  18
ATOM     18  C   UNL A   1      32.879  22.138  25.558  1.00  0.00     0.012 A 
ATOM     19  C   UNL A   1      31.488  22.138  25.522  1.00  0.00     0.114 A 
ATOM     20  C   UNL A   1      33.168  22.534  26.901  1.00  0.00     0.064 A 
ATOM     21  N   UNL A   1      31.059  22.680  26.700  1.00  0.00    -0.272 N 
ATOM     22  N   UNL A   1      32.058  22.877  27.570  1.00  0.00    -0.178 NA
ATOM     23  C   UNL A   1      34.468  22.716  27.590  1.00  0.00     0.069 C 
BRANCH  21  24
ATOM     24  C   UNL A   1      29.772  23.299  26.952  1.00  0.00     0.141 C 
ATOM     25  C   UNL A   1      28.696  22.345  27.428  1.00  0.00     0.029 C 
ENDBRANCH  21  24
ENDBRANCH  17  18
ENDBRANCH  14  17
ENDBRANCH  12  14
ENDBRANCH   8  12
ENDBRANCH   5   7
ENDBRANCH   1   5
BRANCH   3  26
ATOM     26  C   UNL A   1      32.592  29.884  26.956  1.00  0.00     0.116 C 
BRANCH  26  27
ATOM     27  C   UNL A   1      31.499  30.844  26.459  1.00  0.00     0.023 C 
BRANCH  27  28
ATOM     28  C   UNL A   1      31.765  32.350  26.480  1.00  0.00     0.023 C 
BRANCH  28  29
ATOM     29  C   UNL A   1      32.791  32.816  27.499  1.00  0.00     0.116 C 
BRANCH  29  30
ATOM     30  N   UNL A   1      32.559  34.177  28.004  1.00  0.00    -0.352 N 
ATOM     31  C   UNL A   1      33.137  34.772  29.113  1.00  0.00     0.251 C 
ATOM     32  H   UNL A   1      31.919  34.728  27.497  1.00  0.00     0.163 HD
ATOM     33  O   UNL A   1      32.615  35.734  29.676  1.00  0.00    -0.269 OA
BRANCH  31  34
ATOM     34  C   UNL A   1      34.421  34.239  29.583  1.00  0.00     0.039 A 
ATOM     35  C   UNL A   1      34.535  33.268  30.581  1.00  0.00     0.014 A 
ATOM     36  C   UNL A   1      35.531  34.677  28.873  1.00  0.00     0.014 A 
ATOM     37  C   UNL A   1      35.783  32.683  30.794  1.00  0.00     0.010 A 
ATOM     38  C   UNL A   1      36.668  33.927  28.905  1.00  0.00     0.010 A 
ATOM     39  C   UNL A   1      36.840  33.011  29.930  1.00  0.00    -0.014 A 
BRANCH  39  40
ATOM     40  C   UNL A   1      38.130  32.344  29.971  1.00  0.00     0.031 A 
ATOM     41  C   UNL A   1      38.094  30.930  29.527  1.00  0.00     0.074 A 
ATOM     42  C   UNL A   1      39.287  33.023  30.146  1.00  0.00     0.049 A 
ATOM     43  N   UNL A   1      38.219  29.884  30.270  1.00  0.00    -0.248 NA
ATOM     44  C   UNL A   1      37.713  30.633  28.136  1.00  0.00     0.031 C 
ATOM     45  C   UNL A   1      39.491  34.476  30.269  1.00  0.00     0.029 A 
ATOM     46  N   UNL A   1      40.562  32.558  30.126  1.00  0.00    -0.354 N 
ATOM     47  C   UNL A   1      38.173  28.797  29.406  1.00  0.00     0.074 A 
ATOM     48  C   UNL A   1      37.647  29.299  28.162  1.00  0.00     0.031 C 
ATOM     49  C   UNL A   1      40.794  34.775  30.066  1.00  0.00     0.029 A 
ATOM     50  C   UNL A   1      41.541  33.536  29.982  1.00  0.00     0.049 A 
ATOM     51  H   UNL A   1      40.777  31.601  30.208  1.00  0.00     0.167 HD
ATOM     52  C   UNL A   1      38.846  27.650  29.698  1.00  0.00     0.031 A 
ATOM     53  C   UNL A   1      42.870  33.333  29.793  1.00  0.00     0.031 A 
ATOM     54  C   UNL A   1      39.290  27.639  31.071  1.00  0.00     0.049 A 
ATOM     55  C   UNL A   1      43.164  31.952  30.242  1.00  0.00     0.074 A 
ATOM     56  C   UNL A   1      38.664  27.730  32.298  1.00  0.00     0.029 A 
ATOM     57  N   UNL A   1      40.608  27.965  31.297  1.00  0.00    -0.354 N 
ATOM     58  N   UNL A   1      43.074  31.577  31.485  1.00  0.00    -0.248 NA
ATOM     59  C   UNL A   1      43.074  30.885  29.259  1.00  0.00     0.031 C 
ATOM     60  C   UNL A   1      39.511  28.573  33.080  1.00  0.00     0.029 A 
ATOM     61  C   UNL A   1      40.649  28.868  32.327  1.00  0.00     0.049 A 
ATOM     62  H   UNL A   1      41.386  27.611  30.806  1.00  0.00     0.167 HD
ATOM     63  C   UNL A   1      42.455  30.338  31.432  1.00  0.00     0.074 A 
ATOM     64  C   UNL A   1      42.571  29.918  30.034  1.00  0.00     0.031 C 
ATOM     65  C   UNL A   1      41.646  29.909  32.448  1.00  0.00     0.031 A 
BRANCH  52  66
ATOM     66  C   UNL A   1      39.494  26.772  28.654  1.00  0.00    -0.014 A 
ATOM     67  C   UNL A   1      40.412  27.361  27.766  1.00  0.00     0.009 A 
ATOM     68  C   UNL A   1      39.033  25.484  28.322  1.00  0.00     0.009 A 
ATOM     69  C   UNL A   1      40.773  26.733  26.568  1.00  0.00     0.001 A 
ATOM     70  C   UNL A   1      39.424  24.837  27.147  1.00  0.00     0.001 A 
ATOM     71  C   UNL A   1      40.270  25.476  26.254  1.00  0.00     0.000 A 
ENDBRANCH  52  66
BRANCH  53  72
ATOM     72  C   UNL A   1      43.850  34.129  29.021  1.00  0.00    -0.014 A 
ATOM     73  C   UNL A   1      45.062  34.538  29.601  1.00  0.00     0.009 A 
ATOM     74  C   UNL A   1      43.728  34.234  27.624  1.00  0.00     0.009 A 
ATOM     75  C   UNL A   1      46.128  34.988  28.807  1.00  0.00     0.001 A 
ATOM     76  C   UNL A   1      44.793  34.682  26.831  1.00  0.00     0.001 A 
ATOM     77  C   UNL A   1      45.999  35.043  27.422  1.00  0.00     0.000 A 
ENDBRANCH  53  72
BRANCH  65  78
ATOM     78  C   UNL A   1      41.623  30.724  33.722  1.00  0.00    -0.014 A 
ATOM     79  C   UNL A   1      40.752  31.807  33.940  1.00  0.00     0.009 A 
ATOM     80  C   UNL A   1      42.420  30.293  34.793  1.00  0.00     0.009 A 
ATOM     81  C   UNL A   1      40.705  32.457  35.180  1.00  0.00     0.001 A 
ATOM     82  C   UNL A   1      42.359  30.926  36.035  1.00  0.00     0.001 A 
ATOM     83  C   UNL A   1      41.509  32.013  36.228  1.00  0.00     0.000 A 
ENDBRANCH  65  78
ENDBRANCH  39  40
ENDBRANCH  31  34
ENDBRANCH  29  30
ENDBRANCH  28  29
ENDBRANCH  27  28
ENDBRANCH  26  27
ENDBRANCH   3  26
TORSDOF 18
ENDMDL
MODEL 2
REMARK VINA RESULT:     -10.5      3.057      6.615
REMARK SMILES CCN(Cc1cn(CC)nc1C)C(=O)c1ccn([C@@H](C)C(=O)NCCCCNC(=O)c2ccc(-c3c4nc(c(-c5ccccc5)c5ccc([nH]5)c(-c5ccccc5)c5nc(c(-c6ccccc6)c6ccc3[nH]6)C=C5)C=C4)cc2)n1
REMARK SMILES IDX 21 1 22 2 23 3 19 5 20 6 18 7 15 8 16 9 79 10 17 11 13 12
REMARK SMILES IDX 14 13 3 14 2 15 1 16 4 17 5 18 6 19 11 20 7 21 10 22 12 23
REMARK SMILES IDX 8 24 9 25 24 26 25 27 26 28 27 29 28 30 29 31 30 33 31 34
REMARK SMILES IDX 32 35 78 36 33 37 77 38 34 39 35 40 36 41 71 42 37 43 76 44
REMARK SMILES IDX 70 45 72 46 38 47 75 48 69 49 68 50 39 52 61 53 46 54 60 55
REMARK SMILES IDX 47 56 50 57 59 58 73 59 48 60 49 61 58 63 74 64 51 65 40 66
REMARK SMILES IDX 41 67 45 68 42 69 44 70 43 71 62 72 63 73 67 74 64 75 66 76
REMARK SMILES IDX 65 77 52 78 53 79 57 80 54 81 56 82 55 83
REMARK H PARENT 23 4 28 32 72 51 50 62
REMARK Flexibility Score: inf
ROOT
ATOM      1  C   UNL A   1      32.490  29.094  23.584  1.00  0.00     0.244 C 
ATOM      2  O   UNL A   1      33.373  29.274  22.732  1.00  0.00    -0.273 OA
ATOM      3  N   UNL A   1      32.790  29.609  24.815  1.00  0.00    -0.354 N 
ATOM      4  H   UNL A   1      33.673  30.045  24.838  1.00  0.00     0.163 HD
ENDROOT
BRANCH   1   5
ATOM      5  C   UNL A   1      31.174  28.405  23.170  1.00  0.00     0.193 C 
ATOM      6  C   UNL A   1      29.937  29.263  23.405  1.00  0.00     0.044 C 
BRANCH   5   7
ATOM      7  N   UNL A   1      31.055  27.053  23.701  1.00  0.00    -0.260 N 
ATOM      8  C   UNL A   1      31.641  25.318  24.781  1.00  0.00     0.150 A 
ATOM      9  C   UNL A   1      30.322  25.659  25.126  1.00  0.00     0.056 A 
ATOM     10  N   UNL A   1      32.128  26.248  23.923  1.00  0.00    -0.167 NA
ATOM     11  C   UNL A   1      29.906  26.442  24.084  1.00  0.00     0.110 A 
BRANCH   8  12
ATOM     12  C   UNL A   1      32.381  24.153  25.292  1.00  0.00     0.274 C 
ATOM     13  O   UNL A   1      33.100  24.247  26.287  1.00  0.00    -0.267 OA
BRANCH  12  14
ATOM     14  N   UNL A   1      32.221  22.915  24.611  1.00  0.00    -0.333 N 
BRANCH  14  15
ATOM     15  C   UNL A   1      32.099  22.978  23.155  1.00  0.00     0.117 C 
ATOM     16  C   UNL A   1      33.429  23.200  22.445  1.00  0.00     0.027 C 
ENDBRANCH  14  15
BRANCH  14  17
ATOM     17  C   UNL A   1      31.920  21.615  25.246  1.00  0.00     0.159 C 
BRANCH  17  18
ATOM     18  C   UNL A   1      32.834  20.490  24.830  1.00  0.00     0.012 A 
ATOM     19  C   UNL A   1      32.417  19.278  24.287  1.00  0.00     0.114 A 
ATOM     20  C   UNL A   1      34.248  20.321  24.953  1.00  0.00     0.064 A 
ATOM     21  N   UNL A   1      33.500  18.445  24.297  1.00  0.00    -0.272 N 
ATOM     22  N   UNL A   1      34.629  19.073  24.646  1.00  0.00    -0.178 NA
ATOM     23  C   UNL A   1      35.286  21.252  25.454  1.00  0.00     0.069 C 
BRANCH  21  24
ATOM     24  C   UNL A   1      33.477  16.995  24.268  1.00  0.00     0.141 C 
ATOM     25  C   UNL A   1      34.740  16.334  24.779  1.00  0.00     0.029 C 
ENDBRANCH  21  24
ENDBRANCH  17  18
ENDBRANCH  14  17
ENDBRANCH  12  14
ENDBRANCH   8  12
ENDBRANCH   5   7
ENDBRANCH   1   5
BRANCH   3  26
ATOM     26  C   UNL A   1      32.105  29.663  26.097  1.00  0.00     0.116 C 
BRANCH  26  27
ATOM     27  C   UNL A   1      32.700  30.711  27.053  1.00  0.00     0.023 C 
BRANCH  27  28
ATOM     28  C   UNL A   1      34.151  30.559  27.513  1.00  0.00     0.023 C 
BRANCH  28  29
ATOM     29  C   UNL A   1      34.887  31.860  27.786  1.00  0.00     0.116 C 
BRANCH  29  30
ATOM     30  N   UNL A   1      34.839  32.292  29.190  1.00  0.00    -0.352 N 
ATOM     31  C   UNL A   1      35.548  31.765  30.257  1.00  0.00     0.251 C 
ATOM     32  H   UNL A   1      34.233  33.040  29.396  1.00  0.00     0.163 HD
ATOM     33  O   UNL A   1      35.172  31.913  31.419  1.00  0.00    -0.269 OA
BRANCH  31  34
ATOM     34  C   UNL A   1      36.793  31.046  29.962  1.00  0.00     0.039 A 
ATOM     35  C   UNL A   1      38.019  31.682  29.746  1.00  0.00     0.014 A 
ATOM     36  C   UNL A   1      36.701  29.662  30.036  1.00  0.00     0.014 A 
ATOM     37  C   UNL A   1      39.168  30.896  29.688  1.00  0.00     0.010 A 
ATOM     38  C   UNL A   1      37.838  28.940  30.239  1.00  0.00     0.010 A 
ATOM     39  C   UNL A   1      39.064  29.522  29.958  1.00  0.00    -0.014 A 
BRANCH  39  40
ATOM     40  C   UNL A   1      40.220  28.649  30.076  1.00  0.00     0.031 A 
ATOM     41  C   UNL A   1      40.728  28.502  31.460  1.00  0.00     0.074 A 
ATOM     42  C   UNL A   1      40.623  27.849  29.062  1.00  0.00     0.049 A 
ATOM     43  N   UNL A   1      41.820  28.993  31.938  1.00  0.00    -0.248 NA
ATOM     44  C   UNL A   1      39.856  27.886  32.474  1.00  0.00     0.031 C 
ATOM     45  C   UNL A   1      40.004  27.655  27.742  1.00  0.00     0.029 A 
ATOM     46  N   UNL A   1      41.622  26.929  29.046  1.00  0.00    -0.354 N 
ATOM     47  C   UNL A   1      41.895  28.546  33.251  1.00  0.00     0.074 A 
ATOM     48  C   UNL A   1      40.577  28.066  33.584  1.00  0.00     0.031 C 
ATOM     49  C   UNL A   1      40.486  26.527  27.170  1.00  0.00     0.029 A 
ATOM     50  C   UNL A   1      41.567  26.022  27.992  1.00  0.00     0.049 A 
ATOM     51  H   UNL A   1      42.330  26.906  29.729  1.00  0.00     0.167 HD
ATOM     52  C   UNL A   1      43.102  28.339  33.846  1.00  0.00     0.031 A 
ATOM     53  C   UNL A   1      42.353  24.928  27.821  1.00  0.00     0.031 A 
ATOM     54  C   UNL A   1      44.173  28.923  33.074  1.00  0.00     0.049 A 
ATOM     55  C   UNL A   1      43.559  25.127  28.657  1.00  0.00     0.074 A 
ATOM     56  C   UNL A   1      44.471  30.196  32.629  1.00  0.00     0.029 A 
ATOM     57  N   UNL A   1      44.898  28.067  32.277  1.00  0.00    -0.354 N 
ATOM     58  N   UNL A   1      44.443  26.053  28.417  1.00  0.00    -0.248 NA
ATOM     59  C   UNL A   1      43.527  24.632  30.023  1.00  0.00     0.031 C 
ATOM     60  C   UNL A   1      44.956  30.014  31.299  1.00  0.00     0.029 A 
ATOM     61  C   UNL A   1      45.021  28.644  31.040  1.00  0.00     0.049 A 
ATOM     62  H   UNL A   1      45.266  27.194  32.548  1.00  0.00     0.167 HD
ATOM     63  C   UNL A   1      44.739  26.583  29.664  1.00  0.00     0.074 A 
ATOM     64  C   UNL A   1      44.224  25.603  30.622  1.00  0.00     0.031 C 
ATOM     65  C   UNL A   1      45.096  27.895  29.805  1.00  0.00     0.031 A 
BRANCH  52  66
ATOM     66  C   UNL A   1      43.363  27.239  34.848  1.00  0.00    -0.014 A 
ATOM     67  C   UNL A   1      42.990  25.926  34.507  1.00  0.00     0.009 A 
ATOM     68  C   UNL A   1      43.683  27.474  36.199  1.00  0.00     0.009 A 
ATOM     69  C   UNL A   1      42.855  24.931  35.482  1.00  0.00     0.001 A 
ATOM     70  C   UNL A   1      43.588  26.471  37.168  1.00  0.00     0.001 A 
ATOM     71  C   UNL A   1      43.144  25.207  36.813  1.00  0.00     0.000 A 
ENDBRANCH  52  66
BRANCH  53  72
ATOM     72  C   UNL A   1      42.033  23.620  27.208  1.00  0.00    -0.014 A 
ATOM     73  C   UNL A   1      42.887  23.044  26.253  1.00  0.00     0.009 A 
ATOM     74  C   UNL A   1      41.043  22.798  27.777  1.00  0.00     0.009 A 
ATOM     75  C   UNL A   1      42.787  21.685  25.919  1.00  0.00     0.001 A 
ATOM     76  C   UNL A   1      40.944  21.441  27.444  1.00  0.00     0.001 A 
ATOM     77  C   UNL A   1      41.827  20.880  26.527  1.00  0.00     0.000 A 
ENDBRANCH  53  72
BRANCH  65  78
ATOM     78  C   UNL A   1      45.373  28.689  28.547  1.00  0.00    -0.014 A 
ATOM     79  C   UNL A   1      44.408  29.479  27.895  1.00  0.00     0.009 A 
ATOM     80  C   UNL A   1      46.695  28.748  28.084  1.00  0.00     0.009 A 
ATOM     81  C   UNL A   1      44.752  30.274  26.795  1.00  0.00     0.001 A 
ATOM     82  C   UNL A   1      47.043  29.556  27.000  1.00  0.00     0.001 A 
ATOM     83  C   UNL A   1      46.072  30.313  26.350  1.00  0.00     0.000 A 
ENDBRANCH  65  78
ENDBRANCH  39  40
ENDBRANCH  31  34
ENDBRANCH  29  30
ENDBRANCH  28  29
ENDBRANCH  27  28
ENDBRANCH  26  27
ENDBRANCH   3  26
TORSDOF 18
ENDMDL
MODEL 3
REMARK VINA RESULT:     -10.4      2.690      6.049
REMARK SMILES CCN(Cc1cn(CC)nc1C)C(=O)c1ccn([C@@H](C)C(=O)NCCCCNC(=O)c2ccc(-c3c4nc(c(-c5ccccc5)c5ccc([nH]5)c(-c5ccccc5)c5nc(c(-c6ccccc6)c6ccc3[nH]6)C=C5)C=C4)cc2)n1
REMARK SMILES IDX 21 1 22 2 23 3 19 5 20 6 18 7 15 8 16 9 79 10 17 11 13 12
REMARK SMILES IDX 14 13 3 14 2 15 1 16 4 17 5 18 6 19 11 20 7 21 10 22 12 23
REMARK SMILES IDX 8 24 9 25 24 26 25 27 26 28 27 29 28 30 29 31 30 33 31 34
REMARK SMILES IDX 32 35 78 36 33 37 77 38 34 39 35 40 36 41 71 42 37 43 76 44
REMARK SMILES IDX 70 45 72 46 38 47 75 48 69 49 68 50 39 52 61 53 46 54 60 55
REMARK SMILES IDX 47 56 50 57 59 58 73 59 48 60 49 61 58 63 74 64 51 65 40 66
REMARK SMILES IDX 41 67 45 68 42 69 44 70 43 71 62 72 63 73 67 74 64 75 66 76
REMARK SMILES IDX 65 77 52 78 53 79 57 80 54 81 56 82 55 83
REMARK H PARENT 23 4 28 32 72 51 50 62
REMARK Flexibility Score: inf
ROOT
ATOM      1  C   UNL A   1      30.674  26.360  26.125  1.00  0.00     0.244 C 
ATOM      2  O   UNL A   1      30.256  25.236  26.440  1.00  0.00    -0.273 OA
ATOM      3  N   UNL A   1      31.083  27.120  27.186  1.00  0.00    -0.354 N 
ATOM      4  H   UNL A   1      30.976  26.656  28.048  1.00  0.00     0.163 HD
ENDROOT
BRANCH   1   5
ATOM      5  C   UNL A   1      30.758  26.741  24.633  1.00  0.00     0.193 C 
ATOM      6  C   UNL A   1      29.410  26.728  23.924  1.00  0.00     0.044 C 
BRANCH   5   7
ATOM      7  N   UNL A   1      31.799  26.009  23.923  1.00  0.00    -0.260 N 
ATOM      8  C   UNL A   1      33.301  24.533  23.634  1.00  0.00     0.150 A 
ATOM      9  C   UNL A   1      32.432  24.536  22.530  1.00  0.00     0.056 A 
ATOM     10  N   UNL A   1      32.854  25.427  24.551  1.00  0.00    -0.167 NA
ATOM     11  C   UNL A   1      31.838  25.767  22.589  1.00  0.00     0.110 A 
BRANCH   8  12
ATOM     12  C   UNL A   1      34.489  23.677  23.782  1.00  0.00     0.274 C 
ATOM     13  O   UNL A   1      35.016  23.150  22.801  1.00  0.00    -0.267 OA
BRANCH  12  14
ATOM     14  N   UNL A   1      35.018  23.497  25.089  1.00  0.00    -0.333 N 
BRANCH  14  15
ATOM     15  C   UNL A   1      36.403  23.917  25.300  1.00  0.00     0.117 C 
ATOM     16  C   UNL A   1      37.387  22.755  25.356  1.00  0.00     0.027 C 
ENDBRANCH  14  15
BRANCH  14  17
ATOM     17  C   UNL A   1      34.393  22.708  26.172  1.00  0.00     0.159 C 
BRANCH  17  18
ATOM     18  C   UNL A   1      33.688  21.459  25.707  1.00  0.00     0.012 A 
ATOM     19  C   UNL A   1      34.313  20.257  25.389  1.00  0.00     0.114 A 
ATOM     20  C   UNL A   1      32.316  21.202  25.395  1.00  0.00     0.064 A 
ATOM     21  N   UNL A   1      33.380  19.475  24.768  1.00  0.00    -0.272 N 
ATOM     22  N   UNL A   1      32.153  20.007  24.809  1.00  0.00    -0.178 NA
ATOM     23  C   UNL A   1      31.125  22.075  25.519  1.00  0.00     0.069 C 
BRANCH  21  24
ATOM     24  C   UNL A   1      33.639  18.364  23.873  1.00  0.00     0.141 C 
ATOM     25  C   UNL A   1      32.510  18.051  22.914  1.00  0.00     0.029 C 
ENDBRANCH  21  24
ENDBRANCH  17  18
ENDBRANCH  14  17
ENDBRANCH  12  14
ENDBRANCH   8  12
ENDBRANCH   5   7
ENDBRANCH   1   5
BRANCH   3  26
ATOM     26  C   UNL A   1      31.640  28.456  27.334  1.00  0.00     0.116 C 
BRANCH  26  27
ATOM     27  C   UNL A   1      32.323  28.968  26.055  1.00  0.00     0.023 C 
BRANCH  27  28
ATOM     28  C   UNL A   1      33.656  29.710  26.168  1.00  0.00     0.023 C 
BRANCH  28  29
ATOM     29  C   UNL A   1      33.896  30.419  27.490  1.00  0.00     0.116 C 
BRANCH  29  30
ATOM     30  N   UNL A   1      34.553  31.727  27.358  1.00  0.00    -0.352 N 
ATOM     31  C   UNL A   1      35.698  32.162  28.005  1.00  0.00     0.251 C 
ATOM     32  H   UNL A   1      34.130  32.367  26.741  1.00  0.00     0.163 HD
ATOM     33  O   UNL A   1      35.949  33.360  28.137  1.00  0.00    -0.269 OA
BRANCH  31  34
ATOM     34  C   UNL A   1      36.630  31.145  28.502  1.00  0.00     0.039 A 
ATOM     35  C   UNL A   1      36.551  29.792  28.159  1.00  0.00     0.014 A 
ATOM     36  C   UNL A   1      37.693  31.639  29.248  1.00  0.00     0.014 A 
ATOM     37  C   UNL A   1      37.610  28.958  28.514  1.00  0.00     0.010 A 
ATOM     38  C   UNL A   1      38.823  30.887  29.357  1.00  0.00     0.010 A 
ATOM     39  C   UNL A   1      38.754  29.527  29.098  1.00  0.00    -0.014 A 
BRANCH  39  40
ATOM     40  C   UNL A   1      39.967  28.771  29.361  1.00  0.00     0.031 A 
ATOM     41  C   UNL A   1      40.258  28.579  30.801  1.00  0.00     0.074 A 
ATOM     42  C   UNL A   1      40.615  28.090  28.389  1.00  0.00     0.049 A 
ATOM     43  N   UNL A   1      41.197  29.143  31.481  1.00  0.00    -0.248 NA
ATOM     44  C   UNL A   1      39.309  27.805  31.620  1.00  0.00     0.031 C 
ATOM     45  C   UNL A   1      40.244  27.929  26.974  1.00  0.00     0.029 A 
ATOM     46  N   UNL A   1      41.701  27.281  28.492  1.00  0.00    -0.354 N 
ATOM     47  C   UNL A   1      41.108  28.614  32.763  1.00  0.00     0.074 A 
ATOM     48  C   UNL A   1      39.817  27.979  32.844  1.00  0.00     0.031 C 
ATOM     49  C   UNL A   1      40.935  26.900  26.433  1.00  0.00     0.029 A 
ATOM     50  C   UNL A   1      41.920  26.451  27.397  1.00  0.00     0.049 A 
ATOM     51  H   UNL A   1      42.288  27.282  29.282  1.00  0.00     0.167 HD
ATOM     52  C   UNL A   1      42.219  28.489  33.540  1.00  0.00     0.031 A 
ATOM     53  C   UNL A   1      42.840  25.458  27.301  1.00  0.00     0.031 A 
ATOM     54  C   UNL A   1      43.328  29.233  32.992  1.00  0.00     0.049 A 
ATOM     55  C   UNL A   1      43.866  25.719  28.338  1.00  0.00     0.074 A 
ATOM     56  C   UNL A   1      43.548  30.559  32.672  1.00  0.00     0.029 A 
ATOM     57  N   UNL A   1      44.264  28.515  32.283  1.00  0.00    -0.354 N 
ATOM     58  N   UNL A   1      44.667  26.745  28.300  1.00  0.00    -0.248 NA
ATOM     59  C   UNL A   1      43.670  25.127  29.650  1.00  0.00     0.031 C 
ATOM     60  C   UNL A   1      44.259  30.523  31.434  1.00  0.00     0.029 A 
ATOM     61  C   UNL A   1      44.519  29.188  31.117  1.00  0.00     0.049 A 
ATOM     62  H   UNL A   1      44.679  27.667  32.565  1.00  0.00     0.167 HD
ATOM     63  C   UNL A   1      44.696  27.213  29.605  1.00  0.00     0.074 A 
ATOM     64  C   UNL A   1      44.147  26.119  30.410  1.00  0.00     0.031 C 
ATOM     65  C   UNL A   1      44.876  28.541  29.874  1.00  0.00     0.031 A 
BRANCH  52  66
ATOM     66  C   UNL A   1      42.437  27.353  34.511  1.00  0.00    -0.014 A 
ATOM     67  C   UNL A   1      43.109  26.206  34.053  1.00  0.00     0.009 A 
ATOM     68  C   UNL A   1      41.769  27.243  35.746  1.00  0.00     0.009 A 
ATOM     69  C   UNL A   1      43.035  24.992  34.746  1.00  0.00     0.001 A 
ATOM     70  C   UNL A   1      41.728  26.043  36.461  1.00  0.00     0.001 A 
ATOM     71  C   UNL A   1      42.335  24.909  35.945  1.00  0.00     0.000 A 
ENDBRANCH  52  66
BRANCH  53  72
ATOM     72  C   UNL A   1      42.773  24.171  26.575  1.00  0.00    -0.014 A 
ATOM     73  C   UNL A   1      43.719  23.851  25.587  1.00  0.00     0.009 A 
ATOM     74  C   UNL A   1      41.958  23.131  27.057  1.00  0.00     0.009 A 
ATOM     75  C   UNL A   1      43.878  22.532  25.137  1.00  0.00     0.001 A 
ATOM     76  C   UNL A   1      42.116  21.814  26.608  1.00  0.00     0.001 A 
ATOM     77  C   UNL A   1      43.088  21.511  25.660  1.00  0.00     0.000 A 
ENDBRANCH  53  72
BRANCH  65  78
ATOM     78  C   UNL A   1      45.261  29.447  28.725  1.00  0.00    -0.014 A 
ATOM     79  C   UNL A   1      44.327  30.068  27.875  1.00  0.00     0.009 A 
ATOM     80  C   UNL A   1      46.613  29.792  28.584  1.00  0.00     0.009 A 
ATOM     81  C   UNL A   1      44.741  30.979  26.894  1.00  0.00     0.001 A 
ATOM     82  C   UNL A   1      47.023  30.715  27.621  1.00  0.00     0.001 A 
ATOM     83  C   UNL A   1      46.090  31.303  26.771  1.00  0.00     0.000 A 
ENDBRANCH  65  78
ENDBRANCH  39  40
ENDBRANCH  31  34
ENDBRANCH  29  30
ENDBRANCH  28  29
ENDBRANCH  27  28
ENDBRANCH  26  27
ENDBRANCH   3  26
TORSDOF 18
ENDMDL
