MODEL 1
REMARK VINA RESULT:     -10.8      0.000      0.000
REMARK SMILES CCOC(=O)c1sc(NC(=O)CCC(=O)NCCCCNC(=O)c2ccc(-c3c4nc(c(-c5ccccc5)c5ccc([nH]5)c(-c5ccccc5)c5nc(c(-c6ccccc6)c6ccc3[nH]6)C=C5)C=C4)cc2)c(C#N)c1C
REMARK SMILES IDX 14 1 15 2 16 3 13 5 12 6 10 7 9 8 11 10 8 11 6 12 7 13 75 14
REMARK SMILES IDX 72 15 76 16 4 17 5 18 3 19 2 20 1 21 73 22 74 23 17 24 18 25
REMARK SMILES IDX 19 26 20 27 21 28 22 29 23 31 24 32 25 33 71 34 26 35 70 36
REMARK SMILES IDX 27 37 28 38 29 39 64 40 30 41 69 42 63 43 65 44 31 45 68 46
REMARK SMILES IDX 62 47 61 48 32 50 54 51 39 52 53 53 40 54 43 55 52 56 66 57
REMARK SMILES IDX 41 58 42 59 51 61 67 62 44 63 33 64 34 65 38 66 35 67 37 68
REMARK SMILES IDX 36 69 55 70 56 71 60 72 57 73 59 74 58 75 45 76 46 77 50 78
REMARK SMILES IDX 47 79 49 80 48 81
REMARK H PARENT 16 4 9 9 21 30 65 49 43 60
REMARK Flexibility Score: inf
ROOT
ATOM      1  C   UNL A   1      32.712  28.141  26.487  1.00  0.00     0.220 C 
ATOM      2  O   UNL A   1      31.874  27.390  26.989  1.00  0.00    -0.275 OA
ATOM      3  N   UNL A   1      32.738  29.432  26.913  1.00  0.00    -0.356 N 
ATOM      4  H   UNL A   1      31.930  29.728  27.392  1.00  0.00     0.163 HD
ENDROOT
BRANCH   1   5
ATOM      5  C   UNL A   1      33.672  27.653  25.430  1.00  0.00     0.110 C 
BRANCH   5   6
ATOM      6  C   UNL A   1      33.770  28.461  24.136  1.00  0.00     0.110 C 
BRANCH   6   7
ATOM      7  C   UNL A   1      33.538  27.757  22.811  1.00  0.00     0.225 C 
ATOM      8  N   UNL A   1      32.320  27.545  22.223  1.00  0.00    -0.317 N 
ATOM      9  H   UNL A   1      32.368  27.136  21.328  1.00  0.00     0.170 HD
ATOM     10  O   UNL A   1      34.532  27.383  22.173  1.00  0.00    -0.275 OA
BRANCH   8  11
ATOM     11  C   UNL A   1      31.036  27.801  22.664  1.00  0.00     0.114 A 
ATOM     12  C   UNL A   1      28.808  28.777  22.922  1.00  0.00     0.118 A 
ATOM     13  S   UNL A   1      30.308  29.300  22.335  1.00  0.00    -0.109 S 
ATOM     14  C   UNL A   1      28.852  27.496  23.438  1.00  0.00    -0.006 A 
ATOM     15  C   UNL A   1      30.212  27.033  23.477  1.00  0.00     0.091 A 
ATOM     16  C   UNL A   1      27.665  26.720  23.920  1.00  0.00     0.048 C 
BRANCH  12  17
ATOM     17  C   UNL A   1      27.719  29.708  22.942  1.00  0.00     0.348 C 
ATOM     18  O   UNL A   1      26.907  29.883  23.838  1.00  0.00    -0.245 OA
BRANCH  17  19
ATOM     19  O   UNL A   1      27.715  30.320  21.727  1.00  0.00    -0.462 OA
BRANCH  19  20
ATOM     20  C   UNL A   1      27.652  31.745  21.730  1.00  0.00     0.230 C 
ATOM     21  C   UNL A   1      28.322  32.321  20.496  1.00  0.00     0.049 C 
ENDBRANCH  19  20
ENDBRANCH  17  19
ENDBRANCH  12  17
BRANCH  15  22
ATOM     22  C   UNL A   1      30.577  25.840  24.172  1.00  0.00     0.103 C 
ATOM     23  N   UNL A   1      30.865  24.828  24.681  1.00  0.00    -0.192 NA
ENDBRANCH  15  22
ENDBRANCH   8  11
ENDBRANCH   6   7
ENDBRANCH   5   6
ENDBRANCH   1   5
BRANCH   3  24
ATOM     24  C   UNL A   1      33.774  30.443  26.774  1.00  0.00     0.116 C 
BRANCH  24  25
ATOM     25  C   UNL A   1      34.812  30.492  27.904  1.00  0.00     0.023 C 
BRANCH  25  26
ATOM     26  C   UNL A   1      35.803  29.334  27.972  1.00  0.00     0.023 C 
BRANCH  26  27
ATOM     27  C   UNL A   1      36.677  29.325  29.200  1.00  0.00     0.116 C 
BRANCH  27  28
ATOM     28  N   UNL A   1      37.455  30.556  29.355  1.00  0.00    -0.352 N 
ATOM     29  C   UNL A   1      38.837  30.686  29.348  1.00  0.00     0.251 C 
ATOM     30  H   UNL A   1      36.940  31.385  29.477  1.00  0.00     0.163 HD
ATOM     31  O   UNL A   1      39.396  31.642  29.868  1.00  0.00    -0.269 OA
BRANCH  29  32
ATOM     32  C   UNL A   1      39.615  29.646  28.652  1.00  0.00     0.039 A 
ATOM     33  C   UNL A   1      39.655  29.487  27.265  1.00  0.00     0.014 A 
ATOM     34  C   UNL A   1      40.435  28.887  29.466  1.00  0.00     0.014 A 
ATOM     35  C   UNL A   1      40.545  28.545  26.744  1.00  0.00     0.010 A 
ATOM     36  C   UNL A   1      41.570  28.405  28.906  1.00  0.00     0.010 A 
ATOM     37  C   UNL A   1      41.505  27.987  27.602  1.00  0.00    -0.014 A 
BRANCH  37  38
ATOM     38  C   UNL A   1      42.603  27.131  27.191  1.00  0.00     0.031 A 
ATOM     39  C   UNL A   1      42.190  25.720  27.111  1.00  0.00     0.074 A 
ATOM     40  C   UNL A   1      43.804  27.591  26.758  1.00  0.00     0.049 A 
ATOM     41  N   UNL A   1      42.393  24.848  28.035  1.00  0.00    -0.248 NA
ATOM     42  C   UNL A   1      41.258  25.275  26.064  1.00  0.00     0.031 C 
ATOM     43  C   UNL A   1      44.274  28.970  26.554  1.00  0.00     0.029 A 
ATOM     44  N   UNL A   1      44.885  26.871  26.352  1.00  0.00    -0.354 N 
ATOM     45  C   UNL A   1      41.848  23.667  27.567  1.00  0.00     0.074 A 
ATOM     46  C   UNL A   1      40.983  24.033  26.474  1.00  0.00     0.031 C 
ATOM     47  C   UNL A   1      45.447  28.967  25.870  1.00  0.00     0.029 A 
ATOM     48  C   UNL A   1      45.900  27.595  25.727  1.00  0.00     0.049 A 
ATOM     49  H   UNL A   1      44.948  25.898  26.492  1.00  0.00     0.167 HD
ATOM     50  C   UNL A   1      42.394  22.482  27.948  1.00  0.00     0.031 A 
ATOM     51  C   UNL A   1      47.040  27.095  25.172  1.00  0.00     0.031 A 
ATOM     52  C   UNL A   1      43.345  22.675  29.021  1.00  0.00     0.049 A 
ATOM     53  C   UNL A   1      47.280  25.777  25.810  1.00  0.00     0.074 A 
ATOM     54  C   UNL A   1      43.262  23.168  30.308  1.00  0.00     0.029 A 
ATOM     55  N   UNL A   1      44.666  22.796  28.645  1.00  0.00    -0.354 N 
ATOM     56  N   UNL A   1      47.594  25.662  27.069  1.00  0.00    -0.248 NA
ATOM     57  C   UNL A   1      46.646  24.612  25.211  1.00  0.00     0.031 C 
ATOM     58  C   UNL A   1      44.421  23.985  30.462  1.00  0.00     0.029 A 
ATOM     59  C   UNL A   1      45.214  23.856  29.321  1.00  0.00     0.049 A 
ATOM     60  H   UNL A   1      45.135  22.219  28.002  1.00  0.00     0.167 HD
ATOM     61  C   UNL A   1      46.775  24.644  27.535  1.00  0.00     0.074 A 
ATOM     62  C   UNL A   1      46.274  23.977  26.329  1.00  0.00     0.031 C 
ATOM     63  C   UNL A   1      46.327  24.639  28.826  1.00  0.00     0.031 A 
BRANCH  50  64
ATOM     64  C   UNL A   1      42.436  21.260  27.075  1.00  0.00    -0.014 A 
ATOM     65  C   UNL A   1      41.894  20.067  27.584  1.00  0.00     0.009 A 
ATOM     66  C   UNL A   1      43.229  21.161  25.918  1.00  0.00     0.009 A 
ATOM     67  C   UNL A   1      42.197  18.830  27.009  1.00  0.00     0.001 A 
ATOM     68  C   UNL A   1      43.506  19.930  25.321  1.00  0.00     0.001 A 
ATOM     69  C   UNL A   1      43.012  18.762  25.882  1.00  0.00     0.000 A 
ENDBRANCH  50  64
BRANCH  51  70
ATOM     70  C   UNL A   1      47.784  27.512  23.955  1.00  0.00    -0.014 A 
ATOM     71  C   UNL A   1      49.046  26.970  23.642  1.00  0.00     0.009 A 
ATOM     72  C   UNL A   1      47.113  28.207  22.934  1.00  0.00     0.009 A 
ATOM     73  C   UNL A   1      49.590  27.085  22.350  1.00  0.00     0.001 A 
ATOM     74  C   UNL A   1      47.652  28.316  21.644  1.00  0.00     0.001 A 
ATOM     75  C   UNL A   1      48.884  27.743  21.347  1.00  0.00     0.000 A 
ENDBRANCH  51  70
BRANCH  63  76
ATOM     76  C   UNL A   1      46.908  25.663  29.778  1.00  0.00    -0.014 A 
ATOM     77  C   UNL A   1      48.221  25.612  30.285  1.00  0.00     0.009 A 
ATOM     78  C   UNL A   1      46.138  26.800  30.057  1.00  0.00     0.009 A 
ATOM     79  C   UNL A   1      48.727  26.653  31.076  1.00  0.00     0.001 A 
ATOM     80  C   UNL A   1      46.648  27.845  30.829  1.00  0.00     0.001 A 
ATOM     81  C   UNL A   1      47.939  27.770  31.345  1.00  0.00     0.000 A 
ENDBRANCH  63  76
ENDBRANCH  37  38
ENDBRANCH  29  32
ENDBRANCH  27  28
ENDBRANCH  26  27
ENDBRANCH  25  26
ENDBRANCH  24  25
ENDBRANCH   3  24
TORSDOF 18
ENDMDL
MODEL 2
REMARK VINA RESULT:     -10.7      3.282      7.503
REMARK SMILES CCOC(=O)c1sc(NC(=O)CCC(=O)NCCCCNC(=O)c2ccc(-c3c4nc(c(-c5ccccc5)c5ccc([nH]5)c(-c5ccccc5)c5nc(c(-c6ccccc6)c6ccc3[nH]6)C=C5)C=C4)cc2)c(C#N)c1C
REMARK SMILES IDX 14 1 15 2 16 3 13 5 12 6 10 7 9 8 11 10 8 11 6 12 7 13 75 14
REMARK SMILES IDX 72 15 76 16 4 17 5 18 3 19 2 20 1 21 73 22 74 23 17 24 18 25
REMARK SMILES IDX 19 26 20 27 21 28 22 29 23 31 24 32 25 33 71 34 26 35 70 36
REMARK SMILES IDX 27 37 28 38 29 39 64 40 30 41 69 42 63 43 65 44 31 45 68 46
REMARK SMILES IDX 62 47 61 48 32 50 54 51 39 52 53 53 40 54 43 55 52 56 66 57
REMARK SMILES IDX 41 58 42 59 51 61 67 62 44 63 33 64 34 65 38 66 35 67 37 68
REMARK SMILES IDX 36 69 55 70 56 71 60 72 57 73 59 74 58 75 45 76 46 77 50 78
REMARK SMILES IDX 47 79 49 80 48 81
REMARK H PARENT 16 4 9 9 21 30 65 49 43 60
REMARK Flexibility Score: inf
ROOT
ATOM      1  C   UNL A   1      33.970  21.834  26.004  1.00  0.00     0.220 C 
ATOM      2  O   UNL A   1      33.213  21.043  26.569  1.00  0.00    -0.275 OA
ATOM      3  N   UNL A   1      34.777  21.346  25.024  1.00  0.00    -0.356 N 
ATOM      4  H   UNL A   1      34.879  20.366  25.018  1.00  0.00     0.163 HD
ENDROOT
BRANCH   1   5
ATOM      5  C   UNL A   1      34.012  23.293  26.389  1.00  0.00     0.110 C 
BRANCH   5   6
ATOM      6  C   UNL A   1      32.906  24.199  25.849  1.00  0.00     0.110 C 
BRANCH   6   7
ATOM      7  C   UNL A   1      31.649  24.397  26.677  1.00  0.00     0.225 C 
ATOM      8  N   UNL A   1      30.732  25.400  26.509  1.00  0.00    -0.317 N 
ATOM      9  H   UNL A   1      29.941  25.328  27.091  1.00  0.00     0.170 HD
ATOM     10  O   UNL A   1      31.393  23.556  27.551  1.00  0.00    -0.275 OA
BRANCH   8  11
ATOM     11  C   UNL A   1      30.723  26.496  25.668  1.00  0.00     0.114 A 
ATOM     12  C   UNL A   1      30.084  28.109  23.943  1.00  0.00     0.118 A 
ATOM     13  S   UNL A   1      29.791  26.469  24.248  1.00  0.00    -0.109 S 
ATOM     14  C   UNL A   1      30.943  28.679  24.863  1.00  0.00    -0.006 A 
ATOM     15  C   UNL A   1      31.474  27.663  25.729  1.00  0.00     0.091 A 
ATOM     16  C   UNL A   1      31.296  30.133  24.926  1.00  0.00     0.048 C 
BRANCH  12  17
ATOM     17  C   UNL A   1      29.543  28.691  22.750  1.00  0.00     0.348 C 
ATOM     18  O   UNL A   1      30.119  28.886  21.692  1.00  0.00    -0.245 OA
BRANCH  17  19
ATOM     19  O   UNL A   1      28.267  29.056  23.048  1.00  0.00    -0.462 OA
BRANCH  19  20
ATOM     20  C   UNL A   1      27.761  30.210  22.380  1.00  0.00     0.230 C 
ATOM     21  C   UNL A   1      27.691  31.397  23.322  1.00  0.00     0.049 C 
ENDBRANCH  19  20
ENDBRANCH  17  19
ENDBRANCH  12  17
BRANCH  15  22
ATOM     22  C   UNL A   1      32.557  27.930  26.622  1.00  0.00     0.103 C 
ATOM     23  N   UNL A   1      33.478  28.174  27.298  1.00  0.00    -0.192 NA
ENDBRANCH  15  22
ENDBRANCH   8  11
ENDBRANCH   6   7
ENDBRANCH   5   6
ENDBRANCH   1   5
BRANCH   3  24
ATOM     24  C   UNL A   1      35.510  22.045  23.981  1.00  0.00     0.116 C 
BRANCH  24  25
ATOM     25  C   UNL A   1      37.040  22.010  24.106  1.00  0.00     0.023 C 
BRANCH  25  26
ATOM     26  C   UNL A   1      37.653  20.716  24.635  1.00  0.00     0.023 C 
BRANCH  26  27
ATOM     27  C   UNL A   1      38.679  20.906  25.723  1.00  0.00     0.116 C 
BRANCH  27  28
ATOM     28  N   UNL A   1      39.606  19.778  25.834  1.00  0.00    -0.352 N 
ATOM     29  C   UNL A   1      40.989  19.832  25.946  1.00  0.00     0.251 C 
ATOM     30  H   UNL A   1      39.204  18.880  25.830  1.00  0.00     0.163 HD
ATOM     31  O   UNL A   1      41.697  18.883  25.637  1.00  0.00    -0.269 OA
BRANCH  29  32
ATOM     32  C   UNL A   1      41.581  21.066  26.492  1.00  0.00     0.039 A 
ATOM     33  C   UNL A   1      42.103  22.101  25.712  1.00  0.00     0.014 A 
ATOM     34  C   UNL A   1      41.474  21.210  27.862  1.00  0.00     0.014 A 
ATOM     35  C   UNL A   1      42.504  23.269  26.366  1.00  0.00     0.010 A 
ATOM     36  C   UNL A   1      41.394  22.475  28.337  1.00  0.00     0.010 A 
ATOM     37  C   UNL A   1      42.150  23.435  27.714  1.00  0.00    -0.014 A 
BRANCH  37  38
ATOM     38  C   UNL A   1      42.336  24.648  28.488  1.00  0.00     0.031 A 
ATOM     39  C   UNL A   1      41.259  25.621  28.239  1.00  0.00     0.074 A 
ATOM     40  C   UNL A   1      43.278  24.797  29.453  1.00  0.00     0.049 A 
ATOM     41  N   UNL A   1      41.346  26.613  27.425  1.00  0.00    -0.248 NA
ATOM     42  C   UNL A   1      39.891  25.355  28.713  1.00  0.00     0.031 C 
ATOM     43  C   UNL A   1      44.259  23.834  29.977  1.00  0.00     0.029 A 
ATOM     44  N   UNL A   1      43.526  25.888  30.228  1.00  0.00    -0.354 N 
ATOM     45  C   UNL A   1      40.127  27.260  27.484  1.00  0.00     0.074 A 
ATOM     46  C   UNL A   1      39.214  26.334  28.106  1.00  0.00     0.031 C 
ATOM     47  C   UNL A   1      44.832  24.319  31.108  1.00  0.00     0.029 A 
ATOM     48  C   UNL A   1      44.387  25.687  31.306  1.00  0.00     0.049 A 
ATOM     49  H   UNL A   1      43.123  26.767  30.038  1.00  0.00     0.167 HD
ATOM     50  C   UNL A   1      40.072  28.602  27.276  1.00  0.00     0.031 A 
ATOM     51  C   UNL A   1      44.730  26.598  32.261  1.00  0.00     0.031 A 
ATOM     52  C   UNL A   1      41.332  29.095  26.763  1.00  0.00     0.049 A 
ATOM     53  C   UNL A   1      44.489  27.939  31.674  1.00  0.00     0.074 A 
ATOM     54  C   UNL A   1      42.077  28.845  25.628  1.00  0.00     0.029 A 
ATOM     55  N   UNL A   1      42.209  29.601  27.699  1.00  0.00    -0.354 N 
ATOM     56  N   UNL A   1      45.197  28.400  30.683  1.00  0.00    -0.248 NA
ATOM     57  C   UNL A   1      43.157  28.507  31.812  1.00  0.00     0.031 C 
ATOM     58  C   UNL A   1      43.426  28.766  26.087  1.00  0.00     0.029 A 
ATOM     59  C   UNL A   1      43.457  29.090  27.444  1.00  0.00     0.049 A 
ATOM     60  H   UNL A   1      41.979  30.222  28.426  1.00  0.00     0.167 HD
ATOM     61  C   UNL A   1      44.259  28.923  29.805  1.00  0.00     0.074 A 
ATOM     62  C   UNL A   1      43.026  29.037  30.590  1.00  0.00     0.031 C 
ATOM     63  C   UNL A   1      44.476  28.911  28.456  1.00  0.00     0.031 A 
BRANCH  50  64
ATOM     64  C   UNL A   1      39.091  29.516  27.953  1.00  0.00    -0.014 A 
ATOM     65  C   UNL A   1      39.353  29.895  29.282  1.00  0.00     0.009 A 
ATOM     66  C   UNL A   1      37.803  29.778  27.455  1.00  0.00     0.009 A 
ATOM     67  C   UNL A   1      38.350  30.436  30.092  1.00  0.00     0.001 A 
ATOM     68  C   UNL A   1      36.810  30.350  28.251  1.00  0.00     0.001 A 
ATOM     69  C   UNL A   1      37.076  30.654  29.578  1.00  0.00     0.000 A 
ENDBRANCH  50  64
BRANCH  51  70
ATOM     70  C   UNL A   1      44.977  26.423  33.716  1.00  0.00    -0.014 A 
ATOM     71  C   UNL A   1      43.934  26.528  34.657  1.00  0.00     0.009 A 
ATOM     72  C   UNL A   1      46.179  25.841  34.153  1.00  0.00     0.009 A 
ATOM     73  C   UNL A   1      44.078  26.031  35.965  1.00  0.00     0.001 A 
ATOM     74  C   UNL A   1      46.321  25.341  35.455  1.00  0.00     0.001 A 
ATOM     75  C   UNL A   1      45.266  25.422  36.357  1.00  0.00     0.000 A 
ENDBRANCH  51  70
BRANCH  63  76
ATOM     76  C   UNL A   1      45.847  28.492  27.967  1.00  0.00    -0.014 A 
ATOM     77  C   UNL A   1      46.923  29.382  27.783  1.00  0.00     0.009 A 
ATOM     78  C   UNL A   1      46.094  27.121  27.823  1.00  0.00     0.009 A 
ATOM     79  C   UNL A   1      48.195  28.909  27.431  1.00  0.00     0.001 A 
ATOM     80  C   UNL A   1      47.365  26.648  27.491  1.00  0.00     0.001 A 
ATOM     81  C   UNL A   1      48.414  27.541  27.288  1.00  0.00     0.000 A 
ENDBRANCH  63  76
ENDBRANCH  37  38
ENDBRANCH  29  32
ENDBRANCH  27  28
ENDBRANCH  26  27
ENDBRANCH  25  26
ENDBRANCH  24  25
ENDBRANCH   3  24
TORSDOF 18
ENDMDL
MODEL 3
REMARK VINA RESULT:     -10.7      4.931      7.587
REMARK SMILES CCOC(=O)c1sc(NC(=O)CCC(=O)NCCCCNC(=O)c2ccc(-c3c4nc(c(-c5ccccc5)c5ccc([nH]5)c(-c5ccccc5)c5nc(c(-c6ccccc6)c6ccc3[nH]6)C=C5)C=C4)cc2)c(C#N)c1C
REMARK SMILES IDX 14 1 15 2 16 3 13 5 12 6 10 7 9 8 11 10 8 11 6 12 7 13 75 14
REMARK SMILES IDX 72 15 76 16 4 17 5 18 3 19 2 20 1 21 73 22 74 23 17 24 18 25
REMARK SMILES IDX 19 26 20 27 21 28 22 29 23 31 24 32 25 33 71 34 26 35 70 36
REMARK SMILES IDX 27 37 28 38 29 39 64 40 30 41 69 42 63 43 65 44 31 45 68 46
REMARK SMILES IDX 62 47 61 48 32 50 54 51 39 52 53 53 40 54 43 55 52 56 66 57
REMARK SMILES IDX 41 58 42 59 51 61 67 62 44 63 33 64 34 65 38 66 35 67 37 68
REMARK SMILES IDX 36 69 55 70 56 71 60 72 57 73 59 74 58 75 45 76 46 77 50 78
REMARK SMILES IDX 47 79 49 80 48 81
REMARK H PARENT 16 4 9 9 21 30 65 49 43 60
REMARK Flexibility Score: inf
ROOT
ATOM      1  C   UNL A   1      32.946  27.364  25.884  1.00  0.00     0.220 C 
ATOM      2  O   UNL A   1      33.510  26.283  26.061  1.00  0.00    -0.275 OA
ATOM      3  N   UNL A   1      33.450  28.451  26.528  1.00  0.00    -0.356 N 
ATOM      4  H   UNL A   1      34.057  28.248  27.276  1.00  0.00     0.163 HD
ENDROOT
BRANCH   1   5
ATOM      5  C   UNL A   1      31.733  27.482  24.994  1.00  0.00     0.110 C 
BRANCH   5   6
ATOM      6  C   UNL A   1      30.492  26.678  25.380  1.00  0.00     0.110 C 
BRANCH   6   7
ATOM      7  C   UNL A   1      29.811  25.826  24.323  1.00  0.00     0.225 C 
ATOM      8  N   UNL A   1      30.117  24.524  24.029  1.00  0.00    -0.317 N 
ATOM      9  H   UNL A   1      29.521  24.108  23.364  1.00  0.00     0.170 HD
ATOM     10  O   UNL A   1      28.863  26.324  23.700  1.00  0.00    -0.275 OA
BRANCH   8  11
ATOM     11  C   UNL A   1      31.113  23.692  24.501  1.00  0.00     0.114 A 
ATOM     12  C   UNL A   1      33.222  22.473  24.729  1.00  0.00     0.118 A 
ATOM     13  S   UNL A   1      32.348  23.169  23.457  1.00  0.00    -0.109 S 
ATOM     14  C   UNL A   1      32.565  22.560  25.941  1.00  0.00    -0.006 A 
ATOM     15  C   UNL A   1      31.240  23.079  25.741  1.00  0.00     0.091 A 
ATOM     16  C   UNL A   1      33.134  22.143  27.262  1.00  0.00     0.048 C 
BRANCH  12  17
ATOM     17  C   UNL A   1      34.441  21.782  24.425  1.00  0.00     0.348 C 
ATOM     18  O   UNL A   1      34.716  20.618  24.672  1.00  0.00    -0.245 OA
BRANCH  17  19
ATOM     19  O   UNL A   1      35.272  22.702  23.865  1.00  0.00    -0.462 OA
BRANCH  19  20
ATOM     20  C   UNL A   1      36.582  22.799  24.419  1.00  0.00     0.230 C 
ATOM     21  C   UNL A   1      36.617  23.797  25.561  1.00  0.00     0.049 C 
ENDBRANCH  19  20
ENDBRANCH  17  19
ENDBRANCH  12  17
BRANCH  15  22
ATOM     22  C   UNL A   1      30.263  23.061  26.783  1.00  0.00     0.103 C 
ATOM     23  N   UNL A   1      29.515  23.038  27.681  1.00  0.00    -0.192 NA
ENDBRANCH  15  22
ENDBRANCH   8  11
ENDBRANCH   6   7
ENDBRANCH   5   6
ENDBRANCH   1   5
BRANCH   3  24
ATOM     24  C   UNL A   1      33.233  29.868  26.283  1.00  0.00     0.116 C 
BRANCH  24  25
ATOM     25  C   UNL A   1      31.916  30.443  26.825  1.00  0.00     0.023 C 
BRANCH  25  26
ATOM     26  C   UNL A   1      31.782  31.963  26.823  1.00  0.00     0.023 C 
BRANCH  26  27
ATOM     27  C   UNL A   1      33.028  32.705  27.233  1.00  0.00     0.116 C 
BRANCH  27  28
ATOM     28  N   UNL A   1      32.743  34.000  27.854  1.00  0.00    -0.352 N 
ATOM     29  C   UNL A   1      33.240  34.486  29.056  1.00  0.00     0.251 C 
ATOM     30  H   UNL A   1      32.129  34.593  27.364  1.00  0.00     0.163 HD
ATOM     31  O   UNL A   1      32.664  35.365  29.682  1.00  0.00    -0.269 OA
BRANCH  29  32
ATOM     32  C   UNL A   1      34.517  33.932  29.539  1.00  0.00     0.039 A 
ATOM     33  C   UNL A   1      34.625  32.899  30.473  1.00  0.00     0.014 A 
ATOM     34  C   UNL A   1      35.643  34.418  28.901  1.00  0.00     0.014 A 
ATOM     35  C   UNL A   1      35.899  32.386  30.730  1.00  0.00     0.010 A 
ATOM     36  C   UNL A   1      36.702  33.578  28.811  1.00  0.00     0.010 A 
ATOM     37  C   UNL A   1      36.953  32.759  29.882  1.00  0.00    -0.014 A 
BRANCH  37  38
ATOM     38  C   UNL A   1      38.289  32.192  29.903  1.00  0.00     0.031 A 
ATOM     39  C   UNL A   1      38.292  30.796  29.431  1.00  0.00     0.074 A 
ATOM     40  C   UNL A   1      39.415  32.907  30.149  1.00  0.00     0.049 A 
ATOM     41  N   UNL A   1      38.284  29.767  30.202  1.00  0.00    -0.248 NA
ATOM     42  C   UNL A   1      38.025  30.487  28.018  1.00  0.00     0.031 C 
ATOM     43  C   UNL A   1      39.589  34.347  30.393  1.00  0.00     0.029 A 
ATOM     44  N   UNL A   1      40.702  32.466  30.187  1.00  0.00    -0.354 N 
ATOM     45  C   UNL A   1      38.282  28.667  29.365  1.00  0.00     0.074 A 
ATOM     46  C   UNL A   1      37.902  29.157  28.064  1.00  0.00     0.031 C 
ATOM     47  C   UNL A   1      40.905  34.675  30.339  1.00  0.00     0.029 A 
ATOM     48  C   UNL A   1      41.684  33.456  30.219  1.00  0.00     0.049 A 
ATOM     49  H   UNL A   1      40.926  31.507  30.193  1.00  0.00     0.167 HD
ATOM     50  C   UNL A   1      38.878  27.515  29.774  1.00  0.00     0.031 A 
ATOM     51  C   UNL A   1      43.034  33.270  30.187  1.00  0.00     0.031 A 
ATOM     52  C   UNL A   1      39.210  27.579  31.180  1.00  0.00     0.049 A 
ATOM     53  C   UNL A   1      43.283  31.886  30.658  1.00  0.00     0.074 A 
ATOM     54  C   UNL A   1      38.476  27.733  32.340  1.00  0.00     0.029 A 
ATOM     55  N   UNL A   1      40.496  27.973  31.481  1.00  0.00    -0.354 N 
ATOM     56  N   UNL A   1      43.052  31.519  31.887  1.00  0.00    -0.248 NA
ATOM     57  C   UNL A   1      43.256  30.820  29.668  1.00  0.00     0.031 C 
ATOM     58  C   UNL A   1      39.234  28.645  33.133  1.00  0.00     0.029 A 
ATOM     59  C   UNL A   1      40.440  28.907  32.484  1.00  0.00     0.049 A 
ATOM     60  H   UNL A   1      41.315  27.639  31.050  1.00  0.00     0.167 HD
ATOM     61  C   UNL A   1      42.377  30.313  31.764  1.00  0.00     0.074 A 
ATOM     62  C   UNL A   1      42.606  29.890  30.378  1.00  0.00     0.031 C 
ATOM     63  C   UNL A   1      41.440  29.936  32.683  1.00  0.00     0.031 A 
BRANCH  50  64
ATOM     64  C   UNL A   1      39.571  26.556  28.848  1.00  0.00    -0.014 A 
ATOM     65  C   UNL A   1      40.638  27.043  28.073  1.00  0.00     0.009 A 
ATOM     66  C   UNL A   1      39.045  25.300  28.498  1.00  0.00     0.009 A 
ATOM     67  C   UNL A   1      41.099  26.343  26.955  1.00  0.00     0.001 A 
ATOM     68  C   UNL A   1      39.527  24.582  27.403  1.00  0.00     0.001 A 
ATOM     69  C   UNL A   1      40.537  25.116  26.615  1.00  0.00     0.000 A 
ENDBRANCH  50  64
BRANCH  51  70
ATOM     70  C   UNL A   1      44.102  34.067  29.529  1.00  0.00    -0.014 A 
ATOM     71  C   UNL A   1      45.381  34.202  30.106  1.00  0.00     0.009 A 
ATOM     72  C   UNL A   1      43.965  34.434  28.179  1.00  0.00     0.009 A 
ATOM     73  C   UNL A   1      46.480  34.645  29.349  1.00  0.00     0.001 A 
ATOM     74  C   UNL A   1      45.062  34.870  27.423  1.00  0.00     0.001 A 
ATOM     75  C   UNL A   1      46.323  34.962  28.002  1.00  0.00     0.000 A 
ENDBRANCH  51  70
BRANCH  63  76
ATOM     76  C   UNL A   1      41.305  30.774  33.936  1.00  0.00    -0.014 A 
ATOM     77  C   UNL A   1      40.432  31.874  34.059  1.00  0.00     0.009 A 
ATOM     78  C   UNL A   1      41.985  30.343  35.082  1.00  0.00     0.009 A 
ATOM     79  C   UNL A   1      40.280  32.537  35.283  1.00  0.00     0.001 A 
ATOM     80  C   UNL A   1      41.818  30.992  36.307  1.00  0.00     0.001 A 
ATOM     81  C   UNL A   1      40.972  32.093  36.407  1.00  0.00     0.000 A 
ENDBRANCH  63  76
ENDBRANCH  37  38
ENDBRANCH  29  32
ENDBRANCH  27  28
ENDBRANCH  26  27
ENDBRANCH  25  26
ENDBRANCH  24  25
ENDBRANCH   3  24
TORSDOF 18
ENDMDL
