MODEL 1
REMARK VINA RESULT:     -11.0      0.000      0.000
REMARK SMILES O=C(NCCCCNC(=O)[C@@H]1C[NH2+]CCN1C(=O)N[C@@H]1CCOC1)c1ccc(-c2c3nc(c(-c4ccccc4)c4ccc([nH]4)c(-c4ccccc4)c4nc(c(-c5ccccc5)c5ccc2[nH]5)C=C4)C=C3)cc1
REMARK SMILES IDX 5 1 4 2 3 3 1 4 2 5 25 7 26 8 72 9 27 10 71 11 28 12 29 13
REMARK SMILES IDX 30 14 65 15 31 16 70 17 64 18 66 19 32 20 69 21 63 22 62 23
REMARK SMILES IDX 33 25 55 26 40 27 54 28 41 29 44 30 53 31 67 32 42 33 43 34
REMARK SMILES IDX 52 36 68 37 45 38 34 39 35 40 39 41 36 42 38 43 37 44 56 45
REMARK SMILES IDX 57 46 61 47 58 48 60 49 59 50 46 51 47 52 51 53 48 54 50 55
REMARK SMILES IDX 49 56 6 57 7 58 8 59 9 60 10 62 11 63 12 64 16 65 13 66
REMARK SMILES IDX 15 67 14 68 17 71 18 72 19 73 20 75 21 76 24 77 22 78 23 79
REMARK H PARENT 3 6 66 24 44 35 8 61 13 69 13 70 19 74
REMARK Flexibility Score: inf
ROOT
ATOM      1  C   UNL A   1      37.921  19.627  24.931  1.00  0.00     0.023 C 
ENDROOT
BRANCH   1   2
ATOM      2  C   UNL A   1      38.992  20.069  25.925  1.00  0.00     0.116 C 
BRANCH   2   3
ATOM      3  N   UNL A   1      40.205  19.271  25.821  1.00  0.00    -0.352 N 
ATOM      4  O   UNL A   1      42.413  18.865  25.626  1.00  0.00    -0.269 OA
ATOM      5  C   UNL A   1      41.525  19.634  25.972  1.00  0.00     0.251 C 
ATOM      6  H   UNL A   1      40.060  18.321  25.607  1.00  0.00     0.163 HD
BRANCH   5   7
ATOM      7  C   UNL A   1      41.880  20.953  26.545  1.00  0.00     0.039 A 
ATOM      8  C   UNL A   1      41.912  21.144  27.927  1.00  0.00     0.014 A 
ATOM      9  C   UNL A   1      42.234  22.001  25.688  1.00  0.00     0.014 A 
ATOM     10  C   UNL A   1      42.152  22.413  28.445  1.00  0.00     0.010 A 
ATOM     11  C   UNL A   1      42.556  23.256  26.215  1.00  0.00     0.010 A 
ATOM     12  C   UNL A   1      42.484  23.483  27.598  1.00  0.00    -0.014 A 
BRANCH  12  13
ATOM     13  C   UNL A   1      42.795  24.808  28.194  1.00  0.00     0.031 A 
ATOM     14  C   UNL A   1      44.211  25.209  28.509  1.00  0.00     0.074 A 
ATOM     15  C   UNL A   1      41.788  25.677  28.406  1.00  0.00     0.049 A 
ATOM     16  N   UNL A   1      44.659  26.354  28.961  1.00  0.00    -0.248 NA
ATOM     17  C   UNL A   1      45.257  24.198  28.300  1.00  0.00     0.031 C 
ATOM     18  C   UNL A   1      40.371  25.405  28.148  1.00  0.00     0.029 A 
ATOM     19  N   UNL A   1      41.801  26.973  28.854  1.00  0.00    -0.354 N 
ATOM     20  C   UNL A   1      46.031  26.195  29.112  1.00  0.00     0.074 A 
ATOM     21  C   UNL A   1      46.340  24.835  28.724  1.00  0.00     0.031 C 
ATOM     22  C   UNL A   1      39.661  26.519  28.376  1.00  0.00     0.029 A 
ATOM     23  C   UNL A   1      40.560  27.564  28.853  1.00  0.00     0.049 A 
ATOM     24  H   UNL A   1      42.618  27.436  29.148  1.00  0.00     0.167 HD
ATOM     25  C   UNL A   1      46.950  27.098  29.532  1.00  0.00     0.031 A 
ATOM     26  C   UNL A   1      40.182  28.808  29.200  1.00  0.00     0.031 A 
ATOM     27  C   UNL A   1      46.645  28.454  29.910  1.00  0.00     0.049 A 
ATOM     28  C   UNL A   1      41.218  29.781  29.679  1.00  0.00     0.074 A 
ATOM     29  C   UNL A   1      47.514  29.455  30.308  1.00  0.00     0.029 A 
ATOM     30  N   UNL A   1      45.370  28.998  29.943  1.00  0.00    -0.354 N 
ATOM     31  N   UNL A   1      42.516  29.624  29.776  1.00  0.00    -0.248 NA
ATOM     32  C   UNL A   1      40.735  31.104  30.096  1.00  0.00     0.031 C 
ATOM     33  C   UNL A   1      46.760  30.590  30.630  1.00  0.00     0.029 A 
ATOM     34  C   UNL A   1      45.426  30.311  30.380  1.00  0.00     0.049 A 
ATOM     35  H   UNL A   1      44.546  28.521  29.692  1.00  0.00     0.167 HD
ATOM     36  C   UNL A   1      43.007  30.833  30.248  1.00  0.00     0.074 A 
ATOM     37  C   UNL A   1      41.870  31.718  30.397  1.00  0.00     0.031 C 
ATOM     38  C   UNL A   1      44.286  31.177  30.532  1.00  0.00     0.031 A 
BRANCH  25  39
ATOM     39  C   UNL A   1      48.378  26.638  29.638  1.00  0.00    -0.014 A 
ATOM     40  C   UNL A   1      49.287  26.816  28.584  1.00  0.00     0.009 A 
ATOM     41  C   UNL A   1      48.831  26.050  30.831  1.00  0.00     0.009 A 
ATOM     42  C   UNL A   1      50.611  26.384  28.710  1.00  0.00     0.001 A 
ATOM     43  C   UNL A   1      50.159  25.643  30.963  1.00  0.00     0.001 A 
ATOM     44  C   UNL A   1      51.046  25.803  29.900  1.00  0.00     0.000 A 
ENDBRANCH  25  39
BRANCH  26  45
ATOM     45  C   UNL A   1      38.754  29.202  29.099  1.00  0.00    -0.014 A 
ATOM     46  C   UNL A   1      37.895  29.058  30.199  1.00  0.00     0.009 A 
ATOM     47  C   UNL A   1      38.245  29.738  27.905  1.00  0.00     0.009 A 
ATOM     48  C   UNL A   1      36.552  29.427  30.099  1.00  0.00     0.001 A 
ATOM     49  C   UNL A   1      36.909  30.133  27.817  1.00  0.00     0.001 A 
ATOM     50  C   UNL A   1      36.062  29.969  28.911  1.00  0.00     0.000 A 
ENDBRANCH  26  45
BRANCH  38  51
ATOM     51  C   UNL A   1      44.521  32.583  31.007  1.00  0.00    -0.014 A 
ATOM     52  C   UNL A   1      44.760  33.628  30.099  1.00  0.00     0.009 A 
ATOM     53  C   UNL A   1      44.488  32.867  32.380  1.00  0.00     0.009 A 
ATOM     54  C   UNL A   1      45.001  34.922  30.563  1.00  0.00     0.001 A 
ATOM     55  C   UNL A   1      44.702  34.167  32.839  1.00  0.00     0.001 A 
ATOM     56  C   UNL A   1      44.969  35.191  31.931  1.00  0.00     0.000 A 
ENDBRANCH  38  51
ENDBRANCH  12  13
ENDBRANCH   5   7
ENDBRANCH   2   3
ENDBRANCH   1   2
BRANCH   1  57
ATOM     57  C   UNL A   1      36.904  20.712  24.555  1.00  0.00     0.023 C 
BRANCH  57  58
ATOM     58  C   UNL A   1      36.664  21.786  25.624  1.00  0.00     0.116 C 
BRANCH  58  59
ATOM     59  N   UNL A   1      35.574  21.439  26.526  1.00  0.00    -0.354 N 
ATOM     60  C   UNL A   1      34.214  21.578  26.385  1.00  0.00     0.248 C 
ATOM     61  H   UNL A   1      35.858  21.039  27.379  1.00  0.00     0.163 HD
ATOM     62  O   UNL A   1      33.499  21.214  27.322  1.00  0.00    -0.272 OA
BRANCH  60  63
ATOM     63  C   UNL A   1      33.621  22.265  25.141  1.00  0.00     0.231 C 
ATOM     64  C   UNL A   1      32.320  22.999  25.587  1.00  0.00     0.296 C 
ATOM     65  N   UNL A   1      33.438  21.692  23.765  1.00  0.00    -0.302 N 
ATOM     66  N   UNL A   1      31.957  24.113  24.678  1.00  0.00    -0.343 N 
ATOM     67  C   UNL A   1      33.167  22.827  22.848  1.00  0.00     0.183 C 
ATOM     68  C   UNL A   1      31.896  23.624  23.287  1.00  0.00     0.282 C 
ATOM     69  H   UNL A   1      32.659  24.850  24.747  1.00  0.00     0.346 HD
ATOM     70  H   UNL A   1      31.044  24.484  24.945  1.00  0.00     0.346 HD
BRANCH  65  71
ATOM     71  C   UNL A   1      32.609  20.645  23.456  1.00  0.00     0.318 C 
ATOM     72  O   UNL A   1      31.874  20.662  22.458  1.00  0.00    -0.249 OA
ATOM     73  N   UNL A   1      32.595  19.453  24.037  1.00  0.00    -0.333 N 
ATOM     74  H   UNL A   1      31.836  18.953  23.658  1.00  0.00     0.165 HD
BRANCH  73  75
ATOM     75  C   UNL A   1      33.247  18.574  25.013  1.00  0.00     0.112 C 
ATOM     76  C   UNL A   1      34.492  18.020  24.334  1.00  0.00     0.056 C 
ATOM     77  C   UNL A   1      32.565  17.294  25.415  1.00  0.00     0.185 C 
ATOM     78  C   UNL A   1      33.880  16.881  23.548  1.00  0.00     0.162 C 
ATOM     79  O   UNL A   1      32.937  16.288  24.458  1.00  0.00    -0.379 OA
ENDBRANCH  73  75
ENDBRANCH  65  71
ENDBRANCH  60  63
ENDBRANCH  58  59
ENDBRANCH  57  58
ENDBRANCH   1  57
TORSDOF 13
ENDMDL
MODEL 2
REMARK VINA RESULT:     -10.9      0.315      6.029
REMARK SMILES O=C(NCCCCNC(=O)[C@@H]1C[NH2+]CCN1C(=O)N[C@@H]1CCOC1)c1ccc(-c2c3nc(c(-c4ccccc4)c4ccc([nH]4)c(-c4ccccc4)c4nc(c(-c5ccccc5)c5ccc2[nH]5)C=C4)C=C3)cc1
REMARK SMILES IDX 5 1 4 2 3 3 1 4 2 5 25 7 26 8 72 9 27 10 71 11 28 12 29 13
REMARK SMILES IDX 30 14 65 15 31 16 70 17 64 18 66 19 32 20 69 21 63 22 62 23
REMARK SMILES IDX 33 25 55 26 40 27 54 28 41 29 44 30 53 31 67 32 42 33 43 34
REMARK SMILES IDX 52 36 68 37 45 38 34 39 35 40 39 41 36 42 38 43 37 44 56 45
REMARK SMILES IDX 57 46 61 47 58 48 60 49 59 50 46 51 47 52 51 53 48 54 50 55
REMARK SMILES IDX 49 56 6 57 7 58 8 59 9 60 10 62 11 63 12 64 16 65 13 66
REMARK SMILES IDX 15 67 14 68 17 71 18 72 19 73 20 75 21 76 24 77 22 78 23 79
REMARK H PARENT 3 6 66 24 44 35 8 61 13 69 13 70 19 74
REMARK Flexibility Score: inf
ROOT
ATOM      1  C   UNL A   1      37.909  19.693  24.889  1.00  0.00     0.023 C 
ENDROOT
BRANCH   1   2
ATOM      2  C   UNL A   1      38.927  20.103  25.949  1.00  0.00     0.116 C 
BRANCH   2   3
ATOM      3  N   UNL A   1      40.113  19.258  25.932  1.00  0.00    -0.352 N 
ATOM      4  O   UNL A   1      42.308  18.762  25.824  1.00  0.00    -0.269 OA
ATOM      5  C   UNL A   1      41.441  19.583  26.094  1.00  0.00     0.251 C 
ATOM      6  H   UNL A   1      39.938  18.300  25.779  1.00  0.00     0.163 HD
BRANCH   5   7
ATOM      7  C   UNL A   1      41.830  20.924  26.586  1.00  0.00     0.039 A 
ATOM      8  C   UNL A   1      41.839  21.208  27.952  1.00  0.00     0.014 A 
ATOM      9  C   UNL A   1      42.240  21.899  25.669  1.00  0.00     0.014 A 
ATOM     10  C   UNL A   1      42.112  22.499  28.390  1.00  0.00     0.010 A 
ATOM     11  C   UNL A   1      42.596  23.176  26.120  1.00  0.00     0.010 A 
ATOM     12  C   UNL A   1      42.502  23.498  27.482  1.00  0.00    -0.014 A 
BRANCH  12  13
ATOM     13  C   UNL A   1      42.846  24.849  27.995  1.00  0.00     0.031 A 
ATOM     14  C   UNL A   1      41.781  25.876  28.268  1.00  0.00     0.074 A 
ATOM     15  C   UNL A   1      44.135  25.131  28.264  1.00  0.00     0.049 A 
ATOM     16  N   UNL A   1      41.906  27.073  28.786  1.00  0.00    -0.248 NA
ATOM     17  C   UNL A   1      40.400  25.522  27.907  1.00  0.00     0.031 C 
ATOM     18  C   UNL A   1      45.263  24.223  28.038  1.00  0.00     0.029 A 
ATOM     19  N   UNL A   1      44.713  26.246  28.817  1.00  0.00    -0.354 N 
ATOM     20  C   UNL A   1      40.630  27.622  28.793  1.00  0.00     0.074 A 
ATOM     21  C   UNL A   1      39.746  26.637  28.206  1.00  0.00     0.031 C 
ATOM     22  C   UNL A   1      46.384  24.788  28.509  1.00  0.00     0.029 A 
ATOM     23  C   UNL A   1      46.067  26.118  29.015  1.00  0.00     0.049 A 
ATOM     24  H   UNL A   1      44.209  27.058  29.050  1.00  0.00     0.167 HD
ATOM     25  C   UNL A   1      40.229  28.834  29.247  1.00  0.00     0.031 A 
ATOM     26  C   UNL A   1      46.960  26.976  29.542  1.00  0.00     0.031 A 
ATOM     27  C   UNL A   1      41.106  29.812  29.839  1.00  0.00     0.049 A 
ATOM     28  C   UNL A   1      46.491  28.318  30.021  1.00  0.00     0.074 A 
ATOM     29  C   UNL A   1      40.785  31.051  30.368  1.00  0.00     0.029 A 
ATOM     30  N   UNL A   1      42.478  29.664  29.976  1.00  0.00    -0.354 N 
ATOM     31  N   UNL A   1      45.274  28.803  30.055  1.00  0.00    -0.248 NA
ATOM     32  C   UNL A   1      47.522  29.231  30.533  1.00  0.00     0.031 C 
ATOM     33  C   UNL A   1      41.970  31.673  30.778  1.00  0.00     0.029 A 
ATOM     34  C   UNL A   1      43.021  30.799  30.555  1.00  0.00     0.049 A 
ATOM     35  H   UNL A   1      42.990  28.869  29.701  1.00  0.00     0.167 HD
ATOM     36  C   UNL A   1      45.389  30.070  30.609  1.00  0.00     0.074 A 
ATOM     37  C   UNL A   1      46.792  30.269  30.914  1.00  0.00     0.031 C 
ATOM     38  C   UNL A   1      44.419  30.987  30.843  1.00  0.00     0.031 A 
BRANCH  25  39
ATOM     39  C   UNL A   1      38.776  29.188  29.092  1.00  0.00    -0.014 A 
ATOM     40  C   UNL A   1      37.861  29.013  30.142  1.00  0.00     0.009 A 
ATOM     41  C   UNL A   1      38.322  29.745  27.885  1.00  0.00     0.009 A 
ATOM     42  C   UNL A   1      36.516  29.355  29.973  1.00  0.00     0.001 A 
ATOM     43  C   UNL A   1      36.984  30.110  27.728  1.00  0.00     0.001 A 
ATOM     44  C   UNL A   1      36.080  29.907  28.770  1.00  0.00     0.000 A 
ENDBRANCH  25  39
BRANCH  26  45
ATOM     45  C   UNL A   1      48.389  26.584  29.649  1.00  0.00    -0.014 A 
ATOM     46  C   UNL A   1      48.857  25.901  30.782  1.00  0.00     0.009 A 
ATOM     47  C   UNL A   1      49.288  26.881  28.614  1.00  0.00     0.009 A 
ATOM     48  C   UNL A   1      50.202  25.537  30.880  1.00  0.00     0.001 A 
ATOM     49  C   UNL A   1      50.626  26.491  28.703  1.00  0.00     0.001 A 
ATOM     50  C   UNL A   1      51.082  25.827  29.840  1.00  0.00     0.000 A 
ENDBRANCH  26  45
BRANCH  38  51
ATOM     51  C   UNL A   1      44.845  32.275  31.487  1.00  0.00    -0.014 A 
ATOM     52  C   UNL A   1      45.220  33.386  30.714  1.00  0.00     0.009 A 
ATOM     53  C   UNL A   1      44.858  32.383  32.885  1.00  0.00     0.009 A 
ATOM     54  C   UNL A   1      45.637  34.566  31.332  1.00  0.00     0.001 A 
ATOM     55  C   UNL A   1      45.249  33.572  33.501  1.00  0.00     0.001 A 
ATOM     56  C   UNL A   1      45.649  34.659  32.724  1.00  0.00     0.000 A 
ENDBRANCH  38  51
ENDBRANCH  12  13
ENDBRANCH   5   7
ENDBRANCH   2   3
ENDBRANCH   1   2
BRANCH   1  57
ATOM     57  C   UNL A   1      36.866  20.766  24.550  1.00  0.00     0.023 C 
BRANCH  57  58
ATOM     58  C   UNL A   1      36.627  21.817  25.640  1.00  0.00     0.116 C 
BRANCH  58  59
ATOM     59  N   UNL A   1      35.549  21.443  26.547  1.00  0.00    -0.354 N 
ATOM     60  C   UNL A   1      34.185  21.554  26.414  1.00  0.00     0.248 C 
ATOM     61  H   UNL A   1      35.846  21.045  27.396  1.00  0.00     0.163 HD
ATOM     62  O   UNL A   1      33.484  21.171  27.353  1.00  0.00    -0.272 OA
BRANCH  60  63
ATOM     63  C   UNL A   1      33.572  22.234  25.176  1.00  0.00     0.231 C 
ATOM     64  C   UNL A   1      32.254  22.933  25.631  1.00  0.00     0.296 C 
ATOM     65  N   UNL A   1      33.399  21.666  23.797  1.00  0.00    -0.302 N 
ATOM     66  N   UNL A   1      31.861  24.044  24.731  1.00  0.00    -0.343 N 
ATOM     67  C   UNL A   1      33.096  22.800  22.888  1.00  0.00     0.183 C 
ATOM     68  C   UNL A   1      31.807  23.562  23.337  1.00  0.00     0.282 C 
ATOM     69  H   UNL A   1      32.544  24.798  24.803  1.00  0.00     0.346 HD
ATOM     70  H   UNL A   1      30.939  24.389  25.004  1.00  0.00     0.346 HD
BRANCH  65  71
ATOM     71  C   UNL A   1      32.595  20.601  23.483  1.00  0.00     0.318 C 
ATOM     72  O   UNL A   1      31.852  20.609  22.491  1.00  0.00    -0.249 OA
ATOM     73  N   UNL A   1      32.617  19.403  24.053  1.00  0.00    -0.333 N 
ATOM     74  H   UNL A   1      31.868  18.888  23.675  1.00  0.00     0.165 HD
BRANCH  73  75
ATOM     75  C   UNL A   1      33.298  18.533  25.015  1.00  0.00     0.112 C 
ATOM     76  C   UNL A   1      34.525  17.978  24.305  1.00  0.00     0.056 C 
ATOM     77  C   UNL A   1      32.632  17.253  25.444  1.00  0.00     0.185 C 
ATOM     78  C   UNL A   1      33.894  16.832  23.544  1.00  0.00     0.162 C 
ATOM     79  O   UNL A   1      32.979  16.242  24.483  1.00  0.00    -0.379 OA
ENDBRANCH  73  75
ENDBRANCH  65  71
ENDBRANCH  60  63
ENDBRANCH  58  59
ENDBRANCH  57  58
ENDBRANCH   1  57
TORSDOF 13
ENDMDL
MODEL 3
REMARK VINA RESULT:     -10.8      4.649      9.734
REMARK SMILES O=C(NCCCCNC(=O)[C@@H]1C[NH2+]CCN1C(=O)N[C@@H]1CCOC1)c1ccc(-c2c3nc(c(-c4ccccc4)c4ccc([nH]4)c(-c4ccccc4)c4nc(c(-c5ccccc5)c5ccc2[nH]5)C=C4)C=C3)cc1
REMARK SMILES IDX 5 1 4 2 3 3 1 4 2 5 25 7 26 8 72 9 27 10 71 11 28 12 29 13
REMARK SMILES IDX 30 14 65 15 31 16 70 17 64 18 66 19 32 20 69 21 63 22 62 23
REMARK SMILES IDX 33 25 55 26 40 27 54 28 41 29 44 30 53 31 67 32 42 33 43 34
REMARK SMILES IDX 52 36 68 37 45 38 34 39 35 40 39 41 36 42 38 43 37 44 56 45
REMARK SMILES IDX 57 46 61 47 58 48 60 49 59 50 46 51 47 52 51 53 48 54 50 55
REMARK SMILES IDX 49 56 6 57 7 58 8 59 9 60 10 62 11 63 12 64 16 65 13 66
REMARK SMILES IDX 15 67 14 68 17 71 18 72 19 73 20 75 21 76 24 77 22 78 23 79
REMARK H PARENT 3 6 66 24 44 35 8 61 13 69 13 70 19 74
REMARK Flexibility Score: inf
ROOT
ATOM      1  C   UNL A   1      31.371  32.031  26.508  1.00  0.00     0.023 C 
ENDROOT
BRANCH   1   2
ATOM      2  C   UNL A   1      32.686  32.659  26.964  1.00  0.00     0.116 C 
BRANCH   2   3
ATOM      3  N   UNL A   1      32.485  33.941  27.626  1.00  0.00    -0.352 N 
ATOM      4  O   UNL A   1      32.690  35.498  29.241  1.00  0.00    -0.269 OA
ATOM      5  C   UNL A   1      33.152  34.508  28.689  1.00  0.00     0.251 C 
ATOM      6  H   UNL A   1      31.756  34.489  27.255  1.00  0.00     0.163 HD
BRANCH   5   7
ATOM      7  C   UNL A   1      34.423  33.925  29.174  1.00  0.00     0.039 A 
ATOM      8  C   UNL A   1      35.640  34.280  28.591  1.00  0.00     0.014 A 
ATOM      9  C   UNL A   1      34.403  33.045  30.263  1.00  0.00     0.014 A 
ATOM     10  C   UNL A   1      36.812  33.649  28.994  1.00  0.00     0.010 A 
ATOM     11  C   UNL A   1      35.596  32.475  30.723  1.00  0.00     0.010 A 
ATOM     12  C   UNL A   1      36.807  32.745  30.070  1.00  0.00    -0.014 A 
BRANCH  12  13
ATOM     13  C   UNL A   1      38.090  32.140  30.512  1.00  0.00     0.031 A 
ATOM     14  C   UNL A   1      38.870  32.717  31.662  1.00  0.00     0.074 A 
ATOM     15  C   UNL A   1      38.529  31.025  29.895  1.00  0.00     0.049 A 
ATOM     16  N   UNL A   1      39.966  32.266  32.220  1.00  0.00    -0.248 NA
ATOM     17  C   UNL A   1      38.362  33.961  32.259  1.00  0.00     0.031 C 
ATOM     18  C   UNL A   1      37.867  30.372  28.763  1.00  0.00     0.029 A 
ATOM     19  N   UNL A   1      39.613  30.225  30.152  1.00  0.00    -0.354 N 
ATOM     20  C   UNL A   1      40.292  33.180  33.215  1.00  0.00     0.074 A 
ATOM     21  C   UNL A   1      39.290  34.223  33.171  1.00  0.00     0.031 C 
ATOM     22  C   UNL A   1      38.519  29.238  28.468  1.00  0.00     0.029 A 
ATOM     23  C   UNL A   1      39.676  29.114  29.346  1.00  0.00     0.049 A 
ATOM     24  H   UNL A   1      40.282  30.427  30.846  1.00  0.00     0.167 HD
ATOM     25  C   UNL A   1      41.329  33.152  34.087  1.00  0.00     0.031 A 
ATOM     26  C   UNL A   1      40.566  28.106  29.313  1.00  0.00     0.031 A 
ATOM     27  C   UNL A   1      42.322  32.110  34.138  1.00  0.00     0.049 A 
ATOM     28  C   UNL A   1      41.714  28.110  30.278  1.00  0.00     0.074 A 
ATOM     29  C   UNL A   1      43.386  31.973  35.014  1.00  0.00     0.029 A 
ATOM     30  N   UNL A   1      42.378  31.028  33.272  1.00  0.00    -0.354 N 
ATOM     31  N   UNL A   1      41.982  28.962  31.238  1.00  0.00    -0.248 NA
ATOM     32  C   UNL A   1      42.683  27.013  30.153  1.00  0.00     0.031 C 
ATOM     33  C   UNL A   1      44.114  30.836  34.646  1.00  0.00     0.029 A 
ATOM     34  C   UNL A   1      43.473  30.235  33.576  1.00  0.00     0.049 A 
ATOM     35  H   UNL A   1      41.735  30.851  32.548  1.00  0.00     0.167 HD
ATOM     36  C   UNL A   1      43.139  28.494  31.843  1.00  0.00     0.074 A 
ATOM     37  C   UNL A   1      43.509  27.273  31.156  1.00  0.00     0.031 C 
ATOM     38  C   UNL A   1      43.834  29.029  32.877  1.00  0.00     0.031 A 
BRANCH  25  39
ATOM     39  C   UNL A   1      41.464  34.305  35.043  1.00  0.00    -0.014 A 
ATOM     40  C   UNL A   1      42.175  35.466  34.698  1.00  0.00     0.009 A 
ATOM     41  C   UNL A   1      40.835  34.245  36.297  1.00  0.00     0.009 A 
ATOM     42  C   UNL A   1      42.281  36.526  35.603  1.00  0.00     0.001 A 
ATOM     43  C   UNL A   1      40.921  35.315  37.188  1.00  0.00     0.001 A 
ATOM     44  C   UNL A   1      41.651  36.452  36.844  1.00  0.00     0.000 A 
ENDBRANCH  25  39
BRANCH  26  45
ATOM     45  C   UNL A   1      40.399  27.004  28.331  1.00  0.00    -0.014 A 
ATOM     46  C   UNL A   1      40.991  27.084  27.062  1.00  0.00     0.009 A 
ATOM     47  C   UNL A   1      39.657  25.859  28.664  1.00  0.00     0.009 A 
ATOM     48  C   UNL A   1      40.828  26.047  26.140  1.00  0.00     0.001 A 
ATOM     49  C   UNL A   1      39.521  24.812  27.752  1.00  0.00     0.001 A 
ATOM     50  C   UNL A   1      40.099  24.911  26.488  1.00  0.00     0.000 A 
ENDBRANCH  26  45
BRANCH  38  51
ATOM     51  C   UNL A   1      45.047  28.275  33.341  1.00  0.00    -0.014 A 
ATOM     52  C   UNL A   1      44.953  27.273  34.320  1.00  0.00     0.009 A 
ATOM     53  C   UNL A   1      46.300  28.564  32.781  1.00  0.00     0.009 A 
ATOM     54  C   UNL A   1      46.097  26.603  34.756  1.00  0.00     0.001 A 
ATOM     55  C   UNL A   1      47.439  27.873  33.198  1.00  0.00     0.001 A 
ATOM     56  C   UNL A   1      47.338  26.902  34.192  1.00  0.00     0.000 A 
ENDBRANCH  38  51
ENDBRANCH  12  13
ENDBRANCH   5   7
ENDBRANCH   2   3
ENDBRANCH   1   2
BRANCH   1  57
ATOM     57  C   UNL A   1      31.456  30.539  26.163  1.00  0.00     0.023 C 
BRANCH  57  58
ATOM     58  C   UNL A   1      32.875  29.971  26.048  1.00  0.00     0.116 C 
BRANCH  58  59
ATOM     59  N   UNL A   1      33.258  29.704  24.668  1.00  0.00    -0.354 N 
ATOM     60  C   UNL A   1      33.073  28.589  23.885  1.00  0.00     0.248 C 
ATOM     61  H   UNL A   1      33.728  30.444  24.221  1.00  0.00     0.163 HD
ATOM     62  O   UNL A   1      33.516  28.615  22.735  1.00  0.00    -0.272 OA
BRANCH  60  63
ATOM     63  C   UNL A   1      32.429  27.319  24.471  1.00  0.00     0.231 C 
ATOM     64  C   UNL A   1      32.843  26.122  23.561  1.00  0.00     0.296 C 
ATOM     65  N   UNL A   1      31.019  27.131  24.951  1.00  0.00    -0.302 N 
ATOM     66  N   UNL A   1      32.775  24.821  24.269  1.00  0.00    -0.343 N 
ATOM     67  C   UNL A   1      30.984  25.872  25.736  1.00  0.00     0.183 C 
ATOM     68  C   UNL A   1      31.440  24.650  24.874  1.00  0.00     0.282 C 
ATOM     69  H   UNL A   1      33.486  24.795  25.000  1.00  0.00     0.346 HD
ATOM     70  H   UNL A   1      32.942  24.065  23.602  1.00  0.00     0.346 HD
BRANCH  65  71
ATOM     71  C   UNL A   1      29.904  27.207  24.157  1.00  0.00     0.318 C 
ATOM     72  O   UNL A   1      29.027  26.332  24.172  1.00  0.00    -0.249 OA
ATOM     73  N   UNL A   1      29.526  28.248  23.426  1.00  0.00    -0.333 N 
ATOM     74  H   UNL A   1      28.741  27.966  22.904  1.00  0.00     0.165 HD
BRANCH  73  75
ATOM     75  C   UNL A   1      29.799  29.645  23.078  1.00  0.00     0.112 C 
ATOM     76  C   UNL A   1      28.574  30.444  23.502  1.00  0.00     0.056 C 
ATOM     77  C   UNL A   1      29.887  30.034  21.627  1.00  0.00     0.185 C 
ATOM     78  C   UNL A   1      27.676  30.204  22.308  1.00  0.00     0.162 C 
ATOM     79  O   UNL A   1      28.553  30.319  21.174  1.00  0.00    -0.379 OA
ENDBRANCH  73  75
ENDBRANCH  65  71
ENDBRANCH  60  63
ENDBRANCH  58  59
ENDBRANCH  57  58
ENDBRANCH   1  57
TORSDOF 13
ENDMDL
