MODEL 1
REMARK VINA RESULT:     -12.1      0.000      0.000
REMARK SMILES Cc1ccc(C(c2ccccc2)(c2ccccc2)n2cnc(C[C@H]([NH3+])C(=O)NCCCCNC(=O)c3ccc(-c4c5nc(c(-c6ccccc6)c6ccc([nH]6)c(-c6ccccc6)c6nc(c(-c7ccccc7)c7ccc4[nH]7)C=C6)C=C5)cc3)c2)cc1
REMARK SMILES IDX 29 1 28 2 26 3 27 4 24 6 23 7 22 8 19 9 20 10 84 11 21 12
REMARK SMILES IDX 6 13 5 14 1 15 2 16 3 17 86 18 4 19 85 20 7 21 8 22 12 23
REMARK SMILES IDX 9 24 11 25 10 26 13 27 14 28 18 29 15 30 17 31 16 32 25 33
REMARK SMILES IDX 30 37 31 38 32 39 33 40 34 41 35 43 36 44 37 45 83 46 38 47
REMARK SMILES IDX 82 48 39 49 40 50 41 51 76 52 42 53 81 54 75 55 77 56 43 57
REMARK SMILES IDX 80 58 74 59 73 60 44 62 66 63 51 64 65 65 52 66 55 67 64 68
REMARK SMILES IDX 78 69 53 70 54 71 63 73 79 74 56 75 45 76 46 77 50 78 47 79
REMARK SMILES IDX 49 80 48 81 67 82 68 83 72 84 69 85 71 86 70 87 57 88 58 89
REMARK SMILES IDX 62 90 59 91 61 92 60 93
REMARK H PARENT 28 5 25 34 25 35 25 36 33 42 77 61 55 72
REMARK Flexibility Score: inf
ROOT
ATOM      1  C   UNL A   1      35.523  22.416  25.733  1.00  0.00     0.116 C 
ENDROOT
BRANCH   1   2
ATOM      2  N   UNL A   1      34.748  22.314  26.954  1.00  0.00    -0.351 N 
ATOM      3  C   UNL A   1      33.414  22.138  27.178  1.00  0.00     0.278 C 
ATOM      4  O   UNL A   1      33.026  22.292  28.342  1.00  0.00    -0.268 OA
ATOM      5  H   UNL A   1      35.287  22.387  27.776  1.00  0.00     0.163 HD
BRANCH   3   6
ATOM      6  C   UNL A   1      32.422  21.817  26.040  1.00  0.00     0.276 C 
BRANCH   6   7
ATOM      7  C   UNL A   1      30.972  22.222  26.347  1.00  0.00     0.133 C 
BRANCH   7   8
ATOM      8  C   UNL A   1      30.665  23.648  26.057  1.00  0.00     0.065 A 
ATOM      9  N   UNL A   1      30.629  25.675  25.205  1.00  0.00    -0.319 N 
ATOM     10  C   UNL A   1      29.887  25.615  26.365  1.00  0.00     0.201 A 
ATOM     11  C   UNL A   1      31.061  24.391  24.968  1.00  0.00     0.112 A 
ATOM     12  N   UNL A   1      29.887  24.408  26.885  1.00  0.00    -0.241 NA
BRANCH   9  13
ATOM     13  C   UNL A   1      30.939  26.919  24.422  1.00  0.00     0.121 C 
BRANCH  13  14
ATOM     14  C   UNL A   1      31.782  27.911  25.326  1.00  0.00    -0.013 A 
ATOM     15  C   UNL A   1      34.118  30.739  27.668  1.00  0.00     0.044 C 
ATOM     16  C   UNL A   1      33.290  29.780  26.866  1.00  0.00    -0.051 A 
ATOM     17  C   UNL A   1      33.179  28.446  27.266  1.00  0.00     0.004 A 
ATOM     18  C   UNL A   1      32.620  30.193  25.714  1.00  0.00     0.004 A 
ATOM     19  C   UNL A   1      32.435  27.527  26.513  1.00  0.00     0.007 A 
ATOM     20  C   UNL A   1      31.870  29.280  24.968  1.00  0.00     0.007 A 
ENDBRANCH  13  14
BRANCH  13  21
ATOM     21  C   UNL A   1      31.767  26.455  23.140  1.00  0.00    -0.013 A 
ATOM     22  C   UNL A   1      31.141  26.312  21.878  1.00  0.00     0.007 A 
ATOM     23  C   UNL A   1      33.123  26.067  23.191  1.00  0.00     0.007 A 
ATOM     24  C   UNL A   1      31.845  25.918  20.733  1.00  0.00     0.000 A 
ATOM     25  C   UNL A   1      33.827  25.660  22.050  1.00  0.00     0.000 A 
ATOM     26  C   UNL A   1      33.194  25.604  20.816  1.00  0.00     0.000 A 
ENDBRANCH  13  21
BRANCH  13  27
ATOM     27  C   UNL A   1      29.541  27.599  24.046  1.00  0.00    -0.013 A 
ATOM     28  C   UNL A   1      28.327  26.870  24.126  1.00  0.00     0.007 A 
ATOM     29  C   UNL A   1      29.453  28.867  23.431  1.00  0.00     0.007 A 
ATOM     30  C   UNL A   1      27.117  27.380  23.643  1.00  0.00     0.000 A 
ATOM     31  C   UNL A   1      28.247  29.363  22.918  1.00  0.00     0.000 A 
ATOM     32  C   UNL A   1      27.078  28.622  23.025  1.00  0.00     0.000 A 
ENDBRANCH  13  27
ENDBRANCH   9  13
ENDBRANCH   7   8
ENDBRANCH   6   7
BRANCH   6  33
ATOM     33  N   UNL A   1      32.551  20.386  25.648  1.00  0.00    -0.347 N 
ATOM     34  H   UNL A   1      33.307  19.955  26.179  1.00  0.00     0.345 HD
ATOM     35  H   UNL A   1      32.755  20.323  24.652  1.00  0.00     0.345 HD
ATOM     36  H   UNL A   1      31.676  19.899  25.847  1.00  0.00     0.345 HD
ENDBRANCH   6  33
ENDBRANCH   3   6
ENDBRANCH   1   2
BRANCH   1  37
ATOM     37  C   UNL A   1      36.243  21.109  25.383  1.00  0.00     0.023 C 
BRANCH  37  38
ATOM     38  C   UNL A   1      37.760  21.219  25.213  1.00  0.00     0.023 C 
BRANCH  38  39
ATOM     39  C   UNL A   1      38.352  22.531  25.705  1.00  0.00     0.116 C 
BRANCH  39  40
ATOM     40  N   UNL A   1      39.722  22.446  26.186  1.00  0.00    -0.352 N 
ATOM     41  C   UNL A   1      40.561  23.437  26.676  1.00  0.00     0.251 C 
ATOM     42  H   UNL A   1      40.116  21.544  26.161  1.00  0.00     0.163 HD
ATOM     43  O   UNL A   1      41.725  23.167  26.921  1.00  0.00    -0.269 OA
BRANCH  41  44
ATOM     44  C   UNL A   1      40.019  24.777  27.044  1.00  0.00     0.039 A 
ATOM     45  C   UNL A   1      40.456  25.881  26.299  1.00  0.00     0.014 A 
ATOM     46  C   UNL A   1      39.288  24.985  28.208  1.00  0.00     0.014 A 
ATOM     47  C   UNL A   1      40.402  27.156  26.858  1.00  0.00     0.010 A 
ATOM     48  C   UNL A   1      39.347  26.217  28.821  1.00  0.00     0.010 A 
ATOM     49  C   UNL A   1      39.962  27.288  28.172  1.00  0.00    -0.014 A 
BRANCH  49  50
ATOM     50  C   UNL A   1      40.215  28.458  28.998  1.00  0.00     0.031 A 
ATOM     51  C   UNL A   1      39.171  29.477  29.199  1.00  0.00     0.074 A 
ATOM     52  C   UNL A   1      41.376  28.543  29.683  1.00  0.00     0.049 A 
ATOM     53  N   UNL A   1      39.418  30.700  29.529  1.00  0.00    -0.248 NA
ATOM     54  C   UNL A   1      37.752  29.204  29.008  1.00  0.00     0.031 C 
ATOM     55  C   UNL A   1      41.699  29.440  30.789  1.00  0.00     0.029 A 
ATOM     56  N   UNL A   1      42.590  27.941  29.363  1.00  0.00    -0.354 N 
ATOM     57  C   UNL A   1      38.224  31.265  29.901  1.00  0.00     0.074 A 
ATOM     58  C   UNL A   1      37.207  30.332  29.473  1.00  0.00     0.031 C 
ATOM     59  C   UNL A   1      43.035  29.525  30.903  1.00  0.00     0.029 A 
ATOM     60  C   UNL A   1      43.612  28.807  29.779  1.00  0.00     0.049 A 
ATOM     61  H   UNL A   1      42.708  27.067  28.926  1.00  0.00     0.167 HD
ATOM     62  C   UNL A   1      38.224  32.385  30.677  1.00  0.00     0.031 A 
ATOM     63  C   UNL A   1      44.471  29.354  28.867  1.00  0.00     0.031 A 
ATOM     64  C   UNL A   1      39.578  32.854  30.964  1.00  0.00     0.049 A 
ATOM     65  C   UNL A   1      44.390  30.863  28.780  1.00  0.00     0.074 A 
ATOM     66  C   UNL A   1      40.398  32.751  32.077  1.00  0.00     0.029 A 
ATOM     67  N   UNL A   1      40.390  33.268  29.915  1.00  0.00    -0.354 N 
ATOM     68  N   UNL A   1      43.412  31.574  29.271  1.00  0.00    -0.248 NA
ATOM     69  C   UNL A   1      45.388  31.690  28.108  1.00  0.00     0.031 C 
ATOM     70  C   UNL A   1      41.723  33.074  31.679  1.00  0.00     0.029 A 
ATOM     71  C   UNL A   1      41.700  33.395  30.334  1.00  0.00     0.049 A 
ATOM     72  H   UNL A   1      40.075  33.446  28.999  1.00  0.00     0.167 HD
ATOM     73  C   UNL A   1      43.620  32.903  29.006  1.00  0.00     0.074 A 
ATOM     74  C   UNL A   1      44.880  32.923  28.283  1.00  0.00     0.031 C 
ATOM     75  C   UNL A   1      42.724  33.859  29.404  1.00  0.00     0.031 A 
BRANCH  62  76
ATOM     76  C   UNL A   1      36.997  32.856  31.418  1.00  0.00    -0.014 A 
ATOM     77  C   UNL A   1      36.742  32.383  32.718  1.00  0.00     0.009 A 
ATOM     78  C   UNL A   1      36.036  33.725  30.876  1.00  0.00     0.009 A 
ATOM     79  C   UNL A   1      35.549  32.672  33.392  1.00  0.00     0.001 A 
ATOM     80  C   UNL A   1      34.820  33.984  31.525  1.00  0.00     0.001 A 
ATOM     81  C   UNL A   1      34.572  33.446  32.781  1.00  0.00     0.000 A 
ENDBRANCH  62  76
BRANCH  63  82
ATOM     82  C   UNL A   1      44.778  28.436  27.733  1.00  0.00    -0.014 A 
ATOM     83  C   UNL A   1      45.487  27.251  28.020  1.00  0.00     0.009 A 
ATOM     84  C   UNL A   1      44.059  28.509  26.533  1.00  0.00     0.009 A 
ATOM     85  C   UNL A   1      45.371  26.127  27.196  1.00  0.00     0.001 A 
ATOM     86  C   UNL A   1      43.956  27.384  25.703  1.00  0.00     0.001 A 
ATOM     87  C   UNL A   1      44.578  26.185  26.054  1.00  0.00     0.000 A 
ENDBRANCH  63  82
BRANCH  75  88
ATOM     88  C   UNL A   1      42.710  35.331  29.037  1.00  0.00    -0.014 A 
ATOM     89  C   UNL A   1      43.428  36.338  29.690  1.00  0.00     0.009 A 
ATOM     90  C   UNL A   1      41.993  35.732  27.882  1.00  0.00     0.009 A 
ATOM     91  C   UNL A   1      43.410  37.667  29.234  1.00  0.00     0.001 A 
ATOM     92  C   UNL A   1      42.005  37.043  27.398  1.00  0.00     0.001 A 
ATOM     93  C   UNL A   1      42.711  38.016  28.084  1.00  0.00     0.000 A 
ENDBRANCH  75  88
ENDBRANCH  49  50
ENDBRANCH  41  44
ENDBRANCH  39  40
ENDBRANCH  38  39
ENDBRANCH  37  38
ENDBRANCH   1  37
TORSDOF 18
ENDMDL
MODEL 2
REMARK VINA RESULT:     -11.4      5.224     12.547
REMARK SMILES Cc1ccc(C(c2ccccc2)(c2ccccc2)n2cnc(C[C@H]([NH3+])C(=O)NCCCCNC(=O)c3ccc(-c4c5nc(c(-c6ccccc6)c6ccc([nH]6)c(-c6ccccc6)c6nc(c(-c7ccccc7)c7ccc4[nH]7)C=C6)C=C5)cc3)c2)cc1
REMARK SMILES IDX 29 1 28 2 26 3 27 4 24 6 23 7 22 8 19 9 20 10 84 11 21 12
REMARK SMILES IDX 6 13 5 14 1 15 2 16 3 17 86 18 4 19 85 20 7 21 8 22 12 23
REMARK SMILES IDX 9 24 11 25 10 26 13 27 14 28 18 29 15 30 17 31 16 32 25 33
REMARK SMILES IDX 30 37 31 38 32 39 33 40 34 41 35 43 36 44 37 45 83 46 38 47
REMARK SMILES IDX 82 48 39 49 40 50 41 51 76 52 42 53 81 54 75 55 77 56 43 57
REMARK SMILES IDX 80 58 74 59 73 60 44 62 66 63 51 64 65 65 52 66 55 67 64 68
REMARK SMILES IDX 78 69 53 70 54 71 63 73 79 74 56 75 45 76 46 77 50 78 47 79
REMARK SMILES IDX 49 80 48 81 67 82 68 83 72 84 69 85 71 86 70 87 57 88 58 89
REMARK SMILES IDX 62 90 59 91 61 92 60 93
REMARK H PARENT 28 5 25 34 25 35 25 36 33 42 77 61 55 72
REMARK Flexibility Score: inf
ROOT
ATOM      1  C   UNL A   1      46.990  29.225  31.958  1.00  0.00     0.116 C 
ENDROOT
BRANCH   1   2
ATOM      2  N   UNL A   1      47.485  30.431  31.324  1.00  0.00    -0.351 N 
ATOM      3  C   UNL A   1      47.069  31.122  30.222  1.00  0.00     0.278 C 
ATOM      4  O   UNL A   1      47.824  32.011  29.812  1.00  0.00    -0.268 OA
ATOM      5  H   UNL A   1      48.269  30.825  31.772  1.00  0.00     0.163 HD
BRANCH   3   6
ATOM      6  C   UNL A   1      45.756  30.785  29.485  1.00  0.00     0.276 C 
BRANCH   6   7
ATOM      7  C   UNL A   1      45.749  31.203  28.006  1.00  0.00     0.133 C 
BRANCH   7   8
ATOM      8  C   UNL A   1      46.171  30.128  27.069  1.00  0.00     0.065 A 
ATOM      9  N   UNL A   1      46.914  28.252  26.196  1.00  0.00    -0.319 N 
ATOM     10  C   UNL A   1      46.744  29.214  25.224  1.00  0.00     0.201 A 
ATOM     11  C   UNL A   1      46.470  28.819  27.368  1.00  0.00     0.112 A 
ATOM     12  N   UNL A   1      46.289  30.341  25.723  1.00  0.00    -0.241 NA
BRANCH   9  13
ATOM     13  C   UNL A   1      47.527  26.895  25.994  1.00  0.00     0.121 C 
BRANCH  13  14
ATOM     14  C   UNL A   1      46.382  25.845  25.681  1.00  0.00    -0.013 A 
ATOM     15  C   UNL A   1      43.359  22.858  24.744  1.00  0.00     0.044 C 
ATOM     16  C   UNL A   1      44.408  23.872  25.090  1.00  0.00    -0.051 A 
ATOM     17  C   UNL A   1      44.046  25.203  25.316  1.00  0.00     0.004 A 
ATOM     18  C   UNL A   1      45.752  23.516  25.192  1.00  0.00     0.004 A 
ATOM     19  C   UNL A   1      45.014  26.173  25.610  1.00  0.00     0.007 A 
ATOM     20  C   UNL A   1      46.718  24.479  25.496  1.00  0.00     0.007 A 
ENDBRANCH  13  14
BRANCH  13  21
ATOM     21  C   UNL A   1      48.541  27.032  24.770  1.00  0.00    -0.013 A 
ATOM     22  C   UNL A   1      48.181  26.599  23.471  1.00  0.00     0.007 A 
ATOM     23  C   UNL A   1      49.869  27.487  24.910  1.00  0.00     0.007 A 
ATOM     24  C   UNL A   1      49.044  26.717  22.376  1.00  0.00     0.000 A 
ATOM     25  C   UNL A   1      50.741  27.593  23.818  1.00  0.00     0.000 A 
ATOM     26  C   UNL A   1      50.323  27.228  22.547  1.00  0.00     0.000 A 
ENDBRANCH  13  21
BRANCH  13  27
ATOM     27  C   UNL A   1      48.254  26.499  27.362  1.00  0.00    -0.013 A 
ATOM     28  C   UNL A   1      49.475  25.778  27.361  1.00  0.00     0.007 A 
ATOM     29  C   UNL A   1      47.638  26.655  28.624  1.00  0.00     0.007 A 
ATOM     30  C   UNL A   1      50.043  25.269  28.534  1.00  0.00     0.000 A 
ATOM     31  C   UNL A   1      48.191  26.117  29.794  1.00  0.00     0.000 A 
ATOM     32  C   UNL A   1      49.394  25.426  29.751  1.00  0.00     0.000 A 
ENDBRANCH  13  27
ENDBRANCH   9  13
ENDBRANCH   7   8
ENDBRANCH   6   7
BRANCH   6  33
ATOM     33  N   UNL A   1      44.598  31.331  30.245  1.00  0.00    -0.347 N 
ATOM     34  H   UNL A   1      43.976  30.568  30.512  1.00  0.00     0.345 HD
ATOM     35  H   UNL A   1      44.090  31.995  29.660  1.00  0.00     0.345 HD
ATOM     36  H   UNL A   1      44.934  31.806  31.083  1.00  0.00     0.345 HD
ENDBRANCH   6  33
ENDBRANCH   3   6
ENDBRANCH   1   2
BRANCH   1  37
ATOM     37  C   UNL A   1      46.072  29.523  33.149  1.00  0.00     0.023 C 
BRANCH  37  38
ATOM     38  C   UNL A   1      46.725  29.401  34.528  1.00  0.00     0.023 C 
BRANCH  38  39
ATOM     39  C   UNL A   1      46.407  28.106  35.260  1.00  0.00     0.116 C 
BRANCH  39  40
ATOM     40  N   UNL A   1      45.839  28.274  36.589  1.00  0.00    -0.352 N 
ATOM     41  C   UNL A   1      44.548  28.606  36.974  1.00  0.00     0.251 C 
ATOM     42  H   UNL A   1      46.470  28.128  37.331  1.00  0.00     0.163 HD
ATOM     43  O   UNL A   1      44.309  28.808  38.153  1.00  0.00    -0.269 OA
BRANCH  41  44
ATOM     44  C   UNL A   1      43.429  28.569  35.989  1.00  0.00     0.039 A 
ATOM     45  C   UNL A   1      42.925  27.311  35.625  1.00  0.00     0.014 A 
ATOM     46  C   UNL A   1      43.031  29.695  35.279  1.00  0.00     0.014 A 
ATOM     47  C   UNL A   1      42.265  27.159  34.408  1.00  0.00     0.010 A 
ATOM     48  C   UNL A   1      42.495  29.535  34.020  1.00  0.00     0.010 A 
ATOM     49  C   UNL A   1      42.172  28.258  33.559  1.00  0.00    -0.014 A 
BRANCH  49  50
ATOM     50  C   UNL A   1      41.875  28.163  32.138  1.00  0.00     0.031 A 
ATOM     51  C   UNL A   1      40.527  28.465  31.629  1.00  0.00     0.074 A 
ATOM     52  C   UNL A   1      42.880  27.914  31.270  1.00  0.00     0.049 A 
ATOM     53  N   UNL A   1      40.063  28.011  30.514  1.00  0.00    -0.248 NA
ATOM     54  C   UNL A   1      39.570  29.285  32.364  1.00  0.00     0.031 C 
ATOM     55  C   UNL A   1      42.873  28.088  29.820  1.00  0.00     0.029 A 
ATOM     56  N   UNL A   1      44.074  27.249  31.531  1.00  0.00    -0.354 N 
ATOM     57  C   UNL A   1      38.919  28.718  30.236  1.00  0.00     0.074 A 
ATOM     58  C   UNL A   1      38.602  29.429  31.454  1.00  0.00     0.031 C 
ATOM     59  C   UNL A   1      43.860  27.347  29.290  1.00  0.00     0.029 A 
ATOM     60  C   UNL A   1      44.433  26.555  30.365  1.00  0.00     0.049 A 
ATOM     61  H   UNL A   1      44.575  27.263  32.378  1.00  0.00     0.167 HD
ATOM     62  C   UNL A   1      38.449  28.758  28.959  1.00  0.00     0.031 A 
ATOM     63  C   UNL A   1      44.513  25.192  30.367  1.00  0.00     0.031 A 
ATOM     64  C   UNL A   1      39.263  27.957  28.048  1.00  0.00     0.049 A 
ATOM     65  C   UNL A   1      43.522  24.520  29.441  1.00  0.00     0.074 A 
ATOM     66  C   UNL A   1      40.235  28.281  27.115  1.00  0.00     0.029 A 
ATOM     67  N   UNL A   1      39.353  26.584  28.246  1.00  0.00    -0.354 N 
ATOM     68  N   UNL A   1      42.485  25.117  28.921  1.00  0.00    -0.248 NA
ATOM     69  C   UNL A   1      43.601  23.115  29.050  1.00  0.00     0.031 C 
ATOM     70  C   UNL A   1      40.936  27.093  26.777  1.00  0.00     0.029 A 
ATOM     71  C   UNL A   1      40.374  26.048  27.487  1.00  0.00     0.049 A 
ATOM     72  H   UNL A   1      38.768  26.065  28.845  1.00  0.00     0.167 HD
ATOM     73  C   UNL A   1      41.772  24.232  28.152  1.00  0.00     0.074 A 
ATOM     74  C   UNL A   1      42.522  22.993  28.257  1.00  0.00     0.031 C 
ATOM     75  C   UNL A   1      40.625  24.611  27.507  1.00  0.00     0.031 A 
BRANCH  62  76
ATOM     76  C   UNL A   1      37.433  29.776  28.503  1.00  0.00    -0.014 A 
ATOM     77  C   UNL A   1      37.674  31.146  28.714  1.00  0.00     0.009 A 
ATOM     78  C   UNL A   1      36.206  29.449  27.903  1.00  0.00     0.009 A 
ATOM     79  C   UNL A   1      36.705  32.120  28.444  1.00  0.00     0.001 A 
ATOM     80  C   UNL A   1      35.214  30.412  27.670  1.00  0.00     0.001 A 
ATOM     81  C   UNL A   1      35.460  31.749  27.953  1.00  0.00     0.000 A 
ENDBRANCH  62  76
BRANCH  63  82
ATOM     82  C   UNL A   1      45.001  24.639  31.662  1.00  0.00    -0.014 A 
ATOM     83  C   UNL A   1      46.054  25.316  32.311  1.00  0.00     0.009 A 
ATOM     84  C   UNL A   1      44.208  23.761  32.414  1.00  0.00     0.009 A 
ATOM     85  C   UNL A   1      46.225  25.220  33.696  1.00  0.00     0.001 A 
ATOM     86  C   UNL A   1      44.391  23.658  33.801  1.00  0.00     0.001 A 
ATOM     87  C   UNL A   1      45.370  24.415  34.444  1.00  0.00     0.000 A 
ENDBRANCH  63  82
BRANCH  75  88
ATOM     88  C   UNL A   1      39.633  23.725  26.777  1.00  0.00    -0.014 A 
ATOM     89  C   UNL A   1      39.829  22.378  26.455  1.00  0.00     0.009 A 
ATOM     90  C   UNL A   1      38.355  24.255  26.468  1.00  0.00     0.009 A 
ATOM     91  C   UNL A   1      38.822  21.615  25.841  1.00  0.00     0.001 A 
ATOM     92  C   UNL A   1      37.334  23.491  25.897  1.00  0.00     0.001 A 
ATOM     93  C   UNL A   1      37.574  22.166  25.573  1.00  0.00     0.000 A 
ENDBRANCH  75  88
ENDBRANCH  49  50
ENDBRANCH  41  44
ENDBRANCH  39  40
ENDBRANCH  38  39
ENDBRANCH  37  38
ENDBRANCH   1  37
TORSDOF 18
ENDMDL
MODEL 3
REMARK VINA RESULT:     -11.2      1.485      2.410
REMARK SMILES Cc1ccc(C(c2ccccc2)(c2ccccc2)n2cnc(C[C@H]([NH3+])C(=O)NCCCCNC(=O)c3ccc(-c4c5nc(c(-c6ccccc6)c6ccc([nH]6)c(-c6ccccc6)c6nc(c(-c7ccccc7)c7ccc4[nH]7)C=C6)C=C5)cc3)c2)cc1
REMARK SMILES IDX 29 1 28 2 26 3 27 4 24 6 23 7 22 8 19 9 20 10 84 11 21 12
REMARK SMILES IDX 6 13 5 14 1 15 2 16 3 17 86 18 4 19 85 20 7 21 8 22 12 23
REMARK SMILES IDX 9 24 11 25 10 26 13 27 14 28 18 29 15 30 17 31 16 32 25 33
REMARK SMILES IDX 30 37 31 38 32 39 33 40 34 41 35 43 36 44 37 45 83 46 38 47
REMARK SMILES IDX 82 48 39 49 40 50 41 51 76 52 42 53 81 54 75 55 77 56 43 57
REMARK SMILES IDX 80 58 74 59 73 60 44 62 66 63 51 64 65 65 52 66 55 67 64 68
REMARK SMILES IDX 78 69 53 70 54 71 63 73 79 74 56 75 45 76 46 77 50 78 47 79
REMARK SMILES IDX 49 80 48 81 67 82 68 83 72 84 69 85 71 86 70 87 57 88 58 89
REMARK SMILES IDX 62 90 59 91 61 92 60 93
REMARK H PARENT 28 5 25 34 25 35 25 36 33 42 77 61 55 72
REMARK Flexibility Score: inf
ROOT
ATOM      1  C   UNL A   1      35.329  21.880  25.328  1.00  0.00     0.116 C 
ENDROOT
BRANCH   1   2
ATOM      2  N   UNL A   1      34.660  21.931  26.613  1.00  0.00    -0.351 N 
ATOM      3  C   UNL A   1      33.339  21.959  26.956  1.00  0.00     0.278 C 
ATOM      4  O   UNL A   1      33.083  22.204  28.140  1.00  0.00    -0.268 OA
ATOM      5  H   UNL A   1      35.275  21.949  27.383  1.00  0.00     0.163 HD
BRANCH   3   6
ATOM      6  C   UNL A   1      32.214  21.753  25.920  1.00  0.00     0.276 C 
BRANCH   6   7
ATOM      7  C   UNL A   1      30.848  22.294  26.370  1.00  0.00     0.133 C 
BRANCH   7   8
ATOM      8  C   UNL A   1      30.628  23.730  26.051  1.00  0.00     0.065 A 
ATOM      9  N   UNL A   1      30.715  25.737  25.157  1.00  0.00    -0.319 N 
ATOM     10  C   UNL A   1      29.973  25.746  26.319  1.00  0.00     0.201 A 
ATOM     11  C   UNL A   1      31.068  24.424  24.947  1.00  0.00     0.112 A 
ATOM     12  N   UNL A   1      29.899  24.553  26.863  1.00  0.00    -0.241 NA
BRANCH   9  13
ATOM     13  C   UNL A   1      31.099  26.944  24.348  1.00  0.00     0.121 C 
BRANCH  13  14
ATOM     14  C   UNL A   1      32.036  27.881  25.217  1.00  0.00    -0.013 A 
ATOM     15  C   UNL A   1      34.532  30.594  27.529  1.00  0.00     0.044 C 
ATOM     16  C   UNL A   1      33.652  29.662  26.752  1.00  0.00    -0.051 A 
ATOM     17  C   UNL A   1      34.061  28.347  26.516  1.00  0.00     0.004 A 
ATOM     18  C   UNL A   1      32.419  30.082  26.252  1.00  0.00     0.004 A 
ATOM     19  C   UNL A   1      33.266  27.469  25.766  1.00  0.00     0.007 A 
ATOM     20  C   UNL A   1      31.621  29.205  25.513  1.00  0.00     0.007 A 
ENDBRANCH  13  14
BRANCH  13  21
ATOM     21  C   UNL A   1      31.859  26.401  23.055  1.00  0.00    -0.013 A 
ATOM     22  C   UNL A   1      33.196  25.944  23.132  1.00  0.00     0.007 A 
ATOM     23  C   UNL A   1      31.302  26.432  21.758  1.00  0.00     0.007 A 
ATOM     24  C   UNL A   1      33.885  25.452  22.016  1.00  0.00     0.000 A 
ATOM     25  C   UNL A   1      31.994  25.952  20.637  1.00  0.00     0.000 A 
ATOM     26  C   UNL A   1      33.278  25.443  20.769  1.00  0.00     0.000 A 
ENDBRANCH  13  21
BRANCH  13  27
ATOM     27  C   UNL A   1      29.747  27.723  23.995  1.00  0.00    -0.013 A 
ATOM     28  C   UNL A   1      28.499  27.051  23.972  1.00  0.00     0.007 A 
ATOM     29  C   UNL A   1      29.739  29.044  23.495  1.00  0.00     0.007 A 
ATOM     30  C   UNL A   1      27.331  27.660  23.501  1.00  0.00     0.000 A 
ATOM     31  C   UNL A   1      28.576  29.642  22.993  1.00  0.00     0.000 A 
ATOM     32  C   UNL A   1      27.371  28.953  22.998  1.00  0.00     0.000 A 
ENDBRANCH  13  27
ENDBRANCH   9  13
ENDBRANCH   7   8
ENDBRANCH   6   7
BRANCH   6  33
ATOM     33  N   UNL A   1      32.161  20.321  25.512  1.00  0.00    -0.347 N 
ATOM     34  H   UNL A   1      31.190  20.011  25.488  1.00  0.00     0.345 HD
ATOM     35  H   UNL A   1      32.682  19.757  26.182  1.00  0.00     0.345 HD
ATOM     36  H   UNL A   1      32.575  20.216  24.586  1.00  0.00     0.345 HD
ENDBRANCH   6  33
ENDBRANCH   3   6
ENDBRANCH   1   2
BRANCH   1  37
ATOM     37  C   UNL A   1      36.856  21.873  25.460  1.00  0.00     0.023 C 
BRANCH  37  38
ATOM     38  C   UNL A   1      37.496  23.232  25.753  1.00  0.00     0.023 C 
BRANCH  38  39
ATOM     39  C   UNL A   1      38.846  23.152  26.450  1.00  0.00     0.116 C 
BRANCH  39  40
ATOM     40  N   UNL A   1      39.628  21.965  26.143  1.00  0.00    -0.352 N 
ATOM     41  C   UNL A   1      41.002  21.771  26.156  1.00  0.00     0.251 C 
ATOM     42  H   UNL A   1      39.100  21.174  25.887  1.00  0.00     0.163 HD
ATOM     43  O   UNL A   1      41.461  20.716  25.750  1.00  0.00    -0.269 OA
BRANCH  41  44
ATOM     44  C   UNL A   1      41.904  22.771  26.797  1.00  0.00     0.039 A 
ATOM     45  C   UNL A   1      42.093  22.681  28.183  1.00  0.00     0.014 A 
ATOM     46  C   UNL A   1      42.373  23.888  26.115  1.00  0.00     0.014 A 
ATOM     47  C   UNL A   1      42.488  23.809  28.901  1.00  0.00     0.010 A 
ATOM     48  C   UNL A   1      42.638  25.039  26.824  1.00  0.00     0.010 A 
ATOM     49  C   UNL A   1      42.632  25.013  28.219  1.00  0.00    -0.014 A 
BRANCH  49  50
ATOM     50  C   UNL A   1      42.652  26.315  28.869  1.00  0.00     0.031 A 
ATOM     51  C   UNL A   1      41.423  27.118  28.982  1.00  0.00     0.074 A 
ATOM     52  C   UNL A   1      43.782  26.729  29.481  1.00  0.00     0.049 A 
ATOM     53  N   UNL A   1      41.416  28.399  29.133  1.00  0.00    -0.248 NA
ATOM     54  C   UNL A   1      40.088  26.537  28.896  1.00  0.00     0.031 C 
ATOM     55  C   UNL A   1      43.932  27.820  30.441  1.00  0.00     0.029 A 
ATOM     56  N   UNL A   1      45.088  26.348  29.187  1.00  0.00    -0.354 N 
ATOM     57  C   UNL A   1      40.137  28.756  29.483  1.00  0.00     0.074 A 
ATOM     58  C   UNL A   1      39.329  27.584  29.231  1.00  0.00     0.031 C 
ATOM     59  C   UNL A   1      45.223  28.190  30.479  1.00  0.00     0.029 A 
ATOM     60  C   UNL A   1      45.916  27.454  29.434  1.00  0.00     0.049 A 
ATOM     61  H   UNL A   1      45.378  25.464  28.866  1.00  0.00     0.167 HD
ATOM     62  C   UNL A   1      39.918  29.950  30.101  1.00  0.00     0.031 A 
ATOM     63  C   UNL A   1      46.624  28.030  28.419  1.00  0.00     0.031 A 
ATOM     64  C   UNL A   1      41.150  30.720  30.258  1.00  0.00     0.049 A 
ATOM     65  C   UNL A   1      46.229  29.464  28.135  1.00  0.00     0.074 A 
ATOM     66  C   UNL A   1      41.995  30.944  31.335  1.00  0.00     0.029 A 
ATOM     67  N   UNL A   1      41.839  31.139  29.126  1.00  0.00    -0.354 N 
ATOM     68  N   UNL A   1      45.135  30.023  28.572  1.00  0.00    -0.248 NA
ATOM     69  C   UNL A   1      47.021  30.374  27.312  1.00  0.00     0.031 C 
ATOM     70  C   UNL A   1      43.215  31.471  30.835  1.00  0.00     0.029 A 
ATOM     71  C   UNL A   1      43.101  31.588  29.462  1.00  0.00     0.049 A 
ATOM     72  H   UNL A   1      41.476  31.119  28.211  1.00  0.00     0.167 HD
ATOM     73  C   UNL A   1      45.057  31.316  28.122  1.00  0.00     0.074 A 
ATOM     74  C   UNL A   1      46.270  31.490  27.345  1.00  0.00     0.031 C 
ATOM     75  C   UNL A   1      43.989  32.115  28.431  1.00  0.00     0.031 A 
BRANCH  62  76
ATOM     76  C   UNL A   1      38.635  30.260  30.829  1.00  0.00    -0.014 A 
ATOM     77  C   UNL A   1      37.513  30.710  30.108  1.00  0.00     0.009 A 
ATOM     78  C   UNL A   1      38.479  30.175  32.223  1.00  0.00     0.009 A 
ATOM     79  C   UNL A   1      36.348  31.151  30.747  1.00  0.00     0.001 A 
ATOM     80  C   UNL A   1      37.333  30.654  32.873  1.00  0.00     0.001 A 
ATOM     81  C   UNL A   1      36.270  31.154  32.133  1.00  0.00     0.000 A 
ENDBRANCH  62  76
BRANCH  63  82
ATOM     82  C   UNL A   1      47.095  27.044  27.404  1.00  0.00    -0.014 A 
ATOM     83  C   UNL A   1      47.999  26.048  27.826  1.00  0.00     0.009 A 
ATOM     84  C   UNL A   1      46.381  26.838  26.216  1.00  0.00     0.009 A 
ATOM     85  C   UNL A   1      48.088  24.826  27.152  1.00  0.00     0.001 A 
ATOM     86  C   UNL A   1      46.482  25.616  25.536  1.00  0.00     0.001 A 
ATOM     87  C   UNL A   1      47.303  24.599  26.025  1.00  0.00     0.000 A 
ENDBRANCH  63  82
BRANCH  75  88
ATOM     88  C   UNL A   1      43.662  33.487  27.872  1.00  0.00    -0.014 A 
ATOM     89  C   UNL A   1      43.778  33.867  26.531  1.00  0.00     0.009 A 
ATOM     90  C   UNL A   1      43.100  34.455  28.742  1.00  0.00     0.009 A 
ATOM     91  C   UNL A   1      43.382  35.142  26.091  1.00  0.00     0.001 A 
ATOM     92  C   UNL A   1      42.664  35.708  28.305  1.00  0.00     0.001 A 
ATOM     93  C   UNL A   1      42.816  36.056  26.974  1.00  0.00     0.000 A 
ENDBRANCH  75  88
ENDBRANCH  49  50
ENDBRANCH  41  44
ENDBRANCH  39  40
ENDBRANCH  38  39
ENDBRANCH  37  38
ENDBRANCH   1  37
TORSDOF 18
ENDMDL
