MODEL 1
REMARK VINA RESULT:     -12.5      0.000      0.000
REMARK SMILES Cc1cccc(O[C@H](C)C(=O)NNC(=O)[C@H]2[C@@H]3CC[C@@H](C3)[C@@H]2C(=O)NCCCCNC(=O)c2ccc(-c3c4nc(c(-c5ccccc5)c5ccc([nH]5)c(-c5ccccc5)c5nc(c(-c6ccccc6)c6ccc3[nH]6)C=C5)C=C4)cc2)c1
REMARK SMILES IDX 26 1 25 2 23 3 24 4 22 6 16 7 17 8 18 9 21 10 20 11 19 12
REMARK SMILES IDX 14 13 13 14 15 16 12 17 10 18 11 19 8 21 9 22 7 23 6 24 1 25
REMARK SMILES IDX 2 26 3 27 81 28 4 29 5 30 27 31 28 32 29 33 30 34 31 35
REMARK SMILES IDX 32 37 33 38 34 39 80 40 35 41 79 42 36 43 37 44 38 45 73 46
REMARK SMILES IDX 39 47 78 48 72 49 74 50 40 51 77 52 71 53 70 54 41 56 63 57
REMARK SMILES IDX 48 58 62 59 49 60 52 61 61 62 75 63 50 64 51 65 60 67 76 68
REMARK SMILES IDX 53 69 42 70 43 71 47 72 44 73 46 74 45 75 64 76 65 77 69 78
REMARK SMILES IDX 66 79 68 80 67 81 54 82 55 83 59 84 56 85 58 86 57 87
REMARK H PARENT 25 5 13 15 12 20 30 36 74 55 52 66
REMARK Flexibility Score: inf
ROOT
ATOM      1  C   UNL A   1      32.918  28.080  26.577  1.00  0.00     0.116 C 
ENDROOT
BRANCH   1   2
ATOM      2  N   UNL A   1      33.645  27.250  25.625  1.00  0.00    -0.356 N 
ATOM      3  C   UNL A   1      33.567  25.900  25.413  1.00  0.00     0.224 C 
ATOM      4  O   UNL A   1      34.305  25.387  24.577  1.00  0.00    -0.275 OA
ATOM      5  H   UNL A   1      34.284  27.730  25.051  1.00  0.00     0.163 HD
BRANCH   3   6
ATOM      6  C   UNL A   1      32.556  25.111  26.229  1.00  0.00     0.094 C 
ATOM      7  C   UNL A   1      32.718  23.586  26.176  1.00  0.00     0.096 C 
ATOM      8  C   UNL A   1      31.279  23.080  25.891  1.00  0.00     0.002 C 
ATOM      9  C   UNL A   1      30.996  23.308  24.392  1.00  0.00     0.005 C 
ATOM     10  C   UNL A   1      30.379  24.158  26.494  1.00  0.00     0.009 C 
ATOM     11  C   UNL A   1      31.089  25.300  25.762  1.00  0.00     0.002 C 
ATOM     12  C   UNL A   1      30.899  24.842  24.299  1.00  0.00     0.005 C 
BRANCH   7  13
ATOM     13  C   UNL A   1      33.398  22.888  27.350  1.00  0.00     0.242 C 
ATOM     14  N   UNL A   1      34.745  22.751  27.525  1.00  0.00    -0.267 N 
ATOM     15  H   UNL A   1      35.015  22.196  28.291  1.00  0.00     0.191 HD
ATOM     16  O   UNL A   1      32.686  22.428  28.252  1.00  0.00    -0.273 OA
BRANCH  14  17
ATOM     17  N   UNL A   1      35.776  23.275  26.789  1.00  0.00    -0.264 N 
ATOM     18  C   UNL A   1      36.292  22.820  25.615  1.00  0.00     0.279 C 
ATOM     19  O   UNL A   1      36.976  23.649  24.991  1.00  0.00    -0.269 OA
ATOM     20  H   UNL A   1      36.198  24.085  27.158  1.00  0.00     0.191 HD
BRANCH  18  21
ATOM     21  C   UNL A   1      36.206  21.359  25.093  1.00  0.00     0.260 C 
ATOM     22  C   UNL A   1      37.588  20.873  24.635  1.00  0.00     0.064 C 
BRANCH  21  23
ATOM     23  O   UNL A   1      35.321  20.354  25.533  1.00  0.00    -0.481 OA
BRANCH  23  24
ATOM     24  C   UNL A   1      34.336  19.781  24.800  1.00  0.00     0.120 A 
ATOM     25  C   UNL A   1      34.021  16.282  23.305  1.00  0.00     0.044 C 
ATOM     26  C   UNL A   1      33.727  17.709  23.661  1.00  0.00    -0.047 A 
ATOM     27  C   UNL A   1      32.600  18.344  23.135  1.00  0.00     0.003 A 
ATOM     28  C   UNL A   1      34.580  18.435  24.499  1.00  0.00     0.049 A 
ATOM     29  C   UNL A   1      32.325  19.669  23.465  1.00  0.00     0.004 A 
ATOM     30  C   UNL A   1      33.181  20.382  24.310  1.00  0.00     0.046 A 
ENDBRANCH  23  24
ENDBRANCH  21  23
ENDBRANCH  18  21
ENDBRANCH  14  17
ENDBRANCH   7  13
ENDBRANCH   3   6
ENDBRANCH   1   2
BRANCH   1  31
ATOM     31  C   UNL A   1      32.385  29.381  25.958  1.00  0.00     0.023 C 
BRANCH  31  32
ATOM     32  C   UNL A   1      32.880  30.678  26.609  1.00  0.00     0.023 C 
BRANCH  32  33
ATOM     33  C   UNL A   1      33.465  30.515  28.006  1.00  0.00     0.116 C 
BRANCH  33  34
ATOM     34  N   UNL A   1      34.323  31.599  28.462  1.00  0.00    -0.352 N 
ATOM     35  C   UNL A   1      35.626  31.555  28.944  1.00  0.00     0.251 C 
ATOM     36  H   UNL A   1      33.921  32.496  28.424  1.00  0.00     0.163 HD
ATOM     37  O   UNL A   1      36.136  32.567  29.396  1.00  0.00    -0.269 OA
BRANCH  35  38
ATOM     38  C   UNL A   1      36.452  30.325  28.774  1.00  0.00     0.039 A 
ATOM     39  C   UNL A   1      36.666  29.525  29.906  1.00  0.00     0.014 A 
ATOM     40  C   UNL A   1      37.175  30.076  27.614  1.00  0.00     0.014 A 
ATOM     41  C   UNL A   1      37.782  28.693  29.959  1.00  0.00     0.010 A 
ATOM     42  C   UNL A   1      38.344  29.347  27.701  1.00  0.00     0.010 A 
ATOM     43  C   UNL A   1      38.686  28.716  28.899  1.00  0.00    -0.014 A 
BRANCH  43  44
ATOM     44  C   UNL A   1      40.068  28.266  29.007  1.00  0.00     0.031 A 
ATOM     45  C   UNL A   1      40.501  26.976  28.442  1.00  0.00     0.074 A 
ATOM     46  C   UNL A   1      40.992  29.102  29.532  1.00  0.00     0.049 A 
ATOM     47  N   UNL A   1      41.579  26.367  28.806  1.00  0.00    -0.248 NA
ATOM     48  C   UNL A   1      39.733  26.244  27.441  1.00  0.00     0.031 C 
ATOM     49  C   UNL A   1      42.446  29.012  29.428  1.00  0.00     0.029 A 
ATOM     50  N   UNL A   1      40.780  30.113  30.462  1.00  0.00    -0.354 N 
ATOM     51  C   UNL A   1      41.795  25.348  27.914  1.00  0.00     0.074 A 
ATOM     52  C   UNL A   1      40.586  25.264  27.127  1.00  0.00     0.031 C 
ATOM     53  C   UNL A   1      42.999  29.745  30.408  1.00  0.00     0.029 A 
ATOM     54  C   UNL A   1      41.923  30.191  31.276  1.00  0.00     0.049 A 
ATOM     55  H   UNL A   1      39.974  30.675  30.537  1.00  0.00     0.167 HD
ATOM     56  C   UNL A   1      43.021  24.763  27.845  1.00  0.00     0.031 A 
ATOM     57  C   UNL A   1      41.836  29.926  32.614  1.00  0.00     0.031 A 
ATOM     58  C   UNL A   1      43.960  25.301  28.824  1.00  0.00     0.049 A 
ATOM     59  C   UNL A   1      42.640  28.723  33.075  1.00  0.00     0.074 A 
ATOM     60  C   UNL A   1      45.028  26.181  28.764  1.00  0.00     0.029 A 
ATOM     61  N   UNL A   1      43.671  25.142  30.167  1.00  0.00    -0.354 N 
ATOM     62  N   UNL A   1      43.313  27.933  32.283  1.00  0.00    -0.248 NA
ATOM     63  C   UNL A   1      42.652  28.252  34.462  1.00  0.00     0.031 C 
ATOM     64  C   UNL A   1      45.388  26.532  30.097  1.00  0.00     0.029 A 
ATOM     65  C   UNL A   1      44.546  25.855  30.959  1.00  0.00     0.049 A 
ATOM     66  H   UNL A   1      42.934  24.589  30.515  1.00  0.00     0.167 HD
ATOM     67  C   UNL A   1      43.759  26.849  32.992  1.00  0.00     0.074 A 
ATOM     68  C   UNL A   1      43.335  27.099  34.357  1.00  0.00     0.031 C 
ATOM     69  C   UNL A   1      44.387  25.794  32.400  1.00  0.00     0.031 A 
BRANCH  56  70
ATOM     70  C   UNL A   1      43.421  23.841  26.727  1.00  0.00    -0.014 A 
ATOM     71  C   UNL A   1      43.148  22.466  26.828  1.00  0.00     0.009 A 
ATOM     72  C   UNL A   1      44.086  24.264  25.564  1.00  0.00     0.009 A 
ATOM     73  C   UNL A   1      43.593  21.551  25.865  1.00  0.00     0.001 A 
ATOM     74  C   UNL A   1      44.571  23.351  24.617  1.00  0.00     0.001 A 
ATOM     75  C   UNL A   1      44.332  21.992  24.774  1.00  0.00     0.000 A 
ENDBRANCH  56  70
BRANCH  57  76
ATOM     76  C   UNL A   1      40.523  30.327  33.201  1.00  0.00    -0.014 A 
ATOM     77  C   UNL A   1      40.222  31.700  33.294  1.00  0.00     0.009 A 
ATOM     78  C   UNL A   1      39.476  29.401  33.306  1.00  0.00     0.009 A 
ATOM     79  C   UNL A   1      38.896  32.137  33.363  1.00  0.00     0.001 A 
ATOM     80  C   UNL A   1      38.151  29.844  33.397  1.00  0.00     0.001 A 
ATOM     81  C   UNL A   1      37.861  31.208  33.385  1.00  0.00     0.000 A 
ENDBRANCH  57  76
BRANCH  69  82
ATOM     82  C   UNL A   1      44.870  24.577  33.137  1.00  0.00    -0.014 A 
ATOM     83  C   UNL A   1      44.101  23.411  33.257  1.00  0.00     0.009 A 
ATOM     84  C   UNL A   1      46.086  24.619  33.850  1.00  0.00     0.009 A 
ATOM     85  C   UNL A   1      44.555  22.322  34.011  1.00  0.00     0.001 A 
ATOM     86  C   UNL A   1      46.532  23.544  34.621  1.00  0.00     0.001 A 
ATOM     87  C   UNL A   1      45.769  22.387  34.692  1.00  0.00     0.000 A 
ENDBRANCH  69  82
ENDBRANCH  43  44
ENDBRANCH  35  38
ENDBRANCH  33  34
ENDBRANCH  32  33
ENDBRANCH  31  32
ENDBRANCH   1  31
TORSDOF 16
ENDMDL
MODEL 2
REMARK VINA RESULT:     -12.1      3.201      8.946
REMARK SMILES Cc1cccc(O[C@H](C)C(=O)NNC(=O)[C@H]2[C@@H]3CC[C@@H](C3)[C@@H]2C(=O)NCCCCNC(=O)c2ccc(-c3c4nc(c(-c5ccccc5)c5ccc([nH]5)c(-c5ccccc5)c5nc(c(-c6ccccc6)c6ccc3[nH]6)C=C5)C=C4)cc2)c1
REMARK SMILES IDX 26 1 25 2 23 3 24 4 22 6 16 7 17 8 18 9 21 10 20 11 19 12
REMARK SMILES IDX 14 13 13 14 15 16 12 17 10 18 11 19 8 21 9 22 7 23 6 24 1 25
REMARK SMILES IDX 2 26 3 27 81 28 4 29 5 30 27 31 28 32 29 33 30 34 31 35
REMARK SMILES IDX 32 37 33 38 34 39 80 40 35 41 79 42 36 43 37 44 38 45 73 46
REMARK SMILES IDX 39 47 78 48 72 49 74 50 40 51 77 52 71 53 70 54 41 56 63 57
REMARK SMILES IDX 48 58 62 59 49 60 52 61 61 62 75 63 50 64 51 65 60 67 76 68
REMARK SMILES IDX 53 69 42 70 43 71 47 72 44 73 46 74 45 75 64 76 65 77 69 78
REMARK SMILES IDX 66 79 68 80 67 81 54 82 55 83 59 84 56 85 58 86 57 87
REMARK H PARENT 25 5 13 15 12 20 30 36 74 55 52 66
REMARK Flexibility Score: inf
ROOT
ATOM      1  C   UNL A   1      36.135  21.150  25.372  1.00  0.00     0.116 C 
ENDROOT
BRANCH   1   2
ATOM      2  N   UNL A   1      35.818  22.526  25.732  1.00  0.00    -0.356 N 
ATOM      3  C   UNL A   1      34.892  23.374  25.186  1.00  0.00     0.224 C 
ATOM      4  O   UNL A   1      34.811  24.521  25.619  1.00  0.00    -0.275 OA
ATOM      5  H   UNL A   1      36.344  22.899  26.475  1.00  0.00     0.163 HD
BRANCH   3   6
ATOM      6  C   UNL A   1      34.007  22.839  24.073  1.00  0.00     0.094 C 
ATOM      7  C   UNL A   1      32.972  23.830  23.524  1.00  0.00     0.096 C 
ATOM      8  C   UNL A   1      31.658  23.007  23.509  1.00  0.00     0.002 C 
ATOM      9  C   UNL A   1      31.132  22.945  24.959  1.00  0.00     0.005 C 
ATOM     10  C   UNL A   1      32.124  21.561  23.338  1.00  0.00     0.009 C 
ATOM     11  C   UNL A   1      33.118  21.642  24.499  1.00  0.00     0.002 C 
ATOM     12  C   UNL A   1      32.161  22.029  25.648  1.00  0.00     0.005 C 
BRANCH   7  13
ATOM     13  C   UNL A   1      33.274  24.538  22.207  1.00  0.00     0.242 C 
ATOM     14  N   UNL A   1      33.337  25.889  22.023  1.00  0.00    -0.267 N 
ATOM     15  H   UNL A   1      33.455  26.182  21.091  1.00  0.00     0.191 HD
ATOM     16  O   UNL A   1      33.521  23.844  21.211  1.00  0.00    -0.273 OA
BRANCH  14  17
ATOM     17  N   UNL A   1      33.260  26.898  22.949  1.00  0.00    -0.264 N 
ATOM     18  C   UNL A   1      32.149  27.478  23.476  1.00  0.00     0.279 C 
ATOM     19  O   UNL A   1      32.341  28.114  24.526  1.00  0.00    -0.269 OA
ATOM     20  H   UNL A   1      34.121  27.247  23.274  1.00  0.00     0.191 HD
BRANCH  18  21
ATOM     21  C   UNL A   1      30.744  27.515  22.811  1.00  0.00     0.260 C 
ATOM     22  C   UNL A   1      29.715  26.800  23.698  1.00  0.00     0.064 C 
BRANCH  21  23
ATOM     23  O   UNL A   1      30.231  28.528  21.975  1.00  0.00    -0.481 OA
BRANCH  23  24
ATOM     24  C   UNL A   1      29.623  29.668  22.383  1.00  0.00     0.120 A 
ATOM     25  C   UNL A   1      27.801  32.391  20.424  1.00  0.00     0.044 C 
ATOM     26  C   UNL A   1      28.419  31.623  21.554  1.00  0.00    -0.047 A 
ATOM     27  C   UNL A   1      28.439  32.166  22.841  1.00  0.00     0.003 A 
ATOM     28  C   UNL A   1      29.004  30.370  21.341  1.00  0.00     0.049 A 
ATOM     29  C   UNL A   1      29.012  31.453  23.892  1.00  0.00     0.004 A 
ATOM     30  C   UNL A   1      29.587  30.199  23.669  1.00  0.00     0.046 A 
ENDBRANCH  23  24
ENDBRANCH  21  23
ENDBRANCH  18  21
ENDBRANCH  14  17
ENDBRANCH   7  13
ENDBRANCH   3   6
ENDBRANCH   1   2
BRANCH   1  31
ATOM     31  C   UNL A   1      37.595  20.964  24.931  1.00  0.00     0.023 C 
BRANCH  31  32
ATOM     32  C   UNL A   1      38.591  21.991  25.482  1.00  0.00     0.023 C 
BRANCH  32  33
ATOM     33  C   UNL A   1      39.563  21.453  26.524  1.00  0.00     0.116 C 
BRANCH  33  34
ATOM     34  N   UNL A   1      40.514  20.459  26.047  1.00  0.00    -0.352 N 
ATOM     35  C   UNL A   1      41.901  20.517  25.985  1.00  0.00     0.251 C 
ATOM     36  H   UNL A   1      40.115  19.621  25.719  1.00  0.00     0.163 HD
ATOM     37  O   UNL A   1      42.518  19.622  25.432  1.00  0.00    -0.269 OA
BRANCH  35  38
ATOM     38  C   UNL A   1      42.644  21.584  26.716  1.00  0.00     0.039 A 
ATOM     39  C   UNL A   1      42.575  21.580  28.117  1.00  0.00     0.014 A 
ATOM     40  C   UNL A   1      43.201  22.676  26.061  1.00  0.00     0.014 A 
ATOM     41  C   UNL A   1      42.791  22.764  28.819  1.00  0.00     0.010 A 
ATOM     42  C   UNL A   1      43.302  23.876  26.734  1.00  0.00     0.010 A 
ATOM     43  C   UNL A   1      43.023  23.936  28.102  1.00  0.00    -0.014 A 
BRANCH  43  44
ATOM     44  C   UNL A   1      42.822  25.271  28.651  1.00  0.00     0.031 A 
ATOM     45  C   UNL A   1      41.634  26.071  28.306  1.00  0.00     0.074 A 
ATOM     46  C   UNL A   1      43.684  25.735  29.583  1.00  0.00     0.049 A 
ATOM     47  N   UNL A   1      41.573  27.352  28.451  1.00  0.00    -0.248 NA
ATOM     48  C   UNL A   1      40.423  25.497  27.729  1.00  0.00     0.031 C 
ATOM     49  C   UNL A   1      43.498  26.858  30.498  1.00  0.00     0.029 A 
ATOM     50  N   UNL A   1      45.020  25.385  29.742  1.00  0.00    -0.354 N 
ATOM     51  C   UNL A   1      40.264  27.723  28.276  1.00  0.00     0.074 A 
ATOM     52  C   UNL A   1      39.599  26.549  27.758  1.00  0.00     0.031 C 
ATOM     53  C   UNL A   1      44.699  27.260  30.944  1.00  0.00     0.029 A 
ATOM     54  C   UNL A   1      45.707  26.522  30.202  1.00  0.00     0.049 A 
ATOM     55  H   UNL A   1      45.415  24.501  29.564  1.00  0.00     0.167 HD
ATOM     56  C   UNL A   1      39.847  28.944  28.705  1.00  0.00     0.031 A 
ATOM     57  C   UNL A   1      46.690  27.089  29.441  1.00  0.00     0.031 A 
ATOM     58  C   UNL A   1      40.928  29.743  29.272  1.00  0.00     0.049 A 
ATOM     59  C   UNL A   1      46.398  28.508  28.984  1.00  0.00     0.074 A 
ATOM     60  C   UNL A   1      41.318  30.078  30.558  1.00  0.00     0.029 A 
ATOM     61  N   UNL A   1      41.981  30.103  28.449  1.00  0.00    -0.354 N 
ATOM     62  N   UNL A   1      45.282  29.146  29.211  1.00  0.00    -0.248 NA
ATOM     63  C   UNL A   1      47.307  29.277  28.132  1.00  0.00     0.031 C 
ATOM     64  C   UNL A   1      42.616  30.663  30.490  1.00  0.00     0.029 A 
ATOM     65  C   UNL A   1      43.002  30.691  29.164  1.00  0.00     0.049 A 
ATOM     66  H   UNL A   1      41.998  29.956  27.475  1.00  0.00     0.167 HD
ATOM     67  C   UNL A   1      45.275  30.318  28.504  1.00  0.00     0.074 A 
ATOM     68  C   UNL A   1      46.571  30.367  27.855  1.00  0.00     0.031 C 
ATOM     69  C   UNL A   1      44.184  31.135  28.449  1.00  0.00     0.031 A 
BRANCH  56  70
ATOM     70  C   UNL A   1      38.395  29.321  28.801  1.00  0.00    -0.014 A 
ATOM     71  C   UNL A   1      37.721  29.790  27.659  1.00  0.00     0.009 A 
ATOM     72  C   UNL A   1      37.646  29.257  29.987  1.00  0.00     0.009 A 
ATOM     73  C   UNL A   1      36.402  30.253  27.718  1.00  0.00     0.001 A 
ATOM     74  C   UNL A   1      36.339  29.758  30.063  1.00  0.00     0.001 A 
ATOM     75  C   UNL A   1      35.720  30.265  28.928  1.00  0.00     0.000 A 
ENDBRANCH  56  70
BRANCH  57  76
ATOM     76  C   UNL A   1      47.445  26.090  28.630  1.00  0.00    -0.014 A 
ATOM     77  C   UNL A   1      47.108  25.938  27.269  1.00  0.00     0.009 A 
ATOM     78  C   UNL A   1      48.679  25.595  29.075  1.00  0.00     0.009 A 
ATOM     79  C   UNL A   1      48.032  25.420  26.359  1.00  0.00     0.001 A 
ATOM     80  C   UNL A   1      49.593  25.057  28.161  1.00  0.00     0.001 A 
ATOM     81  C   UNL A   1      49.284  25.007  26.801  1.00  0.00     0.000 A 
ENDBRANCH  57  76
BRANCH  69  82
ATOM     82  C   UNL A   1      44.127  32.416  27.667  1.00  0.00    -0.014 A 
ATOM     83  C   UNL A   1      43.854  33.655  28.263  1.00  0.00     0.009 A 
ATOM     84  C   UNL A   1      44.226  32.389  26.259  1.00  0.00     0.009 A 
ATOM     85  C   UNL A   1      43.739  34.818  27.491  1.00  0.00     0.001 A 
ATOM     86  C   UNL A   1      44.090  33.543  25.485  1.00  0.00     0.001 A 
ATOM     87  C   UNL A   1      43.857  34.763  26.104  1.00  0.00     0.000 A 
ENDBRANCH  69  82
ENDBRANCH  43  44
ENDBRANCH  35  38
ENDBRANCH  33  34
ENDBRANCH  32  33
ENDBRANCH  31  32
ENDBRANCH   1  31
TORSDOF 16
ENDMDL
MODEL 3
REMARK VINA RESULT:     -12.0      2.161      4.834
REMARK SMILES Cc1cccc(O[C@H](C)C(=O)NNC(=O)[C@H]2[C@@H]3CC[C@@H](C3)[C@@H]2C(=O)NCCCCNC(=O)c2ccc(-c3c4nc(c(-c5ccccc5)c5ccc([nH]5)c(-c5ccccc5)c5nc(c(-c6ccccc6)c6ccc3[nH]6)C=C5)C=C4)cc2)c1
REMARK SMILES IDX 26 1 25 2 23 3 24 4 22 6 16 7 17 8 18 9 21 10 20 11 19 12
REMARK SMILES IDX 14 13 13 14 15 16 12 17 10 18 11 19 8 21 9 22 7 23 6 24 1 25
REMARK SMILES IDX 2 26 3 27 81 28 4 29 5 30 27 31 28 32 29 33 30 34 31 35
REMARK SMILES IDX 32 37 33 38 34 39 80 40 35 41 79 42 36 43 37 44 38 45 73 46
REMARK SMILES IDX 39 47 78 48 72 49 74 50 40 51 77 52 71 53 70 54 41 56 63 57
REMARK SMILES IDX 48 58 62 59 49 60 52 61 61 62 75 63 50 64 51 65 60 67 76 68
REMARK SMILES IDX 53 69 42 70 43 71 47 72 44 73 46 74 45 75 64 76 65 77 69 78
REMARK SMILES IDX 66 79 68 80 67 81 54 82 55 83 59 84 56 85 58 86 57 87
REMARK H PARENT 25 5 13 15 12 20 30 36 74 55 52 66
REMARK Flexibility Score: inf
ROOT
ATOM      1  C   UNL A   1      33.036  27.593  25.966  1.00  0.00     0.116 C 
ENDROOT
BRANCH   1   2
ATOM      2  N   UNL A   1      32.473  26.408  26.601  1.00  0.00    -0.356 N 
ATOM      3  C   UNL A   1      32.501  25.104  26.184  1.00  0.00     0.224 C 
ATOM      4  O   UNL A   1      31.925  24.254  26.858  1.00  0.00    -0.275 OA
ATOM      5  H   UNL A   1      32.007  26.568  27.453  1.00  0.00     0.163 HD
BRANCH   3   6
ATOM      6  C   UNL A   1      33.256  24.784  24.906  1.00  0.00     0.094 C 
ATOM      7  C   UNL A   1      32.910  23.435  24.260  1.00  0.00     0.096 C 
ATOM      8  C   UNL A   1      34.298  22.807  23.970  1.00  0.00     0.002 C 
ATOM      9  C   UNL A   1      34.848  22.260  25.304  1.00  0.00     0.005 C 
ATOM     10  C   UNL A   1      35.220  24.011  23.781  1.00  0.00     0.009 C 
ATOM     11  C   UNL A   1      34.791  24.670  25.095  1.00  0.00     0.002 C 
ATOM     12  C   UNL A   1      35.155  23.547  26.092  1.00  0.00     0.005 C 
BRANCH   7  13
ATOM     13  C   UNL A   1      31.964  23.426  23.063  1.00  0.00     0.242 C 
ATOM     14  N   UNL A   1      31.827  24.428  22.146  1.00  0.00    -0.267 N 
ATOM     15  H   UNL A   1      31.108  24.298  21.487  1.00  0.00     0.191 HD
ATOM     16  O   UNL A   1      31.275  22.415  22.867  1.00  0.00    -0.273 OA
BRANCH  14  17
ATOM     17  N   UNL A   1      32.546  25.587  22.009  1.00  0.00    -0.264 N 
ATOM     18  C   UNL A   1      32.179  26.853  22.344  1.00  0.00     0.279 C 
ATOM     19  O   UNL A   1      33.119  27.660  22.440  1.00  0.00    -0.269 OA
ATOM     20  H   UNL A   1      33.445  25.490  21.619  1.00  0.00     0.191 HD
BRANCH  18  21
ATOM     21  C   UNL A   1      30.718  27.369  22.473  1.00  0.00     0.260 C 
ATOM     22  C   UNL A   1      30.147  27.016  23.853  1.00  0.00     0.064 C 
BRANCH  21  23
ATOM     23  O   UNL A   1      30.169  28.513  21.859  1.00  0.00    -0.481 OA
BRANCH  23  24
ATOM     24  C   UNL A   1      29.181  29.292  22.362  1.00  0.00     0.120 A 
ATOM     25  C   UNL A   1      29.012  33.053  22.991  1.00  0.00     0.044 C 
ATOM     26  C   UNL A   1      28.643  31.601  22.946  1.00  0.00    -0.047 A 
ATOM     27  C   UNL A   1      27.444  31.165  23.512  1.00  0.00     0.003 A 
ATOM     28  C   UNL A   1      29.498  30.656  22.366  1.00  0.00     0.049 A 
ATOM     29  C   UNL A   1      27.099  29.816  23.471  1.00  0.00     0.004 A 
ATOM     30  C   UNL A   1      27.957  28.882  22.882  1.00  0.00     0.046 A 
ENDBRANCH  23  24
ENDBRANCH  21  23
ENDBRANCH  18  21
ENDBRANCH  14  17
ENDBRANCH   7  13
ENDBRANCH   3   6
ENDBRANCH   1   2
BRANCH   1  31
ATOM     31  C   UNL A   1      34.030  28.344  26.865  1.00  0.00     0.023 C 
BRANCH  31  32
ATOM     32  C   UNL A   1      33.461  29.549  27.623  1.00  0.00     0.023 C 
BRANCH  32  33
ATOM     33  C   UNL A   1      33.982  30.905  27.164  1.00  0.00     0.116 C 
BRANCH  33  34
ATOM     34  N   UNL A   1      34.604  31.724  28.193  1.00  0.00    -0.352 N 
ATOM     35  C   UNL A   1      35.666  31.429  29.039  1.00  0.00     0.251 C 
ATOM     36  H   UNL A   1      34.214  32.620  28.308  1.00  0.00     0.163 HD
ATOM     37  O   UNL A   1      35.964  32.210  29.928  1.00  0.00    -0.269 OA
BRANCH  35  38
ATOM     38  C   UNL A   1      36.534  30.245  28.775  1.00  0.00     0.039 A 
ATOM     39  C   UNL A   1      36.686  29.308  29.808  1.00  0.00     0.014 A 
ATOM     40  C   UNL A   1      37.348  30.163  27.652  1.00  0.00     0.014 A 
ATOM     41  C   UNL A   1      37.817  28.495  29.837  1.00  0.00     0.010 A 
ATOM     42  C   UNL A   1      38.525  29.448  27.732  1.00  0.00     0.010 A 
ATOM     43  C   UNL A   1      38.795  28.671  28.861  1.00  0.00    -0.014 A 
BRANCH  43  44
ATOM     44  C   UNL A   1      40.177  28.234  29.015  1.00  0.00     0.031 A 
ATOM     45  C   UNL A   1      40.648  26.963  28.437  1.00  0.00     0.074 A 
ATOM     46  C   UNL A   1      41.069  29.067  29.597  1.00  0.00     0.049 A 
ATOM     47  N   UNL A   1      41.717  26.357  28.831  1.00  0.00    -0.248 NA
ATOM     48  C   UNL A   1      39.930  26.247  27.389  1.00  0.00     0.031 C 
ATOM     49  C   UNL A   1      42.527  28.996  29.551  1.00  0.00     0.029 A 
ATOM     50  N   UNL A   1      40.807  30.053  30.541  1.00  0.00    -0.354 N 
ATOM     51  C   UNL A   1      41.982  25.363  27.924  1.00  0.00     0.074 A 
ATOM     52  C   UNL A   1      40.806  25.284  27.086  1.00  0.00     0.031 C 
ATOM     53  C   UNL A   1      43.030  29.711  30.570  1.00  0.00     0.029 A 
ATOM     54  C   UNL A   1      41.914  30.124  31.403  1.00  0.00     0.049 A 
ATOM     55  H   UNL A   1      39.992  30.604  30.597  1.00  0.00     0.167 HD
ATOM     56  C   UNL A   1      43.216  24.792  27.891  1.00  0.00     0.031 A 
ATOM     57  C   UNL A   1      41.777  29.825  32.730  1.00  0.00     0.031 A 
ATOM     58  C   UNL A   1      44.108  25.317  28.921  1.00  0.00     0.049 A 
ATOM     59  C   UNL A   1      42.576  28.620  33.195  1.00  0.00     0.074 A 
ATOM     60  C   UNL A   1      45.167  26.210  28.926  1.00  0.00     0.029 A 
ATOM     61  N   UNL A   1      43.767  25.122  30.247  1.00  0.00    -0.354 N 
ATOM     62  N   UNL A   1      43.290  27.857  32.413  1.00  0.00    -0.248 NA
ATOM     63  C   UNL A   1      42.537  28.116  34.569  1.00  0.00     0.031 C 
ATOM     64  C   UNL A   1      45.468  26.533  30.281  1.00  0.00     0.029 A 
ATOM     65  C   UNL A   1      44.600  25.826  31.090  1.00  0.00     0.049 A 
ATOM     66  H   UNL A   1      43.023  24.553  30.551  1.00  0.00     0.167 HD
ATOM     67  C   UNL A   1      43.719  26.761  33.113  1.00  0.00     0.074 A 
ATOM     68  C   UNL A   1      43.237  26.973  34.465  1.00  0.00     0.031 C 
ATOM     69  C   UNL A   1      44.383  25.727  32.522  1.00  0.00     0.031 A 
BRANCH  56  70
ATOM     70  C   UNL A   1      43.673  23.903  26.769  1.00  0.00    -0.014 A 
ATOM     71  C   UNL A   1      44.433  24.445  25.717  1.00  0.00     0.009 A 
ATOM     72  C   UNL A   1      43.370  22.535  26.682  1.00  0.00     0.009 A 
ATOM     73  C   UNL A   1      44.792  23.685  24.598  1.00  0.00     0.001 A 
ATOM     74  C   UNL A   1      43.689  21.778  25.546  1.00  0.00     0.001 A 
ATOM     75  C   UNL A   1      44.393  22.357  24.499  1.00  0.00     0.000 A 
ENDBRANCH  56  70
BRANCH  57  76
ATOM     76  C   UNL A   1      40.436  30.197  33.272  1.00  0.00    -0.014 A 
ATOM     77  C   UNL A   1      40.173  31.557  33.534  1.00  0.00     0.009 A 
ATOM     78  C   UNL A   1      39.355  29.311  33.171  1.00  0.00     0.009 A 
ATOM     79  C   UNL A   1      38.861  32.035  33.568  1.00  0.00     0.001 A 
ATOM     80  C   UNL A   1      38.041  29.793  33.228  1.00  0.00     0.001 A 
ATOM     81  C   UNL A   1      37.797  31.157  33.387  1.00  0.00     0.000 A 
ENDBRANCH  57  76
BRANCH  69  82
ATOM     82  C   UNL A   1      44.850  24.498  33.249  1.00  0.00    -0.014 A 
ATOM     83  C   UNL A   1      44.007  23.410  33.514  1.00  0.00     0.009 A 
ATOM     84  C   UNL A   1      46.145  24.457  33.807  1.00  0.00     0.009 A 
ATOM     85  C   UNL A   1      44.459  22.311  34.256  1.00  0.00     0.001 A 
ATOM     86  C   UNL A   1      46.591  23.373  34.565  1.00  0.00     0.001 A 
ATOM     87  C   UNL A   1      45.749  22.292  34.780  1.00  0.00     0.000 A 
ENDBRANCH  69  82
ENDBRANCH  43  44
ENDBRANCH  35  38
ENDBRANCH  33  34
ENDBRANCH  32  33
ENDBRANCH  31  32
ENDBRANCH   1  31
TORSDOF 16
ENDMDL
