MODEL 1
REMARK VINA RESULT:     -12.2      0.000      0.000
REMARK SMILES O=C(Cn1cnnn1)Nc1cccc(F)c1C(=O)NCCCCNC(=O)c1ccc(-c2c3nc(c(-c4ccccc4)c4ccc([nH]4)c(-c4ccccc4)c4nc(c(-c5ccccc5)c5ccc2[nH]5)C=C4)C=C3)cc1
REMARK SMILES IDX 21 1 20 2 19 3 17 4 18 5 16 7 10 8 11 9 12 10 14 11 13 12
REMARK SMILES IDX 15 13 9 14 1 15 2 16 3 18 4 19 5 20 8 21 6 22 7 23 22 24
REMARK SMILES IDX 23 25 24 26 25 27 26 29 27 30 28 31 74 32 29 33 73 34 30 35
REMARK SMILES IDX 31 36 32 37 67 38 33 39 72 40 66 41 68 42 34 43 71 44 65 45
REMARK SMILES IDX 64 46 35 48 57 49 42 50 56 51 43 52 46 53 55 54 69 55 44 56
REMARK SMILES IDX 45 57 54 59 70 60 47 61 36 62 37 63 41 64 38 65 40 66 39 67
REMARK SMILES IDX 58 68 59 69 63 70 60 71 62 72 61 73 48 74 49 75 53 76 50 77
REMARK SMILES IDX 52 78 51 79
REMARK H PARENT 19 6 9 17 24 28 68 47 46 58
REMARK Flexibility Score: inf
ROOT
ATOM      1  C   UNL A   1      37.063  21.117  24.734  1.00  0.00     0.023 C 
ENDROOT
BRANCH   1   2
ATOM      2  C   UNL A   1      37.134  22.275  25.731  1.00  0.00     0.116 C 
BRANCH   2   3
ATOM      3  N   UNL A   1      35.912  22.504  26.488  1.00  0.00    -0.352 N 
ATOM      4  C   UNL A   1      34.623  22.847  26.145  1.00  0.00     0.256 C 
ATOM      5  O   UNL A   1      33.838  22.970  27.092  1.00  0.00    -0.269 OA
ATOM      6  H   UNL A   1      36.033  22.387  27.458  1.00  0.00     0.163 HD
BRANCH   4   7
ATOM      7  C   UNL A   1      34.114  23.167  24.769  1.00  0.00     0.099 A 
ATOM      8  C   UNL A   1      33.513  22.143  23.987  1.00  0.00     0.057 A 
ATOM      9  C   UNL A   1      32.905  22.455  22.756  1.00  0.00     0.027 A 
ATOM     10  C   UNL A   1      32.930  23.752  22.257  1.00  0.00     0.005 A 
ATOM     11  C   UNL A   1      34.282  24.406  24.145  1.00  0.00     0.138 A 
ATOM     12  C   UNL A   1      33.654  24.719  22.936  1.00  0.00     0.040 A 
ATOM     13  F   UNL A   1      35.158  25.310  24.602  1.00  0.00    -0.206 F 
BRANCH   8  14
ATOM     14  N   UNL A   1      33.557  20.785  24.411  1.00  0.00    -0.324 N 
ATOM     15  O   UNL A   1      31.497  20.699  25.471  1.00  0.00    -0.273 OA
ATOM     16  C   UNL A   1      32.551  20.161  25.134  1.00  0.00     0.246 C 
ATOM     17  H   UNL A   1      34.352  20.255  24.176  1.00  0.00     0.170 HD
BRANCH  16  18
ATOM     18  C   UNL A   1      32.822  18.728  25.517  1.00  0.00     0.248 C 
BRANCH  18  19
ATOM     19  N   UNL A   1      33.204  17.860  24.430  1.00  0.00    -0.223 N 
ATOM     20  C   UNL A   1      33.986  16.752  24.397  1.00  0.00     0.246 A 
ATOM     21  N   UNL A   1      32.776  18.144  23.186  1.00  0.00    -0.045 NA
ATOM     22  N   UNL A   1      34.047  16.321  23.158  1.00  0.00    -0.117 NA
ATOM     23  N   UNL A   1      33.292  17.195  22.417  1.00  0.00    -0.024 NA
ENDBRANCH  18  19
ENDBRANCH  16  18
ENDBRANCH   8  14
ENDBRANCH   4   7
ENDBRANCH   2   3
ENDBRANCH   1   2
BRANCH   1  24
ATOM     24  C   UNL A   1      38.094  19.993  24.851  1.00  0.00     0.023 C 
BRANCH  24  25
ATOM     25  C   UNL A   1      39.174  20.202  25.902  1.00  0.00     0.116 C 
BRANCH  25  26
ATOM     26  N   UNL A   1      40.263  19.222  25.851  1.00  0.00    -0.352 N 
ATOM     27  C   UNL A   1      41.621  19.485  25.909  1.00  0.00     0.251 C 
ATOM     28  H   UNL A   1      40.001  18.277  25.768  1.00  0.00     0.163 HD
ATOM     29  O   UNL A   1      42.454  18.673  25.509  1.00  0.00    -0.269 OA
BRANCH  27  30
ATOM     30  C   UNL A   1      42.052  20.763  26.492  1.00  0.00     0.039 A 
ATOM     31  C   UNL A   1      42.505  21.836  25.715  1.00  0.00     0.014 A 
ATOM     32  C   UNL A   1      41.922  20.879  27.872  1.00  0.00     0.014 A 
ATOM     33  C   UNL A   1      42.744  23.059  26.341  1.00  0.00     0.010 A 
ATOM     34  C   UNL A   1      41.983  22.115  28.450  1.00  0.00     0.010 A 
ATOM     35  C   UNL A   1      42.460  23.191  27.709  1.00  0.00    -0.014 A 
BRANCH  35  36
ATOM     36  C   UNL A   1      42.532  24.470  28.397  1.00  0.00     0.031 A 
ATOM     37  C   UNL A   1      41.408  25.398  28.108  1.00  0.00     0.074 A 
ATOM     38  C   UNL A   1      43.399  24.670  29.418  1.00  0.00     0.049 A 
ATOM     39  N   UNL A   1      41.484  26.550  27.534  1.00  0.00    -0.248 NA
ATOM     40  C   UNL A   1      40.026  24.953  28.362  1.00  0.00     0.031 C 
ATOM     41  C   UNL A   1      44.359  23.716  29.991  1.00  0.00     0.029 A 
ATOM     42  N   UNL A   1      43.499  25.728  30.263  1.00  0.00    -0.354 N 
ATOM     43  C   UNL A   1      40.193  27.070  27.532  1.00  0.00     0.074 A 
ATOM     44  C   UNL A   1      39.320  25.981  27.885  1.00  0.00     0.031 C 
ATOM     45  C   UNL A   1      44.739  24.138  31.218  1.00  0.00     0.029 A 
ATOM     46  C   UNL A   1      44.181  25.457  31.446  1.00  0.00     0.049 A 
ATOM     47  H   UNL A   1      43.122  26.612  30.056  1.00  0.00     0.167 HD
ATOM     48  C   UNL A   1      39.977  28.414  27.479  1.00  0.00     0.031 A 
ATOM     49  C   UNL A   1      44.254  26.249  32.548  1.00  0.00     0.031 A 
ATOM     50  C   UNL A   1      41.186  29.128  27.152  1.00  0.00     0.049 A 
ATOM     51  C   UNL A   1      43.900  27.623  32.120  1.00  0.00     0.074 A 
ATOM     52  C   UNL A   1      42.053  29.122  26.078  1.00  0.00     0.029 A 
ATOM     53  N   UNL A   1      41.882  29.680  28.203  1.00  0.00    -0.354 N 
ATOM     54  N   UNL A   1      44.652  28.328  31.324  1.00  0.00    -0.248 NA
ATOM     55  C   UNL A   1      42.499  28.017  32.165  1.00  0.00     0.031 C 
ATOM     56  C   UNL A   1      43.351  29.206  26.661  1.00  0.00     0.029 A 
ATOM     57  C   UNL A   1      43.205  29.358  28.041  1.00  0.00     0.049 A 
ATOM     58  H   UNL A   1      41.499  30.211  28.939  1.00  0.00     0.167 HD
ATOM     59  C   UNL A   1      43.762  28.906  30.430  1.00  0.00     0.074 A 
ATOM     60  C   UNL A   1      42.448  28.774  31.063  1.00  0.00     0.031 C 
ATOM     61  C   UNL A   1      44.126  29.154  29.136  1.00  0.00     0.031 A 
BRANCH  48  62
ATOM     62  C   UNL A   1      38.809  29.115  28.124  1.00  0.00    -0.014 A 
ATOM     63  C   UNL A   1      38.588  28.920  29.500  1.00  0.00     0.009 A 
ATOM     64  C   UNL A   1      37.766  29.711  27.393  1.00  0.00     0.009 A 
ATOM     65  C   UNL A   1      37.359  29.229  30.093  1.00  0.00     0.001 A 
ATOM     66  C   UNL A   1      36.551  30.058  27.989  1.00  0.00     0.001 A 
ATOM     67  C   UNL A   1      36.337  29.788  29.334  1.00  0.00     0.000 A 
ENDBRANCH  48  62
BRANCH  49  68
ATOM     68  C   UNL A   1      44.381  25.866  33.972  1.00  0.00    -0.014 A 
ATOM     69  C   UNL A   1      43.321  25.246  34.655  1.00  0.00     0.009 A 
ATOM     70  C   UNL A   1      45.643  25.865  34.595  1.00  0.00     0.009 A 
ATOM     71  C   UNL A   1      43.528  24.614  35.891  1.00  0.00     0.001 A 
ATOM     72  C   UNL A   1      45.850  25.236  35.829  1.00  0.00     0.001 A 
ATOM     73  C   UNL A   1      44.795  24.596  36.469  1.00  0.00     0.000 A 
ENDBRANCH  49  68
BRANCH  61  74
ATOM     74  C   UNL A   1      45.578  28.955  28.760  1.00  0.00    -0.014 A 
ATOM     75  C   UNL A   1      46.120  27.705  28.407  1.00  0.00     0.009 A 
ATOM     76  C   UNL A   1      46.384  30.090  28.602  1.00  0.00     0.009 A 
ATOM     77  C   UNL A   1      47.436  27.594  27.943  1.00  0.00     0.001 A 
ATOM     78  C   UNL A   1      47.689  29.984  28.117  1.00  0.00     0.001 A 
ATOM     79  C   UNL A   1      48.219  28.736  27.795  1.00  0.00     0.000 A 
ENDBRANCH  61  74
ENDBRANCH  35  36
ENDBRANCH  27  30
ENDBRANCH  25  26
ENDBRANCH  24  25
ENDBRANCH   1  24
TORSDOF 14
ENDMDL
MODEL 2
REMARK VINA RESULT:     -11.6      5.214     11.171
REMARK SMILES O=C(Cn1cnnn1)Nc1cccc(F)c1C(=O)NCCCCNC(=O)c1ccc(-c2c3nc(c(-c4ccccc4)c4ccc([nH]4)c(-c4ccccc4)c4nc(c(-c5ccccc5)c5ccc2[nH]5)C=C4)C=C3)cc1
REMARK SMILES IDX 21 1 20 2 19 3 17 4 18 5 16 7 10 8 11 9 12 10 14 11 13 12
REMARK SMILES IDX 15 13 9 14 1 15 2 16 3 18 4 19 5 20 8 21 6 22 7 23 22 24
REMARK SMILES IDX 23 25 24 26 25 27 26 29 27 30 28 31 74 32 29 33 73 34 30 35
REMARK SMILES IDX 31 36 32 37 67 38 33 39 72 40 66 41 68 42 34 43 71 44 65 45
REMARK SMILES IDX 64 46 35 48 57 49 42 50 56 51 43 52 46 53 55 54 69 55 44 56
REMARK SMILES IDX 45 57 54 59 70 60 47 61 36 62 37 63 41 64 38 65 40 66 39 67
REMARK SMILES IDX 58 68 59 69 63 70 60 71 62 72 61 73 48 74 49 75 53 76 50 77
REMARK SMILES IDX 52 78 51 79
REMARK H PARENT 19 6 9 17 24 28 68 47 46 58
REMARK Flexibility Score: inf
ROOT
ATOM      1  C   UNL A   1      37.841  33.832  34.619  1.00  0.00     0.023 C 
ENDROOT
BRANCH   1   2
ATOM      2  C   UNL A   1      37.177  32.812  33.692  1.00  0.00     0.116 C 
BRANCH   2   3
ATOM      3  N   UNL A   1      35.788  33.099  33.364  1.00  0.00    -0.352 N 
ATOM      4  C   UNL A   1      35.034  32.993  32.216  1.00  0.00     0.256 C 
ATOM      5  O   UNL A   1      33.857  33.358  32.322  1.00  0.00    -0.269 OA
ATOM      6  H   UNL A   1      35.276  33.444  34.131  1.00  0.00     0.163 HD
BRANCH   4   7
ATOM      7  C   UNL A   1      35.517  32.572  30.860  1.00  0.00     0.099 A 
ATOM      8  C   UNL A   1      35.454  33.490  29.775  1.00  0.00     0.057 A 
ATOM      9  C   UNL A   1      36.031  33.162  28.534  1.00  0.00     0.027 A 
ATOM     10  C   UNL A   1      36.619  31.920  28.326  1.00  0.00     0.005 A 
ATOM     11  C   UNL A   1      35.942  31.277  30.551  1.00  0.00     0.138 A 
ATOM     12  C   UNL A   1      36.538  30.963  29.326  1.00  0.00     0.040 A 
ATOM     13  F   UNL A   1      35.679  30.241  31.357  1.00  0.00    -0.206 F 
BRANCH   8  14
ATOM     14  N   UNL A   1      34.771  34.731  29.913  1.00  0.00    -0.324 N 
ATOM     15  O   UNL A   1      32.940  34.256  28.573  1.00  0.00    -0.273 OA
ATOM     16  C   UNL A   1      33.567  35.032  29.293  1.00  0.00     0.246 C 
ATOM     17  H   UNL A   1      35.179  35.420  30.485  1.00  0.00     0.170 HD
BRANCH  16  18
ATOM     18  C   UNL A   1      33.040  36.422  29.541  1.00  0.00     0.248 C 
BRANCH  18  19
ATOM     19  N   UNL A   1      32.880  36.782  30.929  1.00  0.00    -0.223 N 
ATOM     20  C   UNL A   1      33.646  37.538  31.755  1.00  0.00     0.246 A 
ATOM     21  N   UNL A   1      31.823  36.302  31.611  1.00  0.00    -0.045 NA
ATOM     22  N   UNL A   1      33.085  37.557  32.943  1.00  0.00    -0.117 NA
ATOM     23  N   UNL A   1      31.955  36.785  32.839  1.00  0.00    -0.024 NA
ENDBRANCH  18  19
ENDBRANCH  16  18
ENDBRANCH   8  14
ENDBRANCH   4   7
ENDBRANCH   2   3
ENDBRANCH   1   2
BRANCH   1  24
ATOM     24  C   UNL A   1      38.943  34.725  34.047  1.00  0.00     0.023 C 
BRANCH  24  25
ATOM     25  C   UNL A   1      39.783  34.102  32.942  1.00  0.00     0.116 C 
BRANCH  25  26
ATOM     26  N   UNL A   1      39.303  34.387  31.586  1.00  0.00    -0.352 N 
ATOM     27  C   UNL A   1      39.647  33.716  30.426  1.00  0.00     0.251 C 
ATOM     28  H   UNL A   1      38.669  35.134  31.492  1.00  0.00     0.163 HD
ATOM     29  O   UNL A   1      39.490  34.224  29.315  1.00  0.00    -0.269 OA
BRANCH  27  30
ATOM     30  C   UNL A   1      40.183  32.353  30.548  1.00  0.00     0.039 A 
ATOM     31  C   UNL A   1      39.389  31.255  30.896  1.00  0.00     0.014 A 
ATOM     32  C   UNL A   1      41.528  32.196  30.229  1.00  0.00     0.014 A 
ATOM     33  C   UNL A   1      39.949  29.980  30.835  1.00  0.00     0.010 A 
ATOM     34  C   UNL A   1      42.020  30.944  29.996  1.00  0.00     0.010 A 
ATOM     35  C   UNL A   1      41.263  29.836  30.365  1.00  0.00    -0.014 A 
BRANCH  35  36
ATOM     36  C   UNL A   1      41.863  28.533  30.122  1.00  0.00     0.031 A 
ATOM     37  C   UNL A   1      42.616  27.970  31.273  1.00  0.00     0.074 A 
ATOM     38  C   UNL A   1      41.521  27.793  29.042  1.00  0.00     0.049 A 
ATOM     39  N   UNL A   1      43.879  27.709  31.320  1.00  0.00    -0.248 NA
ATOM     40  C   UNL A   1      41.927  27.792  32.564  1.00  0.00     0.031 C 
ATOM     41  C   UNL A   1      40.555  28.125  27.985  1.00  0.00     0.029 A 
ATOM     42  N   UNL A   1      41.856  26.512  28.738  1.00  0.00    -0.354 N 
ATOM     43  C   UNL A   1      44.115  27.148  32.570  1.00  0.00     0.074 A 
ATOM     44  C   UNL A   1      42.928  27.388  33.350  1.00  0.00     0.031 C 
ATOM     45  C   UNL A   1      40.197  26.999  27.328  1.00  0.00     0.029 A 
ATOM     46  C   UNL A   1      41.021  25.904  27.805  1.00  0.00     0.049 A 
ATOM     47  H   UNL A   1      42.626  26.053  29.144  1.00  0.00     0.167 HD
ATOM     48  C   UNL A   1      45.175  26.317  32.779  1.00  0.00     0.031 A 
ATOM     49  C   UNL A   1      40.989  24.588  27.472  1.00  0.00     0.031 A 
ATOM     50  C   UNL A   1      46.095  26.352  31.670  1.00  0.00     0.049 A 
ATOM     51  C   UNL A   1      42.280  23.999  27.900  1.00  0.00     0.074 A 
ATOM     52  C   UNL A   1      46.855  27.338  31.075  1.00  0.00     0.029 A 
ATOM     53  N   UNL A   1      45.989  25.339  30.745  1.00  0.00    -0.354 N 
ATOM     54  N   UNL A   1      43.415  24.312  27.345  1.00  0.00    -0.248 NA
ATOM     55  C   UNL A   1      42.374  23.458  29.248  1.00  0.00     0.031 C 
ATOM     56  C   UNL A   1      46.744  27.085  29.676  1.00  0.00     0.029 A 
ATOM     57  C   UNL A   1      46.011  25.910  29.499  1.00  0.00     0.049 A 
ATOM     58  H   UNL A   1      45.911  24.377  30.942  1.00  0.00     0.167 HD
ATOM     59  C   UNL A   1      44.289  24.470  28.411  1.00  0.00     0.074 A 
ATOM     60  C   UNL A   1      43.627  23.822  29.544  1.00  0.00     0.031 C 
ATOM     61  C   UNL A   1      45.314  25.374  28.352  1.00  0.00     0.031 A 
BRANCH  48  62
ATOM     62  C   UNL A   1      45.179  25.172  33.759  1.00  0.00    -0.014 A 
ATOM     63  C   UNL A   1      44.536  23.975  33.394  1.00  0.00     0.009 A 
ATOM     64  C   UNL A   1      45.527  25.317  35.114  1.00  0.00     0.009 A 
ATOM     65  C   UNL A   1      44.186  23.014  34.349  1.00  0.00     0.001 A 
ATOM     66  C   UNL A   1      45.214  24.342  36.064  1.00  0.00     0.001 A 
ATOM     67  C   UNL A   1      44.517  23.204  35.686  1.00  0.00     0.000 A 
ENDBRANCH  48  62
BRANCH  49  68
ATOM     68  C   UNL A   1      39.846  23.761  27.024  1.00  0.00    -0.014 A 
ATOM     69  C   UNL A   1      38.616  24.347  26.678  1.00  0.00     0.009 A 
ATOM     70  C   UNL A   1      40.041  22.412  26.675  1.00  0.00     0.009 A 
ATOM     71  C   UNL A   1      37.642  23.624  25.975  1.00  0.00     0.001 A 
ATOM     72  C   UNL A   1      39.069  21.689  25.973  1.00  0.00     0.001 A 
ATOM     73  C   UNL A   1      37.874  22.300  25.609  1.00  0.00     0.000 A 
ENDBRANCH  49  68
BRANCH  61  74
ATOM     74  C   UNL A   1      45.579  26.055  27.028  1.00  0.00    -0.014 A 
ATOM     75  C   UNL A   1      44.965  27.262  26.644  1.00  0.00     0.009 A 
ATOM     76  C   UNL A   1      46.602  25.549  26.214  1.00  0.00     0.009 A 
ATOM     77  C   UNL A   1      45.339  27.920  25.466  1.00  0.00     0.001 A 
ATOM     78  C   UNL A   1      46.992  26.216  25.051  1.00  0.00     0.001 A 
ATOM     79  C   UNL A   1      46.357  27.397  24.673  1.00  0.00     0.000 A 
ENDBRANCH  61  74
ENDBRANCH  35  36
ENDBRANCH  27  30
ENDBRANCH  25  26
ENDBRANCH  24  25
ENDBRANCH   1  24
TORSDOF 14
ENDMDL
MODEL 3
REMARK VINA RESULT:     -11.6      5.277      9.651
REMARK SMILES O=C(Cn1cnnn1)Nc1cccc(F)c1C(=O)NCCCCNC(=O)c1ccc(-c2c3nc(c(-c4ccccc4)c4ccc([nH]4)c(-c4ccccc4)c4nc(c(-c5ccccc5)c5ccc2[nH]5)C=C4)C=C3)cc1
REMARK SMILES IDX 21 1 20 2 19 3 17 4 18 5 16 7 10 8 11 9 12 10 14 11 13 12
REMARK SMILES IDX 15 13 9 14 1 15 2 16 3 18 4 19 5 20 8 21 6 22 7 23 22 24
REMARK SMILES IDX 23 25 24 26 25 27 26 29 27 30 28 31 74 32 29 33 73 34 30 35
REMARK SMILES IDX 31 36 32 37 67 38 33 39 72 40 66 41 68 42 34 43 71 44 65 45
REMARK SMILES IDX 64 46 35 48 57 49 42 50 56 51 43 52 46 53 55 54 69 55 44 56
REMARK SMILES IDX 45 57 54 59 70 60 47 61 36 62 37 63 41 64 38 65 40 66 39 67
REMARK SMILES IDX 58 68 59 69 63 70 60 71 62 72 61 73 48 74 49 75 53 76 50 77
REMARK SMILES IDX 52 78 51 79
REMARK H PARENT 19 6 9 17 24 28 68 47 46 58
REMARK Flexibility Score: inf
ROOT
ATOM      1  C   UNL A   1      31.834  30.008  26.051  1.00  0.00     0.023 C 
ENDROOT
BRANCH   1   2
ATOM      2  C   UNL A   1      32.105  28.945  27.117  1.00  0.00     0.116 C 
BRANCH   2   3
ATOM      3  N   UNL A   1      31.190  27.813  27.095  1.00  0.00    -0.352 N 
ATOM      4  C   UNL A   1      31.102  26.668  26.335  1.00  0.00     0.256 C 
ATOM      5  O   UNL A   1      30.150  25.926  26.605  1.00  0.00    -0.269 OA
ATOM      6  H   UNL A   1      30.479  27.881  27.773  1.00  0.00     0.163 HD
BRANCH   4   7
ATOM      7  C   UNL A   1      31.978  26.288  25.177  1.00  0.00     0.099 A 
ATOM      8  C   UNL A   1      31.570  26.608  23.853  1.00  0.00     0.057 A 
ATOM      9  C   UNL A   1      32.441  26.387  22.769  1.00  0.00     0.027 A 
ATOM     10  C   UNL A   1      33.688  25.803  22.963  1.00  0.00     0.005 A 
ATOM     11  C   UNL A   1      33.149  25.535  25.299  1.00  0.00     0.138 A 
ATOM     12  C   UNL A   1      34.023  25.342  24.227  1.00  0.00     0.040 A 
ATOM     13  F   UNL A   1      33.427  24.847  26.414  1.00  0.00    -0.206 F 
BRANCH   8  14
ATOM     14  N   UNL A   1      30.263  27.110  23.597  1.00  0.00    -0.324 N 
ATOM     15  O   UNL A   1      30.862  29.173  22.725  1.00  0.00    -0.273 OA
ATOM     16  C   UNL A   1      30.000  28.363  23.062  1.00  0.00     0.246 C 
ATOM     17  H   UNL A   1      29.497  26.532  23.814  1.00  0.00     0.170 HD
BRANCH  16  18
ATOM     18  C   UNL A   1      28.540  28.711  22.914  1.00  0.00     0.248 C 
BRANCH  18  19
ATOM     19  N   UNL A   1      28.270  30.052  22.456  1.00  0.00    -0.223 N 
ATOM     20  C   UNL A   1      28.022  31.200  23.135  1.00  0.00     0.246 A 
ATOM     21  N   UNL A   1      28.205  30.290  21.133  1.00  0.00    -0.045 NA
ATOM     22  N   UNL A   1      27.817  32.163  22.265  1.00  0.00    -0.117 NA
ATOM     23  N   UNL A   1      27.932  31.583  21.026  1.00  0.00    -0.024 NA
ENDBRANCH  18  19
ENDBRANCH  16  18
ENDBRANCH   8  14
ENDBRANCH   4   7
ENDBRANCH   2   3
ENDBRANCH   1   2
BRANCH   1  24
ATOM     24  C   UNL A   1      31.507  31.431  26.511  1.00  0.00     0.023 C 
BRANCH  24  25
ATOM     25  C   UNL A   1      32.619  32.149  27.261  1.00  0.00     0.116 C 
BRANCH  25  26
ATOM     26  N   UNL A   1      32.368  33.575  27.491  1.00  0.00    -0.352 N 
ATOM     27  C   UNL A   1      32.997  34.390  28.415  1.00  0.00     0.251 C 
ATOM     28  H   UNL A   1      31.680  33.997  26.927  1.00  0.00     0.163 HD
ATOM     29  O   UNL A   1      32.498  35.453  28.786  1.00  0.00    -0.269 OA
BRANCH  27  30
ATOM     30  C   UNL A   1      34.308  33.969  28.930  1.00  0.00     0.039 A 
ATOM     31  C   UNL A   1      34.470  33.353  30.176  1.00  0.00     0.014 A 
ATOM     32  C   UNL A   1      35.388  34.153  28.074  1.00  0.00     0.014 A 
ATOM     33  C   UNL A   1      35.724  32.847  30.513  1.00  0.00     0.010 A 
ATOM     34  C   UNL A   1      36.562  33.503  28.325  1.00  0.00     0.010 A 
ATOM     35  C   UNL A   1      36.760  32.912  29.569  1.00  0.00    -0.014 A 
BRANCH  35  36
ATOM     36  C   UNL A   1      38.048  32.269  29.782  1.00  0.00     0.031 A 
ATOM     37  C   UNL A   1      38.103  30.838  29.382  1.00  0.00     0.074 A 
ATOM     38  C   UNL A   1      39.157  32.993  30.055  1.00  0.00     0.049 A 
ATOM     39  N   UNL A   1      38.312  29.827  30.154  1.00  0.00    -0.248 NA
ATOM     40  C   UNL A   1      37.763  30.466  27.998  1.00  0.00     0.031 C 
ATOM     41  C   UNL A   1      39.279  34.453  30.180  1.00  0.00     0.029 A 
ATOM     42  N   UNL A   1      40.450  32.586  30.132  1.00  0.00    -0.354 N 
ATOM     43  C   UNL A   1      38.332  28.705  29.331  1.00  0.00     0.074 A 
ATOM     44  C   UNL A   1      37.813  29.133  28.057  1.00  0.00     0.031 C 
ATOM     45  C   UNL A   1      40.576  34.812  30.053  1.00  0.00     0.029 A 
ATOM     46  C   UNL A   1      41.386  33.609  30.003  1.00  0.00     0.049 A 
ATOM     47  H   UNL A   1      40.705  31.646  30.268  1.00  0.00     0.167 HD
ATOM     48  C   UNL A   1      39.003  27.577  29.695  1.00  0.00     0.031 A 
ATOM     49  C   UNL A   1      42.727  33.475  29.834  1.00  0.00     0.031 A 
ATOM     50  C   UNL A   1      39.401  27.627  31.080  1.00  0.00     0.049 A 
ATOM     51  C   UNL A   1      43.086  32.109  30.281  1.00  0.00     0.074 A 
ATOM     52  C   UNL A   1      38.724  27.734  32.278  1.00  0.00     0.029 A 
ATOM     53  N   UNL A   1      40.698  28.007  31.338  1.00  0.00    -0.354 N 
ATOM     54  N   UNL A   1      43.008  31.731  31.524  1.00  0.00    -0.248 NA
ATOM     55  C   UNL A   1      43.050  31.034  29.300  1.00  0.00     0.031 C 
ATOM     56  C   UNL A   1      39.510  28.630  33.059  1.00  0.00     0.029 A 
ATOM     57  C   UNL A   1      40.666  28.942  32.340  1.00  0.00     0.049 A 
ATOM     58  H   UNL A   1      41.504  27.669  30.884  1.00  0.00     0.167 HD
ATOM     59  C   UNL A   1      42.434  30.469  31.467  1.00  0.00     0.074 A 
ATOM     60  C   UNL A   1      42.587  30.046  30.074  1.00  0.00     0.031 C 
ATOM     61  C   UNL A   1      41.619  30.022  32.469  1.00  0.00     0.031 A 
BRANCH  48  62
ATOM     62  C   UNL A   1      39.667  26.631  28.727  1.00  0.00    -0.014 A 
ATOM     63  C   UNL A   1      40.626  27.148  27.837  1.00  0.00     0.009 A 
ATOM     64  C   UNL A   1      39.187  25.337  28.462  1.00  0.00     0.009 A 
ATOM     65  C   UNL A   1      41.018  26.439  26.696  1.00  0.00     0.001 A 
ATOM     66  C   UNL A   1      39.606  24.610  27.344  1.00  0.00     0.001 A 
ATOM     67  C   UNL A   1      40.500  25.174  26.445  1.00  0.00     0.000 A 
ENDBRANCH  48  62
BRANCH  49  68
ATOM     68  C   UNL A   1      43.673  34.351  29.109  1.00  0.00    -0.014 A 
ATOM     69  C   UNL A   1      43.285  35.032  27.942  1.00  0.00     0.009 A 
ATOM     70  C   UNL A   1      44.886  34.736  29.710  1.00  0.00     0.009 A 
ATOM     71  C   UNL A   1      44.059  36.083  27.426  1.00  0.00     0.001 A 
ATOM     72  C   UNL A   1      45.660  35.783  29.194  1.00  0.00     0.001 A 
ATOM     73  C   UNL A   1      45.237  36.467  28.060  1.00  0.00     0.000 A 
ENDBRANCH  49  68
BRANCH  61  74
ATOM     74  C   UNL A   1      41.514  30.861  33.722  1.00  0.00    -0.014 A 
ATOM     75  C   UNL A   1      40.639  31.957  33.847  1.00  0.00     0.009 A 
ATOM     76  C   UNL A   1      42.199  30.434  34.867  1.00  0.00     0.009 A 
ATOM     77  C   UNL A   1      40.485  32.623  35.069  1.00  0.00     0.001 A 
ATOM     78  C   UNL A   1      42.029  31.082  36.092  1.00  0.00     0.001 A 
ATOM     79  C   UNL A   1      41.178  32.181  36.192  1.00  0.00     0.000 A 
ENDBRANCH  61  74
ENDBRANCH  35  36
ENDBRANCH  27  30
ENDBRANCH  25  26
ENDBRANCH  24  25
ENDBRANCH   1  24
TORSDOF 14
ENDMDL
