MODEL 1
REMARK VINA RESULT:     -11.7      0.000      0.000
REMARK SMILES O=C(CNC(=O)[C@H]1CC[C@@H](Cn2cnc3ccccc3c2=O)CC1)NCCCCNC(=O)c1ccc(-c2c3nc(c(-c4ccccc4)c4ccc([nH]4)c(-c4ccccc4)c4nc(c(-c5ccccc5)c5ccc2[nH]5)C=C4)C=C3)cc1
REMARK SMILES IDX 26 1 25 2 1 3 2 4 3 6 4 7 5 8 6 10 7 11 24 12 8 13 23 14
REMARK SMILES IDX 9 15 10 16 11 17 12 18 13 19 21 20 14 21 20 22 22 23 15 24
REMARK SMILES IDX 19 25 16 26 18 27 17 28 27 29 28 30 29 31 30 32 31 33 32 35
REMARK SMILES IDX 33 36 34 37 80 38 35 39 79 40 36 41 37 42 38 43 73 44 39 45
REMARK SMILES IDX 78 46 72 47 74 48 40 49 77 50 71 51 70 52 41 54 63 55 48 56
REMARK SMILES IDX 62 57 49 58 52 59 61 60 75 61 50 62 51 63 60 65 76 66 53 67
REMARK SMILES IDX 42 68 43 69 47 70 44 71 46 72 45 73 64 74 65 75 69 76 66 77
REMARK SMILES IDX 68 78 67 79 54 80 55 81 59 82 56 83 58 84 57 85
REMARK H PARENT 25 5 4 9 30 34 74 53 52 64
REMARK Flexibility Score: inf
ROOT
ATOM      1  C   UNL A   1      34.942  32.140  28.057  1.00  0.00     0.116 C 
ENDROOT
BRANCH   1   2
ATOM      2  N   UNL A   1      33.613  31.754  27.633  1.00  0.00    -0.355 N 
ATOM      3  O   UNL A   1      34.227  29.673  26.890  1.00  0.00    -0.273 OA
ATOM      4  C   UNL A   1      33.356  30.515  27.087  1.00  0.00     0.239 C 
ATOM      5  H   UNL A   1      32.872  32.394  27.739  1.00  0.00     0.163 HD
BRANCH   4   6
ATOM      6  C   UNL A   1      31.941  30.351  26.534  1.00  0.00     0.216 C 
BRANCH   6   7
ATOM      7  N   UNL A   1      31.897  30.169  25.090  1.00  0.00    -0.347 N 
ATOM      8  C   UNL A   1      31.503  29.095  24.352  1.00  0.00     0.223 C 
ATOM      9  H   UNL A   1      32.201  30.944  24.564  1.00  0.00     0.164 HD
ATOM     10  O   UNL A   1      31.559  29.203  23.128  1.00  0.00    -0.275 OA
BRANCH   8  11
ATOM     11  C   UNL A   1      31.080  27.801  25.047  1.00  0.00     0.078 C 
ATOM     12  C   UNL A   1      30.128  26.947  24.197  1.00  0.00     0.014 C 
ATOM     13  C   UNL A   1      32.316  26.959  25.416  1.00  0.00     0.014 C 
ATOM     14  C   UNL A   1      29.708  25.687  24.959  1.00  0.00     0.006 C 
ATOM     15  C   UNL A   1      31.937  25.663  26.133  1.00  0.00     0.006 C 
ATOM     16  C   UNL A   1      30.906  24.815  25.371  1.00  0.00     0.009 C 
BRANCH  16  17
ATOM     17  C   UNL A   1      31.469  24.080  24.132  1.00  0.00     0.130 C 
BRANCH  17  18
ATOM     18  N   UNL A   1      32.590  23.196  24.417  1.00  0.00    -0.298 N 
ATOM     19  C   UNL A   1      32.368  21.966  24.990  1.00  0.00     0.203 A 
ATOM     20  C   UNL A   1      33.865  23.585  24.028  1.00  0.00     0.261 A 
ATOM     21  N   UNL A   1      33.278  21.085  25.235  1.00  0.00    -0.238 NA
ATOM     22  C   UNL A   1      34.942  22.613  24.283  1.00  0.00     0.066 A 
ATOM     23  O   UNL A   1      34.127  24.656  23.487  1.00  0.00    -0.269 OA
ATOM     24  C   UNL A   1      34.597  21.400  24.878  1.00  0.00     0.077 A 
ATOM     25  C   UNL A   1      36.265  22.895  23.921  1.00  0.00     0.016 A 
ATOM     26  C   UNL A   1      35.604  20.461  25.113  1.00  0.00     0.029 A 
ATOM     27  C   UNL A   1      37.259  21.949  24.159  1.00  0.00     0.001 A 
ATOM     28  C   UNL A   1      36.928  20.733  24.756  1.00  0.00     0.002 A 
ENDBRANCH  17  18
ENDBRANCH  16  17
ENDBRANCH   8  11
ENDBRANCH   6   7
ENDBRANCH   4   6
ENDBRANCH   1   2
BRANCH   1  29
ATOM     29  C   UNL A   1      35.004  33.594  28.526  1.00  0.00     0.023 C 
BRANCH  29  30
ATOM     30  C   UNL A   1      33.762  34.087  29.274  1.00  0.00     0.023 C 
BRANCH  30  31
ATOM     31  C   UNL A   1      33.682  35.592  29.504  1.00  0.00     0.116 C 
BRANCH  31  32
ATOM     32  N   UNL A   1      32.717  35.980  30.521  1.00  0.00    -0.352 N 
ATOM     33  C   UNL A   1      32.750  35.763  31.880  1.00  0.00     0.251 C 
ATOM     34  H   UNL A   1      31.929  36.467  30.190  1.00  0.00     0.163 HD
ATOM     35  O   UNL A   1      31.798  36.093  32.581  1.00  0.00    -0.269 OA
BRANCH  33  36
ATOM     36  C   UNL A   1      33.913  35.081  32.492  1.00  0.00     0.039 A 
ATOM     37  C   UNL A   1      35.164  35.698  32.543  1.00  0.00     0.014 A 
ATOM     38  C   UNL A   1      33.754  33.784  32.987  1.00  0.00     0.014 A 
ATOM     39  C   UNL A   1      36.283  34.957  32.913  1.00  0.00     0.010 A 
ATOM     40  C   UNL A   1      34.867  33.067  33.436  1.00  0.00     0.010 A 
ATOM     41  C   UNL A   1      36.151  33.627  33.347  1.00  0.00    -0.014 A 
BRANCH  41  42
ATOM     42  C   UNL A   1      37.368  32.836  33.669  1.00  0.00     0.031 A 
ATOM     43  C   UNL A   1      37.935  31.859  32.672  1.00  0.00     0.074 A 
ATOM     44  C   UNL A   1      38.010  33.052  34.834  1.00  0.00     0.049 A 
ATOM     45  N   UNL A   1      39.017  31.124  32.766  1.00  0.00    -0.248 NA
ATOM     46  C   UNL A   1      37.204  31.682  31.407  1.00  0.00     0.031 C 
ATOM     47  C   UNL A   1      37.583  33.995  35.870  1.00  0.00     0.029 A 
ATOM     48  N   UNL A   1      39.177  32.524  35.327  1.00  0.00    -0.354 N 
ATOM     49  C   UNL A   1      39.084  30.391  31.588  1.00  0.00     0.074 A 
ATOM     50  C   UNL A   1      37.925  30.747  30.800  1.00  0.00     0.031 C 
ATOM     51  C   UNL A   1      38.509  34.029  36.840  1.00  0.00     0.029 A 
ATOM     52  C   UNL A   1      39.561  33.066  36.530  1.00  0.00     0.049 A 
ATOM     53  H   UNL A   1      39.690  31.823  34.863  1.00  0.00     0.167 HD
ATOM     54  C   UNL A   1      40.032  29.510  31.191  1.00  0.00     0.031 A 
ATOM     55  C   UNL A   1      40.636  32.818  37.303  1.00  0.00     0.031 A 
ATOM     56  C   UNL A   1      41.199  29.168  31.959  1.00  0.00     0.049 A 
ATOM     57  C   UNL A   1      41.638  31.790  36.864  1.00  0.00     0.074 A 
ATOM     58  C   UNL A   1      42.223  28.300  31.621  1.00  0.00     0.029 A 
ATOM     59  N   UNL A   1      41.502  29.679  33.211  1.00  0.00    -0.354 N 
ATOM     60  N   UNL A   1      41.685  31.110  35.746  1.00  0.00    -0.248 NA
ATOM     61  C   UNL A   1      42.734  31.489  37.798  1.00  0.00     0.031 C 
ATOM     62  C   UNL A   1      43.120  28.245  32.690  1.00  0.00     0.029 A 
ATOM     63  C   UNL A   1      42.684  29.123  33.668  1.00  0.00     0.049 A 
ATOM     64  H   UNL A   1      40.959  30.338  33.700  1.00  0.00     0.167 HD
ATOM     65  C   UNL A   1      42.820  30.316  35.832  1.00  0.00     0.074 A 
ATOM     66  C   UNL A   1      43.444  30.609  37.105  1.00  0.00     0.031 C 
ATOM     67  C   UNL A   1      43.299  29.423  34.934  1.00  0.00     0.031 A 
BRANCH  54  68
ATOM     68  C   UNL A   1      39.863  28.831  29.861  1.00  0.00    -0.014 A 
ATOM     69  C   UNL A   1      39.375  27.514  29.810  1.00  0.00     0.009 A 
ATOM     70  C   UNL A   1      40.303  29.440  28.676  1.00  0.00     0.009 A 
ATOM     71  C   UNL A   1      39.349  26.815  28.603  1.00  0.00     0.001 A 
ATOM     72  C   UNL A   1      40.254  28.745  27.466  1.00  0.00     0.001 A 
ATOM     73  C   UNL A   1      39.787  27.430  27.432  1.00  0.00     0.000 A 
ENDBRANCH  54  68
BRANCH  55  74
ATOM     74  C   UNL A   1      40.821  33.569  38.572  1.00  0.00    -0.014 A 
ATOM     75  C   UNL A   1      40.255  33.103  39.770  1.00  0.00     0.009 A 
ATOM     76  C   UNL A   1      41.545  34.771  38.586  1.00  0.00     0.009 A 
ATOM     77  C   UNL A   1      40.394  33.835  40.951  1.00  0.00     0.001 A 
ATOM     78  C   UNL A   1      41.707  35.485  39.775  1.00  0.00     0.001 A 
ATOM     79  C   UNL A   1      41.124  35.022  40.954  1.00  0.00     0.000 A 
ENDBRANCH  55  74
BRANCH  67  80
ATOM     80  C   UNL A   1      44.571  28.698  35.272  1.00  0.00    -0.014 A 
ATOM     81  C   UNL A   1      45.805  29.238  34.876  1.00  0.00     0.009 A 
ATOM     82  C   UNL A   1      44.542  27.439  35.889  1.00  0.00     0.009 A 
ATOM     83  C   UNL A   1      46.987  28.523  35.077  1.00  0.00     0.001 A 
ATOM     84  C   UNL A   1      45.728  26.738  36.113  1.00  0.00     0.001 A 
ATOM     85  C   UNL A   1      46.948  27.276  35.698  1.00  0.00     0.000 A 
ENDBRANCH  67  80
ENDBRANCH  41  42
ENDBRANCH  33  36
ENDBRANCH  31  32
ENDBRANCH  30  31
ENDBRANCH  29  30
ENDBRANCH   1  29
TORSDOF 15
ENDMDL
MODEL 2
REMARK VINA RESULT:     -11.6      6.199     11.762
REMARK SMILES O=C(CNC(=O)[C@H]1CC[C@@H](Cn2cnc3ccccc3c2=O)CC1)NCCCCNC(=O)c1ccc(-c2c3nc(c(-c4ccccc4)c4ccc([nH]4)c(-c4ccccc4)c4nc(c(-c5ccccc5)c5ccc2[nH]5)C=C4)C=C3)cc1
REMARK SMILES IDX 26 1 25 2 1 3 2 4 3 6 4 7 5 8 6 10 7 11 24 12 8 13 23 14
REMARK SMILES IDX 9 15 10 16 11 17 12 18 13 19 21 20 14 21 20 22 22 23 15 24
REMARK SMILES IDX 19 25 16 26 18 27 17 28 27 29 28 30 29 31 30 32 31 33 32 35
REMARK SMILES IDX 33 36 34 37 80 38 35 39 79 40 36 41 37 42 38 43 73 44 39 45
REMARK SMILES IDX 78 46 72 47 74 48 40 49 77 50 71 51 70 52 41 54 63 55 48 56
REMARK SMILES IDX 62 57 49 58 52 59 61 60 75 61 50 62 51 63 60 65 76 66 53 67
REMARK SMILES IDX 42 68 43 69 47 70 44 71 46 72 45 73 64 74 65 75 69 76 66 77
REMARK SMILES IDX 68 78 67 79 54 80 55 81 59 82 56 83 58 84 57 85
REMARK H PARENT 25 5 4 9 30 34 74 53 52 64
REMARK Flexibility Score: inf
ROOT
ATOM      1  C   UNL A   1      40.201  22.401  27.079  1.00  0.00     0.116 C 
ENDROOT
BRANCH   1   2
ATOM      2  N   UNL A   1      39.237  21.642  26.311  1.00  0.00    -0.355 N 
ATOM      3  O   UNL A   1      37.873  23.430  25.859  1.00  0.00    -0.273 OA
ATOM      4  C   UNL A   1      38.134  22.237  25.737  1.00  0.00     0.239 C 
ATOM      5  H   UNL A   1      39.373  20.673  26.196  1.00  0.00     0.163 HD
BRANCH   4   6
ATOM      6  C   UNL A   1      37.137  21.256  25.122  1.00  0.00     0.216 C 
BRANCH   6   7
ATOM      7  N   UNL A   1      35.947  21.047  25.937  1.00  0.00    -0.347 N 
ATOM      8  C   UNL A   1      34.639  21.306  25.662  1.00  0.00     0.223 C 
ATOM      9  H   UNL A   1      36.116  20.659  26.825  1.00  0.00     0.164 HD
ATOM     10  O   UNL A   1      33.817  21.027  26.534  1.00  0.00    -0.275 OA
BRANCH   8  11
ATOM     11  C   UNL A   1      34.251  21.980  24.346  1.00  0.00     0.078 C 
ATOM     12  C   UNL A   1      32.850  21.580  23.860  1.00  0.00     0.014 C 
ATOM     13  C   UNL A   1      34.316  23.512  24.486  1.00  0.00     0.014 C 
ATOM     14  C   UNL A   1      32.532  22.252  22.521  1.00  0.00     0.006 C 
ATOM     15  C   UNL A   1      33.953  24.225  23.183  1.00  0.00     0.006 C 
ATOM     16  C   UNL A   1      32.602  23.787  22.596  1.00  0.00     0.009 C 
BRANCH  16  17
ATOM     17  C   UNL A   1      31.367  24.330  23.351  1.00  0.00     0.130 C 
BRANCH  17  18
ATOM     18  N   UNL A   1      31.516  25.691  23.844  1.00  0.00    -0.298 N 
ATOM     19  C   UNL A   1      31.514  26.747  22.962  1.00  0.00     0.203 A 
ATOM     20  C   UNL A   1      31.579  25.904  25.215  1.00  0.00     0.261 A 
ATOM     21  N   UNL A   1      31.585  27.991  23.293  1.00  0.00    -0.238 NA
ATOM     22  C   UNL A   1      31.659  27.310  25.647  1.00  0.00     0.066 A 
ATOM     23  O   UNL A   1      31.557  25.009  26.056  1.00  0.00    -0.269 OA
ATOM     24  C   UNL A   1      31.658  28.295  24.660  1.00  0.00     0.077 A 
ATOM     25  C   UNL A   1      31.715  27.642  27.006  1.00  0.00     0.016 A 
ATOM     26  C   UNL A   1      31.719  29.635  25.054  1.00  0.00     0.029 A 
ATOM     27  C   UNL A   1      31.772  28.981  27.385  1.00  0.00     0.001 A 
ATOM     28  C   UNL A   1      31.775  29.977  26.407  1.00  0.00     0.002 A 
ENDBRANCH  17  18
ENDBRANCH  16  17
ENDBRANCH   8  11
ENDBRANCH   6   7
ENDBRANCH   4   6
ENDBRANCH   1   2
BRANCH   1  29
ATOM     29  C   UNL A   1      41.631  21.905  26.870  1.00  0.00     0.023 C 
BRANCH  29  30
ATOM     30  C   UNL A   1      41.785  20.791  25.831  1.00  0.00     0.023 C 
BRANCH  30  31
ATOM     31  C   UNL A   1      42.681  19.626  26.239  1.00  0.00     0.116 C 
BRANCH  31  32
ATOM     32  N   UNL A   1      43.470  19.081  25.145  1.00  0.00    -0.352 N 
ATOM     33  C   UNL A   1      44.466  19.682  24.408  1.00  0.00     0.251 C 
ATOM     34  H   UNL A   1      43.262  18.152  24.896  1.00  0.00     0.163 HD
ATOM     35  O   UNL A   1      44.972  19.091  23.458  1.00  0.00    -0.269 OA
BRANCH  33  36
ATOM     36  C   UNL A   1      44.893  21.063  24.727  1.00  0.00     0.039 A 
ATOM     37  C   UNL A   1      45.562  21.352  25.917  1.00  0.00     0.014 A 
ATOM     38  C   UNL A   1      44.579  22.092  23.834  1.00  0.00     0.014 A 
ATOM     39  C   UNL A   1      45.749  22.679  26.297  1.00  0.00     0.010 A 
ATOM     40  C   UNL A   1      44.841  23.420  24.182  1.00  0.00     0.010 A 
ATOM     41  C   UNL A   1      45.374  23.729  25.442  1.00  0.00    -0.014 A 
BRANCH  41  42
ATOM     42  C   UNL A   1      45.521  25.136  25.901  1.00  0.00     0.031 A 
ATOM     43  C   UNL A   1      44.357  25.866  26.521  1.00  0.00     0.074 A 
ATOM     44  C   UNL A   1      46.725  25.735  25.828  1.00  0.00     0.049 A 
ATOM     45  N   UNL A   1      44.320  27.076  27.023  1.00  0.00    -0.248 NA
ATOM     46  C   UNL A   1      43.072  25.152  26.595  1.00  0.00     0.031 C 
ATOM     47  C   UNL A   1      47.938  25.126  25.281  1.00  0.00     0.029 A 
ATOM     48  N   UNL A   1      47.138  26.975  26.251  1.00  0.00    -0.354 N 
ATOM     49  C   UNL A   1      43.013  27.272  27.452  1.00  0.00     0.074 A 
ATOM     50  C   UNL A   1      42.278  26.068  27.134  1.00  0.00     0.031 C 
ATOM     51  C   UNL A   1      48.971  25.964  25.464  1.00  0.00     0.029 A 
ATOM     52  C   UNL A   1      48.484  27.194  26.080  1.00  0.00     0.049 A 
ATOM     53  H   UNL A   1      46.528  27.643  26.639  1.00  0.00     0.167 HD
ATOM     54  C   UNL A   1      42.477  28.352  28.067  1.00  0.00     0.031 A 
ATOM     55  C   UNL A   1      49.245  28.262  26.382  1.00  0.00     0.031 A 
ATOM     56  C   UNL A   1      43.208  29.543  28.407  1.00  0.00     0.049 A 
ATOM     57  C   UNL A   1      48.608  29.469  27.009  1.00  0.00     0.074 A 
ATOM     58  C   UNL A   1      42.745  30.677  29.053  1.00  0.00     0.029 A 
ATOM     59  N   UNL A   1      44.550  29.753  28.138  1.00  0.00    -0.354 N 
ATOM     60  N   UNL A   1      47.371  29.633  27.408  1.00  0.00    -0.248 NA
ATOM     61  C   UNL A   1      49.470  30.642  27.218  1.00  0.00     0.031 C 
ATOM     62  C   UNL A   1      43.794  31.596  29.127  1.00  0.00     0.029 A 
ATOM     63  C   UNL A   1      44.924  31.010  28.581  1.00  0.00     0.049 A 
ATOM     64  H   UNL A   1      45.147  29.107  27.698  1.00  0.00     0.167 HD
ATOM     65  C   UNL A   1      47.310  30.917  27.933  1.00  0.00     0.074 A 
ATOM     66  C   UNL A   1      48.637  31.484  27.816  1.00  0.00     0.031 C 
ATOM     67  C   UNL A   1      46.246  31.565  28.463  1.00  0.00     0.031 A 
BRANCH  54  68
ATOM     68  C   UNL A   1      41.016  28.318  28.420  1.00  0.00    -0.014 A 
ATOM     69  C   UNL A   1      40.082  28.939  27.573  1.00  0.00     0.009 A 
ATOM     70  C   UNL A   1      40.579  27.791  29.645  1.00  0.00     0.009 A 
ATOM     71  C   UNL A   1      38.745  29.048  27.953  1.00  0.00     0.001 A 
ATOM     72  C   UNL A   1      39.234  27.882  30.011  1.00  0.00     0.001 A 
ATOM     73  C   UNL A   1      38.321  28.519  29.171  1.00  0.00     0.000 A 
ENDBRANCH  54  68
BRANCH  55  74
ATOM     74  C   UNL A   1      50.704  28.232  26.100  1.00  0.00    -0.014 A 
ATOM     75  C   UNL A   1      51.201  28.631  24.849  1.00  0.00     0.009 A 
ATOM     76  C   UNL A   1      51.605  27.779  27.075  1.00  0.00     0.009 A 
ATOM     77  C   UNL A   1      52.568  28.558  24.574  1.00  0.00     0.001 A 
ATOM     78  C   UNL A   1      52.976  27.736  26.807  1.00  0.00     0.001 A 
ATOM     79  C   UNL A   1      53.454  28.116  25.554  1.00  0.00     0.000 A 
ENDBRANCH  55  74
BRANCH  67  80
ATOM     80  C   UNL A   1      46.457  32.960  28.979  1.00  0.00    -0.014 A 
ATOM     81  C   UNL A   1      46.319  34.052  28.108  1.00  0.00     0.009 A 
ATOM     82  C   UNL A   1      46.891  33.186  30.293  1.00  0.00     0.009 A 
ATOM     83  C   UNL A   1      46.625  35.344  28.538  1.00  0.00     0.001 A 
ATOM     84  C   UNL A   1      47.171  34.482  30.729  1.00  0.00     0.001 A 
ATOM     85  C   UNL A   1      47.047  35.558  29.849  1.00  0.00     0.000 A 
ENDBRANCH  67  80
ENDBRANCH  41  42
ENDBRANCH  33  36
ENDBRANCH  31  32
ENDBRANCH  30  31
ENDBRANCH  29  30
ENDBRANCH   1  29
TORSDOF 15
ENDMDL
MODEL 3
REMARK VINA RESULT:     -11.6      6.132     11.538
REMARK SMILES O=C(CNC(=O)[C@H]1CC[C@@H](Cn2cnc3ccccc3c2=O)CC1)NCCCCNC(=O)c1ccc(-c2c3nc(c(-c4ccccc4)c4ccc([nH]4)c(-c4ccccc4)c4nc(c(-c5ccccc5)c5ccc2[nH]5)C=C4)C=C3)cc1
REMARK SMILES IDX 26 1 25 2 1 3 2 4 3 6 4 7 5 8 6 10 7 11 24 12 8 13 23 14
REMARK SMILES IDX 9 15 10 16 11 17 12 18 13 19 21 20 14 21 20 22 22 23 15 24
REMARK SMILES IDX 19 25 16 26 18 27 17 28 27 29 28 30 29 31 30 32 31 33 32 35
REMARK SMILES IDX 33 36 34 37 80 38 35 39 79 40 36 41 37 42 38 43 73 44 39 45
REMARK SMILES IDX 78 46 72 47 74 48 40 49 77 50 71 51 70 52 41 54 63 55 48 56
REMARK SMILES IDX 62 57 49 58 52 59 61 60 75 61 50 62 51 63 60 65 76 66 53 67
REMARK SMILES IDX 42 68 43 69 47 70 44 71 46 72 45 73 64 74 65 75 69 76 66 77
REMARK SMILES IDX 68 78 67 79 54 80 55 81 59 82 56 83 58 84 57 85
REMARK H PARENT 25 5 4 9 30 34 74 53 52 64
REMARK Flexibility Score: inf
ROOT
ATOM      1  C   UNL A   1      40.378  22.314  26.939  1.00  0.00     0.116 C 
ENDROOT
BRANCH   1   2
ATOM      2  N   UNL A   1      39.320  21.629  26.229  1.00  0.00    -0.355 N 
ATOM      3  O   UNL A   1      38.007  23.491  25.961  1.00  0.00    -0.273 OA
ATOM      4  C   UNL A   1      38.201  22.294  25.773  1.00  0.00     0.239 C 
ATOM      5  H   UNL A   1      39.401  20.661  26.068  1.00  0.00     0.163 HD
BRANCH   4   6
ATOM      6  C   UNL A   1      37.112  21.382  25.210  1.00  0.00     0.216 C 
BRANCH   6   7
ATOM      7  N   UNL A   1      35.996  21.176  26.123  1.00  0.00    -0.347 N 
ATOM      8  C   UNL A   1      34.660  21.352  25.929  1.00  0.00     0.223 C 
ATOM      9  H   UNL A   1      36.247  20.860  27.021  1.00  0.00     0.164 HD
ATOM     10  O   UNL A   1      33.917  21.097  26.876  1.00  0.00    -0.275 OA
BRANCH   8  11
ATOM     11  C   UNL A   1      34.144  21.911  24.603  1.00  0.00     0.078 C 
ATOM     12  C   UNL A   1      32.714  21.459  24.278  1.00  0.00     0.014 C 
ATOM     13  C   UNL A   1      34.195  23.450  24.612  1.00  0.00     0.014 C 
ATOM     14  C   UNL A   1      32.266  22.015  22.923  1.00  0.00     0.006 C 
ATOM     15  C   UNL A   1      33.706  24.050  23.293  1.00  0.00     0.006 C 
ATOM     16  C   UNL A   1      32.316  23.551  22.867  1.00  0.00     0.009 C 
BRANCH  16  17
ATOM     17  C   UNL A   1      31.144  24.143  23.683  1.00  0.00     0.130 C 
BRANCH  17  18
ATOM     18  N   UNL A   1      31.319  25.538  24.061  1.00  0.00    -0.298 N 
ATOM     19  C   UNL A   1      31.251  26.523  23.104  1.00  0.00     0.203 A 
ATOM     20  C   UNL A   1      31.475  25.854  25.404  1.00  0.00     0.261 A 
ATOM     21  N   UNL A   1      31.338  27.789  23.334  1.00  0.00    -0.238 NA
ATOM     22  C   UNL A   1      31.576  27.289  25.722  1.00  0.00     0.066 A 
ATOM     23  O   UNL A   1      31.515  25.025  26.310  1.00  0.00    -0.269 OA
ATOM     24  C   UNL A   1      31.502  28.196  24.665  1.00  0.00     0.077 A 
ATOM     25  C   UNL A   1      31.724  27.722  27.045  1.00  0.00     0.016 A 
ATOM     26  C   UNL A   1      31.582  29.562  24.951  1.00  0.00     0.029 A 
ATOM     27  C   UNL A   1      31.799  29.087  27.316  1.00  0.00     0.001 A 
ATOM     28  C   UNL A   1      31.730  30.005  26.268  1.00  0.00     0.002 A 
ENDBRANCH  17  18
ENDBRANCH  16  17
ENDBRANCH   8  11
ENDBRANCH   6   7
ENDBRANCH   4   6
ENDBRANCH   1   2
BRANCH   1  29
ATOM     29  C   UNL A   1      41.699  21.546  26.896  1.00  0.00     0.023 C 
BRANCH  29  30
ATOM     30  C   UNL A   1      41.689  20.288  26.025  1.00  0.00     0.023 C 
BRANCH  30  31
ATOM     31  C   UNL A   1      42.901  19.373  26.170  1.00  0.00     0.116 C 
BRANCH  31  32
ATOM     32  N   UNL A   1      43.531  19.028  24.905  1.00  0.00    -0.352 N 
ATOM     33  C   UNL A   1      44.380  19.779  24.124  1.00  0.00     0.251 C 
ATOM     34  H   UNL A   1      43.321  18.131  24.560  1.00  0.00     0.163 HD
ATOM     35  O   UNL A   1      44.754  19.353  23.034  1.00  0.00    -0.269 OA
BRANCH  33  36
ATOM     36  C   UNL A   1      44.801  21.126  24.571  1.00  0.00     0.039 A 
ATOM     37  C   UNL A   1      45.556  21.295  25.733  1.00  0.00     0.014 A 
ATOM     38  C   UNL A   1      44.395  22.242  23.833  1.00  0.00     0.014 A 
ATOM     39  C   UNL A   1      45.744  22.573  26.252  1.00  0.00     0.010 A 
ATOM     40  C   UNL A   1      44.656  23.528  24.315  1.00  0.00     0.010 A 
ATOM     41  C   UNL A   1      45.281  23.704  25.559  1.00  0.00    -0.014 A 
BRANCH  41  42
ATOM     42  C   UNL A   1      45.433  25.052  26.169  1.00  0.00     0.031 A 
ATOM     43  C   UNL A   1      46.752  25.778  26.106  1.00  0.00     0.074 A 
ATOM     44  C   UNL A   1      44.361  25.657  26.716  1.00  0.00     0.049 A 
ATOM     45  N   UNL A   1      47.050  26.979  26.539  1.00  0.00    -0.248 NA
ATOM     46  C   UNL A   1      47.882  25.077  25.476  1.00  0.00     0.031 C 
ATOM     47  C   UNL A   1      43.020  25.075  26.808  1.00  0.00     0.029 A 
ATOM     48  N   UNL A   1      44.218  26.909  27.261  1.00  0.00    -0.354 N 
ATOM     49  C   UNL A   1      48.395  27.166  26.251  1.00  0.00     0.074 A 
ATOM     50  C   UNL A   1      48.868  25.951  25.627  1.00  0.00     0.031 C 
ATOM     51  C   UNL A   1      42.178  25.991  27.311  1.00  0.00     0.029 A 
ATOM     52  C   UNL A   1      42.928  27.200  27.637  1.00  0.00     0.049 A 
ATOM     53  H   UNL A   1      44.967  27.537  27.372  1.00  0.00     0.167 HD
ATOM     54  C   UNL A   1      49.165  28.257  26.474  1.00  0.00     0.031 A 
ATOM     55  C   UNL A   1      42.403  28.312  28.186  1.00  0.00     0.031 A 
ATOM     56  C   UNL A   1      48.696  29.477  27.073  1.00  0.00     0.049 A 
ATOM     57  C   UNL A   1      43.297  29.484  28.477  1.00  0.00     0.074 A 
ATOM     58  C   UNL A   1      49.406  30.641  27.315  1.00  0.00     0.029 A 
ATOM     59  N   UNL A   1      47.402  29.696  27.517  1.00  0.00    -0.354 N 
ATOM     60  N   UNL A   1      44.566  29.641  28.195  1.00  0.00    -0.248 NA
ATOM     61  C   UNL A   1      42.687  30.628  29.171  1.00  0.00     0.031 C 
ATOM     62  C   UNL A   1      48.555  31.546  27.954  1.00  0.00     0.029 A 
ATOM     63  C   UNL A   1      47.302  30.967  28.055  1.00  0.00     0.049 A 
ATOM     64  H   UNL A   1      46.666  29.046  27.457  1.00  0.00     0.167 HD
ATOM     65  C   UNL A   1      44.902  30.907  28.658  1.00  0.00     0.074 A 
ATOM     66  C   UNL A   1      43.701  31.481  29.225  1.00  0.00     0.031 C 
ATOM     67  C   UNL A   1      46.102  31.532  28.615  1.00  0.00     0.031 A 
BRANCH  54  68
ATOM     68  C   UNL A   1      50.614  28.201  26.077  1.00  0.00    -0.014 A 
ATOM     69  C   UNL A   1      50.982  28.482  24.750  1.00  0.00     0.009 A 
ATOM     70  C   UNL A   1      51.593  27.747  26.974  1.00  0.00     0.009 A 
ATOM     71  C   UNL A   1      52.298  28.293  24.326  1.00  0.00     0.001 A 
ATOM     72  C   UNL A   1      52.914  27.581  26.550  1.00  0.00     0.001 A 
ATOM     73  C   UNL A   1      53.263  27.844  25.225  1.00  0.00     0.000 A 
ENDBRANCH  54  68
BRANCH  55  74
ATOM     74  C   UNL A   1      40.949  28.370  28.487  1.00  0.00    -0.014 A 
ATOM     75  C   UNL A   1      40.057  28.996  27.601  1.00  0.00     0.009 A 
ATOM     76  C   UNL A   1      40.449  27.821  29.676  1.00  0.00     0.009 A 
ATOM     77  C   UNL A   1      38.699  29.088  27.909  1.00  0.00     0.001 A 
ATOM     78  C   UNL A   1      39.084  27.887  29.968  1.00  0.00     0.001 A 
ATOM     79  C   UNL A   1      38.213  28.529  29.089  1.00  0.00     0.000 A 
ENDBRANCH  55  74
BRANCH  67  80
ATOM     80  C   UNL A   1      46.192  32.921  29.180  1.00  0.00    -0.014 A 
ATOM     81  C   UNL A   1      45.986  34.027  28.341  1.00  0.00     0.009 A 
ATOM     82  C   UNL A   1      46.579  33.135  30.511  1.00  0.00     0.009 A 
ATOM     83  C   UNL A   1      46.180  35.324  28.819  1.00  0.00     0.001 A 
ATOM     84  C   UNL A   1      46.746  34.434  30.994  1.00  0.00     0.001 A 
ATOM     85  C   UNL A   1      46.557  35.526  30.146  1.00  0.00     0.000 A 
ENDBRANCH  67  80
ENDBRANCH  41  42
ENDBRANCH  33  36
ENDBRANCH  31  32
ENDBRANCH  30  31
ENDBRANCH  29  30
ENDBRANCH   1  29
TORSDOF 15
ENDMDL
