MODEL 1
REMARK VINA RESULT:     -12.1      0.000      0.000
REMARK SMILES CC[C@@H](Sc1nnc2ccc3ccccc3n12)C(=O)Nc1cccc(C(=O)NCCCCNC(=O)c2ccc(-c3c4nc(c(-c5ccccc5)c5ccc([nH]5)c(-c5ccccc5)c5nc(c(-c6ccccc6)c6ccc3[nH]6)C=C5)C=C4)cc2)c1
REMARK SMILES IDX 29 1 28 2 26 3 27 4 25 6 21 7 22 8 84 9 23 10 24 11 20 12
REMARK SMILES IDX 18 13 19 14 3 16 2 17 1 18 4 19 5 20 6 21 17 22 7 23 8 24
REMARK SMILES IDX 16 25 9 26 11 27 15 28 10 29 12 30 14 31 13 32 30 33 31 34
REMARK SMILES IDX 32 35 33 36 34 37 35 39 36 40 37 41 83 42 38 43 82 44 39 45
REMARK SMILES IDX 40 46 41 47 76 48 42 49 81 50 75 51 77 52 43 53 80 54 74 55
REMARK SMILES IDX 73 56 44 58 66 59 51 60 65 61 52 62 55 63 64 64 78 65 53 66
REMARK SMILES IDX 54 67 63 69 79 70 56 71 45 72 46 73 50 74 47 75 49 76 48 77
REMARK SMILES IDX 67 78 68 79 72 80 69 81 71 82 70 83 57 84 58 85 62 86 59 87
REMARK SMILES IDX 61 88 60 89
REMARK H PARENT 28 5 20 15 33 38 77 57 55 68
REMARK Flexibility Score: inf
ROOT
ATOM      1  C   UNL A   1      37.983  24.104  26.284  1.00  0.00     0.116 C 
ENDROOT
BRANCH   1   2
ATOM      2  N   UNL A   1      37.778  23.742  24.899  1.00  0.00    -0.352 N 
ATOM      3  C   UNL A   1      36.671  23.269  24.224  1.00  0.00     0.251 C 
ATOM      4  O   UNL A   1      36.783  23.092  23.021  1.00  0.00    -0.269 OA
ATOM      5  H   UNL A   1      38.576  23.853  24.332  1.00  0.00     0.163 HD
BRANCH   3   6
ATOM      6  C   UNL A   1      35.380  22.921  24.897  1.00  0.00     0.041 A 
ATOM      7  C   UNL A   1      33.280  23.482  25.958  1.00  0.00     0.041 A 
ATOM      8  C   UNL A   1      33.094  22.156  26.305  1.00  0.00     0.026 A 
ATOM      9  C   UNL A   1      34.317  23.805  25.087  1.00  0.00     0.040 A 
ATOM     10  C   UNL A   1      34.091  21.218  26.052  1.00  0.00     0.003 A 
ATOM     11  C   UNL A   1      35.259  21.618  25.406  1.00  0.00     0.014 A 
BRANCH   7  12
ATOM     12  N   UNL A   1      32.499  24.540  26.452  1.00  0.00    -0.325 N 
ATOM     13  C   UNL A   1      31.557  25.298  25.786  1.00  0.00     0.237 C 
ATOM     14  O   UNL A   1      30.787  25.951  26.505  1.00  0.00    -0.273 OA
ATOM     15  H   UNL A   1      32.642  24.772  27.398  1.00  0.00     0.169 HD
BRANCH  13  16
ATOM     16  C   UNL A   1      31.381  25.363  24.239  1.00  0.00     0.144 C 
BRANCH  16  17
ATOM     17  C   UNL A   1      29.889  25.169  23.917  1.00  0.00     0.021 C 
ATOM     18  C   UNL A   1      28.934  26.347  23.963  1.00  0.00     0.005 C 
ENDBRANCH  16  17
BRANCH  16  19
ATOM     19  S   UNL A   1      32.484  26.713  23.607  1.00  0.00    -0.072 SA
BRANCH  19  20
ATOM     20  C   UNL A   1      32.601  27.875  24.882  1.00  0.00     0.196 A 
ATOM     21  N   UNL A   1      33.570  27.802  25.762  1.00  0.00    -0.122 NA
ATOM     22  N   UNL A   1      31.902  29.069  25.058  1.00  0.00    -0.270 N 
ATOM     23  N   UNL A   1      33.482  28.860  26.612  1.00  0.00    -0.129 NA
ATOM     24  C   UNL A   1      32.508  29.629  26.188  1.00  0.00     0.161 A 
ATOM     25  C   UNL A   1      30.841  29.742  24.372  1.00  0.00     0.057 A 
ATOM     26  C   UNL A   1      32.073  30.871  26.700  1.00  0.00     0.050 A 
ATOM     27  C   UNL A   1      30.458  31.006  24.889  1.00  0.00    -0.001 A 
ATOM     28  C   UNL A   1      30.186  29.244  23.244  1.00  0.00     0.027 A 
ATOM     29  C   UNL A   1      31.098  31.552  26.089  1.00  0.00     0.014 A 
ATOM     30  C   UNL A   1      29.455  31.757  24.263  1.00  0.00     0.010 A 
ATOM     31  C   UNL A   1      29.180  30.007  22.631  1.00  0.00     0.002 A 
ATOM     32  C   UNL A   1      28.820  31.258  23.131  1.00  0.00     0.001 A 
ENDBRANCH  19  20
ENDBRANCH  16  19
ENDBRANCH  13  16
ENDBRANCH   7  12
ENDBRANCH   3   6
ENDBRANCH   1   2
BRANCH   1  33
ATOM     33  C   UNL A   1      39.235  23.532  26.921  1.00  0.00     0.023 C 
BRANCH  33  34
ATOM     34  C   UNL A   1      39.694  22.165  26.436  1.00  0.00     0.023 C 
BRANCH  34  35
ATOM     35  C   UNL A   1      41.178  21.839  26.621  1.00  0.00     0.116 C 
BRANCH  35  36
ATOM     36  N   UNL A   1      42.047  22.235  25.530  1.00  0.00    -0.352 N 
ATOM     37  C   UNL A   1      42.828  23.327  25.267  1.00  0.00     0.251 C 
ATOM     38  H   UNL A   1      42.083  21.562  24.813  1.00  0.00     0.163 HD
ATOM     39  O   UNL A   1      43.621  23.215  24.328  1.00  0.00    -0.269 OA
BRANCH  37  40
ATOM     40  C   UNL A   1      42.730  24.639  25.961  1.00  0.00     0.039 A 
ATOM     41  C   UNL A   1      43.291  24.937  27.199  1.00  0.00     0.014 A 
ATOM     42  C   UNL A   1      41.923  25.612  25.338  1.00  0.00     0.014 A 
ATOM     43  C   UNL A   1      42.934  26.099  27.871  1.00  0.00     0.010 A 
ATOM     44  C   UNL A   1      41.597  26.798  25.986  1.00  0.00     0.010 A 
ATOM     45  C   UNL A   1      42.052  27.008  27.282  1.00  0.00    -0.014 A 
BRANCH  45  46
ATOM     46  C   UNL A   1      41.704  28.194  28.056  1.00  0.00     0.031 A 
ATOM     47  C   UNL A   1      42.683  29.316  27.989  1.00  0.00     0.074 A 
ATOM     48  C   UNL A   1      40.549  28.331  28.736  1.00  0.00     0.049 A 
ATOM     49  N   UNL A   1      43.325  29.875  28.962  1.00  0.00    -0.248 NA
ATOM     50  C   UNL A   1      43.053  29.818  26.658  1.00  0.00     0.031 C 
ATOM     51  C   UNL A   1      39.357  27.483  28.689  1.00  0.00     0.029 A 
ATOM     52  N   UNL A   1      40.164  29.360  29.542  1.00  0.00    -0.354 N 
ATOM     53  C   UNL A   1      44.093  30.889  28.393  1.00  0.00     0.074 A 
ATOM     54  C   UNL A   1      43.960  30.746  26.964  1.00  0.00     0.031 C 
ATOM     55  C   UNL A   1      38.313  28.163  29.216  1.00  0.00     0.029 A 
ATOM     56  C   UNL A   1      38.798  29.418  29.765  1.00  0.00     0.049 A 
ATOM     57  H   UNL A   1      40.800  30.003  29.931  1.00  0.00     0.167 HD
ATOM     58  C   UNL A   1      44.676  31.871  29.134  1.00  0.00     0.031 A 
ATOM     59  C   UNL A   1      38.112  30.470  30.274  1.00  0.00     0.031 A 
ATOM     60  C   UNL A   1      44.761  31.525  30.525  1.00  0.00     0.049 A 
ATOM     61  C   UNL A   1      39.071  31.331  31.005  1.00  0.00     0.074 A 
ATOM     62  C   UNL A   1      45.396  30.521  31.228  1.00  0.00     0.029 A 
ATOM     63  N   UNL A   1      43.833  32.057  31.386  1.00  0.00    -0.354 N 
ATOM     64  N   UNL A   1      39.663  30.978  32.110  1.00  0.00    -0.248 NA
ATOM     65  C   UNL A   1      39.703  32.421  30.279  1.00  0.00     0.031 C 
ATOM     66  C   UNL A   1      44.482  30.167  32.259  1.00  0.00     0.029 A 
ATOM     67  C   UNL A   1      43.381  31.020  32.163  1.00  0.00     0.049 A 
ATOM     68  H   UNL A   1      43.548  32.998  31.437  1.00  0.00     0.167 HD
ATOM     69  C   UNL A   1      40.950  31.481  31.998  1.00  0.00     0.074 A 
ATOM     70  C   UNL A   1      40.887  32.442  30.899  1.00  0.00     0.031 C 
ATOM     71  C   UNL A   1      42.012  30.875  32.609  1.00  0.00     0.031 A 
BRANCH  58  72
ATOM     72  C   UNL A   1      44.912  33.273  28.639  1.00  0.00    -0.014 A 
ATOM     73  C   UNL A   1      46.192  33.773  28.338  1.00  0.00     0.009 A 
ATOM     74  C   UNL A   1      43.816  34.046  28.212  1.00  0.00     0.009 A 
ATOM     75  C   UNL A   1      46.376  34.972  27.643  1.00  0.00     0.001 A 
ATOM     76  C   UNL A   1      43.995  35.226  27.479  1.00  0.00     0.001 A 
ATOM     77  C   UNL A   1      45.276  35.686  27.192  1.00  0.00     0.000 A 
ENDBRANCH  58  72
BRANCH  59  78
ATOM     78  C   UNL A   1      36.790  30.966  29.828  1.00  0.00    -0.014 A 
ATOM     79  C   UNL A   1      36.498  31.067  28.455  1.00  0.00     0.009 A 
ATOM     80  C   UNL A   1      35.921  31.602  30.728  1.00  0.00     0.009 A 
ATOM     81  C   UNL A   1      35.403  31.802  27.994  1.00  0.00     0.001 A 
ATOM     82  C   UNL A   1      34.826  32.345  30.266  1.00  0.00     0.001 A 
ATOM     83  C   UNL A   1      34.576  32.457  28.900  1.00  0.00     0.000 A 
ENDBRANCH  59  78
BRANCH  71  84
ATOM     84  C   UNL A   1      41.753  29.758  33.596  1.00  0.00    -0.014 A 
ATOM     85  C   UNL A   1      41.889  30.036  34.967  1.00  0.00     0.009 A 
ATOM     86  C   UNL A   1      41.586  28.416  33.209  1.00  0.00     0.009 A 
ATOM     87  C   UNL A   1      41.878  29.011  35.916  1.00  0.00     0.001 A 
ATOM     88  C   UNL A   1      41.545  27.392  34.162  1.00  0.00     0.001 A 
ATOM     89  C   UNL A   1      41.702  27.689  35.514  1.00  0.00     0.000 A 
ENDBRANCH  71  84
ENDBRANCH  45  46
ENDBRANCH  37  40
ENDBRANCH  35  36
ENDBRANCH  34  35
ENDBRANCH  33  34
ENDBRANCH   1  33
TORSDOF 16
ENDMDL
MODEL 2
REMARK VINA RESULT:     -11.9      2.508      8.288
REMARK SMILES CC[C@@H](Sc1nnc2ccc3ccccc3n12)C(=O)Nc1cccc(C(=O)NCCCCNC(=O)c2ccc(-c3c4nc(c(-c5ccccc5)c5ccc([nH]5)c(-c5ccccc5)c5nc(c(-c6ccccc6)c6ccc3[nH]6)C=C5)C=C4)cc2)c1
REMARK SMILES IDX 29 1 28 2 26 3 27 4 25 6 21 7 22 8 84 9 23 10 24 11 20 12
REMARK SMILES IDX 18 13 19 14 3 16 2 17 1 18 4 19 5 20 6 21 17 22 7 23 8 24
REMARK SMILES IDX 16 25 9 26 11 27 15 28 10 29 12 30 14 31 13 32 30 33 31 34
REMARK SMILES IDX 32 35 33 36 34 37 35 39 36 40 37 41 83 42 38 43 82 44 39 45
REMARK SMILES IDX 40 46 41 47 76 48 42 49 81 50 75 51 77 52 43 53 80 54 74 55
REMARK SMILES IDX 73 56 44 58 66 59 51 60 65 61 52 62 55 63 64 64 78 65 53 66
REMARK SMILES IDX 54 67 63 69 79 70 56 71 45 72 46 73 50 74 47 75 49 76 48 77
REMARK SMILES IDX 67 78 68 79 72 80 69 81 71 82 70 83 57 84 58 85 62 86 59 87
REMARK SMILES IDX 61 88 60 89
REMARK H PARENT 28 5 20 15 33 38 77 57 55 68
REMARK Flexibility Score: inf
ROOT
ATOM      1  C   UNL A   1      35.592  32.762  27.626  1.00  0.00     0.116 C 
ENDROOT
BRANCH   1   2
ATOM      2  N   UNL A   1      35.805  31.480  28.262  1.00  0.00    -0.352 N 
ATOM      3  C   UNL A   1      35.214  30.248  28.073  1.00  0.00     0.251 C 
ATOM      4  O   UNL A   1      35.640  29.316  28.737  1.00  0.00    -0.269 OA
ATOM      5  H   UNL A   1      36.501  31.488  28.960  1.00  0.00     0.163 HD
BRANCH   3   6
ATOM      6  C   UNL A   1      34.062  30.018  27.146  1.00  0.00     0.041 A 
ATOM      7  C   UNL A   1      33.043  29.087  25.160  1.00  0.00     0.041 A 
ATOM      8  C   UNL A   1      31.892  29.817  25.401  1.00  0.00     0.026 A 
ATOM      9  C   UNL A   1      34.026  29.047  26.144  1.00  0.00     0.040 A 
ATOM     10  C   UNL A   1      31.849  30.732  26.448  1.00  0.00     0.003 A 
ATOM     11  C   UNL A   1      32.958  30.877  27.278  1.00  0.00     0.014 A 
BRANCH   7  12
ATOM     12  N   UNL A   1      33.299  28.398  23.963  1.00  0.00    -0.325 N 
ATOM     13  C   UNL A   1      32.482  27.512  23.289  1.00  0.00     0.237 C 
ATOM     14  O   UNL A   1      32.796  27.282  22.111  1.00  0.00    -0.273 OA
ATOM     15  H   UNL A   1      34.177  28.568  23.550  1.00  0.00     0.169 HD
BRANCH  13  16
ATOM     16  C   UNL A   1      31.213  26.827  23.879  1.00  0.00     0.144 C 
BRANCH  16  17
ATOM     17  C   UNL A   1      29.988  27.677  23.500  1.00  0.00     0.021 C 
ATOM     18  C   UNL A   1      28.597  27.075  23.528  1.00  0.00     0.005 C 
ENDBRANCH  16  17
BRANCH  16  19
ATOM     19  S   UNL A   1      31.407  24.997  23.646  1.00  0.00    -0.072 SA
BRANCH  19  20
ATOM     20  C   UNL A   1      31.614  24.330  25.227  1.00  0.00     0.196 A 
ATOM     21  N   UNL A   1      30.650  24.407  26.114  1.00  0.00    -0.122 NA
ATOM     22  N   UNL A   1      32.631  23.509  25.716  1.00  0.00    -0.270 N 
ATOM     23  N   UNL A   1      31.031  23.755  27.245  1.00  0.00    -0.129 NA
ATOM     24  C   UNL A   1      32.195  23.199  27.009  1.00  0.00     0.161 A 
ATOM     25  C   UNL A   1      33.854  22.980  25.196  1.00  0.00     0.057 A 
ATOM     26  C   UNL A   1      32.968  22.369  27.851  1.00  0.00     0.050 A 
ATOM     27  C   UNL A   1      34.583  22.117  26.053  1.00  0.00    -0.001 A 
ATOM     28  C   UNL A   1      34.354  23.248  23.920  1.00  0.00     0.027 A 
ATOM     29  C   UNL A   1      34.110  21.832  27.411  1.00  0.00     0.014 A 
ATOM     30  C   UNL A   1      35.773  21.520  25.618  1.00  0.00     0.010 A 
ATOM     31  C   UNL A   1      35.551  22.646  23.501  1.00  0.00     0.002 A 
ATOM     32  C   UNL A   1      36.253  21.782  24.340  1.00  0.00     0.001 A 
ENDBRANCH  19  20
ENDBRANCH  16  19
ENDBRANCH  13  16
ENDBRANCH   7  12
ENDBRANCH   3   6
ENDBRANCH   1   2
BRANCH   1  33
ATOM     33  C   UNL A   1      34.784  33.757  28.436  1.00  0.00     0.023 C 
BRANCH  33  34
ATOM     34  C   UNL A   1      34.473  33.383  29.879  1.00  0.00     0.023 C 
BRANCH  34  35
ATOM     35  C   UNL A   1      35.101  34.263  30.961  1.00  0.00     0.116 C 
BRANCH  35  36
ATOM     36  N   UNL A   1      35.140  33.689  32.291  1.00  0.00    -0.352 N 
ATOM     37  C   UNL A   1      35.940  32.777  32.925  1.00  0.00     0.251 C 
ATOM     38  H   UNL A   1      34.427  34.034  32.874  1.00  0.00     0.163 HD
ATOM     39  O   UNL A   1      35.813  32.701  34.150  1.00  0.00    -0.269 OA
BRANCH  37  40
ATOM     40  C   UNL A   1      36.868  31.833  32.248  1.00  0.00     0.039 A 
ATOM     41  C   UNL A   1      36.609  30.487  32.004  1.00  0.00     0.014 A 
ATOM     42  C   UNL A   1      38.140  32.341  31.918  1.00  0.00     0.014 A 
ATOM     43  C   UNL A   1      37.630  29.637  31.596  1.00  0.00     0.010 A 
ATOM     44  C   UNL A   1      39.155  31.505  31.467  1.00  0.00     0.010 A 
ATOM     45  C   UNL A   1      38.913  30.140  31.371  1.00  0.00    -0.014 A 
BRANCH  45  46
ATOM     46  C   UNL A   1      39.940  29.186  30.967  1.00  0.00     0.031 A 
ATOM     47  C   UNL A   1      40.844  28.714  32.055  1.00  0.00     0.074 A 
ATOM     48  C   UNL A   1      40.047  28.686  29.721  1.00  0.00     0.049 A 
ATOM     49  N   UNL A   1      42.131  28.818  32.126  1.00  0.00    -0.248 NA
ATOM     50  C   UNL A   1      40.221  28.127  33.251  1.00  0.00     0.031 C 
ATOM     51  C   UNL A   1      39.101  28.796  28.609  1.00  0.00     0.029 A 
ATOM     52  N   UNL A   1      41.007  27.853  29.228  1.00  0.00    -0.354 N 
ATOM     53  C   UNL A   1      42.508  28.201  33.317  1.00  0.00     0.074 A 
ATOM     54  C   UNL A   1      41.286  27.879  34.013  1.00  0.00     0.031 C 
ATOM     55  C   UNL A   1      39.402  27.859  27.682  1.00  0.00     0.029 A 
ATOM     56  C   UNL A   1      40.637  27.196  28.066  1.00  0.00     0.049 A 
ATOM     57  H   UNL A   1      41.884  27.731  29.658  1.00  0.00     0.167 HD
ATOM     58  C   UNL A   1      43.798  27.863  33.592  1.00  0.00     0.031 A 
ATOM     59  C   UNL A   1      41.254  26.118  27.522  1.00  0.00     0.031 A 
ATOM     60  C   UNL A   1      44.732  28.558  32.751  1.00  0.00     0.049 A 
ATOM     61  C   UNL A   1      42.634  26.064  28.058  1.00  0.00     0.074 A 
ATOM     62  C   UNL A   1      45.047  29.889  32.559  1.00  0.00     0.029 A 
ATOM     63  N   UNL A   1      45.265  27.888  31.677  1.00  0.00    -0.354 N 
ATOM     64  N   UNL A   1      43.557  26.937  27.771  1.00  0.00    -0.248 NA
ATOM     65  C   UNL A   1      42.872  25.275  29.257  1.00  0.00     0.031 C 
ATOM     66  C   UNL A   1      45.284  30.007  31.161  1.00  0.00     0.029 A 
ATOM     67  C   UNL A   1      45.168  28.734  30.601  1.00  0.00     0.049 A 
ATOM     68  H   UNL A   1      45.644  26.979  31.679  1.00  0.00     0.167 HD
ATOM     69  C   UNL A   1      44.253  27.118  28.957  1.00  0.00     0.074 A 
ATOM     70  C   UNL A   1      43.851  25.999  29.807  1.00  0.00     0.031 C 
ATOM     71  C   UNL A   1      44.869  28.302  29.252  1.00  0.00     0.031 A 
BRANCH  58  72
ATOM     72  C   UNL A   1      44.200  26.683  34.434  1.00  0.00    -0.014 A 
ATOM     73  C   UNL A   1      44.441  26.776  35.817  1.00  0.00     0.009 A 
ATOM     74  C   UNL A   1      44.090  25.385  33.899  1.00  0.00     0.009 A 
ATOM     75  C   UNL A   1      44.557  25.644  36.628  1.00  0.00     0.001 A 
ATOM     76  C   UNL A   1      44.165  24.249  34.714  1.00  0.00     0.001 A 
ATOM     77  C   UNL A   1      44.396  24.380  36.080  1.00  0.00     0.000 A 
ENDBRANCH  58  72
BRANCH  59  78
ATOM     78  C   UNL A   1      40.603  24.943  26.901  1.00  0.00    -0.014 A 
ATOM     79  C   UNL A   1      39.199  24.875  26.816  1.00  0.00     0.009 A 
ATOM     80  C   UNL A   1      41.329  23.770  26.648  1.00  0.00     0.009 A 
ATOM     81  C   UNL A   1      38.543  23.676  26.525  1.00  0.00     0.001 A 
ATOM     82  C   UNL A   1      40.671  22.565  26.362  1.00  0.00     0.001 A 
ATOM     83  C   UNL A   1      39.280  22.516  26.315  1.00  0.00     0.000 A 
ENDBRANCH  59  78
BRANCH  71  84
ATOM     84  C   UNL A   1      44.974  29.364  28.180  1.00  0.00    -0.014 A 
ATOM     85  C   UNL A   1      46.224  29.579  27.576  1.00  0.00     0.009 A 
ATOM     86  C   UNL A   1      43.943  30.280  27.904  1.00  0.00     0.009 A 
ATOM     87  C   UNL A   1      46.444  30.677  26.742  1.00  0.00     0.001 A 
ATOM     88  C   UNL A   1      44.154  31.364  27.044  1.00  0.00     0.001 A 
ATOM     89  C   UNL A   1      45.409  31.568  26.473  1.00  0.00     0.000 A 
ENDBRANCH  71  84
ENDBRANCH  45  46
ENDBRANCH  37  40
ENDBRANCH  35  36
ENDBRANCH  34  35
ENDBRANCH  33  34
ENDBRANCH   1  33
TORSDOF 16
ENDMDL
MODEL 3
REMARK VINA RESULT:     -11.7      1.860      2.693
REMARK SMILES CC[C@@H](Sc1nnc2ccc3ccccc3n12)C(=O)Nc1cccc(C(=O)NCCCCNC(=O)c2ccc(-c3c4nc(c(-c5ccccc5)c5ccc([nH]5)c(-c5ccccc5)c5nc(c(-c6ccccc6)c6ccc3[nH]6)C=C5)C=C4)cc2)c1
REMARK SMILES IDX 29 1 28 2 26 3 27 4 25 6 21 7 22 8 84 9 23 10 24 11 20 12
REMARK SMILES IDX 18 13 19 14 3 16 2 17 1 18 4 19 5 20 6 21 17 22 7 23 8 24
REMARK SMILES IDX 16 25 9 26 11 27 15 28 10 29 12 30 14 31 13 32 30 33 31 34
REMARK SMILES IDX 32 35 33 36 34 37 35 39 36 40 37 41 83 42 38 43 82 44 39 45
REMARK SMILES IDX 40 46 41 47 76 48 42 49 81 50 75 51 77 52 43 53 80 54 74 55
REMARK SMILES IDX 73 56 44 58 66 59 51 60 65 61 52 62 55 63 64 64 78 65 53 66
REMARK SMILES IDX 54 67 63 69 79 70 56 71 45 72 46 73 50 74 47 75 49 76 48 77
REMARK SMILES IDX 67 78 68 79 72 80 69 81 71 82 70 83 57 84 58 85 62 86 59 87
REMARK SMILES IDX 61 88 60 89
REMARK H PARENT 28 5 20 15 33 38 77 57 55 68
REMARK Flexibility Score: inf
ROOT
ATOM      1  C   UNL A   1      40.403  21.749  27.431  1.00  0.00     0.116 C 
ENDROOT
BRANCH   1   2
ATOM      2  N   UNL A   1      39.957  23.095  27.145  1.00  0.00    -0.352 N 
ATOM      3  C   UNL A   1      38.800  23.580  26.570  1.00  0.00     0.251 C 
ATOM      4  O   UNL A   1      38.676  24.793  26.499  1.00  0.00    -0.269 OA
ATOM      5  H   UNL A   1      40.597  23.796  27.411  1.00  0.00     0.163 HD
BRANCH   3   6
ATOM      6  C   UNL A   1      37.734  22.702  25.993  1.00  0.00     0.041 A 
ATOM      7  C   UNL A   1      35.451  21.927  25.791  1.00  0.00     0.041 A 
ATOM      8  C   UNL A   1      35.871  20.885  24.983  1.00  0.00     0.026 A 
ATOM      9  C   UNL A   1      36.362  22.929  26.114  1.00  0.00     0.040 A 
ATOM     10  C   UNL A   1      37.227  20.674  24.757  1.00  0.00     0.003 A 
ATOM     11  C   UNL A   1      38.159  21.546  25.317  1.00  0.00     0.014 A 
BRANCH   7  12
ATOM     12  N   UNL A   1      34.161  22.027  26.337  1.00  0.00    -0.325 N 
ATOM     13  C   UNL A   1      32.950  22.074  25.676  1.00  0.00     0.237 C 
ATOM     14  O   UNL A   1      31.949  21.847  26.373  1.00  0.00    -0.273 OA
ATOM     15  H   UNL A   1      34.114  22.070  27.319  1.00  0.00     0.169 HD
BRANCH  13  16
ATOM     16  C   UNL A   1      32.761  22.354  24.155  1.00  0.00     0.144 C 
BRANCH  16  17
ATOM     17  C   UNL A   1      32.586  21.004  23.437  1.00  0.00     0.021 C 
ATOM     18  C   UNL A   1      32.800  19.703  24.185  1.00  0.00     0.005 C 
ENDBRANCH  16  17
BRANCH  16  19
ATOM     19  S   UNL A   1      31.671  23.846  23.992  1.00  0.00    -0.072 SA
BRANCH  19  20
ATOM     20  C   UNL A   1      32.590  25.019  23.116  1.00  0.00     0.196 A 
ATOM     21  N   UNL A   1      33.042  24.750  21.914  1.00  0.00    -0.122 NA
ATOM     22  N   UNL A   1      32.809  26.367  23.403  1.00  0.00    -0.270 N 
ATOM     23  N   UNL A   1      33.668  25.848  21.416  1.00  0.00    -0.129 NA
ATOM     24  C   UNL A   1      33.514  26.820  22.284  1.00  0.00     0.161 A 
ATOM     25  C   UNL A   1      32.466  27.250  24.475  1.00  0.00     0.057 A 
ATOM     26  C   UNL A   1      33.932  28.166  22.190  1.00  0.00     0.050 A 
ATOM     27  C   UNL A   1      32.864  28.604  24.328  1.00  0.00    -0.001 A 
ATOM     28  C   UNL A   1      31.769  26.870  25.623  1.00  0.00     0.027 A 
ATOM     29  C   UNL A   1      33.624  29.040  23.154  1.00  0.00     0.014 A 
ATOM     30  C   UNL A   1      32.540  29.551  25.308  1.00  0.00     0.010 A 
ATOM     31  C   UNL A   1      31.456  27.831  26.598  1.00  0.00     0.002 A 
ATOM     32  C   UNL A   1      31.833  29.164  26.440  1.00  0.00     0.001 A 
ENDBRANCH  19  20
ENDBRANCH  16  19
ENDBRANCH  13  16
ENDBRANCH   7  12
ENDBRANCH   3   6
ENDBRANCH   1   2
BRANCH   1  33
ATOM     33  C   UNL A   1      41.790  21.409  26.922  1.00  0.00     0.023 C 
BRANCH  33  34
ATOM     34  C   UNL A   1      42.695  22.575  26.549  1.00  0.00     0.023 C 
BRANCH  34  35
ATOM     35  C   UNL A   1      42.866  22.855  25.055  1.00  0.00     0.116 C 
BRANCH  35  36
ATOM     36  N   UNL A   1      44.173  23.335  24.652  1.00  0.00    -0.352 N 
ATOM     37  C   UNL A   1      44.963  24.394  25.007  1.00  0.00     0.251 C 
ATOM     38  H   UNL A   1      44.589  22.767  23.964  1.00  0.00     0.163 HD
ATOM     39  O   UNL A   1      46.132  24.356  24.614  1.00  0.00    -0.269 OA
BRANCH  37  40
ATOM     40  C   UNL A   1      44.500  25.601  25.743  1.00  0.00     0.039 A 
ATOM     41  C   UNL A   1      44.934  25.987  27.008  1.00  0.00     0.014 A 
ATOM     42  C   UNL A   1      43.473  26.346  25.130  1.00  0.00     0.014 A 
ATOM     43  C   UNL A   1      44.261  26.981  27.708  1.00  0.00     0.010 A 
ATOM     44  C   UNL A   1      42.824  27.372  25.808  1.00  0.00     0.010 A 
ATOM     45  C   UNL A   1      43.179  27.642  27.124  1.00  0.00    -0.014 A 
BRANCH  45  46
ATOM     46  C   UNL A   1      42.507  28.657  27.927  1.00  0.00     0.031 A 
ATOM     47  C   UNL A   1      43.218  29.963  28.039  1.00  0.00     0.074 A 
ATOM     48  C   UNL A   1      41.292  28.488  28.482  1.00  0.00     0.049 A 
ATOM     49  N   UNL A   1      43.626  30.561  29.110  1.00  0.00    -0.248 NA
ATOM     50  C   UNL A   1      43.592  30.644  26.790  1.00  0.00     0.031 C 
ATOM     51  C   UNL A   1      40.325  27.413  28.251  1.00  0.00     0.029 A 
ATOM     52  N   UNL A   1      40.616  29.340  29.304  1.00  0.00    -0.354 N 
ATOM     53  C   UNL A   1      44.203  31.760  28.694  1.00  0.00     0.074 A 
ATOM     54  C   UNL A   1      44.239  31.713  27.253  1.00  0.00     0.031 C 
ATOM     55  C   UNL A   1      39.112  27.808  28.702  1.00  0.00     0.029 A 
ATOM     56  C   UNL A   1      39.256  29.086  29.378  1.00  0.00     0.049 A 
ATOM     57  H   UNL A   1      41.055  30.067  29.800  1.00  0.00     0.167 HD
ATOM     58  C   UNL A   1      44.483  32.776  29.555  1.00  0.00     0.031 A 
ATOM     59  C   UNL A   1      38.310  29.923  29.872  1.00  0.00     0.031 A 
ATOM     60  C   UNL A   1      44.510  32.339  30.922  1.00  0.00     0.049 A 
ATOM     61  C   UNL A   1      38.984  30.901  30.758  1.00  0.00     0.074 A 
ATOM     62  C   UNL A   1      45.282  31.437  31.627  1.00  0.00     0.029 A 
ATOM     63  N   UNL A   1      43.411  32.586  31.707  1.00  0.00    -0.354 N 
ATOM     64  N   UNL A   1      39.531  30.589  31.897  1.00  0.00    -0.248 NA
ATOM     65  C   UNL A   1      39.426  32.159  30.176  1.00  0.00     0.031 C 
ATOM     66  C   UNL A   1      44.375  30.810  32.526  1.00  0.00     0.029 A 
ATOM     67  C   UNL A   1      43.127  31.415  32.362  1.00  0.00     0.049 A 
ATOM     68  H   UNL A   1      42.923  33.438  31.784  1.00  0.00     0.167 HD
ATOM     69  C   UNL A   1      40.681  31.363  31.960  1.00  0.00     0.074 A 
ATOM     70  C   UNL A   1      40.512  32.378  30.922  1.00  0.00     0.031 C 
ATOM     71  C   UNL A   1      41.788  30.946  32.645  1.00  0.00     0.031 A 
BRANCH  58  72
ATOM     72  C   UNL A   1      44.450  34.233  29.177  1.00  0.00    -0.014 A 
ATOM     73  C   UNL A   1      45.589  34.938  28.746  1.00  0.00     0.009 A 
ATOM     74  C   UNL A   1      43.208  34.870  28.996  1.00  0.00     0.009 A 
ATOM     75  C   UNL A   1      45.501  36.203  28.158  1.00  0.00     0.001 A 
ATOM     76  C   UNL A   1      43.111  36.119  28.369  1.00  0.00     0.001 A 
ATOM     77  C   UNL A   1      44.259  36.783  27.948  1.00  0.00     0.000 A 
ENDBRANCH  58  72
BRANCH  59  78
ATOM     78  C   UNL A   1      36.959  30.162  29.316  1.00  0.00    -0.014 A 
ATOM     79  C   UNL A   1      36.601  29.617  28.068  1.00  0.00     0.009 A 
ATOM     80  C   UNL A   1      36.122  31.147  29.861  1.00  0.00     0.009 A 
ATOM     81  C   UNL A   1      35.472  30.060  27.375  1.00  0.00     0.001 A 
ATOM     82  C   UNL A   1      34.993  31.596  29.163  1.00  0.00     0.001 A 
ATOM     83  C   UNL A   1      34.677  31.064  27.915  1.00  0.00     0.000 A 
ENDBRANCH  59  78
BRANCH  71  84
ATOM     84  C   UNL A   1      41.689  29.719  33.526  1.00  0.00    -0.014 A 
ATOM     85  C   UNL A   1      41.622  29.903  34.917  1.00  0.00     0.009 A 
ATOM     86  C   UNL A   1      41.866  28.411  33.041  1.00  0.00     0.009 A 
ATOM     87  C   UNL A   1      41.747  28.823  35.794  1.00  0.00     0.001 A 
ATOM     88  C   UNL A   1      41.961  27.325  33.919  1.00  0.00     0.001 A 
ATOM     89  C   UNL A   1      41.913  27.534  35.296  1.00  0.00     0.000 A 
ENDBRANCH  71  84
ENDBRANCH  45  46
ENDBRANCH  37  40
ENDBRANCH  35  36
ENDBRANCH  34  35
ENDBRANCH  33  34
ENDBRANCH   1  33
TORSDOF 16
ENDMDL
