MODEL 1
REMARK VINA RESULT:     -10.3      0.000      0.000
REMARK SMILES CCC1C[NH+]([C@H]2COC[C@@]2(C)C(=O)NCCCCNC(=O)c2ccc(-c3c4nc(c(-c5ccccc5)c5ccc([nH]5)c(-c5ccccc5)c5nc(c(-c6ccccc6)c6ccc3[nH]6)C=C5)C=C4)cc2)C1
REMARK SMILES IDX 16 1 15 2 14 3 12 4 13 5 10 7 6 8 7 9 8 10 9 11 11 12 5 13
REMARK SMILES IDX 3 14 4 15 70 16 2 18 1 19 17 20 18 21 19 22 20 23 21 25
REMARK SMILES IDX 22 26 23 27 69 28 24 29 68 30 25 31 26 32 27 33 62 34 28 35
REMARK SMILES IDX 67 36 61 37 63 38 29 39 66 40 60 41 59 42 30 44 52 45 37 46
REMARK SMILES IDX 51 47 38 48 41 49 50 50 64 51 39 52 40 53 49 55 65 56 42 57
REMARK SMILES IDX 31 58 32 59 36 60 33 61 35 62 34 63 53 64 54 65 58 66 55 67
REMARK SMILES IDX 57 68 56 69 43 70 44 71 48 72 45 73 47 74 46 75
REMARK H PARENT 14 6 5 17 19 24 63 43 41 54
REMARK Flexibility Score: inf
ROOT
ATOM      1  C   UNL A   1      36.572  20.505  24.996  1.00  0.00     0.023 C 
ENDROOT
BRANCH   1   2
ATOM      2  C   UNL A   1      36.772  21.979  25.310  1.00  0.00     0.116 C 
BRANCH   2   3
ATOM      3  N   UNL A   1      35.867  22.545  26.287  1.00  0.00    -0.355 N 
ATOM      4  C   UNL A   1      34.550  22.885  26.118  1.00  0.00     0.234 C 
ATOM      5  O   UNL A   1      33.900  23.082  27.151  1.00  0.00    -0.274 OA
ATOM      6  H   UNL A   1      36.242  22.704  27.183  1.00  0.00     0.163 HD
BRANCH   4   7
ATOM      7  C   UNL A   1      33.938  23.190  24.736  1.00  0.00     0.123 C 
ATOM      8  C   UNL A   1      32.944  24.356  24.580  1.00  0.00     0.228 C 
ATOM      9  C   UNL A   1      33.107  24.733  23.101  1.00  0.00     0.226 C 
ATOM     10  O   UNL A   1      34.442  24.400  22.712  1.00  0.00    -0.374 OA
ATOM     11  C   UNL A   1      35.048  23.641  23.773  1.00  0.00     0.183 C 
ATOM     12  C   UNL A   1      33.328  21.868  24.224  1.00  0.00     0.031 C 
BRANCH   8  13
ATOM     13  N   UNL A   1      33.134  25.408  25.582  1.00  0.00    -0.329 N 
ATOM     14  C   UNL A   1      32.642  27.283  26.322  1.00  0.00     0.099 C 
ATOM     15  C   UNL A   1      31.870  25.948  26.125  1.00  0.00     0.271 C 
ATOM     16  C   UNL A   1      33.514  26.763  25.131  1.00  0.00     0.271 C 
ATOM     17  H   UNL A   1      33.803  24.890  26.151  1.00  0.00     0.348 HD
BRANCH  14  18
ATOM     18  C   UNL A   1      31.854  28.581  26.274  1.00  0.00     0.012 C 
ATOM     19  C   UNL A   1      32.288  29.594  27.316  1.00  0.00     0.004 C 
ENDBRANCH  14  18
ENDBRANCH   8  13
ENDBRANCH   4   7
ENDBRANCH   2   3
ENDBRANCH   1   2
BRANCH   1  20
ATOM     20  C   UNL A   1      37.835  19.646  24.962  1.00  0.00     0.023 C 
BRANCH  20  21
ATOM     21  C   UNL A   1      39.042  20.154  25.748  1.00  0.00     0.116 C 
BRANCH  21  22
ATOM     22  N   UNL A   1      40.198  19.269  25.717  1.00  0.00    -0.352 N 
ATOM     23  C   UNL A   1      41.508  19.493  26.084  1.00  0.00     0.251 C 
ATOM     24  H   UNL A   1      40.013  18.363  25.379  1.00  0.00     0.163 HD
ATOM     25  O   UNL A   1      42.346  18.618  25.926  1.00  0.00    -0.269 OA
BRANCH  23  26
ATOM     26  C   UNL A   1      41.914  20.810  26.630  1.00  0.00     0.039 A 
ATOM     27  C   UNL A   1      42.354  21.799  25.746  1.00  0.00     0.014 A 
ATOM     28  C   UNL A   1      41.856  21.077  27.997  1.00  0.00     0.014 A 
ATOM     29  C   UNL A   1      42.649  23.079  26.226  1.00  0.00     0.010 A 
ATOM     30  C   UNL A   1      42.049  22.377  28.459  1.00  0.00     0.010 A 
ATOM     31  C   UNL A   1      42.458  23.391  27.581  1.00  0.00    -0.014 A 
BRANCH  31  32
ATOM     32  C   UNL A   1      42.716  24.759  28.107  1.00  0.00     0.031 A 
ATOM     33  C   UNL A   1      44.114  25.162  28.499  1.00  0.00     0.074 A 
ATOM     34  C   UNL A   1      41.697  25.624  28.278  1.00  0.00     0.049 A 
ATOM     35  N   UNL A   1      44.536  26.286  29.021  1.00  0.00    -0.248 NA
ATOM     36  C   UNL A   1      45.174  24.158  28.307  1.00  0.00     0.031 C 
ATOM     37  C   UNL A   1      40.287  25.354  27.981  1.00  0.00     0.029 A 
ATOM     38  N   UNL A   1      41.693  26.917  28.743  1.00  0.00    -0.354 N 
ATOM     39  C   UNL A   1      45.900  26.116  29.231  1.00  0.00     0.074 A 
ATOM     40  C   UNL A   1      46.221  24.761  28.847  1.00  0.00     0.031 C 
ATOM     41  C   UNL A   1      39.564  26.459  28.233  1.00  0.00     0.029 A 
ATOM     42  C   UNL A   1      40.449  27.502  28.740  1.00  0.00     0.049 A 
ATOM     43  H   UNL A   1      42.505  27.381  29.051  1.00  0.00     0.167 HD
ATOM     44  C   UNL A   1      46.814  27.013  29.671  1.00  0.00     0.031 A 
ATOM     45  C   UNL A   1      40.067  28.743  29.096  1.00  0.00     0.031 A 
ATOM     46  C   UNL A   1      46.508  28.369  30.036  1.00  0.00     0.049 A 
ATOM     47  C   UNL A   1      41.104  29.721  29.582  1.00  0.00     0.074 A 
ATOM     48  C   UNL A   1      47.369  29.364  30.466  1.00  0.00     0.029 A 
ATOM     49  N   UNL A   1      45.240  28.926  29.997  1.00  0.00    -0.354 N 
ATOM     50  N   UNL A   1      42.396  29.556  29.726  1.00  0.00    -0.248 NA
ATOM     51  C   UNL A   1      40.625  31.066  29.934  1.00  0.00     0.031 C 
ATOM     52  C   UNL A   1      46.615  30.516  30.716  1.00  0.00     0.029 A 
ATOM     53  C   UNL A   1      45.294  30.250  30.395  1.00  0.00     0.049 A 
ATOM     54  H   UNL A   1      44.422  28.449  29.727  1.00  0.00     0.167 HD
ATOM     55  C   UNL A   1      42.889  30.786  30.144  1.00  0.00     0.074 A 
ATOM     56  C   UNL A   1      41.759  31.689  30.215  1.00  0.00     0.031 C 
ATOM     57  C   UNL A   1      44.163  31.138  30.443  1.00  0.00     0.031 A 
BRANCH  44  58
ATOM     58  C   UNL A   1      48.241  26.549  29.759  1.00  0.00    -0.014 A 
ATOM     59  C   UNL A   1      49.125  26.731  28.683  1.00  0.00     0.009 A 
ATOM     60  C   UNL A   1      48.715  25.942  30.932  1.00  0.00     0.009 A 
ATOM     61  C   UNL A   1      50.443  26.279  28.763  1.00  0.00     0.001 A 
ATOM     62  C   UNL A   1      50.043  25.518  31.021  1.00  0.00     0.001 A 
ATOM     63  C   UNL A   1      50.902  25.676  29.934  1.00  0.00     0.000 A 
ENDBRANCH  44  58
BRANCH  45  64
ATOM     64  C   UNL A   1      38.646  29.165  28.977  1.00  0.00    -0.014 A 
ATOM     65  C   UNL A   1      37.783  29.063  30.081  1.00  0.00     0.009 A 
ATOM     66  C   UNL A   1      38.131  29.621  27.755  1.00  0.00     0.009 A 
ATOM     67  C   UNL A   1      36.426  29.366  29.951  1.00  0.00     0.001 A 
ATOM     68  C   UNL A   1      36.779  29.954  27.636  1.00  0.00     0.001 A 
ATOM     69  C   UNL A   1      35.925  29.812  28.729  1.00  0.00     0.000 A 
ENDBRANCH  45  64
BRANCH  57  70
ATOM     70  C   UNL A   1      44.407  32.574  30.811  1.00  0.00    -0.014 A 
ATOM     71  C   UNL A   1      44.350  33.010  32.144  1.00  0.00     0.009 A 
ATOM     72  C   UNL A   1      44.711  33.502  29.803  1.00  0.00     0.009 A 
ATOM     73  C   UNL A   1      44.547  34.358  32.454  1.00  0.00     0.001 A 
ATOM     74  C   UNL A   1      44.938  34.843  30.119  1.00  0.00     0.001 A 
ATOM     75  C   UNL A   1      44.842  35.272  31.442  1.00  0.00     0.000 A 
ENDBRANCH  57  70
ENDBRANCH  31  32
ENDBRANCH  23  26
ENDBRANCH  21  22
ENDBRANCH  20  21
ENDBRANCH   1  20
TORSDOF 13
ENDMDL
MODEL 2
REMARK VINA RESULT:     -10.2      1.278      2.955
REMARK SMILES CCC1C[NH+]([C@H]2COC[C@@]2(C)C(=O)NCCCCNC(=O)c2ccc(-c3c4nc(c(-c5ccccc5)c5ccc([nH]5)c(-c5ccccc5)c5nc(c(-c6ccccc6)c6ccc3[nH]6)C=C5)C=C4)cc2)C1
REMARK SMILES IDX 16 1 15 2 14 3 12 4 13 5 10 7 6 8 7 9 8 10 9 11 11 12 5 13
REMARK SMILES IDX 3 14 4 15 70 16 2 18 1 19 17 20 18 21 19 22 20 23 21 25
REMARK SMILES IDX 22 26 23 27 69 28 24 29 68 30 25 31 26 32 27 33 62 34 28 35
REMARK SMILES IDX 67 36 61 37 63 38 29 39 66 40 60 41 59 42 30 44 52 45 37 46
REMARK SMILES IDX 51 47 38 48 41 49 50 50 64 51 39 52 40 53 49 55 65 56 42 57
REMARK SMILES IDX 31 58 32 59 36 60 33 61 35 62 34 63 53 64 54 65 58 66 55 67
REMARK SMILES IDX 57 68 56 69 43 70 44 71 48 72 45 73 47 74 46 75
REMARK H PARENT 14 6 5 17 19 24 63 43 41 54
REMARK Flexibility Score: inf
ROOT
ATOM      1  C   UNL A   1      38.844  22.518  26.173  1.00  0.00     0.023 C 
ENDROOT
BRANCH   1   2
ATOM      2  C   UNL A   1      37.863  23.544  25.628  1.00  0.00     0.116 C 
BRANCH   2   3
ATOM      3  N   UNL A   1      37.206  23.191  24.387  1.00  0.00    -0.355 N 
ATOM      4  C   UNL A   1      35.891  23.375  24.048  1.00  0.00     0.234 C 
ATOM      5  O   UNL A   1      35.615  23.261  22.848  1.00  0.00    -0.274 OA
ATOM      6  H   UNL A   1      37.773  22.768  23.702  1.00  0.00     0.163 HD
BRANCH   4   7
ATOM      7  C   UNL A   1      34.773  23.532  25.098  1.00  0.00     0.123 C 
ATOM      8  C   UNL A   1      33.483  22.699  24.973  1.00  0.00     0.228 C 
ATOM      9  C   UNL A   1      32.995  22.624  26.427  1.00  0.00     0.226 C 
ATOM     10  O   UNL A   1      34.144  22.706  27.274  1.00  0.00    -0.374 OA
ATOM     11  C   UNL A   1      35.283  23.049  26.465  1.00  0.00     0.183 C 
ATOM     12  C   UNL A   1      34.454  25.040  25.178  1.00  0.00     0.031 C 
BRANCH   8  13
ATOM     13  N   UNL A   1      33.682  21.441  24.250  1.00  0.00    -0.329 N 
ATOM     14  C   UNL A   1      33.234  19.430  24.001  1.00  0.00     0.099 C 
ATOM     15  C   UNL A   1      32.424  20.753  23.894  1.00  0.00     0.271 C 
ATOM     16  C   UNL A   1      34.117  20.246  25.002  1.00  0.00     0.271 C 
ATOM     17  H   UNL A   1      34.319  21.822  23.551  1.00  0.00     0.348 HD
BRANCH  14  18
ATOM     18  C   UNL A   1      32.490  18.162  24.388  1.00  0.00     0.012 C 
ATOM     19  C   UNL A   1      33.139  16.895  23.865  1.00  0.00     0.004 C 
ENDBRANCH  14  18
ENDBRANCH   8  13
ENDBRANCH   4   7
ENDBRANCH   2   3
ENDBRANCH   1   2
BRANCH   1  20
ATOM     20  C   UNL A   1      38.922  21.193  25.418  1.00  0.00     0.023 C 
BRANCH  20  21
ATOM     21  C   UNL A   1      39.228  19.942  26.240  1.00  0.00     0.116 C 
BRANCH  21  22
ATOM     22  N   UNL A   1      40.434  19.234  25.836  1.00  0.00    -0.352 N 
ATOM     23  C   UNL A   1      41.759  19.608  25.908  1.00  0.00     0.251 C 
ATOM     24  H   UNL A   1      40.277  18.343  25.448  1.00  0.00     0.163 HD
ATOM     25  O   UNL A   1      42.627  18.876  25.457  1.00  0.00    -0.269 OA
BRANCH  23  26
ATOM     26  C   UNL A   1      42.133  20.918  26.491  1.00  0.00     0.039 A 
ATOM     27  C   UNL A   1      42.524  21.951  25.634  1.00  0.00     0.014 A 
ATOM     28  C   UNL A   1      42.092  21.137  27.868  1.00  0.00     0.014 A 
ATOM     29  C   UNL A   1      42.787  23.223  26.153  1.00  0.00     0.010 A 
ATOM     30  C   UNL A   1      42.252  22.426  28.371  1.00  0.00     0.010 A 
ATOM     31  C   UNL A   1      42.611  23.483  27.521  1.00  0.00    -0.014 A 
BRANCH  31  32
ATOM     32  C   UNL A   1      42.835  24.839  28.089  1.00  0.00     0.031 A 
ATOM     33  C   UNL A   1      44.221  25.261  28.505  1.00  0.00     0.074 A 
ATOM     34  C   UNL A   1      41.796  25.677  28.277  1.00  0.00     0.049 A 
ATOM     35  N   UNL A   1      44.614  26.379  29.063  1.00  0.00    -0.248 NA
ATOM     36  C   UNL A   1      45.304  24.287  28.292  1.00  0.00     0.031 C 
ATOM     37  C   UNL A   1      40.395  25.386  27.960  1.00  0.00     0.029 A 
ATOM     38  N   UNL A   1      41.760  26.956  28.779  1.00  0.00    -0.354 N 
ATOM     39  C   UNL A   1      45.980  26.232  29.280  1.00  0.00     0.074 A 
ATOM     40  C   UNL A   1      46.334  24.896  28.859  1.00  0.00     0.031 C 
ATOM     41  C   UNL A   1      39.647  26.466  28.238  1.00  0.00     0.029 A 
ATOM     42  C   UNL A   1      40.504  27.513  28.782  1.00  0.00     0.049 A 
ATOM     43  H   UNL A   1      42.559  27.427  29.108  1.00  0.00     0.167 HD
ATOM     44  C   UNL A   1      46.871  27.135  29.754  1.00  0.00     0.031 A 
ATOM     45  C   UNL A   1      40.093  28.734  29.172  1.00  0.00     0.031 A 
ATOM     46  C   UNL A   1      46.532  28.472  30.155  1.00  0.00     0.049 A 
ATOM     47  C   UNL A   1      41.103  29.720  29.695  1.00  0.00     0.074 A 
ATOM     48  C   UNL A   1      47.368  29.473  30.622  1.00  0.00     0.029 A 
ATOM     49  N   UNL A   1      45.252  29.002  30.122  1.00  0.00    -0.354 N 
ATOM     50  N   UNL A   1      42.398  29.578  29.846  1.00  0.00    -0.248 NA
ATOM     51  C   UNL A   1      40.592  31.043  30.083  1.00  0.00     0.031 C 
ATOM     52  C   UNL A   1      46.587  30.600  30.899  1.00  0.00     0.029 A 
ATOM     53  C   UNL A   1      45.274  30.315  30.559  1.00  0.00     0.049 A 
ATOM     54  H   UNL A   1      44.447  28.516  29.831  1.00  0.00     0.167 HD
ATOM     55  C   UNL A   1      42.860  30.806  30.304  1.00  0.00     0.074 A 
ATOM     56  C   UNL A   1      41.710  31.682  30.391  1.00  0.00     0.031 C 
ATOM     57  C   UNL A   1      44.124  31.177  30.624  1.00  0.00     0.031 A 
BRANCH  44  58
ATOM     58  C   UNL A   1      48.307  26.700  29.840  1.00  0.00    -0.014 A 
ATOM     59  C   UNL A   1      49.195  26.931  28.777  1.00  0.00     0.009 A 
ATOM     60  C   UNL A   1      48.785  26.070  30.999  1.00  0.00     0.009 A 
ATOM     61  C   UNL A   1      50.522  26.506  28.856  1.00  0.00     0.001 A 
ATOM     62  C   UNL A   1      50.121  25.672  31.087  1.00  0.00     0.001 A 
ATOM     63  C   UNL A   1      50.985  25.880  30.012  1.00  0.00     0.000 A 
ENDBRANCH  44  58
BRANCH  45  64
ATOM     64  C   UNL A   1      38.663  29.128  29.053  1.00  0.00    -0.014 A 
ATOM     65  C   UNL A   1      38.177  29.673  27.852  1.00  0.00     0.009 A 
ATOM     66  C   UNL A   1      37.792  29.012  30.145  1.00  0.00     0.009 A 
ATOM     67  C   UNL A   1      36.861  30.133  27.764  1.00  0.00     0.001 A 
ATOM     68  C   UNL A   1      36.466  29.445  30.044  1.00  0.00     0.001 A 
ATOM     69  C   UNL A   1      36.007  30.018  28.859  1.00  0.00     0.000 A 
ENDBRANCH  45  64
BRANCH  57  70
ATOM     70  C   UNL A   1      44.333  32.607  31.036  1.00  0.00    -0.014 A 
ATOM     71  C   UNL A   1      44.609  33.609  30.093  1.00  0.00     0.009 A 
ATOM     72  C   UNL A   1      44.241  32.954  32.393  1.00  0.00     0.009 A 
ATOM     73  C   UNL A   1      44.834  34.923  30.507  1.00  0.00     0.001 A 
ATOM     74  C   UNL A   1      44.435  34.275  32.801  1.00  0.00     0.001 A 
ATOM     75  C   UNL A   1      44.745  35.255  31.859  1.00  0.00     0.000 A 
ENDBRANCH  57  70
ENDBRANCH  31  32
ENDBRANCH  23  26
ENDBRANCH  21  22
ENDBRANCH  20  21
ENDBRANCH   1  20
TORSDOF 13
ENDMDL
MODEL 3
REMARK VINA RESULT:     -10.1      1.954      7.505
REMARK SMILES CCC1C[NH+]([C@H]2COC[C@@]2(C)C(=O)NCCCCNC(=O)c2ccc(-c3c4nc(c(-c5ccccc5)c5ccc([nH]5)c(-c5ccccc5)c5nc(c(-c6ccccc6)c6ccc3[nH]6)C=C5)C=C4)cc2)C1
REMARK SMILES IDX 16 1 15 2 14 3 12 4 13 5 10 7 6 8 7 9 8 10 9 11 11 12 5 13
REMARK SMILES IDX 3 14 4 15 70 16 2 18 1 19 17 20 18 21 19 22 20 23 21 25
REMARK SMILES IDX 22 26 23 27 69 28 24 29 68 30 25 31 26 32 27 33 62 34 28 35
REMARK SMILES IDX 67 36 61 37 63 38 29 39 66 40 60 41 59 42 30 44 52 45 37 46
REMARK SMILES IDX 51 47 38 48 41 49 50 50 64 51 39 52 40 53 49 55 65 56 42 57
REMARK SMILES IDX 31 58 32 59 36 60 33 61 35 62 34 63 53 64 54 65 58 66 55 67
REMARK SMILES IDX 57 68 56 69 43 70 44 71 48 72 45 73 47 74 46 75
REMARK H PARENT 14 6 5 17 19 24 63 43 41 54
REMARK Flexibility Score: inf
ROOT
ATOM      1  C   UNL A   1      32.025  27.628  25.545  1.00  0.00     0.023 C 
ENDROOT
BRANCH   1   2
ATOM      2  C   UNL A   1      31.212  26.387  25.211  1.00  0.00     0.116 C 
BRANCH   2   3
ATOM      3  N   UNL A   1      31.021  25.447  26.294  1.00  0.00    -0.355 N 
ATOM      4  C   UNL A   1      31.439  24.144  26.363  1.00  0.00     0.234 C 
ATOM      5  O   UNL A   1      31.416  23.621  27.483  1.00  0.00    -0.274 OA
ATOM      6  H   UNL A   1      30.531  25.784  27.078  1.00  0.00     0.163 HD
BRANCH   4   7
ATOM      7  C   UNL A   1      31.748  23.300  25.110  1.00  0.00     0.123 C 
ATOM      8  C   UNL A   1      33.184  23.257  24.552  1.00  0.00     0.228 C 
ATOM      9  C   UNL A   1      33.216  21.903  23.827  1.00  0.00     0.226 C 
ATOM     10  O   UNL A   1      32.293  21.034  24.490  1.00  0.00    -0.374 OA
ATOM     11  C   UNL A   1      31.530  21.812  25.429  1.00  0.00     0.183 C 
ATOM     12  C   UNL A   1      30.743  23.740  24.024  1.00  0.00     0.031 C 
BRANCH   8  13
ATOM     13  N   UNL A   1      34.202  23.514  25.572  1.00  0.00    -0.329 N 
ATOM     14  C   UNL A   1      36.202  23.693  26.099  1.00  0.00     0.099 C 
ATOM     15  C   UNL A   1      35.249  24.464  25.142  1.00  0.00     0.271 C 
ATOM     16  C   UNL A   1      35.240  22.491  25.819  1.00  0.00     0.271 C 
ATOM     17  H   UNL A   1      33.546  23.719  26.325  1.00  0.00     0.348 HD
BRANCH  14  18
ATOM     18  C   UNL A   1      37.685  23.669  25.768  1.00  0.00     0.012 C 
ATOM     19  C   UNL A   1      38.304  22.288  25.860  1.00  0.00     0.004 C 
ENDBRANCH  14  18
ENDBRANCH   8  13
ENDBRANCH   4   7
ENDBRANCH   2   3
ENDBRANCH   1   2
BRANCH   1  20
ATOM     20  C   UNL A   1      32.712  27.635  26.909  1.00  0.00     0.023 C 
BRANCH  20  21
ATOM     21  C   UNL A   1      33.954  28.510  27.056  1.00  0.00     0.116 C 
BRANCH  21  22
ATOM     22  N   UNL A   1      33.695  29.847  27.573  1.00  0.00    -0.352 N 
ATOM     23  C   UNL A   1      34.522  30.727  28.237  1.00  0.00     0.251 C 
ATOM     24  H   UNL A   1      32.778  30.174  27.424  1.00  0.00     0.163 HD
ATOM     25  O   UNL A   1      34.084  31.795  28.638  1.00  0.00    -0.269 OA
BRANCH  23  26
ATOM     26  C   UNL A   1      35.934  30.365  28.506  1.00  0.00     0.039 A 
ATOM     27  C   UNL A   1      36.258  29.780  29.734  1.00  0.00     0.014 A 
ATOM     28  C   UNL A   1      36.933  30.587  27.558  1.00  0.00     0.014 A 
ATOM     29  C   UNL A   1      37.564  29.341  29.972  1.00  0.00     0.010 A 
ATOM     30  C   UNL A   1      38.206  30.058  27.754  1.00  0.00     0.010 A 
ATOM     31  C   UNL A   1      38.540  29.436  28.967  1.00  0.00    -0.014 A 
BRANCH  31  32
ATOM     32  C   UNL A   1      39.923  28.930  29.177  1.00  0.00     0.031 A 
ATOM     33  C   UNL A   1      40.952  29.808  29.841  1.00  0.00     0.074 A 
ATOM     34  C   UNL A   1      40.273  27.707  28.734  1.00  0.00     0.049 A 
ATOM     35  N   UNL A   1      42.219  29.570  30.071  1.00  0.00    -0.248 NA
ATOM     36  C   UNL A   1      40.505  31.141  30.279  1.00  0.00     0.031 C 
ATOM     37  C   UNL A   1      39.392  26.766  28.035  1.00  0.00     0.029 A 
ATOM     38  N   UNL A   1      41.472  27.039  28.810  1.00  0.00    -0.354 N 
ATOM     39  C   UNL A   1      42.718  30.726  30.663  1.00  0.00     0.074 A 
ATOM     40  C   UNL A   1      41.639  31.686  30.694  1.00  0.00     0.031 C 
ATOM     41  C   UNL A   1      40.068  25.632  27.785  1.00  0.00     0.029 A 
ATOM     42  C   UNL A   1      41.435  25.775  28.272  1.00  0.00     0.049 A 
ATOM     43  H   UNL A   1      42.281  27.430  29.212  1.00  0.00     0.167 HD
ATOM     44  C   UNL A   1      43.952  30.961  31.170  1.00  0.00     0.031 A 
ATOM     45  C   UNL A   1      42.395  24.834  28.190  1.00  0.00     0.031 A 
ATOM     46  C   UNL A   1      45.025  30.006  31.163  1.00  0.00     0.049 A 
ATOM     47  C   UNL A   1      43.758  25.121  28.760  1.00  0.00     0.074 A 
ATOM     48  C   UNL A   1      46.304  30.138  31.677  1.00  0.00     0.029 A 
ATOM     49  N   UNL A   1      44.939  28.730  30.627  1.00  0.00    -0.354 N 
ATOM     50  N   UNL A   1      44.195  26.201  29.360  1.00  0.00    -0.248 NA
ATOM     51  C   UNL A   1      44.754  24.044  28.657  1.00  0.00     0.031 C 
ATOM     52  C   UNL A   1      47.001  28.952  31.425  1.00  0.00     0.029 A 
ATOM     53  C   UNL A   1      46.141  28.065  30.798  1.00  0.00     0.049 A 
ATOM     54  H   UNL A   1      44.141  28.355  30.189  1.00  0.00     0.167 HD
ATOM     55  C   UNL A   1      45.501  25.918  29.743  1.00  0.00     0.074 A 
ATOM     56  C   UNL A   1      45.777  24.561  29.321  1.00  0.00     0.031 C 
ATOM     57  C   UNL A   1      46.393  26.710  30.387  1.00  0.00     0.031 A 
BRANCH  44  58
ATOM     58  C   UNL A   1      44.191  32.307  31.793  1.00  0.00    -0.014 A 
ATOM     59  C   UNL A   1      44.662  33.384  31.023  1.00  0.00     0.009 A 
ATOM     60  C   UNL A   1      43.928  32.511  33.156  1.00  0.00     0.009 A 
ATOM     61  C   UNL A   1      44.903  34.626  31.613  1.00  0.00     0.001 A 
ATOM     62  C   UNL A   1      44.142  33.764  33.737  1.00  0.00     0.001 A 
ATOM     63  C   UNL A   1      44.638  34.816  32.969  1.00  0.00     0.000 A 
ENDBRANCH  44  58
BRANCH  45  64
ATOM     64  C   UNL A   1      42.109  23.508  27.579  1.00  0.00    -0.014 A 
ATOM     65  C   UNL A   1      41.562  22.474  28.357  1.00  0.00     0.009 A 
ATOM     66  C   UNL A   1      42.423  23.251  26.237  1.00  0.00     0.009 A 
ATOM     67  C   UNL A   1      41.380  21.199  27.817  1.00  0.00     0.001 A 
ATOM     68  C   UNL A   1      42.211  21.983  25.689  1.00  0.00     0.001 A 
ATOM     69  C   UNL A   1      41.704  20.955  26.483  1.00  0.00     0.000 A 
ENDBRANCH  45  64
BRANCH  57  70
ATOM     70  C   UNL A   1      47.724  26.103  30.728  1.00  0.00    -0.014 A 
ATOM     71  C   UNL A   1      48.013  25.649  32.024  1.00  0.00     0.009 A 
ATOM     72  C   UNL A   1      48.701  25.976  29.727  1.00  0.00     0.009 A 
ATOM     73  C   UNL A   1      49.271  25.121  32.322  1.00  0.00     0.001 A 
ATOM     74  C   UNL A   1      49.947  25.420  30.020  1.00  0.00     0.001 A 
ATOM     75  C   UNL A   1      50.235  25.005  31.320  1.00  0.00     0.000 A 
ENDBRANCH  57  70
ENDBRANCH  31  32
ENDBRANCH  23  26
ENDBRANCH  21  22
ENDBRANCH  20  21
ENDBRANCH   1  20
TORSDOF 13
ENDMDL
