MODEL 1
REMARK VINA RESULT:     -10.1      0.000      0.000
REMARK SMILES CCNC(=O)NC(=O)[C@@H](C)[N@H+](C)CC(=O)NCCCCNC(=O)c1ccc(-c2c3nc(c(-c4ccccc4)c4ccc([nH]4)c(-c4ccccc4)c4nc(c(-c5ccccc5)c5ccc2[nH]5)C=C4)C=C3)cc1
REMARK SMILES IDX 17 1 16 2 14 3 15 4 13 6 11 7 12 8 9 10 10 11 7 12 3 13 4 14
REMARK SMILES IDX 5 16 6 17 8 19 2 20 1 21 18 22 19 23 20 24 21 25 22 26 23 28
REMARK SMILES IDX 24 29 25 30 71 31 26 32 70 33 27 34 28 35 29 36 64 37 30 38
REMARK SMILES IDX 69 39 63 40 65 41 31 42 68 43 62 44 61 45 32 47 54 48 39 49
REMARK SMILES IDX 53 50 40 51 43 52 52 53 66 54 41 55 42 56 51 58 67 59 44 60
REMARK SMILES IDX 33 61 34 62 38 63 35 64 37 65 36 66 55 67 56 68 60 69 57 70
REMARK SMILES IDX 59 71 58 72 45 73 46 74 50 75 47 76 49 77 48 78
REMARK H PARENT 16 5 11 9 3 15 6 18 21 27 65 46 43 57
REMARK Flexibility Score: inf
ROOT
ATOM      1  C   UNL A   1      32.788  29.663  25.790  1.00  0.00     0.116 C 
ENDROOT
BRANCH   1   2
ATOM      2  N   UNL A   1      33.578  29.507  24.591  1.00  0.00    -0.351 N 
ATOM      3  C   UNL A   1      33.642  28.471  23.702  1.00  0.00     0.275 C 
ATOM      4  O   UNL A   1      34.163  28.729  22.611  1.00  0.00    -0.269 OA
ATOM      5  H   UNL A   1      34.166  30.270  24.382  1.00  0.00     0.163 HD
BRANCH   3   6
ATOM      6  C   UNL A   1      33.064  27.061  23.983  1.00  0.00     0.363 C 
BRANCH   6   7
ATOM      7  N   UNL A   1      31.640  26.953  23.585  1.00  0.00    -0.320 N 
ATOM      8  C   UNL A   1      31.546  26.366  22.227  1.00  0.00     0.333 C 
ATOM      9  H   UNL A   1      31.308  27.915  23.649  1.00  0.00     0.348 HD
BRANCH   7  10
ATOM     10  C   UNL A   1      30.741  26.148  24.471  1.00  0.00     0.271 C 
ATOM     11  C   UNL A   1      29.248  26.424  24.222  1.00  0.00     0.086 C 
BRANCH  10  12
ATOM     12  C   UNL A   1      31.008  26.035  25.972  1.00  0.00     0.285 C 
ATOM     13  N   UNL A   1      32.287  22.969  25.640  1.00  0.00    -0.338 N 
ATOM     14  C   UNL A   1      31.877  23.662  26.703  1.00  0.00     0.321 C 
ATOM     15  H   UNL A   1      32.346  21.998  25.795  1.00  0.00     0.165 HD
ATOM     16  O   UNL A   1      31.814  23.079  27.789  1.00  0.00    -0.248 OA
ATOM     17  N   UNL A   1      31.534  24.983  26.687  1.00  0.00    -0.273 N 
ATOM     18  H   UNL A   1      31.765  25.340  27.574  1.00  0.00     0.175 HD
ATOM     19  O   UNL A   1      30.754  27.038  26.667  1.00  0.00    -0.268 OA
BRANCH  13  20
ATOM     20  C   UNL A   1      32.658  23.369  24.314  1.00  0.00     0.114 C 
ATOM     21  C   UNL A   1      32.649  22.216  23.334  1.00  0.00     0.027 C 
ENDBRANCH  13  20
ENDBRANCH  10  12
ENDBRANCH   7  10
ENDBRANCH   6   7
ENDBRANCH   3   6
ENDBRANCH   1   2
BRANCH   1  22
ATOM     22  C   UNL A   1      31.454  30.388  25.588  1.00  0.00     0.023 C 
BRANCH  22  23
ATOM     23  C   UNL A   1      31.236  31.669  26.388  1.00  0.00     0.023 C 
BRANCH  23  24
ATOM     24  C   UNL A   1      32.469  32.269  27.038  1.00  0.00     0.116 C 
BRANCH  24  25
ATOM     25  N   UNL A   1      32.276  33.630  27.513  1.00  0.00    -0.352 N 
ATOM     26  C   UNL A   1      33.076  34.387  28.337  1.00  0.00     0.251 C 
ATOM     27  H   UNL A   1      31.455  34.073  27.200  1.00  0.00     0.163 HD
ATOM     28  O   UNL A   1      32.711  35.496  28.697  1.00  0.00    -0.269 OA
BRANCH  26  29
ATOM     29  C   UNL A   1      34.361  33.834  28.816  1.00  0.00     0.039 A 
ATOM     30  C   UNL A   1      34.356  32.992  29.930  1.00  0.00     0.014 A 
ATOM     31  C   UNL A   1      35.559  34.126  28.161  1.00  0.00     0.014 A 
ATOM     32  C   UNL A   1      35.547  32.398  30.351  1.00  0.00     0.010 A 
ATOM     33  C   UNL A   1      36.721  33.450  28.513  1.00  0.00     0.010 A 
ATOM     34  C   UNL A   1      36.733  32.600  29.627  1.00  0.00    -0.014 A 
BRANCH  34  35
ATOM     35  C   UNL A   1      38.011  31.975  30.051  1.00  0.00     0.031 A 
ATOM     36  C   UNL A   1      38.884  32.672  31.060  1.00  0.00     0.074 A 
ATOM     37  C   UNL A   1      38.404  30.808  29.502  1.00  0.00     0.049 A 
ATOM     38  N   UNL A   1      40.048  32.310  31.536  1.00  0.00    -0.248 NA
ATOM     39  C   UNL A   1      38.401  33.964  31.579  1.00  0.00     0.031 C 
ATOM     40  C   UNL A   1      37.668  30.056  28.484  1.00  0.00     0.029 A 
ATOM     41  N   UNL A   1      39.523  30.049  29.730  1.00  0.00    -0.354 N 
ATOM     42  C   UNL A   1      40.437  33.334  32.391  1.00  0.00     0.074 A 
ATOM     43  C   UNL A   1      39.426  34.363  32.314  1.00  0.00     0.031 C 
ATOM     44  C   UNL A   1      38.332  28.922  28.208  1.00  0.00     0.029 A 
ATOM     45  C   UNL A   1      39.560  28.888  28.996  1.00  0.00     0.049 A 
ATOM     46  H   UNL A   1      40.234  30.311  30.359  1.00  0.00     0.167 HD
ATOM     47  C   UNL A   1      41.524  33.401  33.196  1.00  0.00     0.031 A 
ATOM     48  C   UNL A   1      40.480  27.905  28.966  1.00  0.00     0.031 A 
ATOM     49  C   UNL A   1      42.522  32.371  33.282  1.00  0.00     0.049 A 
ATOM     50  C   UNL A   1      41.685  28.009  29.859  1.00  0.00     0.074 A 
ATOM     51  C   UNL A   1      43.639  32.316  34.098  1.00  0.00     0.029 A 
ATOM     52  N   UNL A   1      42.521  31.210  32.525  1.00  0.00    -0.354 N 
ATOM     53  N   UNL A   1      42.007  28.953  30.712  1.00  0.00    -0.248 NA
ATOM     54  C   UNL A   1      42.648  26.900  29.798  1.00  0.00     0.031 C 
ATOM     55  C   UNL A   1      44.342  31.147  33.793  1.00  0.00     0.029 A 
ATOM     56  C   UNL A   1      43.627  30.440  32.839  1.00  0.00     0.049 A 
ATOM     57  H   UNL A   1      41.834  30.969  31.861  1.00  0.00     0.167 HD
ATOM     58  C   UNL A   1      43.186  28.534  31.314  1.00  0.00     0.074 A 
ATOM     59  C   UNL A   1      43.514  27.245  30.739  1.00  0.00     0.031 C 
ATOM     60  C   UNL A   1      43.931  29.158  32.259  1.00  0.00     0.031 A 
BRANCH  47  61
ATOM     61  C   UNL A   1      41.682  34.635  34.043  1.00  0.00    -0.014 A 
ATOM     62  C   UNL A   1      41.132  34.707  35.335  1.00  0.00     0.009 A 
ATOM     63  C   UNL A   1      42.404  35.734  33.554  1.00  0.00     0.009 A 
ATOM     64  C   UNL A   1      41.266  35.869  36.099  1.00  0.00     0.001 A 
ATOM     65  C   UNL A   1      42.565  36.881  34.333  1.00  0.00     0.001 A 
ATOM     66  C   UNL A   1      41.986  36.952  35.600  1.00  0.00     0.000 A 
ENDBRANCH  47  61
BRANCH  48  67
ATOM     67  C   UNL A   1      40.287  26.723  28.085  1.00  0.00    -0.014 A 
ATOM     68  C   UNL A   1      39.591  25.594  28.547  1.00  0.00     0.009 A 
ATOM     69  C   UNL A   1      40.811  26.705  26.783  1.00  0.00     0.009 A 
ATOM     70  C   UNL A   1      39.455  24.463  27.739  1.00  0.00     0.001 A 
ATOM     71  C   UNL A   1      40.646  25.585  25.965  1.00  0.00     0.001 A 
ATOM     72  C   UNL A   1      39.980  24.460  26.449  1.00  0.00     0.000 A 
ENDBRANCH  48  67
BRANCH  60  73
ATOM     73  C   UNL A   1      45.143  28.428  32.770  1.00  0.00    -0.014 A 
ATOM     74  C   UNL A   1      46.409  28.614  32.196  1.00  0.00     0.009 A 
ATOM     75  C   UNL A   1      45.015  27.565  33.871  1.00  0.00     0.009 A 
ATOM     76  C   UNL A   1      47.515  27.916  32.687  1.00  0.00     0.001 A 
ATOM     77  C   UNL A   1      46.127  26.897  34.381  1.00  0.00     0.001 A 
ATOM     78  C   UNL A   1      47.373  27.063  33.781  1.00  0.00     0.000 A 
ENDBRANCH  60  73
ENDBRANCH  34  35
ENDBRANCH  26  29
ENDBRANCH  24  25
ENDBRANCH  23  24
ENDBRANCH  22  23
ENDBRANCH   1  22
TORSDOF 15
ENDMDL
MODEL 2
REMARK VINA RESULT:     -10.1      0.608      6.122
REMARK SMILES CCNC(=O)NC(=O)[C@@H](C)[N@H+](C)CC(=O)NCCCCNC(=O)c1ccc(-c2c3nc(c(-c4ccccc4)c4ccc([nH]4)c(-c4ccccc4)c4nc(c(-c5ccccc5)c5ccc2[nH]5)C=C4)C=C3)cc1
REMARK SMILES IDX 17 1 16 2 14 3 15 4 13 6 11 7 12 8 9 10 10 11 7 12 3 13 4 14
REMARK SMILES IDX 5 16 6 17 8 19 2 20 1 21 18 22 19 23 20 24 21 25 22 26 23 28
REMARK SMILES IDX 24 29 25 30 71 31 26 32 70 33 27 34 28 35 29 36 64 37 30 38
REMARK SMILES IDX 69 39 63 40 65 41 31 42 68 43 62 44 61 45 32 47 54 48 39 49
REMARK SMILES IDX 53 50 40 51 43 52 52 53 66 54 41 55 42 56 51 58 67 59 44 60
REMARK SMILES IDX 33 61 34 62 38 63 35 64 37 65 36 66 55 67 56 68 60 69 57 70
REMARK SMILES IDX 59 71 58 72 45 73 46 74 50 75 47 76 49 77 48 78
REMARK H PARENT 16 5 11 9 3 15 6 18 21 27 65 46 43 57
REMARK Flexibility Score: inf
ROOT
ATOM      1  C   UNL A   1      32.975  29.594  25.952  1.00  0.00     0.116 C 
ENDROOT
BRANCH   1   2
ATOM      2  N   UNL A   1      33.748  29.448  24.741  1.00  0.00    -0.351 N 
ATOM      3  C   UNL A   1      33.779  28.431  23.827  1.00  0.00     0.275 C 
ATOM      4  O   UNL A   1      34.292  28.703  22.736  1.00  0.00    -0.269 OA
ATOM      5  H   UNL A   1      34.351  30.202  24.542  1.00  0.00     0.163 HD
BRANCH   3   6
ATOM      6  C   UNL A   1      33.171  27.029  24.083  1.00  0.00     0.363 C 
BRANCH   6   7
ATOM      7  N   UNL A   1      31.738  26.966  23.711  1.00  0.00    -0.320 N 
ATOM      8  C   UNL A   1      31.605  26.454  22.325  1.00  0.00     0.333 C 
ATOM      9  H   UNL A   1      31.424  27.928  23.833  1.00  0.00     0.348 HD
BRANCH   7  10
ATOM     10  C   UNL A   1      30.844  26.129  24.572  1.00  0.00     0.271 C 
ATOM     11  C   UNL A   1      29.349  26.397  24.325  1.00  0.00     0.086 C 
BRANCH  10  12
ATOM     12  C   UNL A   1      31.107  25.978  26.070  1.00  0.00     0.285 C 
ATOM     13  N   UNL A   1      32.341  22.901  25.670  1.00  0.00    -0.338 N 
ATOM     14  C   UNL A   1      31.939  23.577  26.748  1.00  0.00     0.321 C 
ATOM     15  H   UNL A   1      32.385  21.926  25.804  1.00  0.00     0.165 HD
ATOM     16  O   UNL A   1      31.867  22.971  27.821  1.00  0.00    -0.248 OA
ATOM     17  N   UNL A   1      31.617  24.902  26.761  1.00  0.00    -0.273 N 
ATOM     18  H   UNL A   1      31.852  25.236  27.657  1.00  0.00     0.175 HD
ATOM     19  O   UNL A   1      30.868  26.969  26.787  1.00  0.00    -0.268 OA
BRANCH  13  20
ATOM     20  C   UNL A   1      32.719  23.326  24.354  1.00  0.00     0.114 C 
ATOM     21  C   UNL A   1      33.173  22.177  23.479  1.00  0.00     0.027 C 
ENDBRANCH  13  20
ENDBRANCH  10  12
ENDBRANCH   7  10
ENDBRANCH   6   7
ENDBRANCH   3   6
ENDBRANCH   1   2
BRANCH   1  22
ATOM     22  C   UNL A   1      31.672  30.380  25.790  1.00  0.00     0.023 C 
BRANCH  22  23
ATOM     23  C   UNL A   1      31.454  31.560  26.733  1.00  0.00     0.023 C 
BRANCH  23  24
ATOM     24  C   UNL A   1      32.701  32.314  27.157  1.00  0.00     0.116 C 
BRANCH  24  25
ATOM     25  N   UNL A   1      32.441  33.680  27.583  1.00  0.00    -0.352 N 
ATOM     26  C   UNL A   1      33.159  34.476  28.446  1.00  0.00     0.251 C 
ATOM     27  H   UNL A   1      31.635  34.096  27.200  1.00  0.00     0.163 HD
ATOM     28  O   UNL A   1      32.742  35.583  28.751  1.00  0.00    -0.269 OA
BRANCH  26  29
ATOM     29  C   UNL A   1      34.418  33.966  29.032  1.00  0.00     0.039 A 
ATOM     30  C   UNL A   1      34.351  33.171  30.178  1.00  0.00     0.014 A 
ATOM     31  C   UNL A   1      35.653  34.252  28.445  1.00  0.00     0.014 A 
ATOM     32  C   UNL A   1      35.521  32.618  30.701  1.00  0.00     0.010 A 
ATOM     33  C   UNL A   1      36.798  33.612  28.901  1.00  0.00     0.010 A 
ATOM     34  C   UNL A   1      36.749  32.810  30.049  1.00  0.00    -0.014 A 
BRANCH  34  35
ATOM     35  C   UNL A   1      38.005  32.226  30.583  1.00  0.00     0.031 A 
ATOM     36  C   UNL A   1      38.541  30.947  29.997  1.00  0.00     0.074 A 
ATOM     37  C   UNL A   1      38.637  32.819  31.615  1.00  0.00     0.049 A 
ATOM     38  N   UNL A   1      39.601  30.260  30.342  1.00  0.00    -0.248 NA
ATOM     39  C   UNL A   1      37.766  30.340  28.900  1.00  0.00     0.031 C 
ATOM     40  C   UNL A   1      38.195  34.037  32.296  1.00  0.00     0.029 A 
ATOM     41  N   UNL A   1      39.793  32.474  32.268  1.00  0.00    -0.354 N 
ATOM     42  C   UNL A   1      39.606  29.141  29.518  1.00  0.00     0.074 A 
ATOM     43  C   UNL A   1      38.410  29.200  28.710  1.00  0.00     0.031 C 
ATOM     44  C   UNL A   1      39.093  34.363  33.241  1.00  0.00     0.029 A 
ATOM     45  C   UNL A   1      40.148  33.356  33.261  1.00  0.00     0.049 A 
ATOM     46  H   UNL A   1      40.319  31.672  32.046  1.00  0.00     0.167 HD
ATOM     47  C   UNL A   1      40.538  28.164  29.417  1.00  0.00     0.031 A 
ATOM     48  C   UNL A   1      41.208  33.351  34.091  1.00  0.00     0.031 A 
ATOM     49  C   UNL A   1      41.734  28.114  30.213  1.00  0.00     0.049 A 
ATOM     50  C   UNL A   1      42.223  32.248  33.970  1.00  0.00     0.074 A 
ATOM     51  C   UNL A   1      42.768  27.195  30.161  1.00  0.00     0.029 A 
ATOM     52  N   UNL A   1      42.058  29.027  31.205  1.00  0.00    -0.354 N 
ATOM     53  N   UNL A   1      42.248  31.232  33.140  1.00  0.00    -0.248 NA
ATOM     54  C   UNL A   1      43.368  32.303  34.889  1.00  0.00     0.031 C 
ATOM     55  C   UNL A   1      43.689  27.522  31.160  1.00  0.00     0.029 A 
ATOM     56  C   UNL A   1      43.265  28.683  31.787  1.00  0.00     0.049 A 
ATOM     57  H   UNL A   1      41.508  29.804  31.458  1.00  0.00     0.167 HD
ATOM     58  C   UNL A   1      43.427  30.549  33.413  1.00  0.00     0.074 A 
ATOM     59  C   UNL A   1      44.095  31.276  34.473  1.00  0.00     0.031 C 
ATOM     60  C   UNL A   1      43.915  29.423  32.837  1.00  0.00     0.031 A 
BRANCH  47  61
ATOM     61  C   UNL A   1      40.292  27.074  28.410  1.00  0.00    -0.014 A 
ATOM     62  C   UNL A   1      40.808  27.158  27.105  1.00  0.00     0.009 A 
ATOM     63  C   UNL A   1      39.550  25.940  28.772  1.00  0.00     0.009 A 
ATOM     64  C   UNL A   1      40.549  26.149  26.174  1.00  0.00     0.001 A 
ATOM     65  C   UNL A   1      39.322  24.917  27.849  1.00  0.00     0.001 A 
ATOM     66  C   UNL A   1      39.811  25.028  26.548  1.00  0.00     0.000 A 
ENDBRANCH  47  61
BRANCH  48  67
ATOM     67  C   UNL A   1      41.384  34.439  35.090  1.00  0.00    -0.014 A 
ATOM     68  C   UNL A   1      40.821  34.330  36.371  1.00  0.00     0.009 A 
ATOM     69  C   UNL A   1      42.100  35.602  34.764  1.00  0.00     0.009 A 
ATOM     70  C   UNL A   1      40.941  35.374  37.291  1.00  0.00     0.001 A 
ATOM     71  C   UNL A   1      42.245  36.631  35.696  1.00  0.00     0.001 A 
ATOM     72  C   UNL A   1      41.655  36.522  36.955  1.00  0.00     0.000 A 
ENDBRANCH  48  67
BRANCH  60  73
ATOM     73  C   UNL A   1      45.260  28.941  33.304  1.00  0.00    -0.014 A 
ATOM     74  C   UNL A   1      45.388  28.037  34.369  1.00  0.00     0.009 A 
ATOM     75  C   UNL A   1      46.418  29.376  32.638  1.00  0.00     0.009 A 
ATOM     76  C   UNL A   1      46.652  27.614  34.786  1.00  0.00     0.001 A 
ATOM     77  C   UNL A   1      47.676  28.924  33.033  1.00  0.00     0.001 A 
ATOM     78  C   UNL A   1      47.794  28.053  34.115  1.00  0.00     0.000 A 
ENDBRANCH  60  73
ENDBRANCH  34  35
ENDBRANCH  26  29
ENDBRANCH  24  25
ENDBRANCH  23  24
ENDBRANCH  22  23
ENDBRANCH   1  22
TORSDOF 15
ENDMDL
MODEL 3
REMARK VINA RESULT:      -9.9      3.848      8.926
REMARK SMILES CCNC(=O)NC(=O)[C@@H](C)[N@H+](C)CC(=O)NCCCCNC(=O)c1ccc(-c2c3nc(c(-c4ccccc4)c4ccc([nH]4)c(-c4ccccc4)c4nc(c(-c5ccccc5)c5ccc2[nH]5)C=C4)C=C3)cc1
REMARK SMILES IDX 17 1 16 2 14 3 15 4 13 6 11 7 12 8 9 10 10 11 7 12 3 13 4 14
REMARK SMILES IDX 5 16 6 17 8 19 2 20 1 21 18 22 19 23 20 24 21 25 22 26 23 28
REMARK SMILES IDX 24 29 25 30 71 31 26 32 70 33 27 34 28 35 29 36 64 37 30 38
REMARK SMILES IDX 69 39 63 40 65 41 31 42 68 43 62 44 61 45 32 47 54 48 39 49
REMARK SMILES IDX 53 50 40 51 43 52 52 53 66 54 41 55 42 56 51 58 67 59 44 60
REMARK SMILES IDX 33 61 34 62 38 63 35 64 37 65 36 66 55 67 56 68 60 69 57 70
REMARK SMILES IDX 59 71 58 72 45 73 46 74 50 75 47 76 49 77 48 78
REMARK H PARENT 16 5 11 9 3 15 6 18 21 27 65 46 43 57
REMARK Flexibility Score: inf
ROOT
ATOM      1  C   UNL A   1      36.265  21.878  25.735  1.00  0.00     0.116 C 
ENDROOT
BRANCH   1   2
ATOM      2  N   UNL A   1      35.381  21.860  26.877  1.00  0.00    -0.351 N 
ATOM      3  C   UNL A   1      34.215  22.537  27.104  1.00  0.00     0.275 C 
ATOM      4  O   UNL A   1      33.510  22.102  28.021  1.00  0.00    -0.269 OA
ATOM      5  H   UNL A   1      35.665  21.266  27.610  1.00  0.00     0.163 HD
BRANCH   3   6
ATOM      6  C   UNL A   1      33.742  23.743  26.253  1.00  0.00     0.363 C 
BRANCH   6   7
ATOM      7  N   UNL A   1      32.434  23.489  25.603  1.00  0.00    -0.320 N 
ATOM      8  C   UNL A   1      31.337  23.866  26.527  1.00  0.00     0.333 C 
ATOM      9  H   UNL A   1      32.473  22.493  25.385  1.00  0.00     0.348 HD
BRANCH   7  10
ATOM     10  C   UNL A   1      32.170  24.185  24.304  1.00  0.00     0.271 C 
ATOM     11  C   UNL A   1      30.671  24.419  24.043  1.00  0.00     0.086 C 
BRANCH  10  12
ATOM     12  C   UNL A   1      32.861  23.740  23.015  1.00  0.00     0.285 C 
ATOM     13  N   UNL A   1      32.613  26.791  21.682  1.00  0.00    -0.338 N 
ATOM     14  C   UNL A   1      32.902  25.600  21.156  1.00  0.00     0.321 C 
ATOM     15  H   UNL A   1      32.329  27.462  21.020  1.00  0.00     0.165 HD
ATOM     16  O   UNL A   1      32.985  25.512  19.928  1.00  0.00    -0.248 OA
ATOM     17  N   UNL A   1      33.132  24.465  21.877  1.00  0.00    -0.273 N 
ATOM     18  H   UNL A   1      33.772  23.930  21.355  1.00  0.00     0.175 HD
ATOM     19  O   UNL A   1      33.282  22.568  22.977  1.00  0.00    -0.268 OA
BRANCH  13  20
ATOM     20  C   UNL A   1      32.639  27.279  23.031  1.00  0.00     0.114 C 
ATOM     21  C   UNL A   1      33.825  28.181  23.301  1.00  0.00     0.027 C 
ENDBRANCH  13  20
ENDBRANCH  10  12
ENDBRANCH   7  10
ENDBRANCH   6   7
ENDBRANCH   3   6
ENDBRANCH   1   2
BRANCH   1  22
ATOM     22  C   UNL A   1      36.425  20.531  25.026  1.00  0.00     0.023 C 
BRANCH  22  23
ATOM     23  C   UNL A   1      37.846  20.097  24.677  1.00  0.00     0.023 C 
BRANCH  23  24
ATOM     24  C   UNL A   1      38.899  20.342  25.742  1.00  0.00     0.116 C 
BRANCH  24  25
ATOM     25  N   UNL A   1      39.939  19.326  25.780  1.00  0.00    -0.352 N 
ATOM     26  C   UNL A   1      41.266  19.449  26.120  1.00  0.00     0.251 C 
ATOM     27  H   UNL A   1      39.652  18.419  25.525  1.00  0.00     0.163 HD
ATOM     28  O   UNL A   1      42.018  18.490  26.017  1.00  0.00    -0.269 OA
BRANCH  26  29
ATOM     29  C   UNL A   1      41.785  20.757  26.573  1.00  0.00     0.039 A 
ATOM     30  C   UNL A   1      42.229  21.671  25.616  1.00  0.00     0.014 A 
ATOM     31  C   UNL A   1      41.814  21.090  27.929  1.00  0.00     0.014 A 
ATOM     32  C   UNL A   1      42.651  22.940  26.017  1.00  0.00     0.010 A 
ATOM     33  C   UNL A   1      42.128  22.386  28.316  1.00  0.00     0.010 A 
ATOM     34  C   UNL A   1      42.575  23.317  27.368  1.00  0.00    -0.014 A 
BRANCH  34  35
ATOM     35  C   UNL A   1      43.011  24.662  27.818  1.00  0.00     0.031 A 
ATOM     36  C   UNL A   1      41.982  25.726  28.095  1.00  0.00     0.074 A 
ATOM     37  C   UNL A   1      44.324  24.939  27.937  1.00  0.00     0.049 A 
ATOM     38  N   UNL A   1      42.157  26.969  28.465  1.00  0.00    -0.248 NA
ATOM     39  C   UNL A   1      40.569  25.354  27.900  1.00  0.00     0.031 C 
ATOM     40  C   UNL A   1      45.419  24.007  27.657  1.00  0.00     0.029 A 
ATOM     41  N   UNL A   1      44.960  26.089  28.331  1.00  0.00    -0.354 N 
ATOM     42  C   UNL A   1      40.885  27.524  28.528  1.00  0.00     0.074 A 
ATOM     43  C   UNL A   1      39.954  26.510  28.089  1.00  0.00     0.031 C 
ATOM     44  C   UNL A   1      46.588  24.608  27.930  1.00  0.00     0.029 A 
ATOM     45  C   UNL A   1      46.330  25.977  28.363  1.00  0.00     0.049 A 
ATOM     46  H   UNL A   1      44.481  26.916  28.568  1.00  0.00     0.167 HD
ATOM     47  C   UNL A   1      40.516  28.758  28.944  1.00  0.00     0.031 A 
ATOM     48  C   UNL A   1      47.269  26.879  28.706  1.00  0.00     0.031 A 
ATOM     49  C   UNL A   1      41.441  29.762  29.394  1.00  0.00     0.049 A 
ATOM     50  C   UNL A   1      46.835  28.248  29.152  1.00  0.00     0.074 A 
ATOM     51  C   UNL A   1      41.172  31.029  29.881  1.00  0.00     0.029 A 
ATOM     52  N   UNL A   1      42.819  29.608  29.414  1.00  0.00    -0.354 N 
ATOM     53  N   UNL A   1      45.623  28.737  29.270  1.00  0.00    -0.248 NA
ATOM     54  C   UNL A   1      47.902  29.185  29.531  1.00  0.00     0.031 C 
ATOM     55  C   UNL A   1      42.391  31.661  30.143  1.00  0.00     0.029 A 
ATOM     56  C   UNL A   1      43.416  30.764  29.886  1.00  0.00     0.049 A 
ATOM     57  H   UNL A   1      43.302  28.796  29.133  1.00  0.00     0.167 HD
ATOM     58  C   UNL A   1      45.780  30.023  29.771  1.00  0.00     0.074 A 
ATOM     59  C   UNL A   1      47.203  30.231  29.949  1.00  0.00     0.031 C 
ATOM     60  C   UNL A   1      44.833  30.948  30.060  1.00  0.00     0.031 A 
BRANCH  47  61
ATOM     61  C   UNL A   1      39.047  29.083  28.929  1.00  0.00    -0.014 A 
ATOM     62  C   UNL A   1      38.423  29.586  27.774  1.00  0.00     0.009 A 
ATOM     63  C   UNL A   1      38.269  28.868  30.078  1.00  0.00     0.009 A 
ATOM     64  C   UNL A   1      37.064  29.907  27.785  1.00  0.00     0.001 A 
ATOM     65  C   UNL A   1      36.904  29.158  30.074  1.00  0.00     0.001 A 
ATOM     66  C   UNL A   1      36.304  29.688  28.932  1.00  0.00     0.000 A 
ENDBRANCH  47  61
BRANCH  48  67
ATOM     67  C   UNL A   1      48.710  26.512  28.673  1.00  0.00    -0.014 A 
ATOM     68  C   UNL A   1      49.339  25.987  29.812  1.00  0.00     0.009 A 
ATOM     69  C   UNL A   1      49.471  26.700  27.508  1.00  0.00     0.009 A 
ATOM     70  C   UNL A   1      50.704  25.692  29.798  1.00  0.00     0.001 A 
ATOM     71  C   UNL A   1      50.829  26.373  27.486  1.00  0.00     0.001 A 
ATOM     72  C   UNL A   1      51.447  25.882  28.635  1.00  0.00     0.000 A 
ENDBRANCH  48  67
BRANCH  60  73
ATOM     73  C   UNL A   1      45.303  32.249  30.651  1.00  0.00    -0.014 A 
ATOM     74  C   UNL A   1      45.461  32.415  32.035  1.00  0.00     0.009 A 
ATOM     75  C   UNL A   1      45.625  33.317  29.796  1.00  0.00     0.009 A 
ATOM     76  C   UNL A   1      45.890  33.638  32.553  1.00  0.00     0.001 A 
ATOM     77  C   UNL A   1      46.088  34.526  30.315  1.00  0.00     0.001 A 
ATOM     78  C   UNL A   1      46.208  34.690  31.693  1.00  0.00     0.000 A 
ENDBRANCH  60  73
ENDBRANCH  34  35
ENDBRANCH  26  29
ENDBRANCH  24  25
ENDBRANCH  23  24
ENDBRANCH  22  23
ENDBRANCH   1  22
TORSDOF 15
ENDMDL
