MODEL 1
REMARK VINA RESULT:     -11.2      0.000      0.000
REMARK SMILES O=C(NCCCCNC(=O)[C@H]1CC(=O)N(Cc2cccc(Cl)c2)C1)c1ccc(-c2c3nc(c(-c4ccccc4)c4ccc([nH]4)c(-c4ccccc4)c4nc(c(-c5ccccc5)c5ccc2[nH]5)C=C4)C=C3)cc1
REMARK SMILES IDX 5 1 4 2 3 3 1 4 2 5 25 7 26 8 72 9 27 10 71 11 28 12 29 13
REMARK SMILES IDX 30 14 65 15 31 16 70 17 64 18 66 19 32 20 69 21 63 22 62 23
REMARK SMILES IDX 33 25 55 26 40 27 54 28 41 29 44 30 53 31 67 32 42 33 43 34
REMARK SMILES IDX 52 36 68 37 45 38 34 39 35 40 39 41 36 42 38 43 37 44 56 45
REMARK SMILES IDX 57 46 61 47 58 48 60 49 59 50 46 51 47 52 51 53 48 54 50 55
REMARK SMILES IDX 49 56 6 57 7 58 8 59 9 60 10 62 11 63 12 64 24 65 13 66
REMARK SMILES IDX 15 67 14 68 16 69 17 70 18 71 23 72 19 73 21 74 20 75 22 76
REMARK H PARENT 3 6 66 24 44 35 8 61
REMARK Flexibility Score: inf
ROOT
ATOM      1  C   UNL A   1      37.930  19.808  25.004  1.00  0.00     0.023 C 
ENDROOT
BRANCH   1   2
ATOM      2  C   UNL A   1      39.152  20.200  25.819  1.00  0.00     0.116 C 
BRANCH   2   3
ATOM      3  N   UNL A   1      40.174  19.163  25.862  1.00  0.00    -0.352 N 
ATOM      4  O   UNL A   1      42.277  18.342  26.007  1.00  0.00    -0.269 OA
ATOM      5  C   UNL A   1      41.519  19.297  26.130  1.00  0.00     0.251 C 
ATOM      6  H   UNL A   1      39.864  18.248  25.676  1.00  0.00     0.163 HD
BRANCH   5   7
ATOM      7  C   UNL A   1      42.041  20.619  26.536  1.00  0.00     0.039 A 
ATOM      8  C   UNL A   1      42.120  20.951  27.888  1.00  0.00     0.014 A 
ATOM      9  C   UNL A   1      42.400  21.550  25.558  1.00  0.00     0.014 A 
ATOM     10  C   UNL A   1      42.382  22.262  28.256  1.00  0.00     0.010 A 
ATOM     11  C   UNL A   1      42.780  22.841  25.940  1.00  0.00     0.010 A 
ATOM     12  C   UNL A   1      42.740  23.218  27.291  1.00  0.00    -0.014 A 
BRANCH  12  13
ATOM     13  C   UNL A   1      43.138  24.574  27.749  1.00  0.00     0.031 A 
ATOM     14  C   UNL A   1      44.579  24.999  27.814  1.00  0.00     0.074 A 
ATOM     15  C   UNL A   1      42.159  25.452  28.052  1.00  0.00     0.049 A 
ATOM     16  N   UNL A   1      45.074  26.170  28.135  1.00  0.00    -0.248 NA
ATOM     17  C   UNL A   1      45.596  23.989  27.485  1.00  0.00     0.031 C 
ATOM     18  C   UNL A   1      40.724  25.153  28.034  1.00  0.00     0.029 A 
ATOM     19  N   UNL A   1      42.216  26.775  28.400  1.00  0.00    -0.354 N 
ATOM     20  C   UNL A   1      46.454  26.037  28.052  1.00  0.00     0.074 A 
ATOM     21  C   UNL A   1      46.722  24.662  27.688  1.00  0.00     0.031 C 
ATOM     22  C   UNL A   1      40.036  26.273  28.294  1.00  0.00     0.029 A 
ATOM     23  C   UNL A   1      40.979  27.347  28.577  1.00  0.00     0.049 A 
ATOM     24  H   UNL A   1      43.060  27.270  28.512  1.00  0.00     0.167 HD
ATOM     25  C   UNL A   1      47.409  26.978  28.251  1.00  0.00     0.031 A 
ATOM     26  C   UNL A   1      40.634  28.592  28.950  1.00  0.00     0.031 A 
ATOM     27  C   UNL A   1      47.140  28.342  28.631  1.00  0.00     0.049 A 
ATOM     28  C   UNL A   1      41.716  29.594  29.215  1.00  0.00     0.074 A 
ATOM     29  C   UNL A   1      48.041  29.370  28.853  1.00  0.00     0.029 A 
ATOM     30  N   UNL A   1      45.874  28.868  28.848  1.00  0.00    -0.354 N 
ATOM     31  N   UNL A   1      43.015  29.457  29.103  1.00  0.00    -0.248 NA
ATOM     32  C   UNL A   1      41.284  30.927  29.653  1.00  0.00     0.031 C 
ATOM     33  C   UNL A   1      47.325  30.501  29.259  1.00  0.00     0.029 A 
ATOM     34  C   UNL A   1      45.973  30.199  29.223  1.00  0.00     0.049 A 
ATOM     35  H   UNL A   1      45.031  28.370  28.751  1.00  0.00     0.167 HD
ATOM     36  C   UNL A   1      43.553  30.691  29.438  1.00  0.00     0.074 A 
ATOM     37  C   UNL A   1      42.439  31.572  29.723  1.00  0.00     0.031 C 
ATOM     38  C   UNL A   1      44.856  31.062  29.510  1.00  0.00     0.031 A 
BRANCH  25  39
ATOM     39  C   UNL A   1      48.847  26.563  28.077  1.00  0.00    -0.014 A 
ATOM     40  C   UNL A   1      49.480  26.638  26.825  1.00  0.00     0.009 A 
ATOM     41  C   UNL A   1      49.598  26.151  29.189  1.00  0.00     0.009 A 
ATOM     42  C   UNL A   1      50.823  26.281  26.687  1.00  0.00     0.001 A 
ATOM     43  C   UNL A   1      50.949  25.824  29.054  1.00  0.00     0.001 A 
ATOM     44  C   UNL A   1      51.558  25.882  27.802  1.00  0.00     0.000 A 
ENDBRANCH  25  39
BRANCH  26  45
ATOM     45  C   UNL A   1      39.200  28.943  29.133  1.00  0.00    -0.014 A 
ATOM     46  C   UNL A   1      38.561  28.751  30.366  1.00  0.00     0.009 A 
ATOM     47  C   UNL A   1      38.459  29.461  28.059  1.00  0.00     0.009 A 
ATOM     48  C   UNL A   1      37.201  29.034  30.508  1.00  0.00     0.001 A 
ATOM     49  C   UNL A   1      37.110  29.783  28.214  1.00  0.00     0.001 A 
ATOM     50  C   UNL A   1      36.479  29.553  29.434  1.00  0.00     0.000 A 
ENDBRANCH  26  45
BRANCH  38  51
ATOM     51  C   UNL A   1      45.133  32.493  29.876  1.00  0.00    -0.014 A 
ATOM     52  C   UNL A   1      45.212  33.497  28.897  1.00  0.00     0.009 A 
ATOM     53  C   UNL A   1      45.315  32.842  31.223  1.00  0.00     0.009 A 
ATOM     54  C   UNL A   1      45.516  34.811  29.257  1.00  0.00     0.001 A 
ATOM     55  C   UNL A   1      45.583  34.163  31.583  1.00  0.00     0.001 A 
ATOM     56  C   UNL A   1      45.698  35.144  30.598  1.00  0.00     0.000 A 
ENDBRANCH  38  51
ENDBRANCH  12  13
ENDBRANCH   5   7
ENDBRANCH   2   3
ENDBRANCH   1   2
BRANCH   1  57
ATOM     57  C   UNL A   1      36.978  20.958  24.684  1.00  0.00     0.023 C 
BRANCH  57  58
ATOM     58  C   UNL A   1      37.049  22.128  25.668  1.00  0.00     0.116 C 
BRANCH  58  59
ATOM     59  N   UNL A   1      35.801  22.298  26.392  1.00  0.00    -0.356 N 
ATOM     60  C   UNL A   1      34.790  23.193  26.181  1.00  0.00     0.225 C 
ATOM     61  H   UNL A   1      35.664  21.678  27.144  1.00  0.00     0.163 HD
ATOM     62  O   UNL A   1      33.794  23.131  26.899  1.00  0.00    -0.275 OA
BRANCH  60  63
ATOM     63  C   UNL A   1      34.935  24.202  25.065  1.00  0.00     0.107 C 
ATOM     64  C   UNL A   1      34.323  23.769  23.731  1.00  0.00     0.115 C 
ATOM     65  C   UNL A   1      34.161  25.463  25.394  1.00  0.00     0.133 C 
ATOM     66  C   UNL A   1      33.918  25.085  23.106  1.00  0.00     0.223 C 
ATOM     67  N   UNL A   1      33.840  26.026  24.114  1.00  0.00    -0.338 N 
ATOM     68  O   UNL A   1      33.694  25.266  21.919  1.00  0.00    -0.275 OA
BRANCH  67  69
ATOM     69  C   UNL A   1      33.487  27.425  23.933  1.00  0.00     0.155 C 
BRANCH  69  70
ATOM     70  C   UNL A   1      32.012  27.647  23.685  1.00  0.00    -0.027 A 
ATOM     71  C   UNL A   1      31.041  26.805  24.254  1.00  0.00     0.005 A 
ATOM     72  C   UNL A   1      31.586  28.713  22.881  1.00  0.00     0.026 A 
ATOM     73  C   UNL A   1      29.683  26.992  23.990  1.00  0.00     0.002 A 
ATOM     74  C   UNL A   1      30.226  28.916  22.646  1.00  0.00     0.041 A 
ATOM     75  C   UNL A   1      29.274  28.053  23.185  1.00  0.00     0.020 A 
ATOM     76  Cl  UNL A   1      29.715  30.250  21.687  1.00  0.00    -0.084 Cl
ENDBRANCH  69  70
ENDBRANCH  67  69
ENDBRANCH  60  63
ENDBRANCH  58  59
ENDBRANCH  57  58
ENDBRANCH   1  57
TORSDOF 13
ENDMDL
MODEL 2
REMARK VINA RESULT:     -11.2      4.983      9.996
REMARK SMILES O=C(NCCCCNC(=O)[C@H]1CC(=O)N(Cc2cccc(Cl)c2)C1)c1ccc(-c2c3nc(c(-c4ccccc4)c4ccc([nH]4)c(-c4ccccc4)c4nc(c(-c5ccccc5)c5ccc2[nH]5)C=C4)C=C3)cc1
REMARK SMILES IDX 5 1 4 2 3 3 1 4 2 5 25 7 26 8 72 9 27 10 71 11 28 12 29 13
REMARK SMILES IDX 30 14 65 15 31 16 70 17 64 18 66 19 32 20 69 21 63 22 62 23
REMARK SMILES IDX 33 25 55 26 40 27 54 28 41 29 44 30 53 31 67 32 42 33 43 34
REMARK SMILES IDX 52 36 68 37 45 38 34 39 35 40 39 41 36 42 38 43 37 44 56 45
REMARK SMILES IDX 57 46 61 47 58 48 60 49 59 50 46 51 47 52 51 53 48 54 50 55
REMARK SMILES IDX 49 56 6 57 7 58 8 59 9 60 10 62 11 63 12 64 24 65 13 66
REMARK SMILES IDX 15 67 14 68 16 69 17 70 18 71 23 72 19 73 21 74 20 75 22 76
REMARK H PARENT 3 6 66 24 44 35 8 61
REMARK Flexibility Score: inf
ROOT
ATOM      1  C   UNL A   1      31.424  31.877  26.595  1.00  0.00     0.023 C 
ENDROOT
BRANCH   1   2
ATOM      2  C   UNL A   1      32.597  32.582  27.256  1.00  0.00     0.116 C 
BRANCH   2   3
ATOM      3  N   UNL A   1      32.320  33.971  27.595  1.00  0.00    -0.352 N 
ATOM      4  O   UNL A   1      32.532  35.891  28.773  1.00  0.00    -0.269 OA
ATOM      5  C   UNL A   1      32.964  34.774  28.510  1.00  0.00     0.251 C 
ATOM      6  H   UNL A   1      31.574  34.390  27.107  1.00  0.00     0.163 HD
BRANCH   5   7
ATOM      7  C   UNL A   1      34.167  34.257  29.196  1.00  0.00     0.039 A 
ATOM      8  C   UNL A   1      35.431  34.495  28.658  1.00  0.00     0.014 A 
ATOM      9  C   UNL A   1      34.025  33.486  30.353  1.00  0.00     0.014 A 
ATOM     10  C   UNL A   1      36.529  33.815  29.165  1.00  0.00     0.010 A 
ATOM     11  C   UNL A   1      35.153  32.897  30.933  1.00  0.00     0.010 A 
ATOM     12  C   UNL A   1      36.410  33.029  30.323  1.00  0.00    -0.014 A 
BRANCH  12  13
ATOM     13  C   UNL A   1      37.640  32.428  30.902  1.00  0.00     0.031 A 
ATOM     14  C   UNL A   1      38.252  32.943  32.176  1.00  0.00     0.074 A 
ATOM     15  C   UNL A   1      38.170  31.353  30.283  1.00  0.00     0.049 A 
ATOM     16  N   UNL A   1      39.287  32.480  32.832  1.00  0.00    -0.248 NA
ATOM     17  C   UNL A   1      37.633  34.127  32.791  1.00  0.00     0.031 C 
ATOM     18  C   UNL A   1      37.670  30.767  29.035  1.00  0.00     0.029 A 
ATOM     19  N   UNL A   1      39.220  30.544  30.630  1.00  0.00    -0.354 N 
ATOM     20  C   UNL A   1      39.448  33.315  33.931  1.00  0.00     0.074 A 
ATOM     21  C   UNL A   1      38.427  34.337  33.833  1.00  0.00     0.031 C 
ATOM     22  C   UNL A   1      38.369  29.659  28.757  1.00  0.00     0.029 A 
ATOM     23  C   UNL A   1      39.418  29.503  29.755  1.00  0.00     0.049 A 
ATOM     24  H   UNL A   1      39.778  30.694  31.427  1.00  0.00     0.167 HD
ATOM     25  C   UNL A   1      40.355  33.231  34.934  1.00  0.00     0.031 A 
ATOM     26  C   UNL A   1      40.354  28.537  29.741  1.00  0.00     0.031 A 
ATOM     27  C   UNL A   1      41.382  32.223  35.018  1.00  0.00     0.049 A 
ATOM     28  C   UNL A   1      41.378  28.504  30.835  1.00  0.00     0.074 A 
ATOM     29  C   UNL A   1      42.347  32.053  35.997  1.00  0.00     0.029 A 
ATOM     30  N   UNL A   1      41.580  31.214  34.086  1.00  0.00    -0.354 N 
ATOM     31  N   UNL A   1      41.494  29.286  31.881  1.00  0.00    -0.248 NA
ATOM     32  C   UNL A   1      42.396  27.450  30.750  1.00  0.00     0.031 C 
ATOM     33  C   UNL A   1      43.162  30.978  35.628  1.00  0.00     0.029 A 
ATOM     34  C   UNL A   1      42.664  30.433  34.456  1.00  0.00     0.049 A 
ATOM     35  H   UNL A   1      41.032  31.074  33.281  1.00  0.00     0.167 HD
ATOM     36  C   UNL A   1      42.587  28.806  32.589  1.00  0.00     0.074 A 
ATOM     37  C   UNL A   1      43.075  27.646  31.870  1.00  0.00     0.031 C 
ATOM     38  C   UNL A   1      43.143  29.286  33.728  1.00  0.00     0.031 A 
BRANCH  25  39
ATOM     39  C   UNL A   1      40.294  34.270  36.023  1.00  0.00    -0.014 A 
ATOM     40  C   UNL A   1      39.520  34.070  37.178  1.00  0.00     0.009 A 
ATOM     41  C   UNL A   1      41.067  35.438  35.922  1.00  0.00     0.009 A 
ATOM     42  C   UNL A   1      39.501  35.028  38.193  1.00  0.00     0.001 A 
ATOM     43  C   UNL A   1      41.068  36.381  36.952  1.00  0.00     0.001 A 
ATOM     44  C   UNL A   1      40.279  36.179  38.083  1.00  0.00     0.000 A 
ENDBRANCH  25  39
BRANCH  26  45
ATOM     45  C   UNL A   1      40.387  27.550  28.628  1.00  0.00    -0.014 A 
ATOM     46  C   UNL A   1      41.090  27.819  27.445  1.00  0.00     0.009 A 
ATOM     47  C   UNL A   1      39.695  26.334  28.745  1.00  0.00     0.009 A 
ATOM     48  C   UNL A   1      41.067  26.906  26.388  1.00  0.00     0.001 A 
ATOM     49  C   UNL A   1      39.708  25.405  27.704  1.00  0.00     0.001 A 
ATOM     50  C   UNL A   1      40.380  25.699  26.520  1.00  0.00     0.000 A 
ENDBRANCH  26  45
BRANCH  38  51
ATOM     51  C   UNL A   1      44.317  28.528  34.282  1.00  0.00    -0.014 A 
ATOM     52  C   UNL A   1      45.635  28.860  33.929  1.00  0.00     0.009 A 
ATOM     53  C   UNL A   1      44.099  27.467  35.174  1.00  0.00     0.009 A 
ATOM     54  C   UNL A   1      46.706  28.112  34.420  1.00  0.00     0.001 A 
ATOM     55  C   UNL A   1      45.174  26.744  35.692  1.00  0.00     0.001 A 
ATOM     56  C   UNL A   1      46.476  27.058  35.304  1.00  0.00     0.000 A 
ENDBRANCH  38  51
ENDBRANCH  12  13
ENDBRANCH   5   7
ENDBRANCH   2   3
ENDBRANCH   1   2
BRANCH   1  57
ATOM     57  C   UNL A   1      31.650  30.395  26.301  1.00  0.00     0.023 C 
BRANCH  57  58
ATOM     58  C   UNL A   1      33.121  29.998  26.161  1.00  0.00     0.116 C 
BRANCH  58  59
ATOM     59  N   UNL A   1      33.384  29.349  24.888  1.00  0.00    -0.356 N 
ATOM     60  C   UNL A   1      33.487  28.018  24.597  1.00  0.00     0.225 C 
ATOM     61  H   UNL A   1      33.505  29.958  24.124  1.00  0.00     0.163 HD
ATOM     62  O   UNL A   1      33.677  27.687  23.429  1.00  0.00    -0.275 OA
BRANCH  60  63
ATOM     63  C   UNL A   1      33.345  27.017  25.720  1.00  0.00     0.107 C 
ATOM     64  C   UNL A   1      31.911  26.548  25.979  1.00  0.00     0.115 C 
ATOM     65  C   UNL A   1      34.059  25.727  25.367  1.00  0.00     0.133 C 
ATOM     66  C   UNL A   1      32.108  25.143  26.501  1.00  0.00     0.223 C 
ATOM     67  N   UNL A   1      33.366  24.720  26.117  1.00  0.00    -0.338 N 
ATOM     68  O   UNL A   1      31.287  24.504  27.140  1.00  0.00    -0.275 OA
BRANCH  67  69
ATOM     69  C   UNL A   1      33.948  23.425  26.426  1.00  0.00     0.155 C 
BRANCH  69  70
ATOM     70  C   UNL A   1      33.467  22.316  25.517  1.00  0.00    -0.027 A 
ATOM     71  C   UNL A   1      33.125  22.566  24.177  1.00  0.00     0.005 A 
ATOM     72  C   UNL A   1      33.360  21.004  26.002  1.00  0.00     0.026 A 
ATOM     73  C   UNL A   1      32.645  21.544  23.355  1.00  0.00     0.002 A 
ATOM     74  C   UNL A   1      32.911  19.981  25.168  1.00  0.00     0.041 A 
ATOM     75  C   UNL A   1      32.539  20.247  23.852  1.00  0.00     0.020 A 
ATOM     76  Cl  UNL A   1      32.820  18.370  25.765  1.00  0.00    -0.084 Cl
ENDBRANCH  69  70
ENDBRANCH  67  69
ENDBRANCH  60  63
ENDBRANCH  58  59
ENDBRANCH  57  58
ENDBRANCH   1  57
TORSDOF 13
ENDMDL
MODEL 3
REMARK VINA RESULT:     -11.2      0.793      6.112
REMARK SMILES O=C(NCCCCNC(=O)[C@H]1CC(=O)N(Cc2cccc(Cl)c2)C1)c1ccc(-c2c3nc(c(-c4ccccc4)c4ccc([nH]4)c(-c4ccccc4)c4nc(c(-c5ccccc5)c5ccc2[nH]5)C=C4)C=C3)cc1
REMARK SMILES IDX 5 1 4 2 3 3 1 4 2 5 25 7 26 8 72 9 27 10 71 11 28 12 29 13
REMARK SMILES IDX 30 14 65 15 31 16 70 17 64 18 66 19 32 20 69 21 63 22 62 23
REMARK SMILES IDX 33 25 55 26 40 27 54 28 41 29 44 30 53 31 67 32 42 33 43 34
REMARK SMILES IDX 52 36 68 37 45 38 34 39 35 40 39 41 36 42 38 43 37 44 56 45
REMARK SMILES IDX 57 46 61 47 58 48 60 49 59 50 46 51 47 52 51 53 48 54 50 55
REMARK SMILES IDX 49 56 6 57 7 58 8 59 9 60 10 62 11 63 12 64 24 65 13 66
REMARK SMILES IDX 15 67 14 68 16 69 17 70 18 71 23 72 19 73 21 74 20 75 22 76
REMARK H PARENT 3 6 66 24 44 35 8 61
REMARK Flexibility Score: inf
ROOT
ATOM      1  C   UNL A   1      38.124  19.969  24.962  1.00  0.00     0.023 C 
ENDROOT
BRANCH   1   2
ATOM      2  C   UNL A   1      39.201  20.202  26.009  1.00  0.00     0.116 C 
BRANCH   2   3
ATOM      3  N   UNL A   1      40.307  19.259  25.919  1.00  0.00    -0.352 N 
ATOM      4  O   UNL A   1      42.477  18.620  25.877  1.00  0.00    -0.269 OA
ATOM      5  C   UNL A   1      41.651  19.495  26.111  1.00  0.00     0.251 C 
ATOM      6  H   UNL A   1      40.063  18.333  25.693  1.00  0.00     0.163 HD
BRANCH   5   7
ATOM      7  C   UNL A   1      42.086  20.831  26.570  1.00  0.00     0.039 A 
ATOM      8  C   UNL A   1      42.046  21.147  27.927  1.00  0.00     0.014 A 
ATOM      9  C   UNL A   1      42.483  21.788  25.632  1.00  0.00     0.014 A 
ATOM     10  C   UNL A   1      42.225  22.463  28.328  1.00  0.00     0.010 A 
ATOM     11  C   UNL A   1      42.779  23.088  26.056  1.00  0.00     0.010 A 
ATOM     12  C   UNL A   1      42.619  23.445  27.404  1.00  0.00    -0.014 A 
BRANCH  12  13
ATOM     13  C   UNL A   1      42.924  24.810  27.906  1.00  0.00     0.031 A 
ATOM     14  C   UNL A   1      41.845  25.831  28.134  1.00  0.00     0.074 A 
ATOM     15  C   UNL A   1      44.205  25.098  28.215  1.00  0.00     0.049 A 
ATOM     16  N   UNL A   1      41.953  27.042  28.625  1.00  0.00    -0.248 NA
ATOM     17  C   UNL A   1      40.471  25.457  27.761  1.00  0.00     0.031 C 
ATOM     18  C   UNL A   1      45.342  24.190  28.030  1.00  0.00     0.029 A 
ATOM     19  N   UNL A   1      44.763  26.215  28.779  1.00  0.00    -0.354 N 
ATOM     20  C   UNL A   1      40.670  27.574  28.616  1.00  0.00     0.074 A 
ATOM     21  C   UNL A   1      39.803  26.570  28.036  1.00  0.00     0.031 C 
ATOM     22  C   UNL A   1      46.447  24.760  28.528  1.00  0.00     0.029 A 
ATOM     23  C   UNL A   1      46.116  26.101  28.991  1.00  0.00     0.049 A 
ATOM     24  H   UNL A   1      44.246  27.021  29.009  1.00  0.00     0.167 HD
ATOM     25  C   UNL A   1      40.252  28.784  29.062  1.00  0.00     0.031 A 
ATOM     26  C   UNL A   1      47.003  26.984  29.483  1.00  0.00     0.031 A 
ATOM     27  C   UNL A   1      41.120  29.788  29.623  1.00  0.00     0.049 A 
ATOM     28  C   UNL A   1      46.517  28.334  29.916  1.00  0.00     0.074 A 
ATOM     29  C   UNL A   1      40.790  31.044  30.105  1.00  0.00     0.029 A 
ATOM     30  N   UNL A   1      42.493  29.652  29.776  1.00  0.00    -0.354 N 
ATOM     31  N   UNL A   1      45.294  28.808  29.926  1.00  0.00    -0.248 NA
ATOM     32  C   UNL A   1      47.534  29.271  30.411  1.00  0.00     0.031 C 
ATOM     33  C   UNL A   1      41.968  31.688  30.496  1.00  0.00     0.029 A 
ATOM     34  C   UNL A   1      43.025  30.809  30.323  1.00  0.00     0.049 A 
ATOM     35  H   UNL A   1      43.012  28.853  29.531  1.00  0.00     0.167 HD
ATOM     36  C   UNL A   1      45.393  30.090  30.447  1.00  0.00     0.074 A 
ATOM     37  C   UNL A   1      46.789  30.305  30.772  1.00  0.00     0.031 C 
ATOM     38  C   UNL A   1      44.417  31.012  30.635  1.00  0.00     0.031 A 
BRANCH  25  39
ATOM     39  C   UNL A   1      38.784  29.103  28.947  1.00  0.00    -0.014 A 
ATOM     40  C   UNL A   1      37.915  28.934  30.038  1.00  0.00     0.009 A 
ATOM     41  C   UNL A   1      38.273  29.637  27.753  1.00  0.00     0.009 A 
ATOM     42  C   UNL A   1      36.563  29.267  29.925  1.00  0.00     0.001 A 
ATOM     43  C   UNL A   1      36.927  29.996  27.653  1.00  0.00     0.001 A 
ATOM     44  C   UNL A   1      36.072  29.803  28.736  1.00  0.00     0.000 A 
ENDBRANCH  25  39
BRANCH  26  45
ATOM     45  C   UNL A   1      48.446  26.629  29.550  1.00  0.00    -0.014 A 
ATOM     46  C   UNL A   1      49.288  26.814  28.444  1.00  0.00     0.009 A 
ATOM     47  C   UNL A   1      48.983  26.086  30.728  1.00  0.00     0.009 A 
ATOM     48  C   UNL A   1      50.629  26.426  28.505  1.00  0.00     0.001 A 
ATOM     49  C   UNL A   1      50.333  25.737  30.800  1.00  0.00     0.001 A 
ATOM     50  C   UNL A   1      51.149  25.892  29.683  1.00  0.00     0.000 A 
ENDBRANCH  26  45
BRANCH  38  51
ATOM     51  C   UNL A   1      44.828  32.319  31.254  1.00  0.00    -0.014 A 
ATOM     52  C   UNL A   1      44.833  32.499  32.646  1.00  0.00     0.009 A 
ATOM     53  C   UNL A   1      45.220  33.384  30.429  1.00  0.00     0.009 A 
ATOM     54  C   UNL A   1      45.175  33.736  33.196  1.00  0.00     0.001 A 
ATOM     55  C   UNL A   1      45.596  34.608  30.983  1.00  0.00     0.001 A 
ATOM     56  C   UNL A   1      45.560  34.788  32.365  1.00  0.00     0.000 A 
ENDBRANCH  38  51
ENDBRANCH  12  13
ENDBRANCH   5   7
ENDBRANCH   2   3
ENDBRANCH   1   2
BRANCH   1  57
ATOM     57  C   UNL A   1      37.294  21.202  24.611  1.00  0.00     0.023 C 
BRANCH  57  58
ATOM     58  C   UNL A   1      37.379  22.332  25.639  1.00  0.00     0.116 C 
BRANCH  58  59
ATOM     59  N   UNL A   1      36.151  22.457  26.405  1.00  0.00    -0.356 N 
ATOM     60  C   UNL A   1      35.071  23.265  26.188  1.00  0.00     0.225 C 
ATOM     61  H   UNL A   1      36.087  21.872  27.195  1.00  0.00     0.163 HD
ATOM     62  O   UNL A   1      34.110  23.176  26.949  1.00  0.00    -0.275 OA
BRANCH  60  63
ATOM     63  C   UNL A   1      35.101  24.216  25.013  1.00  0.00     0.107 C 
ATOM     64  C   UNL A   1      34.475  23.665  23.731  1.00  0.00     0.115 C 
ATOM     65  C   UNL A   1      34.249  25.436  25.304  1.00  0.00     0.133 C 
ATOM     66  C   UNL A   1      33.951  24.910  23.052  1.00  0.00     0.223 C 
ATOM     67  N   UNL A   1      33.840  25.900  24.010  1.00  0.00    -0.338 N 
ATOM     68  O   UNL A   1      33.672  25.007  21.867  1.00  0.00    -0.275 OA
BRANCH  67  69
ATOM     69  C   UNL A   1      33.379  27.257  23.767  1.00  0.00     0.155 C 
BRANCH  69  70
ATOM     70  C   UNL A   1      31.877  27.368  23.636  1.00  0.00    -0.027 A 
ATOM     71  C   UNL A   1      31.019  26.445  24.257  1.00  0.00     0.005 A 
ATOM     72  C   UNL A   1      31.310  28.411  22.890  1.00  0.00     0.026 A 
ATOM     73  C   UNL A   1      29.634  26.531  24.099  1.00  0.00     0.002 A 
ATOM     74  C   UNL A   1      29.925  28.513  22.761  1.00  0.00     0.041 A 
ATOM     75  C   UNL A   1      29.085  27.569  23.351  1.00  0.00     0.020 A 
ATOM     76  Cl  UNL A   1      29.242  29.819  21.874  1.00  0.00    -0.084 Cl
ENDBRANCH  69  70
ENDBRANCH  67  69
ENDBRANCH  60  63
ENDBRANCH  58  59
ENDBRANCH  57  58
ENDBRANCH   1  57
TORSDOF 13
ENDMDL
