MODEL 1
REMARK VINA RESULT:     -11.8      0.000      0.000
REMARK SMILES Cn1c(C[NH+](C)C)nnc1[C@@H]1CCC[N@@H+](Cc2ccccc2C(=O)NCCCCNC(=O)c2ccc(-c3c4nc(c(-c5ccccc5)c5ccc([nH]5)c(-c5ccccc5)c5nc(c(-c6ccccc6)c6ccc3[nH]6)C=C5)C=C4)cc2)C1
REMARK SMILES IDX 26 1 25 2 23 3 24 4 22 6 17 7 18 8 19 9 21 10 20 11 16 12
REMARK SMILES IDX 15 13 11 14 12 15 81 16 13 17 14 18 10 20 3 21 8 22 2 23
REMARK SMILES IDX 9 24 1 25 4 26 5 27 6 28 7 29 27 31 28 32 29 33 30 34 31 35
REMARK SMILES IDX 32 37 33 38 34 39 80 40 35 41 79 42 36 43 37 44 38 45 73 46
REMARK SMILES IDX 39 47 78 48 72 49 74 50 40 51 77 52 71 53 70 54 41 56 63 57
REMARK SMILES IDX 48 58 62 59 49 60 52 61 61 62 75 63 50 64 51 65 60 67 76 68
REMARK SMILES IDX 53 69 42 70 43 71 47 72 44 73 46 74 45 75 64 76 65 77 69 78
REMARK SMILES IDX 66 79 68 80 67 81 54 82 55 83 59 84 56 85 58 86 57 87
REMARK H PARENT 25 5 15 19 5 30 30 36 74 55 52 66
REMARK Flexibility Score: inf
ROOT
ATOM      1  C   UNL A   1      37.407  23.682  25.846  1.00  0.00     0.116 C 
ENDROOT
BRANCH   1   2
ATOM      2  N   UNL A   1      37.344  23.471  24.416  1.00  0.00    -0.352 N 
ATOM      3  C   UNL A   1      36.348  22.959  23.626  1.00  0.00     0.251 C 
ATOM      4  O   UNL A   1      36.521  23.017  22.397  1.00  0.00    -0.269 OA
ATOM      5  H   UNL A   1      38.156  23.739  23.928  1.00  0.00     0.163 HD
BRANCH   3   6
ATOM      6  C   UNL A   1      35.117  22.276  24.126  1.00  0.00     0.048 A 
ATOM      7  C   UNL A   1      33.786  22.749  24.128  1.00  0.00     0.019 A 
ATOM      8  C   UNL A   1      32.788  21.929  24.713  1.00  0.00     0.010 A 
ATOM      9  C   UNL A   1      33.062  20.646  25.178  1.00  0.00     0.001 A 
ATOM     10  C   UNL A   1      35.358  20.947  24.543  1.00  0.00     0.014 A 
ATOM     11  C   UNL A   1      34.343  20.137  25.054  1.00  0.00     0.001 A 
BRANCH   7  12
ATOM     12  C   UNL A   1      33.286  24.036  23.527  1.00  0.00     0.299 C 
BRANCH  12  13
ATOM     13  N   UNL A   1      32.915  25.127  24.420  1.00  0.00    -0.331 N 
ATOM     14  C   UNL A   1      31.138  26.569  25.462  1.00  0.00     0.113 C 
ATOM     15  C   UNL A   1      32.148  26.991  26.531  1.00  0.00     0.023 C 
ATOM     16  C   UNL A   1      31.508  25.241  24.791  1.00  0.00     0.274 C 
ATOM     17  C   UNL A   1      33.600  26.757  26.127  1.00  0.00     0.062 C 
ATOM     18  C   UNL A   1      33.831  25.363  25.529  1.00  0.00     0.262 C 
ATOM     19  H   UNL A   1      33.041  25.920  23.791  1.00  0.00     0.348 HD
BRANCH  14  20
ATOM     20  C   UNL A   1      30.747  27.670  24.511  1.00  0.00     0.141 A 
ATOM     21  C   UNL A   1      29.791  28.937  22.988  1.00  0.00     0.187 A 
ATOM     22  N   UNL A   1      30.924  29.510  23.330  1.00  0.00    -0.129 NA
ATOM     23  N   UNL A   1      29.607  27.809  23.760  1.00  0.00    -0.313 N 
ATOM     24  N   UNL A   1      31.518  28.721  24.277  1.00  0.00    -0.135 NA
ATOM     25  C   UNL A   1      28.397  27.039  23.725  1.00  0.00     0.153 C 
BRANCH  21  26
ATOM     26  C   UNL A   1      28.783  29.448  22.011  1.00  0.00     0.340 C 
BRANCH  26  27
ATOM     27  N   UNL A   1      28.503  30.869  22.197  1.00  0.00    -0.333 N 
ATOM     28  C   UNL A   1      27.665  31.143  23.346  1.00  0.00     0.332 C 
ATOM     29  C   UNL A   1      28.162  31.553  20.963  1.00  0.00     0.332 C 
ATOM     30  H   UNL A   1      29.385  31.312  22.456  1.00  0.00     0.348 HD
ENDBRANCH  26  27
ENDBRANCH  21  26
ENDBRANCH  14  20
ENDBRANCH  12  13
ENDBRANCH   7  12
ENDBRANCH   3   6
ENDBRANCH   1   2
BRANCH   1  31
ATOM     31  C   UNL A   1      38.432  22.828  26.587  1.00  0.00     0.023 C 
BRANCH  31  32
ATOM     32  C   UNL A   1      39.203  21.822  25.723  1.00  0.00     0.023 C 
BRANCH  32  33
ATOM     33  C   UNL A   1      38.775  20.354  25.783  1.00  0.00     0.116 C 
BRANCH  33  34
ATOM     34  N   UNL A   1      39.887  19.415  25.803  1.00  0.00    -0.352 N 
ATOM     35  C   UNL A   1      41.221  19.534  26.104  1.00  0.00     0.251 C 
ATOM     36  H   UNL A   1      39.627  18.501  25.546  1.00  0.00     0.163 HD
ATOM     37  O   UNL A   1      41.907  18.505  25.986  1.00  0.00    -0.269 OA
BRANCH  35  38
ATOM     38  C   UNL A   1      41.901  20.778  26.577  1.00  0.00     0.039 A 
ATOM     39  C   UNL A   1      42.529  21.590  25.612  1.00  0.00     0.014 A 
ATOM     40  C   UNL A   1      42.041  21.135  27.920  1.00  0.00     0.014 A 
ATOM     41  C   UNL A   1      43.206  22.763  25.977  1.00  0.00     0.010 A 
ATOM     42  C   UNL A   1      42.697  22.307  28.291  1.00  0.00     0.010 A 
ATOM     43  C   UNL A   1      43.249  23.146  27.321  1.00  0.00    -0.014 A 
BRANCH  43  44
ATOM     44  C   UNL A   1      43.604  24.517  27.740  1.00  0.00     0.031 A 
ATOM     45  C   UNL A   1      42.573  25.563  28.013  1.00  0.00     0.074 A 
ATOM     46  C   UNL A   1      44.908  24.835  27.634  1.00  0.00     0.049 A 
ATOM     47  N   UNL A   1      42.749  26.823  28.324  1.00  0.00    -0.248 NA
ATOM     48  C   UNL A   1      41.165  25.157  27.904  1.00  0.00     0.031 C 
ATOM     49  C   UNL A   1      45.970  23.896  27.252  1.00  0.00     0.029 A 
ATOM     50  N   UNL A   1      45.554  26.033  27.767  1.00  0.00    -0.354 N 
ATOM     51  C   UNL A   1      41.476  27.361  28.463  1.00  0.00     0.074 A 
ATOM     52  C   UNL A   1      40.538  26.300  28.158  1.00  0.00     0.031 C 
ATOM     53  C   UNL A   1      47.128  24.560  27.147  1.00  0.00     0.029 A 
ATOM     54  C   UNL A   1      46.890  25.963  27.456  1.00  0.00     0.049 A 
ATOM     55  H   UNL A   1      45.108  26.861  28.057  1.00  0.00     0.167 HD
ATOM     56  C   UNL A   1      41.136  28.624  28.819  1.00  0.00     0.031 A 
ATOM     57  C   UNL A   1      47.826  26.925  27.425  1.00  0.00     0.031 A 
ATOM     58  C   UNL A   1      42.100  29.674  29.046  1.00  0.00     0.049 A 
ATOM     59  C   UNL A   1      47.434  28.308  27.836  1.00  0.00     0.074 A 
ATOM     60  C   UNL A   1      41.889  30.965  29.499  1.00  0.00     0.029 A 
ATOM     61  N   UNL A   1      43.462  29.558  28.797  1.00  0.00    -0.354 N 
ATOM     62  N   UNL A   1      46.244  28.768  28.139  1.00  0.00    -0.248 NA
ATOM     63  C   UNL A   1      48.515  29.291  27.946  1.00  0.00     0.031 C 
ATOM     64  C   UNL A   1      43.114  31.644  29.469  1.00  0.00     0.029 A 
ATOM     65  C   UNL A   1      44.099  30.760  29.057  1.00  0.00     0.049 A 
ATOM     66  H   UNL A   1      43.910  28.739  28.482  1.00  0.00     0.167 HD
ATOM     67  C   UNL A   1      46.433  30.088  28.510  1.00  0.00     0.074 A 
ATOM     68  C   UNL A   1      47.857  30.349  28.403  1.00  0.00     0.031 C 
ATOM     69  C   UNL A   1      45.514  31.000  28.915  1.00  0.00     0.031 A 
BRANCH  56  70
ATOM     70  C   UNL A   1      39.671  28.937  28.983  1.00  0.00    -0.014 A 
ATOM     71  C   UNL A   1      38.905  29.413  27.904  1.00  0.00     0.009 A 
ATOM     72  C   UNL A   1      39.028  28.707  30.211  1.00  0.00     0.009 A 
ATOM     73  C   UNL A   1      37.544  29.690  28.062  1.00  0.00     0.001 A 
ATOM     74  C   UNL A   1      37.660  28.959  30.358  1.00  0.00     0.001 A 
ATOM     75  C   UNL A   1      36.922  29.459  29.287  1.00  0.00     0.000 A 
ENDBRANCH  56  70
BRANCH  57  76
ATOM     76  C   UNL A   1      49.224  26.557  27.095  1.00  0.00    -0.014 A 
ATOM     77  C   UNL A   1      50.060  26.032  28.091  1.00  0.00     0.009 A 
ATOM     78  C   UNL A   1      49.696  26.626  25.775  1.00  0.00     0.009 A 
ATOM     79  C   UNL A   1      51.347  25.593  27.775  1.00  0.00     0.001 A 
ATOM     80  C   UNL A   1      50.975  26.163  25.457  1.00  0.00     0.001 A 
ATOM     81  C   UNL A   1      51.800  25.651  26.458  1.00  0.00     0.000 A 
ENDBRANCH  57  76
BRANCH  69  82
ATOM     82  C   UNL A   1      46.042  32.357  29.286  1.00  0.00    -0.014 A 
ATOM     83  C   UNL A   1      46.528  32.622  30.576  1.00  0.00     0.009 A 
ATOM     84  C   UNL A   1      46.057  33.379  28.326  1.00  0.00     0.009 A 
ATOM     85  C   UNL A   1      46.980  33.899  30.908  1.00  0.00     0.001 A 
ATOM     86  C   UNL A   1      46.538  34.647  28.653  1.00  0.00     0.001 A 
ATOM     87  C   UNL A   1      46.989  34.909  29.946  1.00  0.00     0.000 A 
ENDBRANCH  69  82
ENDBRANCH  43  44
ENDBRANCH  35  38
ENDBRANCH  33  34
ENDBRANCH  32  33
ENDBRANCH  31  32
ENDBRANCH   1  31
TORSDOF 16
ENDMDL
MODEL 2
REMARK VINA RESULT:     -11.5      4.687     10.188
REMARK SMILES Cn1c(C[NH+](C)C)nnc1[C@@H]1CCC[N@@H+](Cc2ccccc2C(=O)NCCCCNC(=O)c2ccc(-c3c4nc(c(-c5ccccc5)c5ccc([nH]5)c(-c5ccccc5)c5nc(c(-c6ccccc6)c6ccc3[nH]6)C=C5)C=C4)cc2)C1
REMARK SMILES IDX 26 1 25 2 23 3 24 4 22 6 17 7 18 8 19 9 21 10 20 11 16 12
REMARK SMILES IDX 15 13 11 14 12 15 81 16 13 17 14 18 10 20 3 21 8 22 2 23
REMARK SMILES IDX 9 24 1 25 4 26 5 27 6 28 7 29 27 31 28 32 29 33 30 34 31 35
REMARK SMILES IDX 32 37 33 38 34 39 80 40 35 41 79 42 36 43 37 44 38 45 73 46
REMARK SMILES IDX 39 47 78 48 72 49 74 50 40 51 77 52 71 53 70 54 41 56 63 57
REMARK SMILES IDX 48 58 62 59 49 60 52 61 61 62 75 63 50 64 51 65 60 67 76 68
REMARK SMILES IDX 53 69 42 70 43 71 47 72 44 73 46 74 45 75 64 76 65 77 69 78
REMARK SMILES IDX 66 79 68 80 67 81 54 82 55 83 59 84 56 85 58 86 57 87
REMARK H PARENT 25 5 15 19 5 30 30 36 74 55 52 66
REMARK Flexibility Score: inf
ROOT
ATOM      1  C   UNL A   1      32.450  29.765  26.195  1.00  0.00     0.116 C 
ENDROOT
BRANCH   1   2
ATOM      2  N   UNL A   1      33.082  29.218  25.014  1.00  0.00    -0.352 N 
ATOM      3  C   UNL A   1      32.590  28.407  24.025  1.00  0.00     0.251 C 
ATOM      4  O   UNL A   1      33.331  28.199  23.050  1.00  0.00    -0.269 OA
ATOM      5  H   UNL A   1      34.027  29.472  24.902  1.00  0.00     0.163 HD
BRANCH   3   6
ATOM      6  C   UNL A   1      31.274  27.701  24.066  1.00  0.00     0.048 A 
ATOM      7  C   UNL A   1      30.915  26.547  24.797  1.00  0.00     0.019 A 
ATOM      8  C   UNL A   1      29.606  26.030  24.627  1.00  0.00     0.010 A 
ATOM      9  C   UNL A   1      28.646  26.682  23.859  1.00  0.00     0.001 A 
ATOM     10  C   UNL A   1      30.264  28.381  23.347  1.00  0.00     0.014 A 
ATOM     11  C   UNL A   1      28.964  27.884  23.250  1.00  0.00     0.001 A 
BRANCH   7  12
ATOM     12  C   UNL A   1      31.771  25.808  25.792  1.00  0.00     0.299 C 
BRANCH  12  13
ATOM     13  N   UNL A   1      32.895  25.021  25.300  1.00  0.00    -0.331 N 
ATOM     14  C   UNL A   1      33.849  23.416  23.616  1.00  0.00     0.113 C 
ATOM     15  C   UNL A   1      35.253  23.817  24.072  1.00  0.00     0.023 C 
ATOM     16  C   UNL A   1      32.794  24.477  23.949  1.00  0.00     0.274 C 
ATOM     17  C   UNL A   1      35.286  24.471  25.449  1.00  0.00     0.062 C 
ATOM     18  C   UNL A   1      34.215  25.556  25.614  1.00  0.00     0.262 C 
ATOM     19  H   UNL A   1      32.796  24.189  25.880  1.00  0.00     0.348 HD
BRANCH  14  20
ATOM     20  C   UNL A   1      33.461  22.005  23.975  1.00  0.00     0.141 A 
ATOM     21  C   UNL A   1      33.421  19.876  24.525  1.00  0.00     0.187 A 
ATOM     22  N   UNL A   1      32.197  20.227  24.201  1.00  0.00    -0.129 NA
ATOM     23  N   UNL A   1      34.239  20.985  24.463  1.00  0.00    -0.313 N 
ATOM     24  N   UNL A   1      32.223  21.552  23.858  1.00  0.00    -0.135 NA
ATOM     25  C   UNL A   1      35.607  20.962  24.894  1.00  0.00     0.153 C 
BRANCH  21  26
ATOM     26  C   UNL A   1      33.878  18.535  24.999  1.00  0.00     0.340 C 
BRANCH  26  27
ATOM     27  N   UNL A   1      33.127  17.444  24.381  1.00  0.00    -0.333 N 
ATOM     28  C   UNL A   1      32.701  16.434  25.328  1.00  0.00     0.332 C 
ATOM     29  C   UNL A   1      33.717  16.970  23.144  1.00  0.00     0.332 C 
ATOM     30  H   UNL A   1      32.240  17.839  24.065  1.00  0.00     0.348 HD
ENDBRANCH  26  27
ENDBRANCH  21  26
ENDBRANCH  14  20
ENDBRANCH  12  13
ENDBRANCH   7  12
ENDBRANCH   3   6
ENDBRANCH   1   2
BRANCH   1  31
ATOM     31  C   UNL A   1      31.377  30.818  25.932  1.00  0.00     0.023 C 
BRANCH  31  32
ATOM     32  C   UNL A   1      31.357  32.001  26.908  1.00  0.00     0.023 C 
BRANCH  32  33
ATOM     33  C   UNL A   1      32.280  33.185  26.612  1.00  0.00     0.116 C 
BRANCH  33  34
ATOM     34  N   UNL A   1      32.322  34.181  27.673  1.00  0.00    -0.352 N 
ATOM     35  C   UNL A   1      33.166  34.399  28.734  1.00  0.00     0.251 C 
ATOM     36  H   UNL A   1      31.590  34.837  27.619  1.00  0.00     0.163 HD
ATOM     37  O   UNL A   1      32.880  35.351  29.479  1.00  0.00    -0.269 OA
BRANCH  35  38
ATOM     38  C   UNL A   1      34.394  33.607  29.049  1.00  0.00     0.039 A 
ATOM     39  C   UNL A   1      35.642  34.177  28.730  1.00  0.00     0.014 A 
ATOM     40  C   UNL A   1      34.382  32.301  29.542  1.00  0.00     0.014 A 
ATOM     41  C   UNL A   1      36.840  33.491  28.975  1.00  0.00     0.010 A 
ATOM     42  C   UNL A   1      35.566  31.616  29.804  1.00  0.00     0.010 A 
ATOM     43  C   UNL A   1      36.801  32.221  29.559  1.00  0.00    -0.014 A 
BRANCH  43  44
ATOM     44  C   UNL A   1      37.989  31.600  30.179  1.00  0.00     0.031 A 
ATOM     45  C   UNL A   1      38.764  30.511  29.512  1.00  0.00     0.074 A 
ATOM     46  C   UNL A   1      38.194  31.907  31.474  1.00  0.00     0.049 A 
ATOM     47  N   UNL A   1      39.786  29.834  29.972  1.00  0.00    -0.248 NA
ATOM     48  C   UNL A   1      38.328  30.109  28.166  1.00  0.00     0.031 C 
ATOM     49  C   UNL A   1      37.400  32.877  32.239  1.00  0.00     0.029 A 
ATOM     50  N   UNL A   1      39.071  31.398  32.390  1.00  0.00    -0.354 N 
ATOM     51  C   UNL A   1      40.128  28.935  28.970  1.00  0.00     0.074 A 
ATOM     52  C   UNL A   1      39.175  29.124  27.895  1.00  0.00     0.031 C 
ATOM     53  C   UNL A   1      37.804  32.866  33.515  1.00  0.00     0.029 A 
ATOM     54  C   UNL A   1      38.881  31.897  33.655  1.00  0.00     0.049 A 
ATOM     55  H   UNL A   1      39.770  30.742  32.166  1.00  0.00     0.167 HD
ATOM     56  C   UNL A   1      41.150  28.044  28.959  1.00  0.00     0.031 A 
ATOM     57  C   UNL A   1      39.507  31.607  34.806  1.00  0.00     0.031 A 
ATOM     58  C   UNL A   1      42.037  27.835  30.079  1.00  0.00     0.049 A 
ATOM     59  C   UNL A   1      40.642  30.633  34.770  1.00  0.00     0.074 A 
ATOM     60  C   UNL A   1      43.162  27.033  30.160  1.00  0.00     0.029 A 
ATOM     61  N   UNL A   1      41.869  28.412  31.332  1.00  0.00    -0.354 N 
ATOM     62  N   UNL A   1      41.073  29.913  33.762  1.00  0.00    -0.248 NA
ATOM     63  C   UNL A   1      41.403  30.466  36.010  1.00  0.00     0.031 C 
ATOM     64  C   UNL A   1      43.639  27.081  31.476  1.00  0.00     0.029 A 
ATOM     65  C   UNL A   1      42.850  27.960  32.200  1.00  0.00     0.049 A 
ATOM     66  H   UNL A   1      41.157  29.049  31.569  1.00  0.00     0.167 HD
ATOM     67  C   UNL A   1      42.180  29.229  34.234  1.00  0.00     0.074 A 
ATOM     68  C   UNL A   1      42.357  29.632  35.618  1.00  0.00     0.031 C 
ATOM     69  C   UNL A   1      42.986  28.357  33.580  1.00  0.00     0.031 A 
BRANCH  56  70
ATOM     70  C   UNL A   1      41.363  27.235  27.705  1.00  0.00    -0.014 A 
ATOM     71  C   UNL A   1      42.213  27.690  26.683  1.00  0.00     0.009 A 
ATOM     72  C   UNL A   1      40.752  25.978  27.559  1.00  0.00     0.009 A 
ATOM     73  C   UNL A   1      42.414  26.927  25.528  1.00  0.00     0.001 A 
ATOM     74  C   UNL A   1      40.976  25.205  26.415  1.00  0.00     0.001 A 
ATOM     75  C   UNL A   1      41.799  25.684  25.397  1.00  0.00     0.000 A 
ENDBRANCH  56  70
BRANCH  57  76
ATOM     76  C   UNL A   1      39.126  32.340  36.038  1.00  0.00    -0.014 A 
ATOM     77  C   UNL A   1      39.680  33.602  36.296  1.00  0.00     0.009 A 
ATOM     78  C   UNL A   1      38.136  31.840  36.898  1.00  0.00     0.009 A 
ATOM     79  C   UNL A   1      39.259  34.347  37.400  1.00  0.00     0.001 A 
ATOM     80  C   UNL A   1      37.700  32.597  37.988  1.00  0.00     0.001 A 
ATOM     81  C   UNL A   1      38.264  33.848  38.240  1.00  0.00     0.000 A 
ENDBRANCH  57  76
BRANCH  69  82
ATOM     82  C   UNL A   1      44.140  27.800  34.365  1.00  0.00    -0.014 A 
ATOM     83  C   UNL A   1      45.380  28.457  34.401  1.00  0.00     0.009 A 
ATOM     84  C   UNL A   1      43.978  26.605  35.081  1.00  0.00     0.009 A 
ATOM     85  C   UNL A   1      46.448  27.903  35.107  1.00  0.00     0.001 A 
ATOM     86  C   UNL A   1      45.039  26.070  35.811  1.00  0.00     0.001 A 
ATOM     87  C   UNL A   1      46.276  26.713  35.814  1.00  0.00     0.000 A 
ENDBRANCH  69  82
ENDBRANCH  43  44
ENDBRANCH  35  38
ENDBRANCH  33  34
ENDBRANCH  32  33
ENDBRANCH  31  32
ENDBRANCH   1  31
TORSDOF 16
ENDMDL
MODEL 3
REMARK VINA RESULT:     -11.1      4.843     10.305
REMARK SMILES Cn1c(C[NH+](C)C)nnc1[C@@H]1CCC[N@@H+](Cc2ccccc2C(=O)NCCCCNC(=O)c2ccc(-c3c4nc(c(-c5ccccc5)c5ccc([nH]5)c(-c5ccccc5)c5nc(c(-c6ccccc6)c6ccc3[nH]6)C=C5)C=C4)cc2)C1
REMARK SMILES IDX 26 1 25 2 23 3 24 4 22 6 17 7 18 8 19 9 21 10 20 11 16 12
REMARK SMILES IDX 15 13 11 14 12 15 81 16 13 17 14 18 10 20 3 21 8 22 2 23
REMARK SMILES IDX 9 24 1 25 4 26 5 27 6 28 7 29 27 31 28 32 29 33 30 34 31 35
REMARK SMILES IDX 32 37 33 38 34 39 80 40 35 41 79 42 36 43 37 44 38 45 73 46
REMARK SMILES IDX 39 47 78 48 72 49 74 50 40 51 77 52 71 53 70 54 41 56 63 57
REMARK SMILES IDX 48 58 62 59 49 60 52 61 61 62 75 63 50 64 51 65 60 67 76 68
REMARK SMILES IDX 53 69 42 70 43 71 47 72 44 73 46 74 45 75 64 76 65 77 69 78
REMARK SMILES IDX 66 79 68 80 67 81 54 82 55 83 59 84 56 85 58 86 57 87
REMARK H PARENT 25 5 15 19 5 30 30 36 74 55 52 66
REMARK Flexibility Score: inf
ROOT
ATOM      1  C   UNL A   1      32.363  29.177  26.084  1.00  0.00     0.116 C 
ENDROOT
BRANCH   1   2
ATOM      2  N   UNL A   1      32.788  29.158  24.701  1.00  0.00    -0.352 N 
ATOM      3  C   UNL A   1      32.068  29.040  23.541  1.00  0.00     0.251 C 
ATOM      4  O   UNL A   1      32.691  29.190  22.477  1.00  0.00    -0.269 OA
ATOM      5  H   UNL A   1      33.760  29.245  24.572  1.00  0.00     0.163 HD
BRANCH   3   6
ATOM      6  C   UNL A   1      30.622  28.673  23.458  1.00  0.00     0.048 A 
ATOM      7  C   UNL A   1      30.006  27.440  23.766  1.00  0.00     0.019 A 
ATOM      8  C   UNL A   1      28.610  27.320  23.554  1.00  0.00     0.010 A 
ATOM      9  C   UNL A   1      27.825  28.401  23.163  1.00  0.00     0.001 A 
ATOM     10  C   UNL A   1      29.796  29.772  23.128  1.00  0.00     0.014 A 
ATOM     11  C   UNL A   1      28.413  29.641  22.990  1.00  0.00     0.001 A 
BRANCH   7  12
ATOM     12  C   UNL A   1      30.672  26.221  24.348  1.00  0.00     0.299 C 
BRANCH  12  13
ATOM     13  N   UNL A   1      31.554  25.431  23.496  1.00  0.00    -0.331 N 
ATOM     14  C   UNL A   1      32.739  23.266  23.016  1.00  0.00     0.113 C 
ATOM     15  C   UNL A   1      32.938  23.729  21.571  1.00  0.00     0.023 C 
ATOM     16  C   UNL A   1      31.580  23.988  23.714  1.00  0.00     0.274 C 
ATOM     17  C   UNL A   1      32.800  25.237  21.387  1.00  0.00     0.062 C 
ATOM     18  C   UNL A   1      31.561  25.808  22.088  1.00  0.00     0.262 C 
ATOM     19  H   UNL A   1      32.460  25.725  23.860  1.00  0.00     0.348 HD
BRANCH  14  20
ATOM     20  C   UNL A   1      34.011  23.188  23.821  1.00  0.00     0.141 A 
ATOM     21  C   UNL A   1      35.666  22.606  25.147  1.00  0.00     0.187 A 
ATOM     22  N   UNL A   1      35.855  23.859  24.800  1.00  0.00    -0.129 NA
ATOM     23  N   UNL A   1      34.550  22.122  24.496  1.00  0.00    -0.313 N 
ATOM     24  N   UNL A   1      34.825  24.220  23.975  1.00  0.00    -0.135 NA
ATOM     25  C   UNL A   1      34.158  20.743  24.556  1.00  0.00     0.153 C 
BRANCH  21  26
ATOM     26  C   UNL A   1      36.550  21.768  26.012  1.00  0.00     0.340 C 
BRANCH  26  27
ATOM     27  N   UNL A   1      37.800  21.411  25.345  1.00  0.00    -0.333 N 
ATOM     28  C   UNL A   1      37.833  20.037  24.889  1.00  0.00     0.332 C 
ATOM     29  C   UNL A   1      38.978  21.898  26.036  1.00  0.00     0.332 C 
ATOM     30  H   UNL A   1      37.827  21.935  24.469  1.00  0.00     0.348 HD
ENDBRANCH  26  27
ENDBRANCH  21  26
ENDBRANCH  14  20
ENDBRANCH  12  13
ENDBRANCH   7  12
ENDBRANCH   3   6
ENDBRANCH   1   2
BRANCH   1  31
ATOM     31  C   UNL A   1      31.187  30.099  26.392  1.00  0.00     0.023 C 
BRANCH  31  32
ATOM     32  C   UNL A   1      31.471  31.600  26.261  1.00  0.00     0.023 C 
BRANCH  32  33
ATOM     33  C   UNL A   1      32.653  32.174  27.047  1.00  0.00     0.116 C 
BRANCH  33  34
ATOM     34  N   UNL A   1      32.436  33.528  27.535  1.00  0.00    -0.352 N 
ATOM     35  C   UNL A   1      33.118  34.341  28.405  1.00  0.00     0.251 C 
ATOM     36  H   UNL A   1      31.629  33.950  27.161  1.00  0.00     0.163 HD
ATOM     37  O   UNL A   1      32.621  35.459  28.620  1.00  0.00    -0.269 OA
BRANCH  35  38
ATOM     38  C   UNL A   1      34.404  34.004  29.089  1.00  0.00     0.039 A 
ATOM     39  C   UNL A   1      34.332  33.425  30.372  1.00  0.00     0.014 A 
ATOM     40  C   UNL A   1      35.667  34.317  28.585  1.00  0.00     0.014 A 
ATOM     41  C   UNL A   1      35.493  33.098  31.088  1.00  0.00     0.010 A 
ATOM     42  C   UNL A   1      36.827  33.981  29.281  1.00  0.00     0.010 A 
ATOM     43  C   UNL A   1      36.747  33.336  30.517  1.00  0.00    -0.014 A 
BRANCH  43  44
ATOM     44  C   UNL A   1      37.979  32.698  31.024  1.00  0.00     0.031 A 
ATOM     45  C   UNL A   1      38.519  31.429  30.449  1.00  0.00     0.074 A 
ATOM     46  C   UNL A   1      38.454  33.196  32.181  1.00  0.00     0.049 A 
ATOM     47  N   UNL A   1      39.553  30.728  30.841  1.00  0.00    -0.248 NA
ATOM     48  C   UNL A   1      37.799  30.857  29.301  1.00  0.00     0.031 C 
ATOM     49  C   UNL A   1      37.905  34.366  32.877  1.00  0.00     0.029 A 
ATOM     50  N   UNL A   1      39.449  32.753  33.008  1.00  0.00    -0.354 N 
ATOM     51  C   UNL A   1      39.621  29.639  29.982  1.00  0.00     0.074 A 
ATOM     52  C   UNL A   1      38.496  29.750  29.076  1.00  0.00     0.031 C 
ATOM     53  C   UNL A   1      38.546  34.526  34.041  1.00  0.00     0.029 A 
ATOM     54  C   UNL A   1      39.548  33.478  34.170  1.00  0.00     0.049 A 
ATOM     55  H   UNL A   1      40.036  31.992  32.792  1.00  0.00     0.167 HD
ATOM     56  C   UNL A   1      40.546  28.648  29.959  1.00  0.00     0.031 A 
ATOM     57  C   UNL A   1      40.361  33.318  35.227  1.00  0.00     0.031 A 
ATOM     58  C   UNL A   1      41.613  28.533  30.925  1.00  0.00     0.049 A 
ATOM     59  C   UNL A   1      41.384  32.229  35.175  1.00  0.00     0.074 A 
ATOM     60  C   UNL A   1      42.664  27.633  30.956  1.00  0.00     0.029 A 
ATOM     61  N   UNL A   1      41.739  29.329  32.057  1.00  0.00    -0.354 N 
ATOM     62  N   UNL A   1      41.552  31.303  34.262  1.00  0.00    -0.248 NA
ATOM     63  C   UNL A   1      42.356  32.189  36.271  1.00  0.00     0.031 C 
ATOM     64  C   UNL A   1      43.389  27.848  32.135  1.00  0.00     0.029 A 
ATOM     65  C   UNL A   1      42.829  28.923  32.808  1.00  0.00     0.049 A 
ATOM     66  H   UNL A   1      41.139  30.075  32.290  1.00  0.00     0.167 HD
ATOM     67  C   UNL A   1      42.671  30.587  34.652  1.00  0.00     0.074 A 
ATOM     68  C   UNL A   1      43.145  31.197  35.881  1.00  0.00     0.031 C 
ATOM     69  C   UNL A   1      43.262  29.530  34.042  1.00  0.00     0.031 A 
BRANCH  56  70
ATOM     70  C   UNL A   1      40.445  27.618  28.864  1.00  0.00    -0.014 A 
ATOM     71  C   UNL A   1      41.116  27.792  27.640  1.00  0.00     0.009 A 
ATOM     72  C   UNL A   1      39.717  26.434  29.066  1.00  0.00     0.009 A 
ATOM     73  C   UNL A   1      41.027  26.826  26.633  1.00  0.00     0.001 A 
ATOM     74  C   UNL A   1      39.653  25.457  28.067  1.00  0.00     0.001 A 
ATOM     75  C   UNL A   1      40.299  25.658  26.849  1.00  0.00     0.000 A 
ENDBRANCH  56  70
BRANCH  57  76
ATOM     76  C   UNL A   1      40.285  34.289  36.345  1.00  0.00    -0.014 A 
ATOM     77  C   UNL A   1      40.963  35.513  36.251  1.00  0.00     0.009 A 
ATOM     78  C   UNL A   1      39.459  34.050  37.454  1.00  0.00     0.009 A 
ATOM     79  C   UNL A   1      40.824  36.477  37.252  1.00  0.00     0.001 A 
ATOM     80  C   UNL A   1      39.303  35.025  38.442  1.00  0.00     0.001 A 
ATOM     81  C   UNL A   1      39.989  36.236  38.342  1.00  0.00     0.000 A 
ENDBRANCH  57  76
BRANCH  69  82
ATOM     82  C   UNL A   1      44.497  28.986  34.702  1.00  0.00    -0.014 A 
ATOM     83  C   UNL A   1      44.421  27.956  35.652  1.00  0.00     0.009 A 
ATOM     84  C   UNL A   1      45.753  29.511  34.360  1.00  0.00     0.009 A 
ATOM     85  C   UNL A   1      45.578  27.490  36.278  1.00  0.00     0.001 A 
ATOM     86  C   UNL A   1      46.910  29.022  34.966  1.00  0.00     0.001 A 
ATOM     87  C   UNL A   1      46.821  28.021  35.932  1.00  0.00     0.000 A 
ENDBRANCH  69  82
ENDBRANCH  43  44
ENDBRANCH  35  38
ENDBRANCH  33  34
ENDBRANCH  32  33
ENDBRANCH  31  32
ENDBRANCH   1  31
TORSDOF 16
ENDMDL
