MODEL 1
REMARK VINA RESULT:     -10.1      0.000      0.000
REMARK SMILES C[C@H](CSc1ccc(C(=O)N(C)C)cn1)C(=O)NCCCCNC(=O)c1ccc(-c2c3nc(c(-c4ccccc4)c4ccc([nH]4)c(-c4ccccc4)c4nc(c(-c5ccccc5)c5ccc2[nH]5)C=C4)C=C3)cc1
REMARK SMILES IDX 19 1 18 2 16 3 17 4 2 6 1 7 3 8 4 9 5 10 6 11 15 12 7 13
REMARK SMILES IDX 14 14 8 15 9 16 10 17 11 18 12 19 13 20 20 21 21 22 22 23
REMARK SMILES IDX 23 24 24 25 25 27 26 28 27 29 73 30 28 31 72 32 29 33 30 34
REMARK SMILES IDX 31 35 66 36 32 37 71 38 65 39 67 40 33 41 70 42 64 43 63 44
REMARK SMILES IDX 34 46 56 47 41 48 55 49 42 50 45 51 54 52 68 53 43 54 44 55
REMARK SMILES IDX 53 57 69 58 46 59 35 60 36 61 40 62 37 63 39 64 38 65 57 66
REMARK SMILES IDX 58 67 62 68 59 69 61 70 60 71 47 72 48 73 52 74 49 75 51 76
REMARK SMILES IDX 50 77
REMARK H PARENT 18 5 23 26 67 45 45 56
REMARK Flexibility Score: inf
ROOT
ATOM      1  C   UNL A   1      33.259  29.046  23.480  1.00  0.00     0.116 C 
ENDROOT
BRANCH   1   2
ATOM      2  N   UNL A   1      31.971  29.005  22.802  1.00  0.00    -0.356 N 
ATOM      3  C   UNL A   1      31.002  28.074  22.644  1.00  0.00     0.223 C 
ATOM      4  O   UNL A   1      30.001  28.436  22.011  1.00  0.00    -0.275 OA
ATOM      5  H   UNL A   1      31.753  29.855  22.354  1.00  0.00     0.163 HD
BRANCH   3   6
ATOM      6  C   UNL A   1      31.065  26.644  23.160  1.00  0.00     0.085 C 
ATOM      7  C   UNL A   1      31.713  25.619  22.239  1.00  0.00     0.019 C 
BRANCH   6   8
ATOM      8  C   UNL A   1      29.815  26.130  23.901  1.00  0.00     0.089 C 
BRANCH   8   9
ATOM      9  S   UNL A   1      29.871  25.694  25.674  1.00  0.00    -0.106 SA
BRANCH   9  10
ATOM     10  C   UNL A   1      31.134  24.442  25.810  1.00  0.00     0.096 A 
ATOM     11  C   UNL A   1      31.042  23.155  25.302  1.00  0.00     0.036 A 
ATOM     12  N   UNL A   1      32.272  24.872  26.402  1.00  0.00    -0.249 NA
ATOM     13  C   UNL A   1      32.191  22.355  25.231  1.00  0.00     0.018 A 
ATOM     14  C   UNL A   1      33.370  24.072  26.334  1.00  0.00     0.126 A 
ATOM     15  C   UNL A   1      33.410  22.851  25.674  1.00  0.00     0.058 A 
BRANCH  15  16
ATOM     16  C   UNL A   1      34.741  22.210  25.498  1.00  0.00     0.254 C 
ATOM     17  O   UNL A   1      35.140  21.522  26.439  1.00  0.00    -0.269 OA
ATOM     18  N   UNL A   1      35.531  22.427  24.363  1.00  0.00    -0.345 N 
ATOM     19  C   UNL A   1      35.246  23.335  23.260  1.00  0.00     0.146 C 
ATOM     20  C   UNL A   1      36.817  21.745  24.289  1.00  0.00     0.146 C 
ENDBRANCH  15  16
ENDBRANCH   9  10
ENDBRANCH   8   9
ENDBRANCH   6   8
ENDBRANCH   3   6
ENDBRANCH   1   2
BRANCH   1  21
ATOM     21  C   UNL A   1      33.178  29.417  24.961  1.00  0.00     0.023 C 
BRANCH  21  22
ATOM     22  C   UNL A   1      33.317  28.238  25.920  1.00  0.00     0.023 C 
BRANCH  22  23
ATOM     23  C   UNL A   1      33.332  28.584  27.398  1.00  0.00     0.116 C 
BRANCH  23  24
ATOM     24  N   UNL A   1      33.463  30.012  27.613  1.00  0.00    -0.352 N 
ATOM     25  C   UNL A   1      34.500  30.742  28.140  1.00  0.00     0.251 C 
ATOM     26  H   UNL A   1      32.682  30.545  27.335  1.00  0.00     0.163 HD
ATOM     27  O   UNL A   1      34.299  31.912  28.454  1.00  0.00    -0.269 OA
BRANCH  25  28
ATOM     28  C   UNL A   1      35.855  30.161  28.330  1.00  0.00     0.039 A 
ATOM     29  C   UNL A   1      36.176  29.618  29.580  1.00  0.00     0.014 A 
ATOM     30  C   UNL A   1      36.842  30.228  27.344  1.00  0.00     0.014 A 
ATOM     31  C   UNL A   1      37.466  29.136  29.832  1.00  0.00     0.010 A 
ATOM     32  C   UNL A   1      38.100  29.664  27.563  1.00  0.00     0.010 A 
ATOM     33  C   UNL A   1      38.438  29.146  28.820  1.00  0.00    -0.014 A 
BRANCH  33  34
ATOM     34  C   UNL A   1      39.830  28.691  29.079  1.00  0.00     0.031 A 
ATOM     35  C   UNL A   1      40.805  29.608  29.775  1.00  0.00     0.074 A 
ATOM     36  C   UNL A   1      40.236  27.476  28.665  1.00  0.00     0.049 A 
ATOM     37  N   UNL A   1      42.078  29.428  30.028  1.00  0.00    -0.248 NA
ATOM     38  C   UNL A   1      40.290  30.915  30.215  1.00  0.00     0.031 C 
ATOM     39  C   UNL A   1      39.407  26.502  27.953  1.00  0.00     0.029 A 
ATOM     40  N   UNL A   1      41.453  26.853  28.785  1.00  0.00    -0.354 N 
ATOM     41  C   UNL A   1      42.518  30.606  30.619  1.00  0.00     0.074 A 
ATOM     42  C   UNL A   1      41.390  31.511  30.651  1.00  0.00     0.031 C 
ATOM     43  C   UNL A   1      40.127  25.389  27.736  1.00  0.00     0.029 A 
ATOM     44  C   UNL A   1      41.478  25.588  28.250  1.00  0.00     0.049 A 
ATOM     45  H   UNL A   1      42.234  27.273  29.212  1.00  0.00     0.167 HD
ATOM     46  C   UNL A   1      43.744  30.906  31.109  1.00  0.00     0.031 A 
ATOM     47  C   UNL A   1      42.480  24.690  28.176  1.00  0.00     0.031 A 
ATOM     48  C   UNL A   1      44.856  29.995  31.121  1.00  0.00     0.049 A 
ATOM     49  C   UNL A   1      43.829  25.042  28.740  1.00  0.00     0.074 A 
ATOM     50  C   UNL A   1      46.119  30.182  31.655  1.00  0.00     0.029 A 
ATOM     51  N   UNL A   1      44.834  28.719  30.580  1.00  0.00    -0.354 N 
ATOM     52  N   UNL A   1      44.214  26.144  29.336  1.00  0.00    -0.248 NA
ATOM     53  C   UNL A   1      44.880  24.020  28.624  1.00  0.00     0.031 C 
ATOM     54  C   UNL A   1      46.875  29.034  31.400  1.00  0.00     0.029 A 
ATOM     55  C   UNL A   1      46.067  28.114  30.750  1.00  0.00     0.049 A 
ATOM     56  H   UNL A   1      44.057  28.305  30.141  1.00  0.00     0.167 HD
ATOM     57  C   UNL A   1      45.542  25.940  29.687  1.00  0.00     0.074 A 
ATOM     58  C   UNL A   1      45.891  24.603  29.252  1.00  0.00     0.031 C 
ATOM     59  C   UNL A   1      46.397  26.783  30.314  1.00  0.00     0.031 A 
BRANCH  46  60
ATOM     60  C   UNL A   1      43.948  32.286  31.671  1.00  0.00    -0.014 A 
ATOM     61  C   UNL A   1      43.722  32.564  33.028  1.00  0.00     0.009 A 
ATOM     62  C   UNL A   1      44.406  33.317  30.835  1.00  0.00     0.009 A 
ATOM     63  C   UNL A   1      43.913  33.854  33.528  1.00  0.00     0.001 A 
ATOM     64  C   UNL A   1      44.624  34.598  31.343  1.00  0.00     0.001 A 
ATOM     65  C   UNL A   1      44.368  34.869  32.687  1.00  0.00     0.000 A 
ENDBRANCH  46  60
BRANCH  47  66
ATOM     66  C   UNL A   1      42.244  23.361  27.555  1.00  0.00    -0.014 A 
ATOM     67  C   UNL A   1      41.702  22.311  28.314  1.00  0.00     0.009 A 
ATOM     68  C   UNL A   1      42.564  23.131  26.209  1.00  0.00     0.009 A 
ATOM     69  C   UNL A   1      41.508  21.052  27.742  1.00  0.00     0.001 A 
ATOM     70  C   UNL A   1      42.343  21.878  25.633  1.00  0.00     0.001 A 
ATOM     71  C   UNL A   1      41.824  20.838  26.402  1.00  0.00     0.000 A 
ENDBRANCH  47  66
BRANCH  59  72
ATOM     72  C   UNL A   1      47.780  26.275  30.597  1.00  0.00    -0.014 A 
ATOM     73  C   UNL A   1      48.790  26.333  29.623  1.00  0.00     0.009 A 
ATOM     74  C   UNL A   1      48.089  25.768  31.869  1.00  0.00     0.009 A 
ATOM     75  C   UNL A   1      50.073  25.864  29.910  1.00  0.00     0.001 A 
ATOM     76  C   UNL A   1      49.378  25.324  32.160  1.00  0.00     0.001 A 
ATOM     77  C   UNL A   1      50.367  25.364  31.179  1.00  0.00     0.000 A 
ENDBRANCH  59  72
ENDBRANCH  33  34
ENDBRANCH  25  28
ENDBRANCH  23  24
ENDBRANCH  22  23
ENDBRANCH  21  22
ENDBRANCH   1  21
TORSDOF 15
ENDMDL
MODEL 2
REMARK VINA RESULT:     -10.1      2.291      7.961
REMARK SMILES C[C@H](CSc1ccc(C(=O)N(C)C)cn1)C(=O)NCCCCNC(=O)c1ccc(-c2c3nc(c(-c4ccccc4)c4ccc([nH]4)c(-c4ccccc4)c4nc(c(-c5ccccc5)c5ccc2[nH]5)C=C4)C=C3)cc1
REMARK SMILES IDX 19 1 18 2 16 3 17 4 2 6 1 7 3 8 4 9 5 10 6 11 15 12 7 13
REMARK SMILES IDX 14 14 8 15 9 16 10 17 11 18 12 19 13 20 20 21 21 22 22 23
REMARK SMILES IDX 23 24 24 25 25 27 26 28 27 29 73 30 28 31 72 32 29 33 30 34
REMARK SMILES IDX 31 35 66 36 32 37 71 38 65 39 67 40 33 41 70 42 64 43 63 44
REMARK SMILES IDX 34 46 56 47 41 48 55 49 42 50 45 51 54 52 68 53 43 54 44 55
REMARK SMILES IDX 53 57 69 58 46 59 35 60 36 61 40 62 37 63 39 64 38 65 57 66
REMARK SMILES IDX 58 67 62 68 59 69 61 70 60 71 47 72 48 73 52 74 49 75 51 76
REMARK SMILES IDX 50 77
REMARK H PARENT 18 5 23 26 67 45 45 56
REMARK Flexibility Score: inf
ROOT
ATOM      1  C   UNL A   1      34.041  21.757  27.027  1.00  0.00     0.116 C 
ENDROOT
BRANCH   1   2
ATOM      2  N   UNL A   1      33.242  20.746  26.349  1.00  0.00    -0.356 N 
ATOM      3  C   UNL A   1      32.513  20.708  25.209  1.00  0.00     0.223 C 
ATOM      4  O   UNL A   1      31.989  19.619  24.938  1.00  0.00    -0.275 OA
ATOM      5  H   UNL A   1      33.229  19.888  26.833  1.00  0.00     0.163 HD
BRANCH   3   6
ATOM      6  C   UNL A   1      32.285  21.885  24.273  1.00  0.00     0.085 C 
ATOM      7  C   UNL A   1      33.470  22.310  23.417  1.00  0.00     0.019 C 
BRANCH   6   8
ATOM      8  C   UNL A   1      31.460  23.058  24.839  1.00  0.00     0.089 C 
BRANCH   8   9
ATOM      9  S   UNL A   1      30.683  24.293  23.740  1.00  0.00    -0.106 SA
BRANCH   9  10
ATOM     10  C   UNL A   1      30.815  25.845  24.609  1.00  0.00     0.096 A 
ATOM     11  C   UNL A   1      30.721  26.002  25.984  1.00  0.00     0.036 A 
ATOM     12  N   UNL A   1      31.103  26.898  23.812  1.00  0.00    -0.249 NA
ATOM     13  C   UNL A   1      31.108  27.215  26.571  1.00  0.00     0.018 A 
ATOM     14  C   UNL A   1      31.462  28.070  24.403  1.00  0.00     0.126 A 
ATOM     15  C   UNL A   1      31.578  28.251  25.776  1.00  0.00     0.058 A 
BRANCH  15  16
ATOM     16  C   UNL A   1      32.196  29.518  26.250  1.00  0.00     0.254 C 
ATOM     17  O   UNL A   1      31.529  30.541  26.093  1.00  0.00    -0.269 OA
ATOM     18  N   UNL A   1      33.492  29.563  26.781  1.00  0.00    -0.345 N 
ATOM     19  C   UNL A   1      34.437  28.460  26.874  1.00  0.00     0.146 C 
ATOM     20  C   UNL A   1      34.001  30.856  27.222  1.00  0.00     0.146 C 
ENDBRANCH  15  16
ENDBRANCH   9  10
ENDBRANCH   8   9
ENDBRANCH   6   8
ENDBRANCH   3   6
ENDBRANCH   1   2
BRANCH   1  21
ATOM     21  C   UNL A   1      35.458  21.913  26.473  1.00  0.00     0.023 C 
BRANCH  21  22
ATOM     22  C   UNL A   1      35.845  23.344  26.110  1.00  0.00     0.023 C 
BRANCH  22  23
ATOM     23  C   UNL A   1      37.003  23.492  25.140  1.00  0.00     0.116 C 
BRANCH  23  24
ATOM     24  N   UNL A   1      38.121  22.646  25.508  1.00  0.00    -0.352 N 
ATOM     25  C   UNL A   1      39.298  22.952  26.145  1.00  0.00     0.251 C 
ATOM     26  H   UNL A   1      38.020  21.697  25.261  1.00  0.00     0.163 HD
ATOM     27  O   UNL A   1      40.208  22.126  26.135  1.00  0.00    -0.269 OA
BRANCH  25  28
ATOM     28  C   UNL A   1      39.499  24.244  26.852  1.00  0.00     0.039 A 
ATOM     29  C   UNL A   1      40.225  25.251  26.204  1.00  0.00     0.014 A 
ATOM     30  C   UNL A   1      39.075  24.450  28.167  1.00  0.00     0.014 A 
ATOM     31  C   UNL A   1      40.511  26.452  26.862  1.00  0.00     0.010 A 
ATOM     32  C   UNL A   1      39.278  25.682  28.790  1.00  0.00     0.010 A 
ATOM     33  C   UNL A   1      40.030  26.683  28.159  1.00  0.00    -0.014 A 
BRANCH  33  34
ATOM     34  C   UNL A   1      40.367  27.928  28.900  1.00  0.00     0.031 A 
ATOM     35  C   UNL A   1      41.717  28.073  29.556  1.00  0.00     0.074 A 
ATOM     36  C   UNL A   1      39.458  28.915  29.018  1.00  0.00     0.049 A 
ATOM     37  N   UNL A   1      42.175  29.045  30.305  1.00  0.00    -0.248 NA
ATOM     38  C   UNL A   1      42.667  26.963  29.373  1.00  0.00     0.031 C 
ATOM     39  C   UNL A   1      38.104  28.893  28.461  1.00  0.00     0.029 A 
ATOM     40  N   UNL A   1      39.539  30.132  29.648  1.00  0.00    -0.354 N 
ATOM     41  C   UNL A   1      43.444  28.647  30.709  1.00  0.00     0.074 A 
ATOM     42  C   UNL A   1      43.670  27.329  30.158  1.00  0.00     0.031 C 
ATOM     43  C   UNL A   1      37.497  30.058  28.739  1.00  0.00     0.029 A 
ATOM     44  C   UNL A   1      38.398  30.888  29.531  1.00  0.00     0.049 A 
ATOM     45  H   UNL A   1      40.337  30.434  30.138  1.00  0.00     0.167 HD
ATOM     46  C   UNL A   1      44.351  29.321  31.456  1.00  0.00     0.031 A 
ATOM     47  C   UNL A   1      38.108  32.112  30.014  1.00  0.00     0.031 A 
ATOM     48  C   UNL A   1      44.150  30.649  31.969  1.00  0.00     0.049 A 
ATOM     49  C   UNL A   1      39.136  32.847  30.828  1.00  0.00     0.074 A 
ATOM     50  C   UNL A   1      45.033  31.443  32.679  1.00  0.00     0.029 A 
ATOM     51  N   UNL A   1      42.984  31.384  31.816  1.00  0.00    -0.354 N 
ATOM     52  N   UNL A   1      40.347  32.473  31.163  1.00  0.00    -0.248 NA
ATOM     53  C   UNL A   1      38.755  34.176  31.329  1.00  0.00     0.031 C 
ATOM     54  C   UNL A   1      44.387  32.643  32.993  1.00  0.00     0.029 A 
ATOM     55  C   UNL A   1      43.118  32.614  32.435  1.00  0.00     0.049 A 
ATOM     56  H   UNL A   1      42.181  31.076  31.337  1.00  0.00     0.167 HD
ATOM     57  C   UNL A   1      40.882  33.529  31.889  1.00  0.00     0.074 A 
ATOM     58  C   UNL A   1      39.870  34.564  31.934  1.00  0.00     0.031 C 
ATOM     59  C   UNL A   1      42.103  33.633  32.468  1.00  0.00     0.031 A 
BRANCH  46  60
ATOM     60  C   UNL A   1      45.647  28.626  31.769  1.00  0.00    -0.014 A 
ATOM     61  C   UNL A   1      45.785  27.813  32.905  1.00  0.00     0.009 A 
ATOM     62  C   UNL A   1      46.738  28.762  30.895  1.00  0.00     0.009 A 
ATOM     63  C   UNL A   1      47.000  27.181  33.180  1.00  0.00     0.001 A 
ATOM     64  C   UNL A   1      47.942  28.107  31.157  1.00  0.00     0.001 A 
ATOM     65  C   UNL A   1      48.075  27.325  32.304  1.00  0.00     0.000 A 
ENDBRANCH  46  60
BRANCH  47  66
ATOM     66  C   UNL A   1      36.788  32.732  29.727  1.00  0.00    -0.014 A 
ATOM     67  C   UNL A   1      36.596  33.481  28.556  1.00  0.00     0.009 A 
ATOM     68  C   UNL A   1      35.717  32.585  30.622  1.00  0.00     0.009 A 
ATOM     69  C   UNL A   1      35.367  34.090  28.299  1.00  0.00     0.001 A 
ATOM     70  C   UNL A   1      34.481  33.173  30.348  1.00  0.00     0.001 A 
ATOM     71  C   UNL A   1      34.309  33.932  29.192  1.00  0.00     0.000 A 
ENDBRANCH  47  66
BRANCH  59  72
ATOM     72  C   UNL A   1      42.422  34.920  33.171  1.00  0.00    -0.014 A 
ATOM     73  C   UNL A   1      43.149  35.937  32.531  1.00  0.00     0.009 A 
ATOM     74  C   UNL A   1      41.953  35.134  34.476  1.00  0.00     0.009 A 
ATOM     75  C   UNL A   1      43.426  37.131  33.200  1.00  0.00     0.001 A 
ATOM     76  C   UNL A   1      42.210  36.338  35.132  1.00  0.00     0.001 A 
ATOM     77  C   UNL A   1      42.953  37.332  34.497  1.00  0.00     0.000 A 
ENDBRANCH  59  72
ENDBRANCH  33  34
ENDBRANCH  25  28
ENDBRANCH  23  24
ENDBRANCH  22  23
ENDBRANCH  21  22
ENDBRANCH   1  21
TORSDOF 15
ENDMDL
MODEL 3
REMARK VINA RESULT:     -10.0      1.859      7.688
REMARK SMILES C[C@H](CSc1ccc(C(=O)N(C)C)cn1)C(=O)NCCCCNC(=O)c1ccc(-c2c3nc(c(-c4ccccc4)c4ccc([nH]4)c(-c4ccccc4)c4nc(c(-c5ccccc5)c5ccc2[nH]5)C=C4)C=C3)cc1
REMARK SMILES IDX 19 1 18 2 16 3 17 4 2 6 1 7 3 8 4 9 5 10 6 11 15 12 7 13
REMARK SMILES IDX 14 14 8 15 9 16 10 17 11 18 12 19 13 20 20 21 21 22 22 23
REMARK SMILES IDX 23 24 24 25 25 27 26 28 27 29 73 30 28 31 72 32 29 33 30 34
REMARK SMILES IDX 31 35 66 36 32 37 71 38 65 39 67 40 33 41 70 42 64 43 63 44
REMARK SMILES IDX 34 46 56 47 41 48 55 49 42 50 45 51 54 52 68 53 43 54 44 55
REMARK SMILES IDX 53 57 69 58 46 59 35 60 36 61 40 62 37 63 39 64 38 65 57 66
REMARK SMILES IDX 58 67 62 68 59 69 61 70 60 71 47 72 48 73 52 74 49 75 51 76
REMARK SMILES IDX 50 77
REMARK H PARENT 18 5 23 26 67 45 45 56
REMARK Flexibility Score: inf
ROOT
ATOM      1  C   UNL A   1      35.329  20.275  25.016  1.00  0.00     0.116 C 
ENDROOT
BRANCH   1   2
ATOM      2  N   UNL A   1      34.124  19.488  25.239  1.00  0.00    -0.356 N 
ATOM      3  C   UNL A   1      32.800  19.692  25.051  1.00  0.00     0.223 C 
ATOM      4  O   UNL A   1      32.060  18.740  25.335  1.00  0.00    -0.275 OA
ATOM      5  H   UNL A   1      34.319  18.598  25.614  1.00  0.00     0.163 HD
BRANCH   3   6
ATOM      6  C   UNL A   1      32.173  20.983  24.546  1.00  0.00     0.085 C 
ATOM      7  C   UNL A   1      32.771  21.576  23.278  1.00  0.00     0.019 C 
BRANCH   6   8
ATOM      8  C   UNL A   1      31.801  22.026  25.618  1.00  0.00     0.089 C 
BRANCH   8   9
ATOM      9  S   UNL A   1      33.081  22.863  26.617  1.00  0.00    -0.106 SA
BRANCH   9  10
ATOM     10  C   UNL A   1      32.835  24.606  26.330  1.00  0.00     0.096 A 
ATOM     11  C   UNL A   1      33.725  25.441  25.672  1.00  0.00     0.036 A 
ATOM     12  N   UNL A   1      31.634  25.067  26.749  1.00  0.00    -0.249 NA
ATOM     13  C   UNL A   1      33.308  26.718  25.270  1.00  0.00     0.018 A 
ATOM     14  C   UNL A   1      31.257  26.315  26.359  1.00  0.00     0.126 A 
ATOM     15  C   UNL A   1      32.013  27.141  25.537  1.00  0.00     0.058 A 
BRANCH  15  16
ATOM     16  C   UNL A   1      31.363  28.376  25.021  1.00  0.00     0.254 C 
ATOM     17  O   UNL A   1      31.426  29.368  25.749  1.00  0.00    -0.269 OA
ATOM     18  N   UNL A   1      30.657  28.399  23.811  1.00  0.00    -0.345 N 
ATOM     19  C   UNL A   1      30.377  27.265  22.942  1.00  0.00     0.146 C 
ATOM     20  C   UNL A   1      30.063  29.663  23.396  1.00  0.00     0.146 C 
ENDBRANCH  15  16
ENDBRANCH   9  10
ENDBRANCH   8   9
ENDBRANCH   6   8
ENDBRANCH   3   6
ENDBRANCH   1   2
BRANCH   1  21
ATOM     21  C   UNL A   1      36.601  19.442  24.843  1.00  0.00     0.023 C 
BRANCH  21  22
ATOM     22  C   UNL A   1      37.876  20.260  24.660  1.00  0.00     0.023 C 
BRANCH  22  23
ATOM     23  C   UNL A   1      38.735  20.433  25.900  1.00  0.00     0.116 C 
BRANCH  23  24
ATOM     24  N   UNL A   1      39.853  19.510  25.910  1.00  0.00    -0.352 N 
ATOM     25  C   UNL A   1      41.196  19.740  26.081  1.00  0.00     0.251 C 
ATOM     26  H   UNL A   1      39.610  18.565  25.773  1.00  0.00     0.163 HD
ATOM     27  O   UNL A   1      41.989  18.841  25.809  1.00  0.00    -0.269 OA
BRANCH  25  28
ATOM     28  C   UNL A   1      41.716  21.035  26.593  1.00  0.00     0.039 A 
ATOM     29  C   UNL A   1      41.739  21.241  27.978  1.00  0.00     0.014 A 
ATOM     30  C   UNL A   1      42.085  22.080  25.744  1.00  0.00     0.014 A 
ATOM     31  C   UNL A   1      42.141  22.474  28.503  1.00  0.00     0.010 A 
ATOM     32  C   UNL A   1      42.575  23.277  26.268  1.00  0.00     0.010 A 
ATOM     33  C   UNL A   1      42.573  23.502  27.651  1.00  0.00    -0.014 A 
BRANCH  33  34
ATOM     34  C   UNL A   1      42.951  24.840  28.180  1.00  0.00     0.031 A 
ATOM     35  C   UNL A   1      41.889  25.882  28.424  1.00  0.00     0.074 A 
ATOM     36  C   UNL A   1      44.244  25.137  28.411  1.00  0.00     0.049 A 
ATOM     37  N   UNL A   1      42.021  27.126  28.812  1.00  0.00    -0.248 NA
ATOM     38  C   UNL A   1      40.495  25.483  28.167  1.00  0.00     0.031 C 
ATOM     39  C   UNL A   1      45.375  24.236  28.188  1.00  0.00     0.029 A 
ATOM     40  N   UNL A   1      44.824  26.288  28.885  1.00  0.00    -0.354 N 
ATOM     41  C   UNL A   1      40.739  27.663  28.809  1.00  0.00     0.074 A 
ATOM     42  C   UNL A   1      39.847  26.625  28.341  1.00  0.00     0.031 C 
ATOM     43  C   UNL A   1      46.508  24.852  28.564  1.00  0.00     0.029 A 
ATOM     44  C   UNL A   1      46.189  26.205  29.009  1.00  0.00     0.049 A 
ATOM     45  H   UNL A   1      44.311  27.096  29.115  1.00  0.00     0.167 HD
ATOM     46  C   UNL A   1      40.333  28.901  29.177  1.00  0.00     0.031 A 
ATOM     47  C   UNL A   1      47.086  27.119  29.428  1.00  0.00     0.031 A 
ATOM     48  C   UNL A   1      41.209  29.922  29.685  1.00  0.00     0.049 A 
ATOM     49  C   UNL A   1      46.610  28.482  29.845  1.00  0.00     0.074 A 
ATOM     50  C   UNL A   1      40.885  31.186  30.147  1.00  0.00     0.029 A 
ATOM     51  N   UNL A   1      42.584  29.791  29.805  1.00  0.00    -0.354 N 
ATOM     52  N   UNL A   1      45.388  28.957  29.878  1.00  0.00    -0.248 NA
ATOM     53  C   UNL A   1      47.639  29.435  30.288  1.00  0.00     0.031 C 
ATOM     54  C   UNL A   1      42.069  31.835  30.509  1.00  0.00     0.029 A 
ATOM     55  C   UNL A   1      43.125  30.958  30.317  1.00  0.00     0.049 A 
ATOM     56  H   UNL A   1      43.098  28.987  29.564  1.00  0.00     0.167 HD
ATOM     57  C   UNL A   1      45.499  30.252  30.367  1.00  0.00     0.074 A 
ATOM     58  C   UNL A   1      46.904  30.483  30.633  1.00  0.00     0.031 C 
ATOM     59  C   UNL A   1      44.524  31.169  30.578  1.00  0.00     0.031 A 
BRANCH  46  60
ATOM     60  C   UNL A   1      38.871  29.223  29.038  1.00  0.00    -0.014 A 
ATOM     61  C   UNL A   1      38.330  29.653  27.817  1.00  0.00     0.009 A 
ATOM     62  C   UNL A   1      38.016  29.061  30.140  1.00  0.00     0.009 A 
ATOM     63  C   UNL A   1      36.969  29.952  27.711  1.00  0.00     0.001 A 
ATOM     64  C   UNL A   1      36.651  29.333  30.025  1.00  0.00     0.001 A 
ATOM     65  C   UNL A   1      36.131  29.788  28.813  1.00  0.00     0.000 A 
ENDBRANCH  46  60
BRANCH  47  66
ATOM     66  C   UNL A   1      48.530  26.771  29.490  1.00  0.00    -0.014 A 
ATOM     67  C   UNL A   1      49.366  27.020  28.390  1.00  0.00     0.009 A 
ATOM     68  C   UNL A   1      49.078  26.184  30.640  1.00  0.00     0.009 A 
ATOM     69  C   UNL A   1      50.716  26.667  28.433  1.00  0.00     0.001 A 
ATOM     70  C   UNL A   1      50.434  25.857  30.690  1.00  0.00     0.001 A 
ATOM     71  C   UNL A   1      51.250  26.090  29.584  1.00  0.00     0.000 A 
ENDBRANCH  47  66
BRANCH  59  72
ATOM     72  C   UNL A   1      44.939  32.492  31.152  1.00  0.00    -0.014 A 
ATOM     73  C   UNL A   1      45.010  32.693  32.540  1.00  0.00     0.009 A 
ATOM     74  C   UNL A   1      45.303  33.540  30.292  1.00  0.00     0.009 A 
ATOM     75  C   UNL A   1      45.408  33.929  33.053  1.00  0.00     0.001 A 
ATOM     76  C   UNL A   1      45.725  34.765  30.808  1.00  0.00     0.001 A 
ATOM     77  C   UNL A   1      45.770  34.962  32.188  1.00  0.00     0.000 A 
ENDBRANCH  59  72
ENDBRANCH  33  34
ENDBRANCH  25  28
ENDBRANCH  23  24
ENDBRANCH  22  23
ENDBRANCH  21  22
ENDBRANCH   1  21
TORSDOF 15
ENDMDL
