MODEL 1
REMARK VINA RESULT:     -11.8      0.000      0.000
REMARK SMILES O=C(NCCCCNC(=O)c1cn(C2CN(C(=O)Nc3ccsc3)C2)nn1)c1ccc(-c2c3nc(c(-c4ccccc4)c4ccc([nH]4)c(-c4ccccc4)c4nc(c(-c5ccccc5)c5ccc2[nH]5)C=C4)C=C3)cc1
REMARK SMILES IDX 5 1 4 2 3 3 1 4 2 5 28 7 29 8 75 9 30 10 74 11 31 12 32 13
REMARK SMILES IDX 33 14 68 15 34 16 73 17 67 18 69 19 35 20 72 21 66 22 65 23
REMARK SMILES IDX 36 25 58 26 43 27 57 28 44 29 47 30 56 31 70 32 45 33 46 34
REMARK SMILES IDX 55 36 71 37 48 38 37 39 38 40 42 41 39 42 41 43 40 44 59 45
REMARK SMILES IDX 60 46 64 47 61 48 63 49 62 50 49 51 50 52 54 53 51 54 53 55
REMARK SMILES IDX 52 56 6 57 7 58 8 59 9 60 10 62 11 63 12 64 27 65 13 66
REMARK SMILES IDX 26 67 14 68 15 69 25 70 16 71 17 72 18 73 19 74 20 76 21 77
REMARK SMILES IDX 24 78 22 79 23 80
REMARK H PARENT 3 6 69 24 47 35 8 61 19 75
REMARK Flexibility Score: inf
ROOT
ATOM      1  C   UNL A   1      36.357  32.703  33.315  1.00  0.00     0.023 C 
ENDROOT
BRANCH   1   2
ATOM      2  C   UNL A   1      37.792  33.226  33.336  1.00  0.00     0.116 C 
BRANCH   2   3
ATOM      3  N   UNL A   1      38.196  33.935  32.140  1.00  0.00    -0.352 N 
ATOM      4  O   UNL A   1      38.814  34.407  30.073  1.00  0.00    -0.269 OA
ATOM      5  C   UNL A   1      38.815  33.569  30.977  1.00  0.00     0.251 C 
ATOM      6  H   UNL A   1      37.977  34.895  32.171  1.00  0.00     0.163 HD
BRANCH   5   7
ATOM      7  C   UNL A   1      39.556  32.297  30.771  1.00  0.00     0.039 A 
ATOM      8  C   UNL A   1      40.937  32.160  30.628  1.00  0.00     0.014 A 
ATOM      9  C   UNL A   1      38.752  31.145  30.681  1.00  0.00     0.014 A 
ATOM     10  C   UNL A   1      41.490  30.925  30.293  1.00  0.00     0.010 A 
ATOM     11  C   UNL A   1      39.295  29.911  30.356  1.00  0.00     0.010 A 
ATOM     12  C   UNL A   1      40.661  29.810  30.122  1.00  0.00    -0.014 A 
BRANCH  12  13
ATOM     13  C   UNL A   1      41.272  28.502  29.909  1.00  0.00     0.031 A 
ATOM     14  C   UNL A   1      42.063  28.022  31.078  1.00  0.00     0.074 A 
ATOM     15  C   UNL A   1      41.016  27.713  28.843  1.00  0.00     0.049 A 
ATOM     16  N   UNL A   1      43.332  27.785  31.129  1.00  0.00    -0.248 NA
ATOM     17  C   UNL A   1      41.385  27.920  32.381  1.00  0.00     0.031 C 
ATOM     18  C   UNL A   1      40.044  27.938  27.770  1.00  0.00     0.029 A 
ATOM     19  N   UNL A   1      41.502  26.471  28.550  1.00  0.00    -0.354 N 
ATOM     20  C   UNL A   1      43.584  27.320  32.418  1.00  0.00     0.074 A 
ATOM     21  C   UNL A   1      42.393  27.578  33.184  1.00  0.00     0.031 C 
ATOM     22  C   UNL A   1      39.842  26.781  27.097  1.00  0.00     0.029 A 
ATOM     23  C   UNL A   1      40.761  25.772  27.600  1.00  0.00     0.049 A 
ATOM     24  H   UNL A   1      42.309  26.101  28.975  1.00  0.00     0.167 HD
ATOM     25  C   UNL A   1      44.659  26.529  32.689  1.00  0.00     0.031 A 
ATOM     26  C   UNL A   1      40.860  24.453  27.287  1.00  0.00     0.031 A 
ATOM     27  C   UNL A   1      45.636  26.581  31.634  1.00  0.00     0.049 A 
ATOM     28  C   UNL A   1      42.171  23.973  27.778  1.00  0.00     0.074 A 
ATOM     29  C   UNL A   1      46.413  27.569  31.064  1.00  0.00     0.029 A 
ATOM     30  N   UNL A   1      45.642  25.533  30.745  1.00  0.00    -0.354 N 
ATOM     31  N   UNL A   1      43.305  24.345  27.263  1.00  0.00    -0.248 NA
ATOM     32  C   UNL A   1      42.236  23.437  29.127  1.00  0.00     0.031 C 
ATOM     33  C   UNL A   1      46.436  27.257  29.673  1.00  0.00     0.029 A 
ATOM     34  C   UNL A   1      45.744  26.059  29.487  1.00  0.00     0.049 A 
ATOM     35  H   UNL A   1      45.583  24.577  30.974  1.00  0.00     0.167 HD
ATOM     36  C   UNL A   1      44.132  24.537  28.359  1.00  0.00     0.074 A 
ATOM     37  C   UNL A   1      43.451  23.872  29.470  1.00  0.00     0.031 C 
ATOM     38  C   UNL A   1      45.137  25.462  28.322  1.00  0.00     0.031 A 
BRANCH  25  39
ATOM     39  C   UNL A   1      44.611  25.369  33.659  1.00  0.00    -0.014 A 
ATOM     40  C   UNL A   1      45.342  25.470  34.857  1.00  0.00     0.009 A 
ATOM     41  C   UNL A   1      44.153  24.087  33.306  1.00  0.00     0.009 A 
ATOM     42  C   UNL A   1      45.681  24.334  35.603  1.00  0.00     0.001 A 
ATOM     43  C   UNL A   1      44.452  22.956  34.070  1.00  0.00     0.001 A 
ATOM     44  C   UNL A   1      45.246  23.076  35.202  1.00  0.00     0.000 A 
ENDBRANCH  25  39
BRANCH  26  45
ATOM     45  C   UNL A   1      39.811  23.496  26.858  1.00  0.00    -0.014 A 
ATOM     46  C   UNL A   1      38.525  23.942  26.503  1.00  0.00     0.009 A 
ATOM     47  C   UNL A   1      40.159  22.180  26.509  1.00  0.00     0.009 A 
ATOM     48  C   UNL A   1      37.640  23.117  25.791  1.00  0.00     0.001 A 
ATOM     49  C   UNL A   1      39.278  21.356  25.798  1.00  0.00     0.001 A 
ATOM     50  C   UNL A   1      38.025  21.829  25.425  1.00  0.00     0.000 A 
ENDBRANCH  26  45
BRANCH  38  51
ATOM     51  C   UNL A   1      45.482  26.080  26.991  1.00  0.00    -0.014 A 
ATOM     52  C   UNL A   1      44.843  27.221  26.473  1.00  0.00     0.009 A 
ATOM     53  C   UNL A   1      46.596  25.574  26.306  1.00  0.00     0.009 A 
ATOM     54  C   UNL A   1      45.292  27.815  25.289  1.00  0.00     0.001 A 
ATOM     55  C   UNL A   1      47.057  26.179  25.138  1.00  0.00     0.001 A 
ATOM     56  C   UNL A   1      46.402  27.296  24.625  1.00  0.00     0.000 A 
ENDBRANCH  38  51
ENDBRANCH  12  13
ENDBRANCH   5   7
ENDBRANCH   2   3
ENDBRANCH   1   2
BRANCH   1  57
ATOM     57  C   UNL A   1      35.332  33.600  34.011  1.00  0.00     0.023 C 
BRANCH  57  58
ATOM     58  C   UNL A   1      34.033  33.814  33.245  1.00  0.00     0.116 C 
BRANCH  58  59
ATOM     59  N   UNL A   1      33.690  35.218  33.105  1.00  0.00    -0.351 N 
ATOM     60  C   UNL A   1      33.570  35.964  31.950  1.00  0.00     0.273 C 
ATOM     61  H   UNL A   1      33.520  35.701  33.945  1.00  0.00     0.163 HD
ATOM     62  O   UNL A   1      33.431  37.174  32.037  1.00  0.00    -0.267 OA
BRANCH  60  63
ATOM     63  C   UNL A   1      33.602  35.257  30.681  1.00  0.00     0.170 A 
ATOM     64  C   UNL A   1      34.652  34.549  30.130  1.00  0.00     0.145 A 
ATOM     65  N   UNL A   1      32.526  35.180  29.834  1.00  0.00    -0.125 NA
ATOM     66  N   UNL A   1      34.174  34.124  28.929  1.00  0.00    -0.245 N 
ATOM     67  N   UNL A   1      32.898  34.504  28.755  1.00  0.00    -0.066 NA
BRANCH  66  68
ATOM     68  C   UNL A   1      34.805  33.230  28.015  1.00  0.00     0.148 C 
ATOM     69  C   UNL A   1      36.017  32.425  28.513  1.00  0.00     0.150 C 
ATOM     70  C   UNL A   1      34.074  31.870  27.999  1.00  0.00     0.150 C 
ATOM     71  N   UNL A   1      35.386  31.304  27.807  1.00  0.00    -0.320 N 
ATOM     72  C   UNL A   1      35.925  30.102  27.490  1.00  0.00     0.322 C 
ATOM     73  O   UNL A   1      37.134  29.897  27.637  1.00  0.00    -0.248 OA
ATOM     74  N   UNL A   1      35.137  29.050  27.139  1.00  0.00    -0.307 N 
ATOM     75  H   UNL A   1      35.588  28.175  27.169  1.00  0.00     0.171 HD
BRANCH  74  76
ATOM     76  C   UNL A   1      33.812  28.998  26.747  1.00  0.00     0.053 A 
ATOM     77  C   UNL A   1      32.687  28.585  27.517  1.00  0.00     0.038 A 
ATOM     78  C   UNL A   1      33.415  29.443  25.504  1.00  0.00     0.091 A 
ATOM     79  C   UNL A   1      31.542  28.472  26.757  1.00  0.00     0.067 A 
ATOM     80  S   UNL A   1      31.774  29.071  25.175  1.00  0.00    -0.150 S 
ENDBRANCH  74  76
ENDBRANCH  66  68
ENDBRANCH  60  63
ENDBRANCH  58  59
ENDBRANCH  57  58
ENDBRANCH   1  57
TORSDOF 13
ENDMDL
MODEL 2
REMARK VINA RESULT:     -11.5      3.964      9.767
REMARK SMILES O=C(NCCCCNC(=O)c1cn(C2CN(C(=O)Nc3ccsc3)C2)nn1)c1ccc(-c2c3nc(c(-c4ccccc4)c4ccc([nH]4)c(-c4ccccc4)c4nc(c(-c5ccccc5)c5ccc2[nH]5)C=C4)C=C3)cc1
REMARK SMILES IDX 5 1 4 2 3 3 1 4 2 5 28 7 29 8 75 9 30 10 74 11 31 12 32 13
REMARK SMILES IDX 33 14 68 15 34 16 73 17 67 18 69 19 35 20 72 21 66 22 65 23
REMARK SMILES IDX 36 25 58 26 43 27 57 28 44 29 47 30 56 31 70 32 45 33 46 34
REMARK SMILES IDX 55 36 71 37 48 38 37 39 38 40 42 41 39 42 41 43 40 44 59 45
REMARK SMILES IDX 60 46 64 47 61 48 63 49 62 50 49 51 50 52 54 53 51 54 53 55
REMARK SMILES IDX 52 56 6 57 7 58 8 59 9 60 10 62 11 63 12 64 27 65 13 66
REMARK SMILES IDX 26 67 14 68 15 69 25 70 16 71 17 72 18 73 19 74 20 76 21 77
REMARK SMILES IDX 24 78 22 79 23 80
REMARK H PARENT 3 6 69 24 47 35 8 61 19 75
REMARK Flexibility Score: inf
ROOT
ATOM      1  C   UNL A   1      37.014  22.295  24.430  1.00  0.00     0.023 C 
ENDROOT
BRANCH   1   2
ATOM      2  C   UNL A   1      37.684  22.183  25.797  1.00  0.00     0.116 C 
BRANCH   2   3
ATOM      3  N   UNL A   1      39.107  21.921  25.756  1.00  0.00    -0.352 N 
ATOM      4  O   UNL A   1      41.258  21.860  26.253  1.00  0.00    -0.269 OA
ATOM      5  C   UNL A   1      40.199  22.483  26.356  1.00  0.00     0.251 C 
ATOM      6  H   UNL A   1      39.342  21.170  25.163  1.00  0.00     0.163 HD
BRANCH   5   7
ATOM      7  C   UNL A   1      40.213  23.811  27.024  1.00  0.00     0.039 A 
ATOM      8  C   UNL A   1      39.235  24.800  26.916  1.00  0.00     0.014 A 
ATOM      9  C   UNL A   1      41.354  24.075  27.805  1.00  0.00     0.014 A 
ATOM     10  C   UNL A   1      39.443  26.058  27.479  1.00  0.00     0.010 A 
ATOM     11  C   UNL A   1      41.565  25.321  28.375  1.00  0.00     0.010 A 
ATOM     12  C   UNL A   1      40.625  26.326  28.177  1.00  0.00    -0.014 A 
BRANCH  12  13
ATOM     13  C   UNL A   1      40.761  27.601  28.875  1.00  0.00     0.031 A 
ATOM     14  C   UNL A   1      41.763  28.512  28.252  1.00  0.00     0.074 A 
ATOM     15  C   UNL A   1      39.949  28.005  29.876  1.00  0.00     0.049 A 
ATOM     16  N   UNL A   1      42.861  28.953  28.772  1.00  0.00    -0.248 NA
ATOM     17  C   UNL A   1      41.591  28.869  26.833  1.00  0.00     0.031 C 
ATOM     18  C   UNL A   1      38.753  27.333  30.390  1.00  0.00     0.029 A 
ATOM     19  N   UNL A   1      39.961  29.174  30.581  1.00  0.00    -0.354 N 
ATOM     20  C   UNL A   1      43.426  29.798  27.819  1.00  0.00     0.074 A 
ATOM     21  C   UNL A   1      42.694  29.581  26.598  1.00  0.00     0.031 C 
ATOM     22  C   UNL A   1      38.033  28.205  31.135  1.00  0.00     0.029 A 
ATOM     23  C   UNL A   1      38.778  29.448  31.263  1.00  0.00     0.049 A 
ATOM     24  H   UNL A   1      40.741  29.773  30.606  1.00  0.00     0.167 HD
ATOM     25  C   UNL A   1      44.284  30.794  28.173  1.00  0.00     0.031 A 
ATOM     26  C   UNL A   1      38.416  30.623  31.842  1.00  0.00     0.031 A 
ATOM     27  C   UNL A   1      44.800  30.602  29.503  1.00  0.00     0.049 A 
ATOM     28  C   UNL A   1      39.644  31.424  32.036  1.00  0.00     0.074 A 
ATOM     29  C   UNL A   1      45.550  29.630  30.133  1.00  0.00     0.029 A 
ATOM     30  N   UNL A   1      44.219  31.342  30.504  1.00  0.00    -0.354 N 
ATOM     31  N   UNL A   1      40.576  31.108  32.885  1.00  0.00    -0.248 NA
ATOM     32  C   UNL A   1      40.044  32.323  30.967  1.00  0.00     0.031 C 
ATOM     33  C   UNL A   1      44.996  29.535  31.443  1.00  0.00     0.029 A 
ATOM     34  C   UNL A   1      43.999  30.505  31.563  1.00  0.00     0.049 A 
ATOM     35  H   UNL A   1      44.001  32.302  30.465  1.00  0.00     0.167 HD
ATOM     36  C   UNL A   1      41.758  31.368  32.208  1.00  0.00     0.074 A 
ATOM     37  C   UNL A   1      41.370  32.203  31.072  1.00  0.00     0.031 C 
ATOM     38  C   UNL A   1      42.886  30.643  32.470  1.00  0.00     0.031 A 
BRANCH  25  39
ATOM     39  C   UNL A   1      44.286  32.157  27.519  1.00  0.00    -0.014 A 
ATOM     40  C   UNL A   1      43.749  33.243  28.235  1.00  0.00     0.009 A 
ATOM     41  C   UNL A   1      44.492  32.351  26.141  1.00  0.00     0.009 A 
ATOM     42  C   UNL A   1      43.346  34.417  27.587  1.00  0.00     0.001 A 
ATOM     43  C   UNL A   1      44.131  33.538  25.498  1.00  0.00     0.001 A 
ATOM     44  C   UNL A   1      43.526  34.559  26.216  1.00  0.00     0.000 A 
ENDBRANCH  25  39
BRANCH  26  45
ATOM     45  C   UNL A   1      37.074  31.239  31.984  1.00  0.00    -0.014 A 
ATOM     46  C   UNL A   1      36.689  31.872  33.181  1.00  0.00     0.009 A 
ATOM     47  C   UNL A   1      36.282  31.471  30.846  1.00  0.00     0.009 A 
ATOM     48  C   UNL A   1      35.582  32.734  33.224  1.00  0.00     0.001 A 
ATOM     49  C   UNL A   1      35.177  32.331  30.888  1.00  0.00     0.001 A 
ATOM     50  C   UNL A   1      34.836  32.974  32.073  1.00  0.00     0.000 A 
ENDBRANCH  26  45
BRANCH  38  51
ATOM     51  C   UNL A   1      42.883  29.737  33.675  1.00  0.00    -0.014 A 
ATOM     52  C   UNL A   1      42.395  28.418  33.656  1.00  0.00     0.009 A 
ATOM     53  C   UNL A   1      43.532  30.189  34.832  1.00  0.00     0.009 A 
ATOM     54  C   UNL A   1      42.531  27.590  34.775  1.00  0.00     0.001 A 
ATOM     55  C   UNL A   1      43.688  29.356  35.941  1.00  0.00     0.001 A 
ATOM     56  C   UNL A   1      43.182  28.059  35.915  1.00  0.00     0.000 A 
ENDBRANCH  38  51
ENDBRANCH  12  13
ENDBRANCH   5   7
ENDBRANCH   2   3
ENDBRANCH   1   2
BRANCH   1  57
ATOM     57  C   UNL A   1      35.736  21.470  24.265  1.00  0.00     0.023 C 
BRANCH  57  58
ATOM     58  C   UNL A   1      35.064  21.051  25.566  1.00  0.00     0.116 C 
BRANCH  58  59
ATOM     59  N   UNL A   1      34.149  19.937  25.390  1.00  0.00    -0.351 N 
ATOM     60  C   UNL A   1      32.799  19.968  25.105  1.00  0.00     0.273 C 
ATOM     61  H   UNL A   1      34.545  19.041  25.485  1.00  0.00     0.163 HD
ATOM     62  O   UNL A   1      32.159  18.929  25.152  1.00  0.00    -0.267 OA
BRANCH  60  63
ATOM     63  C   UNL A   1      32.212  21.248  24.748  1.00  0.00     0.170 A 
ATOM     64  C   UNL A   1      31.695  22.210  25.595  1.00  0.00     0.145 A 
ATOM     65  N   UNL A   1      32.111  21.697  23.457  1.00  0.00    -0.125 NA
ATOM     66  N   UNL A   1      31.243  23.183  24.757  1.00  0.00    -0.245 N 
ATOM     67  N   UNL A   1      31.494  22.871  23.475  1.00  0.00    -0.066 NA
BRANCH  66  68
ATOM     68  C   UNL A   1      30.742  24.468  25.116  1.00  0.00     0.148 C 
ATOM     69  C   UNL A   1      30.909  24.927  26.574  1.00  0.00     0.150 C 
ATOM     70  C   UNL A   1      31.783  25.562  24.791  1.00  0.00     0.150 C 
ATOM     71  N   UNL A   1      31.291  26.213  25.980  1.00  0.00    -0.320 N 
ATOM     72  C   UNL A   1      31.414  27.416  26.591  1.00  0.00     0.322 C 
ATOM     73  O   UNL A   1      31.029  27.572  27.754  1.00  0.00    -0.248 OA
ATOM     74  N   UNL A   1      32.089  28.437  25.999  1.00  0.00    -0.307 N 
ATOM     75  H   UNL A   1      32.335  29.172  26.608  1.00  0.00     0.171 HD
BRANCH  74  76
ATOM     76  C   UNL A   1      32.489  28.624  24.689  1.00  0.00     0.053 A 
ATOM     77  C   UNL A   1      31.685  28.997  23.573  1.00  0.00     0.038 A 
ATOM     78  C   UNL A   1      33.815  28.533  24.324  1.00  0.00     0.091 A 
ATOM     79  C   UNL A   1      32.367  28.905  22.379  1.00  0.00     0.067 A 
ATOM     80  S   UNL A   1      34.026  28.584  22.624  1.00  0.00    -0.150 S 
ENDBRANCH  74  76
ENDBRANCH  66  68
ENDBRANCH  60  63
ENDBRANCH  58  59
ENDBRANCH  57  58
ENDBRANCH   1  57
TORSDOF 13
ENDMDL
MODEL 3
REMARK VINA RESULT:     -11.4      2.651      6.965
REMARK SMILES O=C(NCCCCNC(=O)c1cn(C2CN(C(=O)Nc3ccsc3)C2)nn1)c1ccc(-c2c3nc(c(-c4ccccc4)c4ccc([nH]4)c(-c4ccccc4)c4nc(c(-c5ccccc5)c5ccc2[nH]5)C=C4)C=C3)cc1
REMARK SMILES IDX 5 1 4 2 3 3 1 4 2 5 28 7 29 8 75 9 30 10 74 11 31 12 32 13
REMARK SMILES IDX 33 14 68 15 34 16 73 17 67 18 69 19 35 20 72 21 66 22 65 23
REMARK SMILES IDX 36 25 58 26 43 27 57 28 44 29 47 30 56 31 70 32 45 33 46 34
REMARK SMILES IDX 55 36 71 37 48 38 37 39 38 40 42 41 39 42 41 43 40 44 59 45
REMARK SMILES IDX 60 46 64 47 61 48 63 49 62 50 49 51 50 52 54 53 51 54 53 55
REMARK SMILES IDX 52 56 6 57 7 58 8 59 9 60 10 62 11 63 12 64 27 65 13 66
REMARK SMILES IDX 26 67 14 68 15 69 25 70 16 71 17 72 18 73 19 74 20 76 21 77
REMARK SMILES IDX 24 78 22 79 23 80
REMARK H PARENT 3 6 69 24 47 35 8 61 19 75
REMARK Flexibility Score: inf
ROOT
ATOM      1  C   UNL A   1      36.436  30.573  31.906  1.00  0.00     0.023 C 
ENDROOT
BRANCH   1   2
ATOM      2  C   UNL A   1      36.229  31.372  30.621  1.00  0.00     0.116 C 
BRANCH   2   3
ATOM      3  N   UNL A   1      35.656  30.620  29.525  1.00  0.00    -0.352 N 
ATOM      4  O   UNL A   1      35.281  29.071  27.996  1.00  0.00    -0.269 OA
ATOM      5  C   UNL A   1      36.123  29.642  28.691  1.00  0.00     0.251 C 
ATOM      6  H   UNL A   1      34.721  30.867  29.337  1.00  0.00     0.163 HD
BRANCH   5   7
ATOM      7  C   UNL A   1      37.557  29.299  28.501  1.00  0.00     0.039 A 
ATOM      8  C   UNL A   1      38.375  29.724  27.453  1.00  0.00     0.014 A 
ATOM      9  C   UNL A   1      38.098  28.434  29.470  1.00  0.00     0.014 A 
ATOM     10  C   UNL A   1      39.664  29.209  27.316  1.00  0.00     0.010 A 
ATOM     11  C   UNL A   1      39.382  27.924  29.345  1.00  0.00     0.010 A 
ATOM     12  C   UNL A   1      40.150  28.282  28.243  1.00  0.00    -0.014 A 
BRANCH  12  13
ATOM     13  C   UNL A   1      41.546  27.864  28.159  1.00  0.00     0.031 A 
ATOM     14  C   UNL A   1      41.726  26.527  27.525  1.00  0.00     0.074 A 
ATOM     15  C   UNL A   1      42.594  28.663  28.458  1.00  0.00     0.049 A 
ATOM     16  N   UNL A   1      42.206  25.455  28.063  1.00  0.00    -0.248 NA
ATOM     17  C   UNL A   1      41.182  26.322  26.171  1.00  0.00     0.031 C 
ATOM     18  C   UNL A   1      42.568  30.083  28.816  1.00  0.00     0.029 A 
ATOM     19  N   UNL A   1      43.931  28.395  28.394  1.00  0.00    -0.354 N 
ATOM     20  C   UNL A   1      42.205  24.488  27.060  1.00  0.00     0.074 A 
ATOM     21  C   UNL A   1      41.422  25.025  25.977  1.00  0.00     0.031 C 
ATOM     22  C   UNL A   1      43.815  30.599  28.698  1.00  0.00     0.029 A 
ATOM     23  C   UNL A   1      44.745  29.525  28.388  1.00  0.00     0.049 A 
ATOM     24  H   UNL A   1      44.290  27.479  28.356  1.00  0.00     0.167 HD
ATOM     25  C   UNL A   1      43.061  23.429  27.095  1.00  0.00     0.031 A 
ATOM     26  C   UNL A   1      46.072  29.581  28.099  1.00  0.00     0.031 A 
ATOM     27  C   UNL A   1      43.624  23.245  28.406  1.00  0.00     0.049 A 
ATOM     28  C   UNL A   1      46.619  28.213  28.235  1.00  0.00     0.074 A 
ATOM     29  C   UNL A   1      43.119  22.975  29.661  1.00  0.00     0.029 A 
ATOM     30  N   UNL A   1      44.898  23.720  28.603  1.00  0.00    -0.354 N 
ATOM     31  N   UNL A   1      46.730  27.599  29.375  1.00  0.00    -0.248 NA
ATOM     32  C   UNL A   1      46.618  27.362  27.057  1.00  0.00     0.031 C 
ATOM     33  C   UNL A   1      43.920  23.751  30.551  1.00  0.00     0.029 A 
ATOM     34  C   UNL A   1      44.913  24.383  29.800  1.00  0.00     0.049 A 
ATOM     35  H   UNL A   1      45.662  23.603  27.993  1.00  0.00     0.167 HD
ATOM     36  C   UNL A   1      46.337  26.297  29.102  1.00  0.00     0.074 A 
ATOM     37  C   UNL A   1      46.373  26.187  27.644  1.00  0.00     0.031 C 
ATOM     38  C   UNL A   1      45.744  25.531  30.065  1.00  0.00     0.031 A 
BRANCH  25  39
ATOM     39  C   UNL A   1      43.737  22.869  25.864  1.00  0.00    -0.014 A 
ATOM     40  C   UNL A   1      43.780  21.471  25.703  1.00  0.00     0.009 A 
ATOM     41  C   UNL A   1      44.594  23.624  25.043  1.00  0.00     0.009 A 
ATOM     42  C   UNL A   1      44.703  20.863  24.843  1.00  0.00     0.001 A 
ATOM     43  C   UNL A   1      45.486  23.023  24.151  1.00  0.00     0.001 A 
ATOM     44  C   UNL A   1      45.564  21.640  24.076  1.00  0.00     0.000 A 
ENDBRANCH  25  39
BRANCH  26  45
ATOM     45  C   UNL A   1      46.857  30.652  27.437  1.00  0.00    -0.014 A 
ATOM     46  C   UNL A   1      46.218  31.743  26.820  1.00  0.00     0.009 A 
ATOM     47  C   UNL A   1      48.239  30.760  27.672  1.00  0.00     0.009 A 
ATOM     48  C   UNL A   1      46.927  32.910  26.491  1.00  0.00     0.001 A 
ATOM     49  C   UNL A   1      48.947  31.923  27.344  1.00  0.00     0.001 A 
ATOM     50  C   UNL A   1      48.288  33.003  26.768  1.00  0.00     0.000 A 
ENDBRANCH  26  45
BRANCH  38  51
ATOM     51  C   UNL A   1      45.756  26.040  31.484  1.00  0.00    -0.014 A 
ATOM     52  C   UNL A   1      44.742  26.847  32.030  1.00  0.00     0.009 A 
ATOM     53  C   UNL A   1      46.759  25.562  32.339  1.00  0.00     0.009 A 
ATOM     54  C   UNL A   1      44.753  27.186  33.388  1.00  0.00     0.001 A 
ATOM     55  C   UNL A   1      46.758  25.882  33.697  1.00  0.00     0.001 A 
ATOM     56  C   UNL A   1      45.758  26.699  34.220  1.00  0.00     0.000 A 
ENDBRANCH  38  51
ENDBRANCH  12  13
ENDBRANCH   5   7
ENDBRANCH   2   3
ENDBRANCH   1   2
BRANCH   1  57
ATOM     57  C   UNL A   1      37.891  30.445  32.360  1.00  0.00     0.023 C 
BRANCH  57  58
ATOM     58  C   UNL A   1      38.102  30.449  33.869  1.00  0.00     0.116 C 
BRANCH  58  59
ATOM     59  N   UNL A   1      39.073  31.441  34.295  1.00  0.00    -0.351 N 
ATOM     60  C   UNL A   1      38.881  32.785  34.539  1.00  0.00     0.273 C 
ATOM     61  H   UNL A   1      39.990  31.109  34.429  1.00  0.00     0.163 HD
ATOM     62  O   UNL A   1      39.854  33.498  34.737  1.00  0.00    -0.267 OA
BRANCH  60  63
ATOM     63  C   UNL A   1      37.516  33.281  34.562  1.00  0.00     0.170 A 
ATOM     64  C   UNL A   1      36.824  33.908  33.544  1.00  0.00     0.145 A 
ATOM     65  N   UNL A   1      36.689  33.163  35.650  1.00  0.00    -0.125 NA
ATOM     66  N   UNL A   1      35.613  34.199  34.094  1.00  0.00    -0.245 N 
ATOM     67  N   UNL A   1      35.536  33.750  35.357  1.00  0.00    -0.066 NA
BRANCH  66  68
ATOM     68  C   UNL A   1      34.466  34.724  33.430  1.00  0.00     0.148 C 
ATOM     69  C   UNL A   1      34.281  36.251  33.408  1.00  0.00     0.150 C 
ATOM     70  C   UNL A   1      34.737  34.867  31.917  1.00  0.00     0.150 C 
ATOM     71  N   UNL A   1      33.911  36.046  32.003  1.00  0.00    -0.320 N 
ATOM     72  C   UNL A   1      33.316  36.920  31.156  1.00  0.00     0.322 C 
ATOM     73  O   UNL A   1      32.854  37.986  31.576  1.00  0.00    -0.248 OA
ATOM     74  N   UNL A   1      33.336  36.718  29.811  1.00  0.00    -0.307 N 
ATOM     75  H   UNL A   1      33.103  37.511  29.276  1.00  0.00     0.171 HD
BRANCH  74  76
ATOM     76  C   UNL A   1      33.626  35.590  29.066  1.00  0.00     0.053 A 
ATOM     77  C   UNL A   1      32.740  34.541  28.685  1.00  0.00     0.038 A 
ATOM     78  C   UNL A   1      34.875  35.396  28.516  1.00  0.00     0.091 A 
ATOM     79  C   UNL A   1      33.401  33.477  28.110  1.00  0.00     0.067 A 
ATOM     80  S   UNL A   1      35.047  33.834  27.831  1.00  0.00    -0.150 S 
ENDBRANCH  74  76
ENDBRANCH  66  68
ENDBRANCH  60  63
ENDBRANCH  58  59
ENDBRANCH  57  58
ENDBRANCH   1  57
TORSDOF 13
ENDMDL
