MODEL 1
REMARK VINA RESULT:      -7.3      0.000      0.000
REMARK SMILES C#CC[NH2+]CC(=O)N(C)CCCC(=O)NCCCCNC(=O)c1ccc(-c2c3nc(c(-c4ccccc4)c4ccc([nH]4)c(-c4ccccc4)c4nc(c(-c5ccccc5)c5ccc2[nH]5)C=C4)C=C3)cc1
REMARK SMILES IDX 13 1 14 2 15 3 12 5 11 6 10 7 8 8 9 9 6 10 7 11 5 12 4 13
REMARK SMILES IDX 3 16 2 17 1 18 16 19 17 20 18 21 19 22 20 23 21 24 22 26
REMARK SMILES IDX 23 27 24 28 70 29 25 30 69 31 26 32 27 33 28 34 63 35 29 36
REMARK SMILES IDX 68 37 62 38 64 39 30 40 67 41 61 42 60 43 31 45 53 46 38 47
REMARK SMILES IDX 52 48 39 49 42 50 51 51 65 52 40 53 41 54 50 56 66 57 43 58
REMARK SMILES IDX 32 59 33 60 37 61 34 62 36 63 35 64 54 65 55 66 59 67 56 68
REMARK SMILES IDX 58 69 57 70 44 71 45 72 49 73 46 74 48 75 47 76
REMARK H PARENT 15 4 4 14 4 15 20 25 64 44 42 55
REMARK Flexibility Score: inf
ROOT
ATOM      1  C   UNL A   1      47.464  24.647  26.185  1.00  0.00     0.220 C 
ATOM      2  O   UNL A   1      48.524  24.547  26.806  1.00  0.00    -0.275 OA
ATOM      3  N   UNL A   1      46.656  23.552  26.113  1.00  0.00    -0.356 N 
ATOM      4  H   UNL A   1      46.914  22.805  26.700  1.00  0.00     0.163 HD
ENDROOT
BRANCH   1   5
ATOM      5  C   UNL A   1      47.030  25.966  25.588  1.00  0.00     0.102 C 
BRANCH   5   6
ATOM      6  C   UNL A   1      46.116  26.864  26.425  1.00  0.00     0.031 C 
BRANCH   6   7
ATOM      7  C   UNL A   1      45.233  27.918  25.754  1.00  0.00     0.120 C 
BRANCH   7   8
ATOM      8  N   UNL A   1      43.794  28.084  26.055  1.00  0.00    -0.341 N 
ATOM      9  C   UNL A   1      42.941  27.128  25.330  1.00  0.00     0.147 C 
BRANCH   8  10
ATOM     10  C   UNL A   1      43.293  29.186  26.767  1.00  0.00     0.277 C 
ATOM     11  O   UNL A   1      42.089  29.418  26.891  1.00  0.00    -0.268 OA
BRANCH  10  12
ATOM     12  C   UNL A   1      44.243  30.054  27.624  1.00  0.00     0.362 C 
BRANCH  12  13
ATOM     13  N   UNL A   1      43.765  31.463  27.599  1.00  0.00    -0.328 N 
ATOM     14  H   UNL A   1      42.763  31.492  27.409  1.00  0.00     0.347 HD
ATOM     15  H   UNL A   1      43.921  31.922  28.496  1.00  0.00     0.347 HD
BRANCH  13  16
ATOM     16  C   UNL A   1      44.492  32.123  26.541  1.00  0.00     0.352 C 
BRANCH  16  17
ATOM     17  C   UNL A   1      44.062  33.533  26.167  1.00  0.00    -0.047 C 
ATOM     18  C   UNL A   1      43.693  34.741  25.845  1.00  0.00     0.010 C 
ENDBRANCH  16  17
ENDBRANCH  13  16
ENDBRANCH  12  13
ENDBRANCH  10  12
ENDBRANCH   8  10
ENDBRANCH   7   8
ENDBRANCH   6   7
ENDBRANCH   5   6
ENDBRANCH   1   5
BRANCH   3  19
ATOM     19  C   UNL A   1      45.478  23.319  25.306  1.00  0.00     0.116 C 
BRANCH  19  20
ATOM     20  C   UNL A   1      45.841  22.437  24.108  1.00  0.00     0.023 C 
BRANCH  20  21
ATOM     21  C   UNL A   1      45.050  21.147  23.995  1.00  0.00     0.023 C 
BRANCH  21  22
ATOM     22  C   UNL A   1      44.658  20.571  25.347  1.00  0.00     0.116 C 
BRANCH  22  23
ATOM     23  N   UNL A   1      43.509  19.670  25.305  1.00  0.00    -0.352 N 
ATOM     24  C   UNL A   1      42.238  19.891  25.797  1.00  0.00     0.251 C 
ATOM     25  H   UNL A   1      43.660  18.797  24.874  1.00  0.00     0.163 HD
ATOM     26  O   UNL A   1      41.377  19.028  25.740  1.00  0.00    -0.269 OA
BRANCH  24  27
ATOM     27  C   UNL A   1      41.973  21.188  26.455  1.00  0.00     0.039 A 
ATOM     28  C   UNL A   1      41.977  21.252  27.849  1.00  0.00     0.014 A 
ATOM     29  C   UNL A   1      41.911  22.350  25.684  1.00  0.00     0.014 A 
ATOM     30  C   UNL A   1      42.043  22.500  28.472  1.00  0.00     0.010 A 
ATOM     31  C   UNL A   1      42.081  23.580  26.302  1.00  0.00     0.010 A 
ATOM     32  C   UNL A   1      42.163  23.669  27.702  1.00  0.00    -0.014 A 
BRANCH  32  33
ATOM     33  C   UNL A   1      42.397  24.995  28.328  1.00  0.00     0.031 A 
ATOM     34  C   UNL A   1      43.742  25.316  28.917  1.00  0.00     0.074 A 
ATOM     35  C   UNL A   1      41.379  25.871  28.456  1.00  0.00     0.049 A 
ATOM     36  N   UNL A   1      44.117  26.373  29.593  1.00  0.00    -0.248 NA
ATOM     37  C   UNL A   1      44.794  24.299  28.760  1.00  0.00     0.031 C 
ATOM     38  C   UNL A   1      40.007  25.662  27.987  1.00  0.00     0.029 A 
ATOM     39  N   UNL A   1      41.344  27.118  29.031  1.00  0.00    -0.354 N 
ATOM     40  C   UNL A   1      45.432  26.129  29.969  1.00  0.00     0.074 A 
ATOM     41  C   UNL A   1      45.773  24.807  29.494  1.00  0.00     0.031 C 
ATOM     42  C   UNL A   1      39.276  26.758  28.259  1.00  0.00     0.029 A 
ATOM     43  C   UNL A   1      40.114  27.728  28.954  1.00  0.00     0.049 A 
ATOM     44  H   UNL A   1      42.126  27.537  29.458  1.00  0.00     0.167 HD
ATOM     45  C   UNL A   1      46.290  26.940  30.630  1.00  0.00     0.031 A 
ATOM     46  C   UNL A   1      39.708  28.933  29.394  1.00  0.00     0.031 A 
ATOM     47  C   UNL A   1      45.970  28.270  31.067  1.00  0.00     0.049 A 
ATOM     48  C   UNL A   1      40.689  29.830  30.099  1.00  0.00     0.074 A 
ATOM     49  C   UNL A   1      46.796  29.201  31.671  1.00  0.00     0.029 A 
ATOM     50  N   UNL A   1      44.724  28.862  30.938  1.00  0.00    -0.354 N 
ATOM     51  N   UNL A   1      41.949  29.612  30.380  1.00  0.00    -0.248 NA
ATOM     52  C   UNL A   1      40.189  31.142  30.537  1.00  0.00     0.031 C 
ATOM     53  C   UNL A   1      46.040  30.346  31.941  1.00  0.00     0.029 A 
ATOM     54  C   UNL A   1      44.754  30.142  31.464  1.00  0.00     0.049 A 
ATOM     55  H   UNL A   1      43.935  28.437  30.531  1.00  0.00     0.167 HD
ATOM     56  C   UNL A   1      42.403  30.769  31.002  1.00  0.00     0.074 A 
ATOM     57  C   UNL A   1      41.285  31.689  31.045  1.00  0.00     0.031 C 
ATOM     58  C   UNL A   1      43.635  31.045  31.492  1.00  0.00     0.031 A 
BRANCH  45  59
ATOM     59  C   UNL A   1      47.664  26.403  30.911  1.00  0.00    -0.014 A 
ATOM     60  C   UNL A   1      48.688  26.492  29.954  1.00  0.00     0.009 A 
ATOM     61  C   UNL A   1      47.943  25.816  32.154  1.00  0.00     0.009 A 
ATOM     62  C   UNL A   1      49.953  25.965  30.222  1.00  0.00     0.001 A 
ATOM     63  C   UNL A   1      49.216  25.316  32.430  1.00  0.00     0.001 A 
ATOM     64  C   UNL A   1      50.217  25.382  31.460  1.00  0.00     0.000 A 
ENDBRANCH  45  59
BRANCH  46  65
ATOM     65  C   UNL A   1      38.312  29.388  29.156  1.00  0.00    -0.014 A 
ATOM     66  C   UNL A   1      37.949  29.929  27.913  1.00  0.00     0.009 A 
ATOM     67  C   UNL A   1      37.345  29.302  30.167  1.00  0.00     0.009 A 
ATOM     68  C   UNL A   1      36.653  30.401  27.696  1.00  0.00     0.001 A 
ATOM     69  C   UNL A   1      36.041  29.752  29.940  1.00  0.00     0.001 A 
ATOM     70  C   UNL A   1      35.699  30.309  28.709  1.00  0.00     0.000 A 
ENDBRANCH  46  65
BRANCH  58  71
ATOM     71  C   UNL A   1      43.850  32.408  32.082  1.00  0.00    -0.014 A 
ATOM     72  C   UNL A   1      44.237  33.494  31.283  1.00  0.00     0.009 A 
ATOM     73  C   UNL A   1      43.614  32.616  33.450  1.00  0.00     0.009 A 
ATOM     74  C   UNL A   1      44.411  34.757  31.850  1.00  0.00     0.001 A 
ATOM     75  C   UNL A   1      43.765  33.884  34.010  1.00  0.00     0.001 A 
ATOM     76  C   UNL A   1      44.171  34.952  33.211  1.00  0.00     0.000 A 
ENDBRANCH  58  71
ENDBRANCH  32  33
ENDBRANCH  24  27
ENDBRANCH  22  23
ENDBRANCH  21  22
ENDBRANCH  20  21
ENDBRANCH  19  20
ENDBRANCH   3  19
TORSDOF 19
ENDMDL
MODEL 2
REMARK VINA RESULT:      -7.3      4.307      9.981
REMARK SMILES C#CC[NH2+]CC(=O)N(C)CCCC(=O)NCCCCNC(=O)c1ccc(-c2c3nc(c(-c4ccccc4)c4ccc([nH]4)c(-c4ccccc4)c4nc(c(-c5ccccc5)c5ccc2[nH]5)C=C4)C=C3)cc1
REMARK SMILES IDX 13 1 14 2 15 3 12 5 11 6 10 7 8 8 9 9 6 10 7 11 5 12 4 13
REMARK SMILES IDX 3 16 2 17 1 18 16 19 17 20 18 21 19 22 20 23 21 24 22 26
REMARK SMILES IDX 23 27 24 28 70 29 25 30 69 31 26 32 27 33 28 34 63 35 29 36
REMARK SMILES IDX 68 37 62 38 64 39 30 40 67 41 61 42 60 43 31 45 53 46 38 47
REMARK SMILES IDX 52 48 39 49 42 50 51 51 65 52 40 53 41 54 50 56 66 57 43 58
REMARK SMILES IDX 32 59 33 60 37 61 34 62 36 63 35 64 54 65 55 66 59 67 56 68
REMARK SMILES IDX 58 69 57 70 44 71 45 72 49 73 46 74 48 75 47 76
REMARK H PARENT 15 4 4 14 4 15 20 25 64 44 42 55
REMARK Flexibility Score: inf
ROOT
ATOM      1  C   UNL A   1      33.013  26.674  22.410  1.00  0.00     0.220 C 
ATOM      2  O   UNL A   1      33.675  26.191  21.490  1.00  0.00    -0.275 OA
ATOM      3  N   UNL A   1      33.680  27.308  23.416  1.00  0.00    -0.356 N 
ATOM      4  H   UNL A   1      34.637  27.464  23.247  1.00  0.00     0.163 HD
ENDROOT
BRANCH   1   5
ATOM      5  C   UNL A   1      31.502  26.640  22.388  1.00  0.00     0.102 C 
BRANCH   5   6
ATOM      6  C   UNL A   1      30.798  25.612  23.276  1.00  0.00     0.031 C 
BRANCH   6   7
ATOM      7  C   UNL A   1      31.172  24.130  23.199  1.00  0.00     0.120 C 
BRANCH   7   8
ATOM      8  N   UNL A   1      32.245  23.520  24.016  1.00  0.00    -0.341 N 
ATOM      9  C   UNL A   1      32.620  22.172  23.559  1.00  0.00     0.147 C 
BRANCH   8  10
ATOM     10  C   UNL A   1      32.677  24.075  25.232  1.00  0.00     0.277 C 
ATOM     11  O   UNL A   1      31.918  24.316  26.172  1.00  0.00    -0.268 OA
BRANCH  10  12
ATOM     12  C   UNL A   1      34.188  24.212  25.529  1.00  0.00     0.362 C 
BRANCH  12  13
ATOM     13  N   UNL A   1      34.554  23.267  26.619  1.00  0.00    -0.328 N 
ATOM     14  H   UNL A   1      35.014  23.767  27.379  1.00  0.00     0.347 HD
ATOM     15  H   UNL A   1      33.728  22.813  27.006  1.00  0.00     0.347 HD
BRANCH  13  16
ATOM     16  C   UNL A   1      35.457  22.302  26.038  1.00  0.00     0.352 C 
BRANCH  16  17
ATOM     17  C   UNL A   1      36.928  22.677  25.956  1.00  0.00    -0.047 C 
ATOM     18  C   UNL A   1      38.190  22.998  25.886  1.00  0.00     0.010 C 
ENDBRANCH  16  17
ENDBRANCH  13  16
ENDBRANCH  12  13
ENDBRANCH  10  12
ENDBRANCH   8  10
ENDBRANCH   7   8
ENDBRANCH   6   7
ENDBRANCH   5   6
ENDBRANCH   1   5
BRANCH   3  19
ATOM     19  C   UNL A   1      33.196  27.784  24.694  1.00  0.00     0.116 C 
BRANCH  19  20
ATOM     20  C   UNL A   1      32.984  29.300  24.630  1.00  0.00     0.023 C 
BRANCH  20  21
ATOM     21  C   UNL A   1      32.556  29.946  25.934  1.00  0.00     0.023 C 
BRANCH  21  22
ATOM     22  C   UNL A   1      33.576  29.766  27.048  1.00  0.00     0.116 C 
BRANCH  22  23
ATOM     23  N   UNL A   1      33.705  30.919  27.935  1.00  0.00    -0.352 N 
ATOM     24  C   UNL A   1      34.778  31.259  28.736  1.00  0.00     0.251 C 
ATOM     25  H   UNL A   1      32.932  31.528  27.968  1.00  0.00     0.163 HD
ATOM     26  O   UNL A   1      34.737  32.231  29.473  1.00  0.00    -0.269 OA
BRANCH  24  27
ATOM     27  C   UNL A   1      35.957  30.367  28.718  1.00  0.00     0.039 A 
ATOM     28  C   UNL A   1      36.801  30.384  27.607  1.00  0.00     0.014 A 
ATOM     29  C   UNL A   1      36.310  29.671  29.875  1.00  0.00     0.014 A 
ATOM     30  C   UNL A   1      38.064  29.797  27.703  1.00  0.00     0.010 A 
ATOM     31  C   UNL A   1      37.602  29.182  30.002  1.00  0.00     0.010 A 
ATOM     32  C   UNL A   1      38.499  29.251  28.923  1.00  0.00    -0.014 A 
BRANCH  32  33
ATOM     33  C   UNL A   1      39.890  28.764  29.109  1.00  0.00     0.031 A 
ATOM     34  C   UNL A   1      40.937  29.691  29.661  1.00  0.00     0.074 A 
ATOM     35  C   UNL A   1      40.235  27.529  28.693  1.00  0.00     0.049 A 
ATOM     36  N   UNL A   1      42.223  29.492  29.805  1.00  0.00    -0.248 NA
ATOM     37  C   UNL A   1      40.488  31.033  30.067  1.00  0.00     0.031 C 
ATOM     38  C   UNL A   1      39.333  26.549  28.082  1.00  0.00     0.029 A 
ATOM     39  N   UNL A   1      41.450  26.888  28.718  1.00  0.00    -0.354 N 
ATOM     40  C   UNL A   1      42.736  30.691  30.283  1.00  0.00     0.074 A 
ATOM     41  C   UNL A   1      41.636  31.627  30.355  1.00  0.00     0.031 C 
ATOM     42  C   UNL A   1      40.017  25.420  27.826  1.00  0.00     0.029 A 
ATOM     43  C   UNL A   1      41.410  25.608  28.217  1.00  0.00     0.049 A 
ATOM     44  H   UNL A   1      42.272  27.305  29.063  1.00  0.00     0.167 HD
ATOM     45  C   UNL A   1      44.004  30.984  30.653  1.00  0.00     0.031 A 
ATOM     46  C   UNL A   1      42.385  24.690  28.086  1.00  0.00     0.031 A 
ATOM     47  C   UNL A   1      45.091  30.046  30.624  1.00  0.00     0.049 A 
ATOM     48  C   UNL A   1      43.781  25.029  28.534  1.00  0.00     0.074 A 
ATOM     49  C   UNL A   1      46.393  30.223  31.056  1.00  0.00     0.029 A 
ATOM     50  N   UNL A   1      45.000  28.751  30.143  1.00  0.00    -0.354 N 
ATOM     51  N   UNL A   1      44.232  26.144  29.053  1.00  0.00    -0.248 NA
ATOM     52  C   UNL A   1      44.797  23.977  28.385  1.00  0.00     0.031 C 
ATOM     53  C   UNL A   1      47.101  29.044  30.803  1.00  0.00     0.029 A 
ATOM     54  C   UNL A   1      46.226  28.120  30.253  1.00  0.00     0.049 A 
ATOM     55  H   UNL A   1      44.183  28.339  29.777  1.00  0.00     0.167 HD
ATOM     56  C   UNL A   1      45.576  25.919  29.320  1.00  0.00     0.074 A 
ATOM     57  C   UNL A   1      45.863  24.558  28.916  1.00  0.00     0.031 C 
ATOM     58  C   UNL A   1      46.491  26.764  29.853  1.00  0.00     0.031 A 
BRANCH  45  59
ATOM     59  C   UNL A   1      44.274  32.383  31.130  1.00  0.00    -0.014 A 
ATOM     60  C   UNL A   1      44.107  32.735  32.479  1.00  0.00     0.009 A 
ATOM     61  C   UNL A   1      44.717  33.356  30.223  1.00  0.00     0.009 A 
ATOM     62  C   UNL A   1      44.338  34.045  32.901  1.00  0.00     0.001 A 
ATOM     63  C   UNL A   1      44.976  34.658  30.653  1.00  0.00     0.001 A 
ATOM     64  C   UNL A   1      44.776  35.004  31.989  1.00  0.00     0.000 A 
ENDBRANCH  45  59
BRANCH  46  65
ATOM     65  C   UNL A   1      42.080  23.342  27.537  1.00  0.00    -0.014 A 
ATOM     66  C   UNL A   1      42.360  23.047  26.194  1.00  0.00     0.009 A 
ATOM     67  C   UNL A   1      41.493  22.355  28.342  1.00  0.00     0.009 A 
ATOM     68  C   UNL A   1      42.032  21.799  25.659  1.00  0.00     0.001 A 
ATOM     69  C   UNL A   1      41.190  21.098  27.811  1.00  0.00     0.001 A 
ATOM     70  C   UNL A   1      41.451  20.825  26.469  1.00  0.00     0.000 A 
ENDBRANCH  46  65
BRANCH  58  71
ATOM     71  C   UNL A   1      47.878  26.230  30.065  1.00  0.00    -0.014 A 
ATOM     72  C   UNL A   1      48.822  26.225  29.028  1.00  0.00     0.009 A 
ATOM     73  C   UNL A   1      48.256  25.770  31.336  1.00  0.00     0.009 A 
ATOM     74  C   UNL A   1      50.112  25.742  29.254  1.00  0.00     0.001 A 
ATOM     75  C   UNL A   1      49.553  25.311  31.566  1.00  0.00     0.001 A 
ATOM     76  C   UNL A   1      50.477  25.290  30.522  1.00  0.00     0.000 A 
ENDBRANCH  58  71
ENDBRANCH  32  33
ENDBRANCH  24  27
ENDBRANCH  22  23
ENDBRANCH  21  22
ENDBRANCH  20  21
ENDBRANCH  19  20
ENDBRANCH   3  19
TORSDOF 19
ENDMDL
MODEL 3
REMARK VINA RESULT:      -7.1      3.679     10.040
REMARK SMILES C#CC[NH2+]CC(=O)N(C)CCCC(=O)NCCCCNC(=O)c1ccc(-c2c3nc(c(-c4ccccc4)c4ccc([nH]4)c(-c4ccccc4)c4nc(c(-c5ccccc5)c5ccc2[nH]5)C=C4)C=C3)cc1
REMARK SMILES IDX 13 1 14 2 15 3 12 5 11 6 10 7 8 8 9 9 6 10 7 11 5 12 4 13
REMARK SMILES IDX 3 16 2 17 1 18 16 19 17 20 18 21 19 22 20 23 21 24 22 26
REMARK SMILES IDX 23 27 24 28 70 29 25 30 69 31 26 32 27 33 28 34 63 35 29 36
REMARK SMILES IDX 68 37 62 38 64 39 30 40 67 41 61 42 60 43 31 45 53 46 38 47
REMARK SMILES IDX 52 48 39 49 42 50 51 51 65 52 40 53 41 54 50 56 66 57 43 58
REMARK SMILES IDX 32 59 33 60 37 61 34 62 36 63 35 64 54 65 55 66 59 67 56 68
REMARK SMILES IDX 58 69 57 70 44 71 45 72 49 73 46 74 48 75 47 76
REMARK H PARENT 15 4 4 14 4 15 20 25 64 44 42 55
REMARK Flexibility Score: inf
ROOT
ATOM      1  C   UNL A   1      34.427  36.192  32.912  1.00  0.00     0.220 C 
ATOM      2  O   UNL A   1      34.420  37.422  32.983  1.00  0.00    -0.275 OA
ATOM      3  N   UNL A   1      34.232  35.618  31.691  1.00  0.00    -0.356 N 
ATOM      4  H   UNL A   1      34.256  36.241  30.930  1.00  0.00     0.163 HD
ENDROOT
BRANCH   1   5
ATOM      5  C   UNL A   1      34.724  35.340  34.125  1.00  0.00     0.102 C 
BRANCH   5   6
ATOM      6  C   UNL A   1      36.039  34.558  34.146  1.00  0.00     0.031 C 
BRANCH   6   7
ATOM      7  C   UNL A   1      36.455  33.767  35.388  1.00  0.00     0.120 C 
BRANCH   7   8
ATOM      8  N   UNL A   1      37.748  33.056  35.502  1.00  0.00    -0.341 N 
ATOM      9  C   UNL A   1      38.878  33.958  35.781  1.00  0.00     0.147 C 
BRANCH   8  10
ATOM     10  C   UNL A   1      37.902  31.707  35.144  1.00  0.00     0.277 C 
ATOM     11  O   UNL A   1      38.142  30.815  35.961  1.00  0.00    -0.268 OA
BRANCH  10  12
ATOM     12  C   UNL A   1      37.559  31.239  33.711  1.00  0.00     0.362 C 
BRANCH  12  13
ATOM     13  N   UNL A   1      38.414  31.978  32.743  1.00  0.00    -0.328 N 
ATOM     14  H   UNL A   1      38.782  32.825  33.174  1.00  0.00     0.347 HD
ATOM     15  H   UNL A   1      39.210  31.413  32.448  1.00  0.00     0.347 HD
BRANCH  13  16
ATOM     16  C   UNL A   1      37.568  32.315  31.623  1.00  0.00     0.352 C 
BRANCH  16  17
ATOM     17  C   UNL A   1      38.035  33.429  30.700  1.00  0.00    -0.047 C 
ATOM     18  C   UNL A   1      38.436  34.384  29.909  1.00  0.00     0.010 C 
ENDBRANCH  16  17
ENDBRANCH  13  16
ENDBRANCH  12  13
ENDBRANCH  10  12
ENDBRANCH   8  10
ENDBRANCH   7   8
ENDBRANCH   6   7
ENDBRANCH   5   6
ENDBRANCH   1   5
BRANCH   3  19
ATOM     19  C   UNL A   1      33.997  34.233  31.343  1.00  0.00     0.116 C 
BRANCH  19  20
ATOM     20  C   UNL A   1      34.293  34.020  29.856  1.00  0.00     0.023 C 
BRANCH  20  21
ATOM     21  C   UNL A   1      34.695  32.607  29.476  1.00  0.00     0.023 C 
BRANCH  21  22
ATOM     22  C   UNL A   1      34.479  32.306  28.000  1.00  0.00     0.116 C 
BRANCH  22  23
ATOM     23  N   UNL A   1      33.941  30.975  27.732  1.00  0.00    -0.352 N 
ATOM     24  C   UNL A   1      34.594  29.761  27.822  1.00  0.00     0.251 C 
ATOM     25  H   UNL A   1      32.997  30.938  27.452  1.00  0.00     0.163 HD
ATOM     26  O   UNL A   1      34.038  28.718  27.520  1.00  0.00    -0.269 OA
BRANCH  24  27
ATOM     27  C   UNL A   1      36.013  29.775  28.236  1.00  0.00     0.039 A 
ATOM     28  C   UNL A   1      36.350  29.326  29.513  1.00  0.00     0.014 A 
ATOM     29  C   UNL A   1      37.002  30.053  27.290  1.00  0.00     0.014 A 
ATOM     30  C   UNL A   1      37.685  29.039  29.804  1.00  0.00     0.010 A 
ATOM     31  C   UNL A   1      38.310  29.668  27.548  1.00  0.00     0.010 A 
ATOM     32  C   UNL A   1      38.664  29.143  28.802  1.00  0.00    -0.014 A 
BRANCH  32  33
ATOM     33  C   UNL A   1      40.062  28.694  29.027  1.00  0.00     0.031 A 
ATOM     34  C   UNL A   1      41.064  29.643  29.623  1.00  0.00     0.074 A 
ATOM     35  C   UNL A   1      40.456  27.474  28.608  1.00  0.00     0.049 A 
ATOM     36  N   UNL A   1      42.350  29.479  29.805  1.00  0.00    -0.248 NA
ATOM     37  C   UNL A   1      40.564  30.966  30.031  1.00  0.00     0.031 C 
ATOM     38  C   UNL A   1      39.603  26.477  27.957  1.00  0.00     0.029 A 
ATOM     39  N   UNL A   1      41.687  26.868  28.663  1.00  0.00    -0.354 N 
ATOM     40  C   UNL A   1      42.813  30.686  30.314  1.00  0.00     0.074 A 
ATOM     41  C   UNL A   1      41.684  31.589  30.362  1.00  0.00     0.031 C 
ATOM     42  C   UNL A   1      40.327  25.371  27.709  1.00  0.00     0.029 A 
ATOM     43  C   UNL A   1      41.701  25.594  28.146  1.00  0.00     0.049 A 
ATOM     44  H   UNL A   1      42.486  27.304  29.039  1.00  0.00     0.167 HD
ATOM     45  C   UNL A   1      44.059  31.010  30.728  1.00  0.00     0.031 A 
ATOM     46  C   UNL A   1      42.706  24.706  28.035  1.00  0.00     0.031 A 
ATOM     47  C   UNL A   1      45.174  30.105  30.722  1.00  0.00     0.049 A 
ATOM     48  C   UNL A   1      44.077  25.079  28.531  1.00  0.00     0.074 A 
ATOM     49  C   UNL A   1      46.456  30.314  31.198  1.00  0.00     0.029 A 
ATOM     50  N   UNL A   1      45.135  28.813  30.222  1.00  0.00    -0.354 N 
ATOM     51  N   UNL A   1      44.478  26.200  29.078  1.00  0.00    -0.248 NA
ATOM     52  C   UNL A   1      45.127  24.059  28.402  1.00  0.00     0.031 C 
ATOM     53  C   UNL A   1      47.205  29.159  30.953  1.00  0.00     0.029 A 
ATOM     54  C   UNL A   1      46.376  28.217  30.365  1.00  0.00     0.049 A 
ATOM     55  H   UNL A   1      44.343  28.383  29.826  1.00  0.00     0.167 HD
ATOM     56  C   UNL A   1      45.820  26.010  29.385  1.00  0.00     0.074 A 
ATOM     57  C   UNL A   1      46.159  24.663  28.974  1.00  0.00     0.031 C 
ATOM     58  C   UNL A   1      46.692  26.874  29.957  1.00  0.00     0.031 A 
BRANCH  45  59
ATOM     59  C   UNL A   1      44.273  32.410  31.230  1.00  0.00    -0.014 A 
ATOM     60  C   UNL A   1      44.086  32.733  32.584  1.00  0.00     0.009 A 
ATOM     61  C   UNL A   1      44.684  33.415  30.342  1.00  0.00     0.009 A 
ATOM     62  C   UNL A   1      44.265  34.043  33.029  1.00  0.00     0.001 A 
ATOM     63  C   UNL A   1      44.890  34.718  30.795  1.00  0.00     0.001 A 
ATOM     64  C   UNL A   1      44.671  35.034  32.136  1.00  0.00     0.000 A 
ENDBRANCH  45  59
BRANCH  46  65
ATOM     65  C   UNL A   1      42.457  23.358  27.461  1.00  0.00    -0.014 A 
ATOM     66  C   UNL A   1      42.003  22.314  28.282  1.00  0.00     0.009 A 
ATOM     67  C   UNL A   1      42.687  23.101  26.101  1.00  0.00     0.009 A 
ATOM     68  C   UNL A   1      41.811  21.033  27.759  1.00  0.00     0.001 A 
ATOM     69  C   UNL A   1      42.470  21.825  25.576  1.00  0.00     0.001 A 
ATOM     70  C   UNL A   1      42.042  20.790  26.406  1.00  0.00     0.000 A 
ENDBRANCH  46  65
BRANCH  58  71
ATOM     71  C   UNL A   1      48.086  26.377  30.207  1.00  0.00    -0.014 A 
ATOM     72  C   UNL A   1      48.447  25.810  31.438  1.00  0.00     0.009 A 
ATOM     73  C   UNL A   1      49.038  26.435  29.176  1.00  0.00     0.009 A 
ATOM     74  C   UNL A   1      49.744  25.336  31.641  1.00  0.00     0.001 A 
ATOM     75  C   UNL A   1      50.326  25.938  29.374  1.00  0.00     0.001 A 
ATOM     76  C   UNL A   1      50.680  25.396  30.608  1.00  0.00     0.000 A 
ENDBRANCH  58  71
ENDBRANCH  32  33
ENDBRANCH  24  27
ENDBRANCH  22  23
ENDBRANCH  21  22
ENDBRANCH  20  21
ENDBRANCH  19  20
ENDBRANCH   3  19
TORSDOF 19
ENDMDL
