MODEL 1
REMARK VINA RESULT:     -11.3      0.000      0.000
REMARK SMILES O=C(CCn1ccnc1)N[C@H]1C=C[C@H](C(=O)NCCCCNC(=O)c2ccc(-c3c4nc(c(-c5ccccc5)c5ccc([nH]5)c(-c5ccccc5)c5nc(c(-c6ccccc6)c6ccc3[nH]6)C=C5)C=C4)cc2)C1
REMARK SMILES IDX 18 1 17 2 15 3 16 4 14 6 11 7 12 8 73 9 13 10 10 11 1 12
REMARK SMILES IDX 2 13 3 15 4 16 5 17 6 18 9 19 7 20 8 21 19 22 20 23 21 24
REMARK SMILES IDX 22 25 23 26 24 28 25 29 26 30 72 31 27 32 71 33 28 34 29 35
REMARK SMILES IDX 30 36 65 37 31 38 70 39 64 40 66 41 32 42 69 43 63 44 62 45
REMARK SMILES IDX 33 47 55 48 40 49 54 50 41 51 44 52 53 53 67 54 42 55 43 56
REMARK SMILES IDX 52 58 68 59 45 60 34 61 35 62 39 63 36 64 38 65 37 66 56 67
REMARK SMILES IDX 57 68 61 69 58 70 60 71 59 72 46 73 47 74 51 75 48 76 50 77
REMARK SMILES IDX 49 78
REMARK H PARENT 17 5 10 14 22 27 66 46 44 57
REMARK Flexibility Score: inf
ROOT
ATOM      1  C   UNL A   1      35.663  20.509  25.071  1.00  0.00     0.116 C 
ENDROOT
BRANCH   1   2
ATOM      2  N   UNL A   1      35.248  21.198  26.282  1.00  0.00    -0.356 N 
ATOM      3  C   UNL A   1      34.142  21.971  26.518  1.00  0.00     0.227 C 
ATOM      4  O   UNL A   1      33.985  22.404  27.661  1.00  0.00    -0.274 OA
ATOM      5  H   UNL A   1      35.854  21.091  27.051  1.00  0.00     0.163 HD
BRANCH   3   6
ATOM      6  C   UNL A   1      33.135  22.210  25.385  1.00  0.00     0.103 C 
ATOM      7  C   UNL A   1      31.241  23.719  25.852  1.00  0.00     0.106 C 
ATOM      8  C   UNL A   1      30.813  22.295  25.815  1.00  0.00    -0.006 C 
ATOM      9  C   UNL A   1      32.668  23.668  25.300  1.00  0.00     0.047 C 
ATOM     10  C   UNL A   1      31.840  21.472  25.577  1.00  0.00    -0.016 C 
BRANCH   7  11
ATOM     11  N   UNL A   1      30.374  24.501  25.009  1.00  0.00    -0.350 N 
ATOM     12  O   UNL A   1      30.324  26.320  26.406  1.00  0.00    -0.275 OA
ATOM     13  C   UNL A   1      29.991  25.773  25.360  1.00  0.00     0.222 C 
ATOM     14  H   UNL A   1      30.049  24.115  24.163  1.00  0.00     0.164 HD
BRANCH  13  15
ATOM     15  C   UNL A   1      29.144  26.483  24.329  1.00  0.00     0.122 C 
BRANCH  15  16
ATOM     16  C   UNL A   1      30.012  27.123  23.251  1.00  0.00     0.133 C 
BRANCH  16  17
ATOM     17  N   UNL A   1      29.496  28.389  22.767  1.00  0.00    -0.337 N 
ATOM     18  C   UNL A   1      30.232  29.417  22.250  1.00  0.00     0.107 A 
ATOM     19  C   UNL A   1      28.179  28.741  22.684  1.00  0.00     0.199 A 
ATOM     20  C   UNL A   1      29.303  30.324  21.798  1.00  0.00     0.130 A 
ATOM     21  N   UNL A   1      28.031  29.885  22.057  1.00  0.00    -0.245 NA
ENDBRANCH  16  17
ENDBRANCH  15  16
ENDBRANCH  13  15
ENDBRANCH   7  11
ENDBRANCH   3   6
ENDBRANCH   1   2
BRANCH   1  22
ATOM     22  C   UNL A   1      37.120  20.799  24.690  1.00  0.00     0.023 C 
BRANCH  22  23
ATOM     23  C   UNL A   1      38.143  19.707  25.031  1.00  0.00     0.023 C 
BRANCH  23  24
ATOM     24  C   UNL A   1      39.337  20.187  25.842  1.00  0.00     0.116 C 
BRANCH  24  25
ATOM     25  N   UNL A   1      40.462  19.254  25.811  1.00  0.00    -0.352 N 
ATOM     26  C   UNL A   1      41.812  19.546  25.910  1.00  0.00     0.251 C 
ATOM     27  H   UNL A   1      40.233  18.303  25.707  1.00  0.00     0.163 HD
ATOM     28  O   UNL A   1      42.660  18.775  25.495  1.00  0.00    -0.269 OA
BRANCH  26  29
ATOM     29  C   UNL A   1      42.206  20.816  26.546  1.00  0.00     0.039 A 
ATOM     30  C   UNL A   1      42.737  21.877  25.806  1.00  0.00     0.014 A 
ATOM     31  C   UNL A   1      41.998  20.936  27.918  1.00  0.00     0.014 A 
ATOM     32  C   UNL A   1      42.975  23.090  26.449  1.00  0.00     0.010 A 
ATOM     33  C   UNL A   1      42.077  22.167  28.509  1.00  0.00     0.010 A 
ATOM     34  C   UNL A   1      42.620  23.233  27.801  1.00  0.00    -0.014 A 
BRANCH  34  35
ATOM     35  C   UNL A   1      42.665  24.534  28.463  1.00  0.00     0.031 A 
ATOM     36  C   UNL A   1      41.549  25.442  28.084  1.00  0.00     0.074 A 
ATOM     37  C   UNL A   1      43.473  24.781  29.518  1.00  0.00     0.049 A 
ATOM     38  N   UNL A   1      41.624  26.561  27.445  1.00  0.00    -0.248 NA
ATOM     39  C   UNL A   1      40.168  24.979  28.317  1.00  0.00     0.031 C 
ATOM     40  C   UNL A   1      44.380  23.843  30.195  1.00  0.00     0.029 A 
ATOM     41  N   UNL A   1      43.554  25.885  30.311  1.00  0.00    -0.354 N 
ATOM     42  C   UNL A   1      40.324  27.058  27.404  1.00  0.00     0.074 A 
ATOM     43  C   UNL A   1      39.461  25.959  27.751  1.00  0.00     0.031 C 
ATOM     44  C   UNL A   1      44.705  24.322  31.415  1.00  0.00     0.029 A 
ATOM     45  C   UNL A   1      44.180  25.669  31.537  1.00  0.00     0.049 A 
ATOM     46  H   UNL A   1      43.200  26.763  30.041  1.00  0.00     0.167 HD
ATOM     47  C   UNL A   1      40.088  28.400  27.409  1.00  0.00     0.031 A 
ATOM     48  C   UNL A   1      44.237  26.519  32.592  1.00  0.00     0.031 A 
ATOM     49  C   UNL A   1      41.277  29.145  27.075  1.00  0.00     0.049 A 
ATOM     50  C   UNL A   1      43.914  27.870  32.084  1.00  0.00     0.074 A 
ATOM     51  C   UNL A   1      42.155  29.167  26.010  1.00  0.00     0.029 A 
ATOM     52  N   UNL A   1      41.936  29.751  28.118  1.00  0.00    -0.354 N 
ATOM     53  N   UNL A   1      44.684  28.535  31.275  1.00  0.00    -0.248 NA
ATOM     54  C   UNL A   1      42.526  28.297  32.125  1.00  0.00     0.031 C 
ATOM     55  C   UNL A   1      43.442  29.346  26.598  1.00  0.00     0.029 A 
ATOM     56  C   UNL A   1      43.275  29.509  27.974  1.00  0.00     0.049 A 
ATOM     57  H   UNL A   1      41.518  30.269  28.843  1.00  0.00     0.167 HD
ATOM     58  C   UNL A   1      43.810  29.130  30.377  1.00  0.00     0.074 A 
ATOM     59  C   UNL A   1      42.497  29.045  31.016  1.00  0.00     0.031 C 
ATOM     60  C   UNL A   1      44.188  29.362  29.086  1.00  0.00     0.031 A 
BRANCH  47  61
ATOM     61  C   UNL A   1      38.956  29.034  28.192  1.00  0.00    -0.014 A 
ATOM     62  C   UNL A   1      38.901  28.819  29.583  1.00  0.00     0.009 A 
ATOM     63  C   UNL A   1      37.794  29.558  27.594  1.00  0.00     0.009 A 
ATOM     64  C   UNL A   1      37.719  29.016  30.307  1.00  0.00     0.001 A 
ATOM     65  C   UNL A   1      36.625  29.798  28.321  1.00  0.00     0.001 A 
ATOM     66  C   UNL A   1      36.578  29.494  29.672  1.00  0.00     0.000 A 
ENDBRANCH  47  61
BRANCH  48  67
ATOM     67  C   UNL A   1      44.305  26.233  34.042  1.00  0.00    -0.014 A 
ATOM     68  C   UNL A   1      45.112  27.013  34.889  1.00  0.00     0.009 A 
ATOM     69  C   UNL A   1      43.360  25.383  34.644  1.00  0.00     0.009 A 
ATOM     70  C   UNL A   1      44.946  26.976  36.281  1.00  0.00     0.001 A 
ATOM     71  C   UNL A   1      43.197  25.344  36.034  1.00  0.00     0.001 A 
ATOM     72  C   UNL A   1      43.978  26.154  36.851  1.00  0.00     0.000 A 
ENDBRANCH  48  67
BRANCH  60  73
ATOM     73  C   UNL A   1      45.650  29.228  28.739  1.00  0.00    -0.014 A 
ATOM     74  C   UNL A   1      46.256  28.013  28.369  1.00  0.00     0.009 A 
ATOM     75  C   UNL A   1      46.410  30.403  28.649  1.00  0.00     0.009 A 
ATOM     76  C   UNL A   1      47.592  27.978  27.952  1.00  0.00     0.001 A 
ATOM     77  C   UNL A   1      47.735  30.371  28.210  1.00  0.00     0.001 A 
ATOM     78  C   UNL A   1      48.328  29.159  27.868  1.00  0.00     0.000 A 
ENDBRANCH  60  73
ENDBRANCH  34  35
ENDBRANCH  26  29
ENDBRANCH  24  25
ENDBRANCH  23  24
ENDBRANCH  22  23
ENDBRANCH   1  22
TORSDOF 15
ENDMDL
MODEL 2
REMARK VINA RESULT:     -11.0      3.876      9.315
REMARK SMILES O=C(CCn1ccnc1)N[C@H]1C=C[C@H](C(=O)NCCCCNC(=O)c2ccc(-c3c4nc(c(-c5ccccc5)c5ccc([nH]5)c(-c5ccccc5)c5nc(c(-c6ccccc6)c6ccc3[nH]6)C=C5)C=C4)cc2)C1
REMARK SMILES IDX 18 1 17 2 15 3 16 4 14 6 11 7 12 8 73 9 13 10 10 11 1 12
REMARK SMILES IDX 2 13 3 15 4 16 5 17 6 18 9 19 7 20 8 21 19 22 20 23 21 24
REMARK SMILES IDX 22 25 23 26 24 28 25 29 26 30 72 31 27 32 71 33 28 34 29 35
REMARK SMILES IDX 30 36 65 37 31 38 70 39 64 40 66 41 32 42 69 43 63 44 62 45
REMARK SMILES IDX 33 47 55 48 40 49 54 50 41 51 44 52 53 53 67 54 42 55 43 56
REMARK SMILES IDX 52 58 68 59 45 60 34 61 35 62 39 63 36 64 38 65 37 66 56 67
REMARK SMILES IDX 57 68 61 69 58 70 60 71 59 72 46 73 47 74 51 75 48 76 50 77
REMARK SMILES IDX 49 78
REMARK H PARENT 17 5 10 14 22 27 66 46 44 57
REMARK Flexibility Score: inf
ROOT
ATOM      1  C   UNL A   1      32.836  29.835  25.865  1.00  0.00     0.116 C 
ENDROOT
BRANCH   1   2
ATOM      2  N   UNL A   1      32.750  29.440  24.468  1.00  0.00    -0.356 N 
ATOM      3  C   UNL A   1      32.700  28.191  23.910  1.00  0.00     0.227 C 
ATOM      4  O   UNL A   1      32.570  28.120  22.687  1.00  0.00    -0.274 OA
ATOM      5  H   UNL A   1      32.723  30.186  23.826  1.00  0.00     0.163 HD
BRANCH   3   6
ATOM      6  C   UNL A   1      32.745  26.957  24.821  1.00  0.00     0.103 C 
ATOM      7  C   UNL A   1      33.709  24.890  23.883  1.00  0.00     0.106 C 
ATOM      8  C   UNL A   1      32.228  24.806  23.988  1.00  0.00    -0.006 C 
ATOM      9  C   UNL A   1      34.044  26.155  24.676  1.00  0.00     0.047 C 
ATOM     10  C   UNL A   1      31.700  25.931  24.483  1.00  0.00    -0.016 C 
BRANCH   7  11
ATOM     11  N   UNL A   1      34.298  23.719  24.479  1.00  0.00    -0.350 N 
ATOM     12  O   UNL A   1      35.676  23.261  22.703  1.00  0.00    -0.275 OA
ATOM     13  C   UNL A   1      35.266  22.994  23.828  1.00  0.00     0.222 C 
ATOM     14  H   UNL A   1      34.000  23.432  25.373  1.00  0.00     0.164 HD
BRANCH  13  15
ATOM     15  C   UNL A   1      35.833  21.840  24.624  1.00  0.00     0.122 C 
BRANCH  15  16
ATOM     16  C   UNL A   1      34.803  21.292  25.605  1.00  0.00     0.133 C 
BRANCH  16  17
ATOM     17  N   UNL A   1      33.956  20.260  25.039  1.00  0.00    -0.337 N 
ATOM     18  C   UNL A   1      34.351  19.007  24.663  1.00  0.00     0.107 A 
ATOM     19  C   UNL A   1      32.606  20.342  24.850  1.00  0.00     0.199 A 
ATOM     20  C   UNL A   1      33.187  18.355  24.332  1.00  0.00     0.130 A 
ATOM     21  N   UNL A   1      32.108  19.188  24.469  1.00  0.00    -0.245 NA
ENDBRANCH  16  17
ENDBRANCH  15  16
ENDBRANCH  13  15
ENDBRANCH   7  11
ENDBRANCH   3   6
ENDBRANCH   1   2
BRANCH   1  22
ATOM     22  C   UNL A   1      31.521  30.411  26.405  1.00  0.00     0.023 C 
BRANCH  22  23
ATOM     23  C   UNL A   1      31.457  31.937  26.554  1.00  0.00     0.023 C 
BRANCH  23  24
ATOM     24  C   UNL A   1      32.675  32.560  27.218  1.00  0.00     0.116 C 
BRANCH  24  25
ATOM     25  N   UNL A   1      32.439  33.928  27.679  1.00  0.00    -0.352 N 
ATOM     26  C   UNL A   1      33.055  34.590  28.727  1.00  0.00     0.251 C 
ATOM     27  H   UNL A   1      31.759  34.440  27.184  1.00  0.00     0.163 HD
ATOM     28  O   UNL A   1      32.534  35.553  29.263  1.00  0.00    -0.269 OA
BRANCH  26  29
ATOM     29  C   UNL A   1      34.374  34.110  29.176  1.00  0.00     0.039 A 
ATOM     30  C   UNL A   1      34.523  33.340  30.334  1.00  0.00     0.014 A 
ATOM     31  C   UNL A   1      35.474  34.425  28.382  1.00  0.00     0.014 A 
ATOM     32  C   UNL A   1      35.779  32.817  30.635  1.00  0.00     0.010 A 
ATOM     33  C   UNL A   1      36.664  33.781  28.588  1.00  0.00     0.010 A 
ATOM     34  C   UNL A   1      36.843  33.026  29.742  1.00  0.00    -0.014 A 
BRANCH  34  35
ATOM     35  C   UNL A   1      38.120  32.339  29.910  1.00  0.00     0.031 A 
ATOM     36  C   UNL A   1      38.088  30.904  29.519  1.00  0.00     0.074 A 
ATOM     37  C   UNL A   1      39.276  33.004  30.129  1.00  0.00     0.049 A 
ATOM     38  N   UNL A   1      38.245  29.874  30.281  1.00  0.00    -0.248 NA
ATOM     39  C   UNL A   1      37.692  30.569  28.138  1.00  0.00     0.031 C 
ATOM     40  C   UNL A   1      39.477  34.459  30.198  1.00  0.00     0.029 A 
ATOM     41  N   UNL A   1      40.552  32.532  30.194  1.00  0.00    -0.354 N 
ATOM     42  C   UNL A   1      38.201  28.769  29.435  1.00  0.00     0.074 A 
ATOM     43  C   UNL A   1      37.647  29.236  28.191  1.00  0.00     0.031 C 
ATOM     44  C   UNL A   1      40.786  34.747  30.032  1.00  0.00     0.029 A 
ATOM     45  C   UNL A   1      41.535  33.504  30.023  1.00  0.00     0.049 A 
ATOM     46  H   UNL A   1      40.762  31.583  30.350  1.00  0.00     0.167 HD
ATOM     47  C   UNL A   1      38.921  27.646  29.713  1.00  0.00     0.031 A 
ATOM     48  C   UNL A   1      42.866  33.307  29.852  1.00  0.00     0.031 A 
ATOM     49  C   UNL A   1      39.357  27.627  31.088  1.00  0.00     0.049 A 
ATOM     50  C   UNL A   1      43.168  31.935  30.313  1.00  0.00     0.074 A 
ATOM     51  C   UNL A   1      38.732  27.694  32.317  1.00  0.00     0.029 A 
ATOM     52  N   UNL A   1      40.676  27.940  31.319  1.00  0.00    -0.354 N 
ATOM     53  N   UNL A   1      43.088  31.562  31.557  1.00  0.00    -0.248 NA
ATOM     54  C   UNL A   1      43.128  30.864  29.332  1.00  0.00     0.031 C 
ATOM     55  C   UNL A   1      39.591  28.498  33.124  1.00  0.00     0.029 A 
ATOM     56  C   UNL A   1      40.728  28.807  32.377  1.00  0.00     0.049 A 
ATOM     57  H   UNL A   1      41.448  27.600  30.813  1.00  0.00     0.167 HD
ATOM     58  C   UNL A   1      42.523  30.296  31.502  1.00  0.00     0.074 A 
ATOM     59  C   UNL A   1      42.678  29.874  30.110  1.00  0.00     0.031 C 
ATOM     60  C   UNL A   1      41.727  29.843  32.515  1.00  0.00     0.031 A 
BRANCH  47  61
ATOM     61  C   UNL A   1      39.643  26.846  28.647  1.00  0.00    -0.014 A 
ATOM     62  C   UNL A   1      40.491  27.531  27.755  1.00  0.00     0.009 A 
ATOM     63  C   UNL A   1      39.292  25.530  28.291  1.00  0.00     0.009 A 
ATOM     64  C   UNL A   1      40.871  26.968  26.531  1.00  0.00     0.001 A 
ATOM     65  C   UNL A   1      39.707  24.947  27.091  1.00  0.00     0.001 A 
ATOM     66  C   UNL A   1      40.469  25.680  26.195  1.00  0.00     0.000 A 
ENDBRANCH  47  61
BRANCH  48  67
ATOM     67  C   UNL A   1      43.858  34.106  29.101  1.00  0.00    -0.014 A 
ATOM     68  C   UNL A   1      43.713  34.312  27.717  1.00  0.00     0.009 A 
ATOM     69  C   UNL A   1      44.790  34.909  29.784  1.00  0.00     0.009 A 
ATOM     70  C   UNL A   1      44.437  35.313  27.054  1.00  0.00     0.001 A 
ATOM     71  C   UNL A   1      45.515  35.906  29.121  1.00  0.00     0.001 A 
ATOM     72  C   UNL A   1      45.326  36.120  27.760  1.00  0.00     0.000 A 
ENDBRANCH  48  67
BRANCH  60  73
ATOM     73  C   UNL A   1      41.711  30.623  33.807  1.00  0.00    -0.014 A 
ATOM     74  C   UNL A   1      40.903  31.754  34.026  1.00  0.00     0.009 A 
ATOM     75  C   UNL A   1      42.437  30.106  34.889  1.00  0.00     0.009 A 
ATOM     76  C   UNL A   1      40.853  32.363  35.285  1.00  0.00     0.001 A 
ATOM     77  C   UNL A   1      42.369  30.699  36.151  1.00  0.00     0.001 A 
ATOM     78  C   UNL A   1      41.582  31.831  36.348  1.00  0.00     0.000 A 
ENDBRANCH  60  73
ENDBRANCH  34  35
ENDBRANCH  26  29
ENDBRANCH  24  25
ENDBRANCH  23  24
ENDBRANCH  22  23
ENDBRANCH   1  22
TORSDOF 15
ENDMDL
MODEL 3
REMARK VINA RESULT:     -11.0      6.628     12.555
REMARK SMILES O=C(CCn1ccnc1)N[C@H]1C=C[C@H](C(=O)NCCCCNC(=O)c2ccc(-c3c4nc(c(-c5ccccc5)c5ccc([nH]5)c(-c5ccccc5)c5nc(c(-c6ccccc6)c6ccc3[nH]6)C=C5)C=C4)cc2)C1
REMARK SMILES IDX 18 1 17 2 15 3 16 4 14 6 11 7 12 8 73 9 13 10 10 11 1 12
REMARK SMILES IDX 2 13 3 15 4 16 5 17 6 18 9 19 7 20 8 21 19 22 20 23 21 24
REMARK SMILES IDX 22 25 23 26 24 28 25 29 26 30 72 31 27 32 71 33 28 34 29 35
REMARK SMILES IDX 30 36 65 37 31 38 70 39 64 40 66 41 32 42 69 43 63 44 62 45
REMARK SMILES IDX 33 47 55 48 40 49 54 50 41 51 44 52 53 53 67 54 42 55 43 56
REMARK SMILES IDX 52 58 68 59 45 60 34 61 35 62 39 63 36 64 38 65 37 66 56 67
REMARK SMILES IDX 57 68 61 69 58 70 60 71 59 72 46 73 47 74 51 75 48 76 50 77
REMARK SMILES IDX 49 78
REMARK H PARENT 17 5 10 14 22 27 66 46 44 57
REMARK Flexibility Score: inf
ROOT
ATOM      1  C   UNL A   1      35.050  35.072  33.466  1.00  0.00     0.116 C 
ENDROOT
BRANCH   1   2
ATOM      2  N   UNL A   1      36.490  35.004  33.277  1.00  0.00    -0.356 N 
ATOM      3  C   UNL A   1      37.393  34.079  33.729  1.00  0.00     0.227 C 
ATOM      4  O   UNL A   1      38.567  34.216  33.382  1.00  0.00    -0.274 OA
ATOM      5  H   UNL A   1      36.873  35.736  32.741  1.00  0.00     0.163 HD
BRANCH   3   6
ATOM      6  C   UNL A   1      36.903  32.903  34.582  1.00  0.00     0.103 C 
ATOM      7  C   UNL A   1      38.159  32.394  36.642  1.00  0.00     0.106 C 
ATOM      8  C   UNL A   1      38.428  31.395  35.575  1.00  0.00    -0.006 C 
ATOM      9  C   UNL A   1      36.973  33.187  36.088  1.00  0.00     0.047 C 
ATOM     10  C   UNL A   1      37.760  31.676  34.450  1.00  0.00    -0.016 C 
BRANCH   7  11
ATOM     11  N   UNL A   1      37.815  31.710  37.862  1.00  0.00    -0.350 N 
ATOM     12  O   UNL A   1      37.927  33.584  39.182  1.00  0.00    -0.275 OA
ATOM     13  C   UNL A   1      37.712  32.382  39.056  1.00  0.00     0.222 C 
ATOM     14  H   UNL A   1      37.651  30.739  37.840  1.00  0.00     0.164 HD
BRANCH  13  15
ATOM     15  C   UNL A   1      37.268  31.531  40.223  1.00  0.00     0.122 C 
BRANCH  15  16
ATOM     16  C   UNL A   1      37.123  32.368  41.489  1.00  0.00     0.133 C 
BRANCH  16  17
ATOM     17  N   UNL A   1      35.776  32.381  42.024  1.00  0.00    -0.337 N 
ATOM     18  C   UNL A   1      35.367  31.816  43.199  1.00  0.00     0.107 A 
ATOM     19  C   UNL A   1      34.699  33.019  41.476  1.00  0.00     0.199 A 
ATOM     20  C   UNL A   1      34.059  32.214  43.346  1.00  0.00     0.130 A 
ATOM     21  N   UNL A   1      33.661  32.976  42.279  1.00  0.00    -0.245 NA
ENDBRANCH  16  17
ENDBRANCH  15  16
ENDBRANCH  13  15
ENDBRANCH   7  11
ENDBRANCH   3   6
ENDBRANCH   1   2
BRANCH   1  22
ATOM     22  C   UNL A   1      34.441  36.382  32.951  1.00  0.00     0.023 C 
BRANCH  22  23
ATOM     23  C   UNL A   1      33.128  36.259  32.165  1.00  0.00     0.023 C 
BRANCH  23  24
ATOM     24  C   UNL A   1      33.234  36.625  30.693  1.00  0.00     0.116 C 
BRANCH  24  25
ATOM     25  N   UNL A   1      32.556  35.671  29.816  1.00  0.00    -0.352 N 
ATOM     26  C   UNL A   1      33.123  34.659  29.060  1.00  0.00     0.251 C 
ATOM     27  H   UNL A   1      31.578  35.759  29.756  1.00  0.00     0.163 HD
ATOM     28  O   UNL A   1      32.545  34.188  28.096  1.00  0.00    -0.269 OA
BRANCH  26  29
ATOM     29  C   UNL A   1      34.447  34.148  29.458  1.00  0.00     0.039 A 
ATOM     30  C   UNL A   1      34.592  33.181  30.457  1.00  0.00     0.014 A 
ATOM     31  C   UNL A   1      35.555  34.642  28.776  1.00  0.00     0.014 A 
ATOM     32  C   UNL A   1      35.859  32.653  30.700  1.00  0.00     0.010 A 
ATOM     33  C   UNL A   1      36.763  34.011  28.900  1.00  0.00     0.010 A 
ATOM     34  C   UNL A   1      36.939  33.060  29.900  1.00  0.00    -0.014 A 
BRANCH  34  35
ATOM     35  C   UNL A   1      38.236  32.397  29.982  1.00  0.00     0.031 A 
ATOM     36  C   UNL A   1      38.194  30.946  29.654  1.00  0.00     0.074 A 
ATOM     37  C   UNL A   1      39.397  33.085  30.071  1.00  0.00     0.049 A 
ATOM     38  N   UNL A   1      38.433  29.951  30.441  1.00  0.00    -0.248 NA
ATOM     39  C   UNL A   1      37.683  30.549  28.329  1.00  0.00     0.031 C 
ATOM     40  C   UNL A   1      39.579  34.544  30.062  1.00  0.00     0.029 A 
ATOM     41  N   UNL A   1      40.681  32.632  30.043  1.00  0.00    -0.354 N 
ATOM     42  C   UNL A   1      38.333  28.812  29.648  1.00  0.00     0.074 A 
ATOM     43  C   UNL A   1      37.664  29.219  28.440  1.00  0.00     0.031 C 
ATOM     44  C   UNL A   1      40.864  34.841  29.770  1.00  0.00     0.029 A 
ATOM     45  C   UNL A   1      41.629  33.609  29.745  1.00  0.00     0.049 A 
ATOM     46  H   UNL A   1      40.919  31.693  30.217  1.00  0.00     0.167 HD
ATOM     47  C   UNL A   1      39.093  27.711  29.906  1.00  0.00     0.031 A 
ATOM     48  C   UNL A   1      42.943  33.421  29.466  1.00  0.00     0.031 A 
ATOM     49  C   UNL A   1      39.648  27.755  31.237  1.00  0.00     0.049 A 
ATOM     50  C   UNL A   1      43.306  32.073  29.954  1.00  0.00     0.074 A 
ATOM     51  C   UNL A   1      39.132  27.865  32.513  1.00  0.00     0.029 A 
ATOM     52  N   UNL A   1      40.977  28.093  31.338  1.00  0.00    -0.354 N 
ATOM     53  N   UNL A   1      43.341  31.752  31.214  1.00  0.00    -0.248 NA
ATOM     54  C   UNL A   1      43.198  30.961  29.025  1.00  0.00     0.031 C 
ATOM     55  C   UNL A   1      40.045  28.713  33.207  1.00  0.00     0.029 A 
ATOM     56  C   UNL A   1      41.108  29.004  32.351  1.00  0.00     0.049 A 
ATOM     57  H   UNL A   1      41.707  27.742  30.780  1.00  0.00     0.167 HD
ATOM     58  C   UNL A   1      42.795  30.478  31.261  1.00  0.00     0.074 A 
ATOM     59  C   UNL A   1      42.834  29.999  29.879  1.00  0.00     0.031 C 
ATOM     60  C   UNL A   1      42.098  30.058  32.357  1.00  0.00     0.031 A 
BRANCH  47  61
ATOM     61  C   UNL A   1      39.731  26.875  28.815  1.00  0.00    -0.014 A 
ATOM     62  C   UNL A   1      40.533  27.526  27.857  1.00  0.00     0.009 A 
ATOM     63  C   UNL A   1      39.335  25.560  28.509  1.00  0.00     0.009 A 
ATOM     64  C   UNL A   1      40.825  26.930  26.624  1.00  0.00     0.001 A 
ATOM     65  C   UNL A   1      39.662  24.945  27.298  1.00  0.00     0.001 A 
ATOM     66  C   UNL A   1      40.380  25.644  26.340  1.00  0.00     0.000 A 
ENDBRANCH  47  61
BRANCH  48  67
ATOM     67  C   UNL A   1      43.852  34.200  28.597  1.00  0.00    -0.014 A 
ATOM     68  C   UNL A   1      43.351  34.923  27.501  1.00  0.00     0.009 A 
ATOM     69  C   UNL A   1      45.170  34.471  29.009  1.00  0.00     0.009 A 
ATOM     70  C   UNL A   1      44.122  35.911  26.872  1.00  0.00     0.001 A 
ATOM     71  C   UNL A   1      45.940  35.456  28.379  1.00  0.00     0.001 A 
ATOM     72  C   UNL A   1      45.410  36.188  27.322  1.00  0.00     0.000 A 
ENDBRANCH  48  67
BRANCH  60  73
ATOM     73  C   UNL A   1      42.182  30.891  33.613  1.00  0.00    -0.014 A 
ATOM     74  C   UNL A   1      43.051  30.606  34.682  1.00  0.00     0.009 A 
ATOM     75  C   UNL A   1      41.453  32.088  33.652  1.00  0.00     0.009 A 
ATOM     76  C   UNL A   1      43.160  31.482  35.768  1.00  0.00     0.001 A 
ATOM     77  C   UNL A   1      41.579  32.973  34.724  1.00  0.00     0.001 A 
ATOM     78  C   UNL A   1      42.427  32.667  35.785  1.00  0.00     0.000 A 
ENDBRANCH  60  73
ENDBRANCH  34  35
ENDBRANCH  26  29
ENDBRANCH  24  25
ENDBRANCH  23  24
ENDBRANCH  22  23
ENDBRANCH   1  22
TORSDOF 15
ENDMDL
