MODEL 1
REMARK VINA RESULT:     -11.2      0.000      0.000
REMARK SMILES CC[C@H](NC(=O)Cc1c(C)c2cc(Cl)c(OC)cc2oc1=O)C(=O)NCCCCNC(=O)c1ccc(-c2c3nc(c(-c4ccccc4)c4ccc([nH]4)c(-c4ccccc4)c4nc(c(-c5ccccc5)c5ccc2[nH]5)C=C4)C=C3)cc1
REMARK SMILES IDX 26 1 25 2 23 3 24 4 3 6 2 7 1 8 4 9 5 10 6 12 7 13 8 14 9 15
REMARK SMILES IDX 21 16 10 17 11 18 20 19 22 20 12 21 19 22 13 23 18 24 14 25
REMARK SMILES IDX 15 26 16 27 17 28 27 29 28 30 29 31 30 32 31 33 32 35 33 36
REMARK SMILES IDX 34 37 80 38 35 39 79 40 36 41 37 42 38 43 73 44 39 45 78 46
REMARK SMILES IDX 72 47 74 48 40 49 77 50 71 51 70 52 41 54 63 55 48 56 62 57
REMARK SMILES IDX 49 58 52 59 61 60 75 61 50 62 51 63 60 65 76 66 53 67 42 68
REMARK SMILES IDX 43 69 47 70 44 71 46 72 45 73 64 74 65 75 69 76 66 77 68 78
REMARK SMILES IDX 67 79 54 80 55 81 59 82 56 83 58 84 57 85
REMARK H PARENT 25 5 4 11 30 34 74 53 52 64
REMARK Flexibility Score: inf
ROOT
ATOM      1  C   UNL A   1      38.115  22.730  26.032  1.00  0.00     0.116 C 
ENDROOT
BRANCH   1   2
ATOM      2  N   UNL A   1      37.710  22.650  24.645  1.00  0.00    -0.354 N 
ATOM      3  C   UNL A   1      36.461  22.744  24.105  1.00  0.00     0.242 C 
ATOM      4  O   UNL A   1      36.398  23.067  22.918  1.00  0.00    -0.273 OA
ATOM      5  H   UNL A   1      38.440  22.509  23.999  1.00  0.00     0.163 HD
BRANCH   3   6
ATOM      6  C   UNL A   1      35.206  22.641  24.996  1.00  0.00     0.171 C 
BRANCH   6   7
ATOM      7  C   UNL A   1      34.122  21.894  24.179  1.00  0.00     0.031 C 
ATOM      8  C   UNL A   1      32.844  21.509  24.908  1.00  0.00     0.006 C 
ENDBRANCH   6   7
BRANCH   6   9
ATOM      9  N   UNL A   1      34.787  23.934  25.557  1.00  0.00    -0.344 N 
ATOM     10  C   UNL A   1      34.200  24.999  24.936  1.00  0.00     0.225 C 
ATOM     11  H   UNL A   1      34.953  24.048  26.521  1.00  0.00     0.164 HD
ATOM     12  O   UNL A   1      34.192  26.074  25.544  1.00  0.00    -0.275 OA
BRANCH  10  13
ATOM     13  C   UNL A   1      33.543  24.876  23.568  1.00  0.00     0.143 C 
BRANCH  13  14
ATOM     14  C   UNL A   1      32.569  25.998  23.329  1.00  0.00     0.051 A 
ATOM     15  C   UNL A   1      31.324  26.150  23.836  1.00  0.00    -0.029 A 
ATOM     16  C   UNL A   1      33.024  26.983  22.316  1.00  0.00     0.340 A 
ATOM     17  C   UNL A   1      30.674  25.214  24.815  1.00  0.00     0.046 C 
ATOM     18  C   UNL A   1      30.553  27.325  23.371  1.00  0.00     0.023 A 
ATOM     19  O   UNL A   1      32.638  28.277  22.560  1.00  0.00    -0.422 OA
ATOM     20  O   UNL A   1      33.789  26.693  21.409  1.00  0.00    -0.246 OA
ATOM     21  C   UNL A   1      29.169  27.473  23.480  1.00  0.00     0.036 A 
ATOM     22  C   UNL A   1      31.262  28.358  22.753  1.00  0.00     0.142 A 
ATOM     23  C   UNL A   1      28.532  28.608  22.947  1.00  0.00     0.083 A 
ATOM     24  C   UNL A   1      30.650  29.504  22.251  1.00  0.00     0.095 A 
ATOM     25  Cl  UNL A   1      26.808  28.694  23.067  1.00  0.00    -0.080 Cl
ATOM     26  C   UNL A   1      29.266  29.623  22.310  1.00  0.00     0.141 A 
BRANCH  26  27
ATOM     27  O   UNL A   1      28.574  30.682  21.780  1.00  0.00    -0.495 OA
ATOM     28  C   UNL A   1      28.546  31.875  22.559  1.00  0.00     0.278 C 
ENDBRANCH  26  27
ENDBRANCH  13  14
ENDBRANCH  10  13
ENDBRANCH   6   9
ENDBRANCH   3   6
ENDBRANCH   1   2
BRANCH   1  29
ATOM     29  C   UNL A   1      38.225  24.159  26.549  1.00  0.00     0.023 C 
BRANCH  29  30
ATOM     30  C   UNL A   1      39.638  24.736  26.602  1.00  0.00     0.023 C 
BRANCH  30  31
ATOM     31  C   UNL A   1      40.537  24.214  27.714  1.00  0.00     0.116 C 
BRANCH  31  32
ATOM     32  N   UNL A   1      41.402  23.112  27.326  1.00  0.00    -0.352 N 
ATOM     33  C   UNL A   1      42.722  23.168  26.935  1.00  0.00     0.251 C 
ATOM     34  H   UNL A   1      40.995  22.216  27.344  1.00  0.00     0.163 HD
ATOM     35  O   UNL A   1      43.327  22.152  26.615  1.00  0.00    -0.269 OA
BRANCH  33  36
ATOM     36  C   UNL A   1      43.377  24.489  26.839  1.00  0.00     0.039 A 
ATOM     37  C   UNL A   1      43.511  25.128  25.605  1.00  0.00     0.014 A 
ATOM     38  C   UNL A   1      43.962  25.030  27.986  1.00  0.00     0.014 A 
ATOM     39  C   UNL A   1      44.383  26.204  25.486  1.00  0.00     0.010 A 
ATOM     40  C   UNL A   1      44.773  26.162  27.878  1.00  0.00     0.010 A 
ATOM     41  C   UNL A   1      45.039  26.719  26.618  1.00  0.00    -0.014 A 
BRANCH  41  42
ATOM     42  C   UNL A   1      46.017  27.825  26.451  1.00  0.00     0.031 A 
ATOM     43  C   UNL A   1      45.588  29.262  26.587  1.00  0.00     0.074 A 
ATOM     44  C   UNL A   1      47.314  27.527  26.247  1.00  0.00     0.049 A 
ATOM     45  N   UNL A   1      46.319  30.347  26.522  1.00  0.00    -0.248 NA
ATOM     46  C   UNL A   1      44.157  29.520  26.824  1.00  0.00     0.031 C 
ATOM     47  C   UNL A   1      47.855  26.172  26.122  1.00  0.00     0.029 A 
ATOM     48  N   UNL A   1      48.416  28.337  26.150  1.00  0.00    -0.354 N 
ATOM     49  C   UNL A   1      45.440  31.410  26.689  1.00  0.00     0.074 A 
ATOM     50  C   UNL A   1      44.117  30.846  26.836  1.00  0.00     0.031 C 
ATOM     51  C   UNL A   1      49.191  26.241  26.034  1.00  0.00     0.029 A 
ATOM     52  C   UNL A   1      49.595  27.644  26.033  1.00  0.00     0.049 A 
ATOM     53  H   UNL A   1      48.365  29.320  26.163  1.00  0.00     0.167 HD
ATOM     54  C   UNL A   1      45.714  32.736  26.727  1.00  0.00     0.031 A 
ATOM     55  C   UNL A   1      50.863  28.082  25.935  1.00  0.00     0.031 A 
ATOM     56  C   UNL A   1      47.032  33.299  26.596  1.00  0.00     0.049 A 
ATOM     57  C   UNL A   1      51.136  29.557  25.949  1.00  0.00     0.074 A 
ATOM     58  C   UNL A   1      47.404  34.631  26.630  1.00  0.00     0.029 A 
ATOM     59  N   UNL A   1      48.192  32.562  26.414  1.00  0.00    -0.354 N 
ATOM     60  N   UNL A   1      50.291  30.547  26.100  1.00  0.00    -0.248 NA
ATOM     61  C   UNL A   1      52.534  29.976  25.775  1.00  0.00     0.031 C 
ATOM     62  C   UNL A   1      48.785  34.704  26.422  1.00  0.00     0.029 A 
ATOM     63  C   UNL A   1      49.279  33.414  26.315  1.00  0.00     0.049 A 
ATOM     64  H   UNL A   1      48.236  31.580  26.362  1.00  0.00     0.167 HD
ATOM     65  C   UNL A   1      51.052  31.706  26.048  1.00  0.00     0.074 A 
ATOM     66  C   UNL A   1      52.431  31.295  25.873  1.00  0.00     0.031 C 
ATOM     67  C   UNL A   1      50.643  32.994  26.133  1.00  0.00     0.031 A 
BRANCH  54  68
ATOM     68  C   UNL A   1      44.564  33.689  26.907  1.00  0.00    -0.014 A 
ATOM     69  C   UNL A   1      43.904  34.204  25.779  1.00  0.00     0.009 A 
ATOM     70  C   UNL A   1      44.192  34.147  28.180  1.00  0.00     0.009 A 
ATOM     71  C   UNL A   1      42.903  35.166  25.921  1.00  0.00     0.001 A 
ATOM     72  C   UNL A   1      43.172  35.091  28.320  1.00  0.00     0.001 A 
ATOM     73  C   UNL A   1      42.535  35.606  27.192  1.00  0.00     0.000 A 
ENDBRANCH  54  68
BRANCH  55  74
ATOM     74  C   UNL A   1      51.967  27.093  25.830  1.00  0.00    -0.014 A 
ATOM     75  C   UNL A   1      52.329  26.558  24.583  1.00  0.00     0.009 A 
ATOM     76  C   UNL A   1      52.621  26.635  26.982  1.00  0.00     0.009 A 
ATOM     77  C   UNL A   1      53.304  25.564  24.494  1.00  0.00     0.001 A 
ATOM     78  C   UNL A   1      53.618  25.661  26.887  1.00  0.00     0.001 A 
ATOM     79  C   UNL A   1      53.950  25.119  25.646  1.00  0.00     0.000 A 
ENDBRANCH  55  74
BRANCH  67  80
ATOM     80  C   UNL A   1      51.692  34.065  26.047  1.00  0.00    -0.014 A 
ATOM     81  C   UNL A   1      52.361  34.480  27.210  1.00  0.00     0.009 A 
ATOM     82  C   UNL A   1      51.955  34.721  24.835  1.00  0.00     0.009 A 
ATOM     83  C   UNL A   1      53.268  35.540  27.162  1.00  0.00     0.001 A 
ATOM     84  C   UNL A   1      52.882  35.764  24.787  1.00  0.00     0.001 A 
ATOM     85  C   UNL A   1      53.532  36.177  25.951  1.00  0.00     0.000 A 
ENDBRANCH  67  80
ENDBRANCH  41  42
ENDBRANCH  33  36
ENDBRANCH  31  32
ENDBRANCH  30  31
ENDBRANCH  29  30
ENDBRANCH   1  29
TORSDOF 16
ENDMDL
MODEL 2
REMARK VINA RESULT:     -11.1      3.985      7.648
REMARK SMILES CC[C@H](NC(=O)Cc1c(C)c2cc(Cl)c(OC)cc2oc1=O)C(=O)NCCCCNC(=O)c1ccc(-c2c3nc(c(-c4ccccc4)c4ccc([nH]4)c(-c4ccccc4)c4nc(c(-c5ccccc5)c5ccc2[nH]5)C=C4)C=C3)cc1
REMARK SMILES IDX 26 1 25 2 23 3 24 4 3 6 2 7 1 8 4 9 5 10 6 12 7 13 8 14 9 15
REMARK SMILES IDX 21 16 10 17 11 18 20 19 22 20 12 21 19 22 13 23 18 24 14 25
REMARK SMILES IDX 15 26 16 27 17 28 27 29 28 30 29 31 30 32 31 33 32 35 33 36
REMARK SMILES IDX 34 37 80 38 35 39 79 40 36 41 37 42 38 43 73 44 39 45 78 46
REMARK SMILES IDX 72 47 74 48 40 49 77 50 71 51 70 52 41 54 63 55 48 56 62 57
REMARK SMILES IDX 49 58 52 59 61 60 75 61 50 62 51 63 60 65 76 66 53 67 42 68
REMARK SMILES IDX 43 69 47 70 44 71 46 72 45 73 64 74 65 75 69 76 66 77 68 78
REMARK SMILES IDX 67 79 54 80 55 81 59 82 56 83 58 84 57 85
REMARK H PARENT 25 5 4 11 30 34 74 53 52 64
REMARK Flexibility Score: inf
ROOT
ATOM      1  C   UNL A   1      37.273  22.099  25.656  1.00  0.00     0.116 C 
ENDROOT
BRANCH   1   2
ATOM      2  N   UNL A   1      36.776  22.169  24.297  1.00  0.00    -0.354 N 
ATOM      3  C   UNL A   1      35.538  22.522  23.851  1.00  0.00     0.242 C 
ATOM      4  O   UNL A   1      35.464  22.913  22.684  1.00  0.00    -0.273 OA
ATOM      5  H   UNL A   1      37.425  21.928  23.597  1.00  0.00     0.163 HD
BRANCH   3   6
ATOM      6  C   UNL A   1      34.342  22.609  24.822  1.00  0.00     0.171 C 
BRANCH   6   7
ATOM      7  C   UNL A   1      33.086  22.130  24.050  1.00  0.00     0.031 C 
ATOM      8  C   UNL A   1      32.899  20.630  23.889  1.00  0.00     0.006 C 
ENDBRANCH   6   7
BRANCH   6   9
ATOM      9  N   UNL A   1      34.216  23.923  25.469  1.00  0.00    -0.344 N 
ATOM     10  C   UNL A   1      34.048  25.155  24.905  1.00  0.00     0.225 C 
ATOM     11  H   UNL A   1      34.260  23.913  26.452  1.00  0.00     0.164 HD
ATOM     12  O   UNL A   1      34.245  26.138  25.624  1.00  0.00    -0.275 OA
BRANCH  10  13
ATOM     13  C   UNL A   1      33.597  25.327  23.461  1.00  0.00     0.143 C 
BRANCH  13  14
ATOM     14  C   UNL A   1      32.493  26.344  23.352  1.00  0.00     0.051 A 
ATOM     15  C   UNL A   1      31.229  26.263  23.828  1.00  0.00    -0.029 A 
ATOM     16  C   UNL A   1      32.839  27.520  22.514  1.00  0.00     0.340 A 
ATOM     17  C   UNL A   1      30.684  25.117  24.631  1.00  0.00     0.046 C 
ATOM     18  C   UNL A   1      30.325  27.391  23.511  1.00  0.00     0.023 A 
ATOM     19  O   UNL A   1      32.287  28.704  22.932  1.00  0.00    -0.422 OA
ATOM     20  O   UNL A   1      33.652  27.466  21.605  1.00  0.00    -0.246 OA
ATOM     21  C   UNL A   1      28.931  27.350  23.588  1.00  0.00     0.036 A 
ATOM     22  C   UNL A   1      30.908  28.585  23.081  1.00  0.00     0.142 A 
ATOM     23  C   UNL A   1      28.165  28.466  23.205  1.00  0.00     0.083 A 
ATOM     24  C   UNL A   1      30.165  29.711  22.731  1.00  0.00     0.095 A 
ATOM     25  Cl  UNL A   1      26.442  28.320  23.269  1.00  0.00    -0.080 Cl
ATOM     26  C   UNL A   1      28.776  29.648  22.753  1.00  0.00     0.141 A 
BRANCH  26  27
ATOM     27  O   UNL A   1      27.966  30.682  22.359  1.00  0.00    -0.495 OA
ATOM     28  C   UNL A   1      27.855  31.780  23.261  1.00  0.00     0.278 C 
ENDBRANCH  26  27
ENDBRANCH  13  14
ENDBRANCH  10  13
ENDBRANCH   6   9
ENDBRANCH   3   6
ENDBRANCH   1   2
BRANCH   1  29
ATOM     29  C   UNL A   1      38.737  21.690  25.744  1.00  0.00     0.023 C 
BRANCH  29  30
ATOM     30  C   UNL A   1      39.070  20.302  25.200  1.00  0.00     0.023 C 
BRANCH  30  31
ATOM     31  C   UNL A   1      39.763  19.349  26.164  1.00  0.00     0.116 C 
BRANCH  31  32
ATOM     32  N   UNL A   1      41.119  18.984  25.785  1.00  0.00    -0.352 N 
ATOM     33  C   UNL A   1      42.268  19.728  25.929  1.00  0.00     0.251 C 
ATOM     34  H   UNL A   1      41.228  18.096  25.374  1.00  0.00     0.163 HD
ATOM     35  O   UNL A   1      43.349  19.299  25.545  1.00  0.00    -0.269 OA
BRANCH  33  36
ATOM     36  C   UNL A   1      42.164  21.089  26.495  1.00  0.00     0.039 A 
ATOM     37  C   UNL A   1      42.353  22.211  25.686  1.00  0.00     0.014 A 
ATOM     38  C   UNL A   1      41.991  21.230  27.874  1.00  0.00     0.014 A 
ATOM     39  C   UNL A   1      42.553  23.452  26.279  1.00  0.00     0.010 A 
ATOM     40  C   UNL A   1      42.110  22.492  28.459  1.00  0.00     0.010 A 
ATOM     41  C   UNL A   1      42.454  23.602  27.673  1.00  0.00    -0.014 A 
BRANCH  41  42
ATOM     42  C   UNL A   1      42.740  24.925  28.285  1.00  0.00     0.031 A 
ATOM     43  C   UNL A   1      44.151  25.331  28.622  1.00  0.00     0.074 A 
ATOM     44  C   UNL A   1      41.729  25.794  28.469  1.00  0.00     0.049 A 
ATOM     45  N   UNL A   1      44.584  26.466  29.113  1.00  0.00    -0.248 NA
ATOM     46  C   UNL A   1      45.214  24.340  28.383  1.00  0.00     0.031 C 
ATOM     47  C   UNL A   1      40.323  25.525  28.158  1.00  0.00     0.029 A 
ATOM     48  N   UNL A   1      41.729  27.088  28.923  1.00  0.00    -0.354 N 
ATOM     49  C   UNL A   1      45.958  26.320  29.258  1.00  0.00     0.074 A 
ATOM     50  C   UNL A   1      46.289  24.980  28.826  1.00  0.00     0.031 C 
ATOM     51  C   UNL A   1      39.609  26.640  28.365  1.00  0.00     0.029 A 
ATOM     52  C   UNL A   1      40.492  27.682  28.881  1.00  0.00     0.049 A 
ATOM     53  H   UNL A   1      42.538  27.546  29.247  1.00  0.00     0.167 HD
ATOM     54  C   UNL A   1      46.863  27.225  29.701  1.00  0.00     0.031 A 
ATOM     55  C   UNL A   1      40.105  28.925  29.219  1.00  0.00     0.031 A 
ATOM     56  C   UNL A   1      46.538  28.564  30.116  1.00  0.00     0.049 A 
ATOM     57  C   UNL A   1      41.122  29.898  29.736  1.00  0.00     0.074 A 
ATOM     58  C   UNL A   1      47.392  29.552  30.573  1.00  0.00     0.029 A 
ATOM     59  N   UNL A   1      45.262  29.103  30.119  1.00  0.00    -0.354 N 
ATOM     60  N   UNL A   1      42.415  29.739  29.874  1.00  0.00    -0.248 NA
ATOM     61  C   UNL A   1      40.628  31.220  30.148  1.00  0.00     0.031 C 
ATOM     62  C   UNL A   1      46.626  30.676  30.897  1.00  0.00     0.029 A 
ATOM     63  C   UNL A   1      45.303  30.405  30.587  1.00  0.00     0.049 A 
ATOM     64  H   UNL A   1      44.447  28.630  29.832  1.00  0.00     0.167 HD
ATOM     65  C   UNL A   1      42.893  30.939  30.380  1.00  0.00     0.074 A 
ATOM     66  C   UNL A   1      41.753  31.826  30.504  1.00  0.00     0.031 C 
ATOM     67  C   UNL A   1      44.162  31.273  30.714  1.00  0.00     0.031 A 
BRANCH  54  68
ATOM     68  C   UNL A   1      48.305  26.802  29.776  1.00  0.00    -0.014 A 
ATOM     69  C   UNL A   1      49.149  27.006  28.672  1.00  0.00     0.009 A 
ATOM     70  C   UNL A   1      48.806  26.126  30.899  1.00  0.00     0.009 A 
ATOM     71  C   UNL A   1      50.461  26.530  28.686  1.00  0.00     0.001 A 
ATOM     72  C   UNL A   1      50.128  25.673  30.919  1.00  0.00     0.001 A 
ATOM     73  C   UNL A   1      50.951  25.869  29.811  1.00  0.00     0.000 A 
ENDBRANCH  54  68
BRANCH  55  74
ATOM     74  C   UNL A   1      38.679  29.310  29.058  1.00  0.00    -0.014 A 
ATOM     75  C   UNL A   1      37.787  29.212  30.138  1.00  0.00     0.009 A 
ATOM     76  C   UNL A   1      38.191  29.719  27.809  1.00  0.00     0.009 A 
ATOM     77  C   UNL A   1      36.431  29.488  29.965  1.00  0.00     0.001 A 
ATOM     78  C   UNL A   1      36.837  30.023  27.645  1.00  0.00     0.001 A 
ATOM     79  C   UNL A   1      35.957  29.897  28.719  1.00  0.00     0.000 A 
ENDBRANCH  55  74
BRANCH  67  80
ATOM     80  C   UNL A   1      44.401  32.658  31.244  1.00  0.00    -0.014 A 
ATOM     81  C   UNL A   1      44.373  32.889  32.628  1.00  0.00     0.009 A 
ATOM     82  C   UNL A   1      44.567  33.745  30.372  1.00  0.00     0.009 A 
ATOM     83  C   UNL A   1      44.499  34.186  33.131  1.00  0.00     0.001 A 
ATOM     84  C   UNL A   1      44.717  35.037  30.879  1.00  0.00     0.001 A 
ATOM     85  C   UNL A   1      44.675  35.257  32.256  1.00  0.00     0.000 A 
ENDBRANCH  67  80
ENDBRANCH  41  42
ENDBRANCH  33  36
ENDBRANCH  31  32
ENDBRANCH  30  31
ENDBRANCH  29  30
ENDBRANCH   1  29
TORSDOF 16
ENDMDL
MODEL 3
REMARK VINA RESULT:     -11.0      6.351     10.153
REMARK SMILES CC[C@H](NC(=O)Cc1c(C)c2cc(Cl)c(OC)cc2oc1=O)C(=O)NCCCCNC(=O)c1ccc(-c2c3nc(c(-c4ccccc4)c4ccc([nH]4)c(-c4ccccc4)c4nc(c(-c5ccccc5)c5ccc2[nH]5)C=C4)C=C3)cc1
REMARK SMILES IDX 26 1 25 2 23 3 24 4 3 6 2 7 1 8 4 9 5 10 6 12 7 13 8 14 9 15
REMARK SMILES IDX 21 16 10 17 11 18 20 19 22 20 12 21 19 22 13 23 18 24 14 25
REMARK SMILES IDX 15 26 16 27 17 28 27 29 28 30 29 31 30 32 31 33 32 35 33 36
REMARK SMILES IDX 34 37 80 38 35 39 79 40 36 41 37 42 38 43 73 44 39 45 78 46
REMARK SMILES IDX 72 47 74 48 40 49 77 50 71 51 70 52 41 54 63 55 48 56 62 57
REMARK SMILES IDX 49 58 52 59 61 60 75 61 50 62 51 63 60 65 76 66 53 67 42 68
REMARK SMILES IDX 43 69 47 70 44 71 46 72 45 73 64 74 65 75 69 76 66 77 68 78
REMARK SMILES IDX 67 79 54 80 55 81 59 82 56 83 58 84 57 85
REMARK H PARENT 25 5 4 11 30 34 74 53 52 64
REMARK Flexibility Score: inf
ROOT
ATOM      1  C   UNL A   1      31.750  28.525  26.573  1.00  0.00     0.116 C 
ENDROOT
BRANCH   1   2
ATOM      2  N   UNL A   1      32.587  28.062  25.486  1.00  0.00    -0.354 N 
ATOM      3  C   UNL A   1      32.290  27.185  24.485  1.00  0.00     0.242 C 
ATOM      4  O   UNL A   1      32.977  27.262  23.465  1.00  0.00    -0.273 OA
ATOM      5  H   UNL A   1      33.499  28.433  25.467  1.00  0.00     0.163 HD
BRANCH   3   6
ATOM      6  C   UNL A   1      31.037  26.289  24.565  1.00  0.00     0.171 C 
BRANCH   6   7
ATOM      7  C   UNL A   1      29.820  27.163  24.167  1.00  0.00     0.031 C 
ATOM      8  C   UNL A   1      29.857  27.823  22.797  1.00  0.00     0.006 C 
ENDBRANCH   6   7
BRANCH   6   9
ATOM      9  N   UNL A   1      30.909  25.586  25.850  1.00  0.00    -0.344 N 
ATOM     10  C   UNL A   1      31.743  24.671  26.424  1.00  0.00     0.225 C 
ATOM     11  H   UNL A   1      30.104  25.808  26.372  1.00  0.00     0.164 HD
ATOM     12  O   UNL A   1      31.298  24.013  27.369  1.00  0.00    -0.275 OA
BRANCH  10  13
ATOM     13  C   UNL A   1      33.181  24.482  25.958  1.00  0.00     0.143 C 
BRANCH  13  14
ATOM     14  C   UNL A   1      33.428  23.067  25.511  1.00  0.00     0.051 A 
ATOM     15  C   UNL A   1      32.887  22.414  24.457  1.00  0.00    -0.029 A 
ATOM     16  C   UNL A   1      34.292  22.288  26.433  1.00  0.00     0.340 A 
ATOM     17  C   UNL A   1      31.938  23.022  23.463  1.00  0.00     0.046 C 
ATOM     18  C   UNL A   1      33.259  20.991  24.293  1.00  0.00     0.023 A 
ATOM     19  O   UNL A   1      35.111  21.376  25.818  1.00  0.00    -0.422 OA
ATOM     20  O   UNL A   1      34.366  22.527  27.629  1.00  0.00    -0.246 OA
ATOM     21  C   UNL A   1      32.562  20.062  23.517  1.00  0.00     0.036 A 
ATOM     22  C   UNL A   1      34.382  20.533  24.986  1.00  0.00     0.142 A 
ATOM     23  C   UNL A   1      32.971  18.717  23.481  1.00  0.00     0.083 A 
ATOM     24  C   UNL A   1      34.820  19.211  24.933  1.00  0.00     0.095 A 
ATOM     25  Cl  UNL A   1      32.023  17.612  22.546  1.00  0.00    -0.080 Cl
ATOM     26  C   UNL A   1      34.091  18.277  24.206  1.00  0.00     0.141 A 
BRANCH  26  27
ATOM     27  O   UNL A   1      34.408  16.944  24.155  1.00  0.00    -0.495 OA
ATOM     28  C   UNL A   1      34.002  16.152  25.270  1.00  0.00     0.278 C 
ENDBRANCH  26  27
ENDBRANCH  13  14
ENDBRANCH  10  13
ENDBRANCH   6   9
ENDBRANCH   3   6
ENDBRANCH   1   2
BRANCH   1  29
ATOM     29  C   UNL A   1      32.387  29.638  27.395  1.00  0.00     0.023 C 
BRANCH  29  30
ATOM     30  C   UNL A   1      32.176  31.056  26.866  1.00  0.00     0.023 C 
BRANCH  30  31
ATOM     31  C   UNL A   1      33.214  32.090  27.277  1.00  0.00     0.116 C 
BRANCH  31  32
ATOM     32  N   UNL A   1      32.661  33.359  27.723  1.00  0.00    -0.352 N 
ATOM     33  C   UNL A   1      33.229  34.276  28.579  1.00  0.00     0.251 C 
ATOM     34  H   UNL A   1      31.772  33.591  27.369  1.00  0.00     0.163 HD
ATOM     35  O   UNL A   1      32.636  35.303  28.884  1.00  0.00    -0.269 OA
BRANCH  33  36
ATOM     36  C   UNL A   1      34.542  33.965  29.181  1.00  0.00     0.039 A 
ATOM     37  C   UNL A   1      35.722  34.410  28.581  1.00  0.00     0.014 A 
ATOM     38  C   UNL A   1      34.586  33.120  30.292  1.00  0.00     0.014 A 
ATOM     39  C   UNL A   1      36.936  33.862  28.978  1.00  0.00     0.010 A 
ATOM     40  C   UNL A   1      35.816  32.635  30.742  1.00  0.00     0.010 A 
ATOM     41  C   UNL A   1      36.993  32.953  30.049  1.00  0.00    -0.014 A 
BRANCH  41  42
ATOM     42  C   UNL A   1      38.294  32.332  30.407  1.00  0.00     0.031 A 
ATOM     43  C   UNL A   1      39.159  32.921  31.490  1.00  0.00     0.074 A 
ATOM     44  C   UNL A   1      38.663  31.189  29.801  1.00  0.00     0.049 A 
ATOM     45  N   UNL A   1      40.297  32.479  31.964  1.00  0.00    -0.248 NA
ATOM     46  C   UNL A   1      38.692  34.165  32.125  1.00  0.00     0.031 C 
ATOM     47  C   UNL A   1      37.898  30.509  28.753  1.00  0.00     0.029 A 
ATOM     48  N   UNL A   1      39.748  30.376  30.002  1.00  0.00    -0.354 N 
ATOM     49  C   UNL A   1      40.690  33.395  32.932  1.00  0.00     0.074 A 
ATOM     50  C   UNL A   1      39.683  34.432  32.966  1.00  0.00     0.031 C 
ATOM     51  C   UNL A   1      38.501  29.349  28.454  1.00  0.00     0.029 A 
ATOM     52  C   UNL A   1      39.726  29.234  29.240  1.00  0.00     0.049 A 
ATOM     53  H   UNL A   1      40.474  30.590  30.633  1.00  0.00     0.167 HD
ATOM     54  C   UNL A   1      41.786  33.369  33.728  1.00  0.00     0.031 A 
ATOM     55  C   UNL A   1      40.590  28.205  29.177  1.00  0.00     0.031 A 
ATOM     56  C   UNL A   1      42.782  32.330  33.705  1.00  0.00     0.049 A 
ATOM     57  C   UNL A   1      41.812  28.215  30.046  1.00  0.00     0.074 A 
ATOM     58  C   UNL A   1      43.922  32.217  34.481  1.00  0.00     0.029 A 
ATOM     59  N   UNL A   1      42.752  31.224  32.871  1.00  0.00    -0.354 N 
ATOM     60  N   UNL A   1      42.171  29.094  30.949  1.00  0.00    -0.248 NA
ATOM     61  C   UNL A   1      42.751  27.096  29.886  1.00  0.00     0.031 C 
ATOM     62  C   UNL A   1      44.608  31.065  34.084  1.00  0.00     0.029 A 
ATOM     63  C   UNL A   1      43.865  30.432  33.101  1.00  0.00     0.049 A 
ATOM     64  H   UNL A   1      42.046  31.030  32.213  1.00  0.00     0.167 HD
ATOM     65  C   UNL A   1      43.370  28.633  31.472  1.00  0.00     0.074 A 
ATOM     66  C   UNL A   1      43.668  27.384  30.800  1.00  0.00     0.031 C 
ATOM     67  C   UNL A   1      44.154  29.197  32.420  1.00  0.00     0.031 A 
BRANCH  54  68
ATOM     68  C   UNL A   1      41.986  34.505  34.692  1.00  0.00    -0.014 A 
ATOM     69  C   UNL A   1      42.707  35.641  34.290  1.00  0.00     0.009 A 
ATOM     70  C   UNL A   1      41.542  34.417  36.021  1.00  0.00     0.009 A 
ATOM     71  C   UNL A   1      42.990  36.660  35.200  1.00  0.00     0.001 A 
ATOM     72  C   UNL A   1      41.805  35.451  36.923  1.00  0.00     0.001 A 
ATOM     73  C   UNL A   1      42.535  36.567  36.515  1.00  0.00     0.000 A 
ENDBRANCH  54  68
BRANCH  55  74
ATOM     74  C   UNL A   1      40.307  27.075  28.255  1.00  0.00    -0.014 A 
ATOM     75  C   UNL A   1      39.545  25.977  28.686  1.00  0.00     0.009 A 
ATOM     76  C   UNL A   1      40.847  27.062  26.961  1.00  0.00     0.009 A 
ATOM     77  C   UNL A   1      39.353  24.876  27.850  1.00  0.00     0.001 A 
ATOM     78  C   UNL A   1      40.628  25.971  26.117  1.00  0.00     0.001 A 
ATOM     79  C   UNL A   1      39.891  24.875  26.565  1.00  0.00     0.000 A 
ENDBRANCH  55  74
BRANCH  67  80
ATOM     80  C   UNL A   1      45.414  28.474  32.804  1.00  0.00    -0.014 A 
ATOM     81  C   UNL A   1      45.411  27.608  33.909  1.00  0.00     0.009 A 
ATOM     82  C   UNL A   1      46.618  28.715  32.127  1.00  0.00     0.009 A 
ATOM     83  C   UNL A   1      46.594  27.004  34.336  1.00  0.00     0.001 A 
ATOM     84  C   UNL A   1      47.795  28.089  32.541  1.00  0.00     0.001 A 
ATOM     85  C   UNL A   1      47.784  27.241  33.649  1.00  0.00     0.000 A 
ENDBRANCH  67  80
ENDBRANCH  41  42
ENDBRANCH  33  36
ENDBRANCH  31  32
ENDBRANCH  30  31
ENDBRANCH  29  30
ENDBRANCH   1  29
TORSDOF 16
ENDMDL
