MODEL 1
REMARK VINA RESULT:     -10.5      0.000      0.000
REMARK SMILES C[C@H](CC[NH2+]Cc1cc(C(=O)NCCCCNC(=O)c2ccc(-c3c4nc(c(-c5ccccc5)c5ccc([nH]5)c(-c5ccccc5)c5nc(c(-c6ccccc6)c6ccc3[nH]6)C=C5)C=C4)cc2)cs1)c1ccccc1
REMARK SMILES IDX 10 1 11 2 12 3 9 5 7 6 8 7 69 8 68 9 6 10 5 11 4 14 3 15
REMARK SMILES IDX 2 16 1 17 70 18 71 19 75 20 72 21 74 22 73 23 13 24 14 25
REMARK SMILES IDX 15 26 16 27 17 28 18 29 19 31 20 32 21 33 67 34 22 35 66 36
REMARK SMILES IDX 23 37 24 38 25 39 60 40 26 41 65 42 59 43 61 44 27 45 64 46
REMARK SMILES IDX 58 47 57 48 28 50 50 51 35 52 49 53 36 54 39 55 48 56 62 57
REMARK SMILES IDX 37 58 38 59 47 61 63 62 40 63 29 64 30 65 34 66 31 67 33 68
REMARK SMILES IDX 32 69 51 70 52 71 56 72 53 73 55 74 54 75 41 76 42 77 46 78
REMARK SMILES IDX 43 79 45 80 44 81
REMARK H PARENT 12 4 5 12 5 13 17 30 61 49 39 60
REMARK Flexibility Score: inf
ROOT
ATOM      1  C   UNL A   1      30.905  28.575  22.800  1.00  0.00     0.252 C 
ATOM      2  O   UNL A   1      29.934  28.867  22.098  1.00  0.00    -0.269 OA
ATOM      3  N   UNL A   1      31.425  29.575  23.590  1.00  0.00    -0.352 N 
ATOM      4  H   UNL A   1      31.123  30.482  23.355  1.00  0.00     0.163 HD
ENDROOT
BRANCH   1   5
ATOM      5  C   UNL A   1      31.419  27.203  22.858  1.00  0.00     0.051 A 
ATOM      6  C   UNL A   1      31.558  24.873  23.218  1.00  0.00     0.059 A 
ATOM      7  C   UNL A   1      30.915  26.052  23.557  1.00  0.00     0.035 A 
ATOM      8  S   UNL A   1      32.947  25.189  22.273  1.00  0.00    -0.142 S 
ATOM      9  C   UNL A   1      32.594  26.859  22.205  1.00  0.00     0.079 A 
BRANCH   6  10
ATOM     10  C   UNL A   1      31.193  23.467  23.611  1.00  0.00     0.308 C 
BRANCH  10  11
ATOM     11  N   UNL A   1      31.397  22.500  22.518  1.00  0.00    -0.342 N 
ATOM     12  H   UNL A   1      30.487  22.152  22.215  1.00  0.00     0.346 HD
ATOM     13  H   UNL A   1      31.884  22.985  21.764  1.00  0.00     0.346 HD
BRANCH  11  14
ATOM     14  C   UNL A   1      32.226  21.362  22.920  1.00  0.00     0.261 C 
BRANCH  14  15
ATOM     15  C   UNL A   1      32.291  21.131  24.448  1.00  0.00     0.069 C 
BRANCH  15  16
ATOM     16  C   UNL A   1      33.643  20.719  25.089  1.00  0.00     0.021 C 
ATOM     17  C   UNL A   1      34.090  19.309  24.682  1.00  0.00     0.013 C 
BRANCH  16  18
ATOM     18  C   UNL A   1      34.685  21.812  24.922  1.00  0.00    -0.045 A 
ATOM     19  C   UNL A   1      35.992  21.473  24.540  1.00  0.00     0.004 A 
ATOM     20  C   UNL A   1      34.422  23.138  25.269  1.00  0.00     0.004 A 
ATOM     21  C   UNL A   1      37.017  22.423  24.563  1.00  0.00     0.000 A 
ATOM     22  C   UNL A   1      35.455  24.076  25.314  1.00  0.00     0.000 A 
ATOM     23  C   UNL A   1      36.751  23.721  24.974  1.00  0.00     0.000 A 
ENDBRANCH  16  18
ENDBRANCH  15  16
ENDBRANCH  14  15
ENDBRANCH  11  14
ENDBRANCH  10  11
ENDBRANCH   6  10
ENDBRANCH   1   5
BRANCH   3  24
ATOM     24  C   UNL A   1      32.344  29.518  24.711  1.00  0.00     0.116 C 
BRANCH  24  25
ATOM     25  C   UNL A   1      31.676  29.796  26.051  1.00  0.00     0.023 C 
BRANCH  25  26
ATOM     26  C   UNL A   1      31.488  31.283  26.351  1.00  0.00     0.023 C 
BRANCH  26  27
ATOM     27  C   UNL A   1      32.662  31.961  27.059  1.00  0.00     0.116 C 
BRANCH  27  28
ATOM     28  N   UNL A   1      32.379  33.331  27.469  1.00  0.00    -0.352 N 
ATOM     29  C   UNL A   1      33.083  34.167  28.301  1.00  0.00     0.251 C 
ATOM     30  H   UNL A   1      31.557  33.717  27.090  1.00  0.00     0.163 HD
ATOM     31  O   UNL A   1      32.605  35.249  28.635  1.00  0.00    -0.269 OA
BRANCH  29  32
ATOM     32  C   UNL A   1      34.399  33.753  28.829  1.00  0.00     0.039 A 
ATOM     33  C   UNL A   1      34.455  33.053  30.036  1.00  0.00     0.014 A 
ATOM     34  C   UNL A   1      35.573  34.033  28.126  1.00  0.00     0.014 A 
ATOM     35  C   UNL A   1      35.678  32.556  30.491  1.00  0.00     0.010 A 
ATOM     36  C   UNL A   1      36.774  33.458  28.531  1.00  0.00     0.010 A 
ATOM     37  C   UNL A   1      36.841  32.710  29.716  1.00  0.00    -0.014 A 
BRANCH  37  38
ATOM     38  C   UNL A   1      38.124  32.080  30.124  1.00  0.00     0.031 A 
ATOM     39  C   UNL A   1      39.049  32.781  31.081  1.00  0.00     0.074 A 
ATOM     40  C   UNL A   1      38.486  30.896  29.588  1.00  0.00     0.049 A 
ATOM     41  N   UNL A   1      40.219  32.398  31.528  1.00  0.00    -0.248 NA
ATOM     42  C   UNL A   1      38.618  34.097  31.582  1.00  0.00     0.031 C 
ATOM     43  C   UNL A   1      37.705  30.132  28.611  1.00  0.00     0.029 A 
ATOM     44  N   UNL A   1      39.605  30.127  29.790  1.00  0.00    -0.354 N 
ATOM     45  C   UNL A   1      40.666  33.426  32.348  1.00  0.00     0.074 A 
ATOM     46  C   UNL A   1      39.671  34.474  32.291  1.00  0.00     0.031 C 
ATOM     47  C   UNL A   1      38.351  28.990  28.328  1.00  0.00     0.029 A 
ATOM     48  C   UNL A   1      39.609  28.957  29.067  1.00  0.00     0.049 A 
ATOM     49  H   UNL A   1      40.336  30.388  30.395  1.00  0.00     0.167 HD
ATOM     50  C   UNL A   1      41.791  33.487  33.100  1.00  0.00     0.031 A 
ATOM     51  C   UNL A   1      40.522  27.970  29.001  1.00  0.00     0.031 A 
ATOM     52  C   UNL A   1      42.779  32.443  33.163  1.00  0.00     0.049 A 
ATOM     53  C   UNL A   1      41.772  28.070  29.832  1.00  0.00     0.074 A 
ATOM     54  C   UNL A   1      43.922  32.386  33.940  1.00  0.00     0.029 A 
ATOM     55  N   UNL A   1      42.745  31.277  32.416  1.00  0.00    -0.354 N 
ATOM     56  N   UNL A   1      42.138  29.013  30.666  1.00  0.00    -0.248 NA
ATOM     57  C   UNL A   1      42.730  26.959  29.721  1.00  0.00     0.031 C 
ATOM     58  C   UNL A   1      44.612  31.213  33.619  1.00  0.00     0.029 A 
ATOM     59  C   UNL A   1      43.863  30.507  32.691  1.00  0.00     0.049 A 
ATOM     60  H   UNL A   1      42.031  31.030  31.783  1.00  0.00     0.167 HD
ATOM     61  C   UNL A   1      43.352  28.597  31.199  1.00  0.00     0.074 A 
ATOM     62  C   UNL A   1      43.648  27.308  30.611  1.00  0.00     0.031 C 
ATOM     63  C   UNL A   1      44.148  29.226  32.097  1.00  0.00     0.031 A 
BRANCH  50  64
ATOM     64  C   UNL A   1      42.017  34.732  33.912  1.00  0.00    -0.014 A 
ATOM     65  C   UNL A   1      41.592  34.818  35.249  1.00  0.00     0.009 A 
ATOM     66  C   UNL A   1      42.700  35.821  33.347  1.00  0.00     0.009 A 
ATOM     67  C   UNL A   1      41.813  35.982  35.988  1.00  0.00     0.001 A 
ATOM     68  C   UNL A   1      42.948  36.970  34.101  1.00  0.00     0.001 A 
ATOM     69  C   UNL A   1      42.495  37.054  35.416  1.00  0.00     0.000 A 
ENDBRANCH  50  64
BRANCH  51  70
ATOM     70  C   UNL A   1      40.289  26.790  28.126  1.00  0.00    -0.014 A 
ATOM     71  C   UNL A   1      39.551  25.691  28.590  1.00  0.00     0.009 A 
ATOM     72  C   UNL A   1      40.819  26.748  26.826  1.00  0.00     0.009 A 
ATOM     73  C   UNL A   1      39.375  24.563  27.785  1.00  0.00     0.001 A 
ATOM     74  C   UNL A   1      40.615  25.633  26.012  1.00  0.00     0.001 A 
ATOM     75  C   UNL A   1      39.903  24.537  26.496  1.00  0.00     0.000 A 
ENDBRANCH  51  70
BRANCH  63  76
ATOM     76  C   UNL A   1      45.400  28.514  32.526  1.00  0.00    -0.014 A 
ATOM     77  C   UNL A   1      45.397  27.606  33.596  1.00  0.00     0.009 A 
ATOM     78  C   UNL A   1      46.595  28.725  31.819  1.00  0.00     0.009 A 
ATOM     79  C   UNL A   1      46.572  26.953  33.972  1.00  0.00     0.001 A 
ATOM     80  C   UNL A   1      47.761  28.046  32.175  1.00  0.00     0.001 A 
ATOM     81  C   UNL A   1      47.750  27.168  33.257  1.00  0.00     0.000 A 
ENDBRANCH  63  76
ENDBRANCH  37  38
ENDBRANCH  29  32
ENDBRANCH  27  28
ENDBRANCH  26  27
ENDBRANCH  25  26
ENDBRANCH  24  25
ENDBRANCH   3  24
TORSDOF 17
ENDMDL
MODEL 2
REMARK VINA RESULT:     -10.4      1.581      2.518
REMARK SMILES C[C@H](CC[NH2+]Cc1cc(C(=O)NCCCCNC(=O)c2ccc(-c3c4nc(c(-c5ccccc5)c5ccc([nH]5)c(-c5ccccc5)c5nc(c(-c6ccccc6)c6ccc3[nH]6)C=C5)C=C4)cc2)cs1)c1ccccc1
REMARK SMILES IDX 10 1 11 2 12 3 9 5 7 6 8 7 69 8 68 9 6 10 5 11 4 14 3 15
REMARK SMILES IDX 2 16 1 17 70 18 71 19 75 20 72 21 74 22 73 23 13 24 14 25
REMARK SMILES IDX 15 26 16 27 17 28 18 29 19 31 20 32 21 33 67 34 22 35 66 36
REMARK SMILES IDX 23 37 24 38 25 39 60 40 26 41 65 42 59 43 61 44 27 45 64 46
REMARK SMILES IDX 58 47 57 48 28 50 50 51 35 52 49 53 36 54 39 55 48 56 62 57
REMARK SMILES IDX 37 58 38 59 47 61 63 62 40 63 29 64 30 65 34 66 31 67 33 68
REMARK SMILES IDX 32 69 51 70 52 71 56 72 53 73 55 74 54 75 41 76 42 77 46 78
REMARK SMILES IDX 43 79 45 80 44 81
REMARK H PARENT 12 4 5 12 5 13 17 30 61 49 39 60
REMARK Flexibility Score: inf
ROOT
ATOM      1  C   UNL A   1      32.424  28.150  27.092  1.00  0.00     0.252 C 
ATOM      2  O   UNL A   1      31.446  27.664  27.662  1.00  0.00    -0.269 OA
ATOM      3  N   UNL A   1      33.233  28.977  27.838  1.00  0.00    -0.352 N 
ATOM      4  H   UNL A   1      32.835  29.285  28.684  1.00  0.00     0.163 HD
ENDROOT
BRANCH   1   5
ATOM      5  C   UNL A   1      32.760  27.787  25.711  1.00  0.00     0.051 A 
ATOM      6  C   UNL A   1      33.463  26.554  23.824  1.00  0.00     0.059 A 
ATOM      7  C   UNL A   1      33.520  26.679  25.202  1.00  0.00     0.035 A 
ATOM      8  S   UNL A   1      32.728  27.928  23.121  1.00  0.00    -0.142 S 
ATOM      9  C   UNL A   1      32.368  28.593  24.653  1.00  0.00     0.079 A 
BRANCH   6  10
ATOM     10  C   UNL A   1      33.984  25.432  22.967  1.00  0.00     0.308 C 
BRANCH  10  11
ATOM     11  N   UNL A   1      34.576  24.340  23.759  1.00  0.00    -0.342 N 
ATOM     12  H   UNL A   1      35.580  24.500  23.836  1.00  0.00     0.346 HD
ATOM     13  H   UNL A   1      34.124  24.342  24.674  1.00  0.00     0.346 HD
BRANCH  11  14
ATOM     14  C   UNL A   1      34.354  23.024  23.157  1.00  0.00     0.261 C 
BRANCH  14  15
ATOM     15  C   UNL A   1      32.928  22.811  22.597  1.00  0.00     0.069 C 
BRANCH  15  16
ATOM     16  C   UNL A   1      31.781  22.450  23.577  1.00  0.00     0.021 C 
ATOM     17  C   UNL A   1      32.186  21.379  24.598  1.00  0.00     0.013 C 
BRANCH  16  18
ATOM     18  C   UNL A   1      31.141  23.700  24.156  1.00  0.00    -0.045 A 
ATOM     19  C   UNL A   1      31.066  23.862  25.548  1.00  0.00     0.004 A 
ATOM     20  C   UNL A   1      30.496  24.638  23.347  1.00  0.00     0.004 A 
ATOM     21  C   UNL A   1      30.318  24.899  26.113  1.00  0.00     0.000 A 
ATOM     22  C   UNL A   1      29.730  25.656  23.917  1.00  0.00     0.000 A 
ATOM     23  C   UNL A   1      29.629  25.783  25.295  1.00  0.00     0.000 A 
ENDBRANCH  16  18
ENDBRANCH  15  16
ENDBRANCH  14  15
ENDBRANCH  11  14
ENDBRANCH  10  11
ENDBRANCH   6  10
ENDBRANCH   1   5
BRANCH   3  24
ATOM     24  C   UNL A   1      34.574  29.472  27.588  1.00  0.00     0.116 C 
BRANCH  24  25
ATOM     25  C   UNL A   1      34.681  30.989  27.674  1.00  0.00     0.023 C 
BRANCH  25  26
ATOM     26  C   UNL A   1      33.330  31.701  27.734  1.00  0.00     0.023 C 
BRANCH  26  27
ATOM     27  C   UNL A   1      33.316  33.126  27.177  1.00  0.00     0.116 C 
BRANCH  27  28
ATOM     28  N   UNL A   1      32.799  34.111  28.119  1.00  0.00    -0.352 N 
ATOM     29  C   UNL A   1      33.312  34.537  29.321  1.00  0.00     0.251 C 
ATOM     30  H   UNL A   1      31.953  34.537  27.853  1.00  0.00     0.163 HD
ATOM     31  O   UNL A   1      32.652  35.283  30.042  1.00  0.00    -0.269 OA
BRANCH  29  32
ATOM     32  C   UNL A   1      34.640  34.071  29.768  1.00  0.00     0.039 A 
ATOM     33  C   UNL A   1      34.726  33.253  30.897  1.00  0.00     0.014 A 
ATOM     34  C   UNL A   1      35.795  34.419  29.065  1.00  0.00     0.014 A 
ATOM     35  C   UNL A   1      35.959  32.712  31.265  1.00  0.00     0.010 A 
ATOM     36  C   UNL A   1      37.005  33.805  29.377  1.00  0.00     0.010 A 
ATOM     37  C   UNL A   1      37.101  32.941  30.479  1.00  0.00    -0.014 A 
BRANCH  37  38
ATOM     38  C   UNL A   1      38.392  32.272  30.786  1.00  0.00     0.031 A 
ATOM     39  C   UNL A   1      39.372  32.903  31.738  1.00  0.00     0.074 A 
ATOM     40  C   UNL A   1      38.711  31.119  30.164  1.00  0.00     0.049 A 
ATOM     41  N   UNL A   1      40.556  32.479  32.105  1.00  0.00    -0.248 NA
ATOM     42  C   UNL A   1      38.984  34.191  32.337  1.00  0.00     0.031 C 
ATOM     43  C   UNL A   1      37.874  30.425  29.181  1.00  0.00     0.029 A 
ATOM     44  N   UNL A   1      39.827  30.325  30.265  1.00  0.00    -0.354 N 
ATOM     45  C   UNL A   1      41.056  33.451  32.962  1.00  0.00     0.074 A 
ATOM     46  C   UNL A   1      40.075  34.512  33.017  1.00  0.00     0.031 C 
ATOM     47  C   UNL A   1      38.488  29.294  28.800  1.00  0.00     0.029 A 
ATOM     48  C   UNL A   1      39.779  29.202  29.474  1.00  0.00     0.049 A 
ATOM     49  H   UNL A   1      40.589  30.540  30.849  1.00  0.00     0.167 HD
ATOM     50  C   UNL A   1      42.216  33.452  33.662  1.00  0.00     0.031 A 
ATOM     51  C   UNL A   1      40.674  28.210  29.305  1.00  0.00     0.031 A 
ATOM     52  C   UNL A   1      43.190  32.394  33.615  1.00  0.00     0.049 A 
ATOM     53  C   UNL A   1      41.962  28.244  30.080  1.00  0.00     0.074 A 
ATOM     54  C   UNL A   1      44.368  32.277  34.332  1.00  0.00     0.029 A 
ATOM     55  N   UNL A   1      43.103  31.276  32.802  1.00  0.00    -0.354 N 
ATOM     56  N   UNL A   1      42.381  29.130  30.951  1.00  0.00    -0.248 NA
ATOM     57  C   UNL A   1      42.897  27.130  29.857  1.00  0.00     0.031 C 
ATOM     58  C   UNL A   1      45.024  31.117  33.908  1.00  0.00     0.029 A 
ATOM     59  C   UNL A   1      44.221  30.477  32.976  1.00  0.00     0.049 A 
ATOM     60  H   UNL A   1      42.357  31.077  32.190  1.00  0.00     0.167 HD
ATOM     61  C   UNL A   1      43.613  28.668  31.399  1.00  0.00     0.074 A 
ATOM     62  C   UNL A   1      43.862  27.413  30.721  1.00  0.00     0.031 C 
ATOM     63  C   UNL A   1      44.459  29.232  32.294  1.00  0.00     0.031 A 
BRANCH  50  64
ATOM     64  C   UNL A   1      42.499  34.643  34.536  1.00  0.00    -0.014 A 
ATOM     65  C   UNL A   1      42.190  34.632  35.907  1.00  0.00     0.009 A 
ATOM     66  C   UNL A   1      43.119  35.778  33.991  1.00  0.00     0.009 A 
ATOM     67  C   UNL A   1      42.461  35.746  36.703  1.00  0.00     0.001 A 
ATOM     68  C   UNL A   1      43.420  36.878  34.798  1.00  0.00     0.001 A 
ATOM     69  C   UNL A   1      43.081  36.865  36.150  1.00  0.00     0.000 A 
ENDBRANCH  50  64
BRANCH  51  70
ATOM     70  C   UNL A   1      40.382  27.088  28.373  1.00  0.00    -0.014 A 
ATOM     71  C   UNL A   1      40.854  27.114  27.052  1.00  0.00     0.009 A 
ATOM     72  C   UNL A   1      39.613  25.990  28.795  1.00  0.00     0.009 A 
ATOM     73  C   UNL A   1      40.537  26.084  26.164  1.00  0.00     0.001 A 
ATOM     74  C   UNL A   1      39.325  24.946  27.914  1.00  0.00     0.001 A 
ATOM     75  C   UNL A   1      39.776  24.999  26.598  1.00  0.00     0.000 A 
ENDBRANCH  51  70
BRANCH  63  76
ATOM     76  C   UNL A   1      45.720  28.480  32.619  1.00  0.00    -0.014 A 
ATOM     77  C   UNL A   1      45.763  27.535  33.656  1.00  0.00     0.009 A 
ATOM     78  C   UNL A   1      46.872  28.692  31.846  1.00  0.00     0.009 A 
ATOM     79  C   UNL A   1      46.944  26.846  33.934  1.00  0.00     0.001 A 
ATOM     80  C   UNL A   1      48.043  27.977  32.104  1.00  0.00     0.001 A 
ATOM     81  C   UNL A   1      48.080  27.062  33.155  1.00  0.00     0.000 A 
ENDBRANCH  63  76
ENDBRANCH  37  38
ENDBRANCH  29  32
ENDBRANCH  27  28
ENDBRANCH  26  27
ENDBRANCH  25  26
ENDBRANCH  24  25
ENDBRANCH   3  24
TORSDOF 17
ENDMDL
MODEL 3
REMARK VINA RESULT:     -10.2      1.425      2.023
REMARK SMILES C[C@H](CC[NH2+]Cc1cc(C(=O)NCCCCNC(=O)c2ccc(-c3c4nc(c(-c5ccccc5)c5ccc([nH]5)c(-c5ccccc5)c5nc(c(-c6ccccc6)c6ccc3[nH]6)C=C5)C=C4)cc2)cs1)c1ccccc1
REMARK SMILES IDX 10 1 11 2 12 3 9 5 7 6 8 7 69 8 68 9 6 10 5 11 4 14 3 15
REMARK SMILES IDX 2 16 1 17 70 18 71 19 75 20 72 21 74 22 73 23 13 24 14 25
REMARK SMILES IDX 15 26 16 27 17 28 18 29 19 31 20 32 21 33 67 34 22 35 66 36
REMARK SMILES IDX 23 37 24 38 25 39 60 40 26 41 65 42 59 43 61 44 27 45 64 46
REMARK SMILES IDX 58 47 57 48 28 50 50 51 35 52 49 53 36 54 39 55 48 56 62 57
REMARK SMILES IDX 37 58 38 59 47 61 63 62 40 63 29 64 30 65 34 66 31 67 33 68
REMARK SMILES IDX 32 69 51 70 52 71 56 72 53 73 55 74 54 75 41 76 42 77 46 78
REMARK SMILES IDX 43 79 45 80 44 81
REMARK H PARENT 12 4 5 12 5 13 17 30 61 49 39 60
REMARK Flexibility Score: inf
ROOT
ATOM      1  C   UNL A   1      31.865  28.289  27.229  1.00  0.00     0.252 C 
ATOM      2  O   UNL A   1      31.048  27.773  27.993  1.00  0.00    -0.269 OA
ATOM      3  N   UNL A   1      32.994  28.832  27.797  1.00  0.00    -0.352 N 
ATOM      4  H   UNL A   1      32.940  28.963  28.772  1.00  0.00     0.163 HD
ENDROOT
BRANCH   1   5
ATOM      5  C   UNL A   1      31.685  28.239  25.774  1.00  0.00     0.051 A 
ATOM      6  C   UNL A   1      31.404  27.426  23.575  1.00  0.00     0.059 A 
ATOM      7  C   UNL A   1      31.857  27.149  24.853  1.00  0.00     0.035 A 
ATOM      8  S   UNL A   1      31.030  29.086  23.410  1.00  0.00    -0.142 S 
ATOM      9  C   UNL A   1      31.331  29.379  25.066  1.00  0.00     0.079 A 
BRANCH   6  10
ATOM     10  C   UNL A   1      31.266  26.483  22.410  1.00  0.00     0.308 C 
BRANCH  10  11
ATOM     11  N   UNL A   1      31.848  25.156  22.681  1.00  0.00    -0.342 N 
ATOM     12  H   UNL A   1      32.362  25.199  23.560  1.00  0.00     0.346 HD
ATOM     13  H   UNL A   1      31.079  24.486  22.726  1.00  0.00     0.346 HD
BRANCH  11  14
ATOM     14  C   UNL A   1      32.760  24.716  21.624  1.00  0.00     0.261 C 
BRANCH  14  15
ATOM     15  C   UNL A   1      33.428  23.346  21.889  1.00  0.00     0.069 C 
BRANCH  15  16
ATOM     16  C   UNL A   1      33.287  22.699  23.292  1.00  0.00     0.021 C 
ATOM     17  C   UNL A   1      32.304  21.523  23.309  1.00  0.00     0.013 C 
BRANCH  16  18
ATOM     18  C   UNL A   1      34.648  22.427  23.909  1.00  0.00    -0.045 A 
ATOM     19  C   UNL A   1      34.751  21.565  25.013  1.00  0.00     0.004 A 
ATOM     20  C   UNL A   1      35.793  23.113  23.500  1.00  0.00     0.004 A 
ATOM     21  C   UNL A   1      35.950  21.443  25.721  1.00  0.00     0.000 A 
ATOM     22  C   UNL A   1      36.981  23.006  24.225  1.00  0.00     0.000 A 
ATOM     23  C   UNL A   1      37.060  22.184  25.339  1.00  0.00     0.000 A 
ENDBRANCH  16  18
ENDBRANCH  15  16
ENDBRANCH  14  15
ENDBRANCH  11  14
ENDBRANCH  10  11
ENDBRANCH   6  10
ENDBRANCH   1   5
BRANCH   3  24
ATOM     24  C   UNL A   1      34.252  29.246  27.204  1.00  0.00     0.116 C 
BRANCH  24  25
ATOM     25  C   UNL A   1      34.541  30.730  27.382  1.00  0.00     0.023 C 
BRANCH  25  26
ATOM     26  C   UNL A   1      33.309  31.562  27.735  1.00  0.00     0.023 C 
BRANCH  26  27
ATOM     27  C   UNL A   1      33.264  32.961  27.118  1.00  0.00     0.116 C 
BRANCH  27  28
ATOM     28  N   UNL A   1      32.775  33.983  28.035  1.00  0.00    -0.352 N 
ATOM     29  C   UNL A   1      33.308  34.438  29.217  1.00  0.00     0.251 C 
ATOM     30  H   UNL A   1      31.933  34.414  27.766  1.00  0.00     0.163 HD
ATOM     31  O   UNL A   1      32.669  35.216  29.922  1.00  0.00    -0.269 OA
BRANCH  29  32
ATOM     32  C   UNL A   1      34.634  33.964  29.663  1.00  0.00     0.039 A 
ATOM     33  C   UNL A   1      34.713  33.119  30.773  1.00  0.00     0.014 A 
ATOM     34  C   UNL A   1      35.794  34.332  28.979  1.00  0.00     0.014 A 
ATOM     35  C   UNL A   1      35.945  32.572  31.138  1.00  0.00     0.010 A 
ATOM     36  C   UNL A   1      37.003  33.713  29.285  1.00  0.00     0.010 A 
ATOM     37  C   UNL A   1      37.092  32.824  30.367  1.00  0.00    -0.014 A 
BRANCH  37  38
ATOM     38  C   UNL A   1      38.383  32.150  30.668  1.00  0.00     0.031 A 
ATOM     39  C   UNL A   1      39.377  32.787  31.600  1.00  0.00     0.074 A 
ATOM     40  C   UNL A   1      38.687  30.987  30.057  1.00  0.00     0.049 A 
ATOM     41  N   UNL A   1      40.563  32.361  31.959  1.00  0.00    -0.248 NA
ATOM     42  C   UNL A   1      39.005  34.085  32.186  1.00  0.00     0.031 C 
ATOM     43  C   UNL A   1      37.834  30.286  29.093  1.00  0.00     0.029 A 
ATOM     44  N   UNL A   1      39.799  30.187  30.156  1.00  0.00    -0.354 N 
ATOM     45  C   UNL A   1      41.079  33.340  32.798  1.00  0.00     0.074 A 
ATOM     46  C   UNL A   1      40.105  34.409  32.849  1.00  0.00     0.031 C 
ATOM     47  C   UNL A   1      38.437  29.146  28.720  1.00  0.00     0.029 A 
ATOM     48  C   UNL A   1      39.735  29.054  29.381  1.00  0.00     0.049 A 
ATOM     49  H   UNL A   1      40.569  30.405  30.729  1.00  0.00     0.167 HD
ATOM     50  C   UNL A   1      42.247  33.343  33.484  1.00  0.00     0.031 A 
ATOM     51  C   UNL A   1      40.621  28.054  29.215  1.00  0.00     0.031 A 
ATOM     52  C   UNL A   1      43.213  32.278  33.440  1.00  0.00     0.049 A 
ATOM     53  C   UNL A   1      41.919  28.090  29.974  1.00  0.00     0.074 A 
ATOM     54  C   UNL A   1      44.398  32.163  34.145  1.00  0.00     0.029 A 
ATOM     55  N   UNL A   1      43.110  31.150  32.642  1.00  0.00    -0.354 N 
ATOM     56  N   UNL A   1      42.354  28.985  30.828  1.00  0.00    -0.248 NA
ATOM     57  C   UNL A   1      42.844  26.968  29.755  1.00  0.00     0.031 C 
ATOM     58  C   UNL A   1      45.042  30.993  33.729  1.00  0.00     0.029 A 
ATOM     59  C   UNL A   1      44.225  30.347  32.814  1.00  0.00     0.049 A 
ATOM     60  H   UNL A   1      42.356  30.948  32.042  1.00  0.00     0.167 HD
ATOM     61  C   UNL A   1      43.587  28.521  31.269  1.00  0.00     0.074 A 
ATOM     62  C   UNL A   1      43.820  27.256  30.604  1.00  0.00     0.031 C 
ATOM     63  C   UNL A   1      44.448  29.091  32.146  1.00  0.00     0.031 A 
BRANCH  50  64
ATOM     64  C   UNL A   1      42.547  34.544  34.338  1.00  0.00    -0.014 A 
ATOM     65  C   UNL A   1      43.169  35.684  33.801  1.00  0.00     0.009 A 
ATOM     66  C   UNL A   1      42.166  34.554  35.689  1.00  0.00     0.009 A 
ATOM     67  C   UNL A   1      43.438  36.790  34.609  1.00  0.00     0.001 A 
ATOM     68  C   UNL A   1      42.407  35.675  36.485  1.00  0.00     0.001 A 
ATOM     69  C   UNL A   1      43.052  36.788  35.948  1.00  0.00     0.000 A 
ENDBRANCH  50  64
BRANCH  51  70
ATOM     70  C   UNL A   1      40.312  26.922  28.301  1.00  0.00    -0.014 A 
ATOM     71  C   UNL A   1      40.790  26.915  26.982  1.00  0.00     0.009 A 
ATOM     72  C   UNL A   1      39.519  25.847  28.738  1.00  0.00     0.009 A 
ATOM     73  C   UNL A   1      40.457  25.876  26.111  1.00  0.00     0.001 A 
ATOM     74  C   UNL A   1      39.214  24.793  27.874  1.00  0.00     0.001 A 
ATOM     75  C   UNL A   1      39.673  24.814  26.559  1.00  0.00     0.000 A 
ENDBRANCH  51  70
BRANCH  63  76
ATOM     76  C   UNL A   1      45.707  28.335  32.466  1.00  0.00    -0.014 A 
ATOM     77  C   UNL A   1      45.752  27.395  33.507  1.00  0.00     0.009 A 
ATOM     78  C   UNL A   1      46.855  28.539  31.685  1.00  0.00     0.009 A 
ATOM     79  C   UNL A   1      46.933  26.702  33.781  1.00  0.00     0.001 A 
ATOM     80  C   UNL A   1      48.024  27.821  31.939  1.00  0.00     0.001 A 
ATOM     81  C   UNL A   1      48.065  26.910  32.994  1.00  0.00     0.000 A 
ENDBRANCH  63  76
ENDBRANCH  37  38
ENDBRANCH  29  32
ENDBRANCH  27  28
ENDBRANCH  26  27
ENDBRANCH  25  26
ENDBRANCH  24  25
ENDBRANCH   3  24
TORSDOF 17
ENDMDL
