MODEL 1
REMARK VINA RESULT:     -11.4      0.000      0.000
REMARK SMILES CC[N@@H+](C)Cc1cc2c(cc1Cl)C=C(C(=O)NCCCCNC(=O)c1ccc(-c3c4nc(c(-c5ccccc5)c5ccc([nH]5)c(-c5ccccc5)c5nc(c(-c6ccccc6)c6ccc3[nH]6)C=C5)C=C4)cc1)[C@@H](C(F)(F)F)O2
REMARK SMILES IDX 19 1 18 2 17 3 15 4 16 5 14 7 6 8 7 9 11 10 8 11 10 12 12 13
REMARK SMILES IDX 9 14 78 15 13 16 73 17 5 18 3 19 4 20 2 22 1 23 74 24 75 25
REMARK SMILES IDX 76 26 77 27 20 28 21 29 22 30 23 31 24 33 25 34 26 35 72 36
REMARK SMILES IDX 27 37 71 38 28 39 29 40 30 41 65 42 31 43 70 44 64 45 66 46
REMARK SMILES IDX 32 47 69 48 63 49 62 50 33 52 55 53 40 54 54 55 41 56 44 57
REMARK SMILES IDX 53 58 67 59 42 60 43 61 52 63 68 64 45 65 34 66 35 67 39 68
REMARK SMILES IDX 36 69 38 70 37 71 56 72 57 73 61 74 58 75 60 76 59 77 46 78
REMARK SMILES IDX 47 79 51 80 48 81 50 82 49 83
REMARK H PARENT 17 6 3 21 22 32 66 51 44 62
REMARK Flexibility Score: inf
ROOT
ATOM      1  C   UNL A   1      36.749  20.181  24.940  1.00  0.00     0.023 C 
ENDROOT
BRANCH   1   2
ATOM      2  C   UNL A   1      35.235  20.375  24.971  1.00  0.00     0.116 C 
BRANCH   2   3
ATOM      3  N   UNL A   1      34.772  20.921  26.236  1.00  0.00    -0.352 N 
ATOM      4  C   UNL A   1      34.103  22.025  26.648  1.00  0.00     0.251 C 
ATOM      5  O   UNL A   1      33.900  22.098  27.865  1.00  0.00    -0.270 OA
ATOM      6  H   UNL A   1      35.007  20.335  26.992  1.00  0.00     0.163 HD
BRANCH   4   7
ATOM      7  C   UNL A   1      33.623  23.119  25.753  1.00  0.00     0.067 C 
ATOM      8  C   UNL A   1      32.193  27.543  23.743  1.00  0.00     0.029 A 
ATOM      9  C   UNL A   1      32.583  26.293  23.253  1.00  0.00     0.058 A 
ATOM     10  C   UNL A   1      32.199  27.703  25.147  1.00  0.00     0.050 A 
ATOM     11  C   UNL A   1      32.981  25.267  24.104  1.00  0.00     0.128 A 
ATOM     12  C   UNL A   1      32.598  26.663  26.007  1.00  0.00     0.033 A 
ATOM     13  Cl  UNL A   1      31.712  29.190  25.891  1.00  0.00    -0.084 Cl
ATOM     14  C   UNL A   1      32.997  25.434  25.483  1.00  0.00     0.019 A 
ATOM     15  O   UNL A   1      33.394  24.120  23.493  1.00  0.00    -0.475 OA
ATOM     16  C   UNL A   1      33.463  24.332  26.319  1.00  0.00     0.025 C 
ATOM     17  C   UNL A   1      33.298  22.921  24.300  1.00  0.00     0.314 C 
BRANCH   8  18
ATOM     18  C   UNL A   1      31.768  28.688  22.836  1.00  0.00     0.300 C 
BRANCH  18  19
ATOM     19  N   UNL A   1      30.407  28.738  22.276  1.00  0.00    -0.334 N 
ATOM     20  C   UNL A   1      30.016  30.051  21.777  1.00  0.00     0.333 C 
ATOM     21  H   UNL A   1      30.521  28.137  21.460  1.00  0.00     0.348 HD
BRANCH  19  22
ATOM     22  C   UNL A   1      29.340  28.038  22.990  1.00  0.00     0.258 C 
ATOM     23  C   UNL A   1      27.996  28.757  22.974  1.00  0.00     0.071 C 
ENDBRANCH  19  22
ENDBRANCH  18  19
ENDBRANCH   8  18
BRANCH  17  24
ATOM     24  C   UNL A   1      31.921  22.267  24.079  1.00  0.00     0.429 C 
ATOM     25  F   UNL A   1      31.989  20.935  24.329  1.00  0.00    -0.167 F 
ATOM     26  F   UNL A   1      30.972  22.764  24.907  1.00  0.00    -0.167 F 
ATOM     27  F   UNL A   1      31.463  22.420  22.818  1.00  0.00    -0.167 F 
ENDBRANCH  17  24
ENDBRANCH   4   7
ENDBRANCH   2   3
ENDBRANCH   1   2
BRANCH   1  28
ATOM     28  C   UNL A   1      37.546  21.486  24.953  1.00  0.00     0.023 C 
BRANCH  28  29
ATOM     29  C   UNL A   1      38.838  21.453  25.767  1.00  0.00     0.116 C 
BRANCH  29  30
ATOM     30  N   UNL A   1      39.593  20.211  25.658  1.00  0.00    -0.352 N 
ATOM     31  C   UNL A   1      40.903  19.999  26.032  1.00  0.00     0.251 C 
ATOM     32  H   UNL A   1      39.115  19.439  25.278  1.00  0.00     0.163 HD
ATOM     33  O   UNL A   1      41.458  18.924  25.835  1.00  0.00    -0.269 OA
BRANCH  31  34
ATOM     34  C   UNL A   1      41.643  21.134  26.618  1.00  0.00     0.039 A 
ATOM     35  C   UNL A   1      41.684  21.290  28.004  1.00  0.00     0.014 A 
ATOM     36  C   UNL A   1      42.152  22.119  25.770  1.00  0.00     0.014 A 
ATOM     37  C   UNL A   1      42.057  22.516  28.535  1.00  0.00     0.010 A 
ATOM     38  C   UNL A   1      42.603  23.323  26.314  1.00  0.00     0.010 A 
ATOM     39  C   UNL A   1      42.493  23.555  27.694  1.00  0.00    -0.014 A 
BRANCH  39  40
ATOM     40  C   UNL A   1      42.781  24.888  28.278  1.00  0.00     0.031 A 
ATOM     41  C   UNL A   1      44.195  25.294  28.604  1.00  0.00     0.074 A 
ATOM     42  C   UNL A   1      41.774  25.766  28.443  1.00  0.00     0.049 A 
ATOM     43  N   UNL A   1      44.633  26.428  29.091  1.00  0.00    -0.248 NA
ATOM     44  C   UNL A   1      45.255  24.304  28.350  1.00  0.00     0.031 C 
ATOM     45  C   UNL A   1      40.369  25.500  28.130  1.00  0.00     0.029 A 
ATOM     46  N   UNL A   1      41.782  27.065  28.878  1.00  0.00    -0.354 N 
ATOM     47  C   UNL A   1      46.008  26.281  29.223  1.00  0.00     0.074 A 
ATOM     48  C   UNL A   1      46.334  24.942  28.785  1.00  0.00     0.031 C 
ATOM     49  C   UNL A   1      39.660  26.621  28.323  1.00  0.00     0.029 A 
ATOM     50  C   UNL A   1      40.546  27.661  28.835  1.00  0.00     0.049 A 
ATOM     51  H   UNL A   1      42.594  27.526  29.189  1.00  0.00     0.167 HD
ATOM     52  C   UNL A   1      46.917  27.183  29.663  1.00  0.00     0.031 A 
ATOM     53  C   UNL A   1      40.160  28.905  29.179  1.00  0.00     0.031 A 
ATOM     54  C   UNL A   1      46.594  28.519  30.084  1.00  0.00     0.049 A 
ATOM     55  C   UNL A   1      41.180  29.873  29.700  1.00  0.00     0.074 A 
ATOM     56  C   UNL A   1      47.451  29.506  30.545  1.00  0.00     0.029 A 
ATOM     57  N   UNL A   1      45.318  29.061  30.090  1.00  0.00    -0.354 N 
ATOM     58  N   UNL A   1      42.472  29.708  29.839  1.00  0.00    -0.248 NA
ATOM     59  C   UNL A   1      40.689  31.193  30.118  1.00  0.00     0.031 C 
ATOM     60  C   UNL A   1      46.686  30.629  30.871  1.00  0.00     0.029 A 
ATOM     61  C   UNL A   1      45.362  30.361  30.563  1.00  0.00     0.049 A 
ATOM     62  H   UNL A   1      44.503  28.591  29.802  1.00  0.00     0.167 HD
ATOM     63  C   UNL A   1      42.952  30.904  30.355  1.00  0.00     0.074 A 
ATOM     64  C   UNL A   1      41.815  31.792  30.485  1.00  0.00     0.031 C 
ATOM     65  C   UNL A   1      44.222  31.230  30.694  1.00  0.00     0.031 A 
BRANCH  52  66
ATOM     66  C   UNL A   1      48.357  26.756  29.730  1.00  0.00    -0.014 A 
ATOM     67  C   UNL A   1      49.166  26.856  28.587  1.00  0.00     0.009 A 
ATOM     68  C   UNL A   1      48.891  26.181  30.893  1.00  0.00     0.009 A 
ATOM     69  C   UNL A   1      50.479  26.381  28.604  1.00  0.00     0.001 A 
ATOM     70  C   UNL A   1      50.213  25.729  30.914  1.00  0.00     0.001 A 
ATOM     71  C   UNL A   1      51.002  25.822  29.768  1.00  0.00     0.000 A 
ENDBRANCH  52  66
BRANCH  53  72
ATOM     72  C   UNL A   1      38.734  29.285  29.029  1.00  0.00    -0.014 A 
ATOM     73  C   UNL A   1      37.835  29.108  30.094  1.00  0.00     0.009 A 
ATOM     74  C   UNL A   1      38.248  29.759  27.802  1.00  0.00     0.009 A 
ATOM     75  C   UNL A   1      36.475  29.369  29.924  1.00  0.00     0.001 A 
ATOM     76  C   UNL A   1      36.890  30.046  27.643  1.00  0.00     0.001 A 
ATOM     77  C   UNL A   1      36.004  29.840  28.700  1.00  0.00     0.000 A 
ENDBRANCH  53  72
BRANCH  65  78
ATOM     78  C   UNL A   1      44.465  32.609  31.235  1.00  0.00    -0.014 A 
ATOM     79  C   UNL A   1      44.348  32.849  32.614  1.00  0.00     0.009 A 
ATOM     80  C   UNL A   1      44.716  33.687  30.374  1.00  0.00     0.009 A 
ATOM     81  C   UNL A   1      44.468  34.144  33.119  1.00  0.00     0.001 A 
ATOM     82  C   UNL A   1      44.857  34.979  30.885  1.00  0.00     0.001 A 
ATOM     83  C   UNL A   1      44.726  35.207  32.255  1.00  0.00     0.000 A 
ENDBRANCH  65  78
ENDBRANCH  39  40
ENDBRANCH  31  34
ENDBRANCH  29  30
ENDBRANCH  28  29
ENDBRANCH   1  28
TORSDOF 15
ENDMDL
MODEL 2
REMARK VINA RESULT:     -11.4      2.544      6.844
REMARK SMILES CC[N@@H+](C)Cc1cc2c(cc1Cl)C=C(C(=O)NCCCCNC(=O)c1ccc(-c3c4nc(c(-c5ccccc5)c5ccc([nH]5)c(-c5ccccc5)c5nc(c(-c6ccccc6)c6ccc3[nH]6)C=C5)C=C4)cc1)[C@@H](C(F)(F)F)O2
REMARK SMILES IDX 19 1 18 2 17 3 15 4 16 5 14 7 6 8 7 9 11 10 8 11 10 12 12 13
REMARK SMILES IDX 9 14 78 15 13 16 73 17 5 18 3 19 4 20 2 22 1 23 74 24 75 25
REMARK SMILES IDX 76 26 77 27 20 28 21 29 22 30 23 31 24 33 25 34 26 35 72 36
REMARK SMILES IDX 27 37 71 38 28 39 29 40 30 41 65 42 31 43 70 44 64 45 66 46
REMARK SMILES IDX 32 47 69 48 63 49 62 50 33 52 55 53 40 54 54 55 41 56 44 57
REMARK SMILES IDX 53 58 67 59 42 60 43 61 52 63 68 64 45 65 34 66 35 67 39 68
REMARK SMILES IDX 36 69 38 70 37 71 56 72 57 73 61 74 58 75 60 76 59 77 46 78
REMARK SMILES IDX 47 79 51 80 48 81 50 82 49 83
REMARK H PARENT 17 6 3 21 22 32 66 51 44 62
REMARK Flexibility Score: inf
ROOT
ATOM      1  C   UNL A   1      35.955  21.126  25.579  1.00  0.00     0.023 C 
ENDROOT
BRANCH   1   2
ATOM      2  C   UNL A   1      35.650  19.890  24.737  1.00  0.00     0.116 C 
BRANCH   2   3
ATOM      3  N   UNL A   1      34.372  19.288  25.081  1.00  0.00    -0.352 N 
ATOM      4  C   UNL A   1      33.082  19.693  25.167  1.00  0.00     0.251 C 
ATOM      5  O   UNL A   1      32.273  18.821  25.502  1.00  0.00    -0.270 OA
ATOM      6  H   UNL A   1      34.470  18.336  25.314  1.00  0.00     0.163 HD
BRANCH   4   7
ATOM      7  C   UNL A   1      32.601  21.080  24.897  1.00  0.00     0.067 C 
ATOM      8  C   UNL A   1      31.411  25.545  22.819  1.00  0.00     0.029 A 
ATOM      9  C   UNL A   1      31.026  24.828  23.957  1.00  0.00     0.058 A 
ATOM     10  C   UNL A   1      32.348  24.922  21.966  1.00  0.00     0.050 A 
ATOM     11  C   UNL A   1      31.521  23.555  24.220  1.00  0.00     0.128 A 
ATOM     12  C   UNL A   1      32.851  23.636  22.235  1.00  0.00     0.033 A 
ATOM     13  Cl  UNL A   1      32.934  25.707  20.537  1.00  0.00    -0.084 Cl
ATOM     14  C   UNL A   1      32.433  22.942  23.369  1.00  0.00     0.019 A 
ATOM     15  O   UNL A   1      31.018  22.944  25.330  1.00  0.00    -0.475 OA
ATOM     16  C   UNL A   1      32.884  21.590  23.681  1.00  0.00     0.025 C 
ATOM     17  C   UNL A   1      31.860  21.914  25.903  1.00  0.00     0.314 C 
BRANCH   8  18
ATOM     18  C   UNL A   1      30.874  26.931  22.498  1.00  0.00     0.300 C 
BRANCH  18  19
ATOM     19  N   UNL A   1      31.322  28.108  23.264  1.00  0.00    -0.334 N 
ATOM     20  C   UNL A   1      30.241  28.984  23.696  1.00  0.00     0.333 C 
ATOM     21  H   UNL A   1      31.685  27.654  24.103  1.00  0.00     0.348 HD
BRANCH  19  22
ATOM     22  C   UNL A   1      32.510  28.823  22.798  1.00  0.00     0.258 C 
ATOM     23  C   UNL A   1      33.831  28.169  23.189  1.00  0.00     0.071 C 
ENDBRANCH  19  22
ENDBRANCH  18  19
ENDBRANCH   8  18
BRANCH  17  24
ATOM     24  C   UNL A   1      32.789  22.544  26.958  1.00  0.00     0.429 C 
ATOM     25  F   UNL A   1      32.072  23.314  27.815  1.00  0.00    -0.167 F 
ATOM     26  F   UNL A   1      33.420  21.615  27.714  1.00  0.00    -0.167 F 
ATOM     27  F   UNL A   1      33.747  23.326  26.415  1.00  0.00    -0.167 F 
ENDBRANCH  17  24
ENDBRANCH   4   7
ENDBRANCH   2   3
ENDBRANCH   1   2
BRANCH   1  28
ATOM     28  C   UNL A   1      36.305  22.369  24.760  1.00  0.00     0.023 C 
BRANCH  28  29
ATOM     29  C   UNL A   1      37.430  23.229  25.329  1.00  0.00     0.116 C 
BRANCH  29  30
ATOM     30  N   UNL A   1      38.658  22.503  25.630  1.00  0.00    -0.352 N 
ATOM     31  C   UNL A   1      39.738  22.961  26.355  1.00  0.00     0.251 C 
ATOM     32  H   UNL A   1      38.722  21.585  25.279  1.00  0.00     0.163 HD
ATOM     33  O   UNL A   1      40.749  22.282  26.492  1.00  0.00    -0.269 OA
BRANCH  31  34
ATOM     34  C   UNL A   1      39.667  24.328  26.905  1.00  0.00     0.039 A 
ATOM     35  C   UNL A   1      40.286  25.379  26.226  1.00  0.00     0.014 A 
ATOM     36  C   UNL A   1      39.123  24.517  28.177  1.00  0.00     0.014 A 
ATOM     37  C   UNL A   1      40.530  26.568  26.900  1.00  0.00     0.010 A 
ATOM     38  C   UNL A   1      39.300  25.743  28.821  1.00  0.00     0.010 A 
ATOM     39  C   UNL A   1      40.064  26.751  28.214  1.00  0.00    -0.014 A 
BRANCH  39  40
ATOM     40  C   UNL A   1      40.433  27.988  28.946  1.00  0.00     0.031 A 
ATOM     41  C   UNL A   1      39.446  29.116  29.093  1.00  0.00     0.074 A 
ATOM     42  C   UNL A   1      41.635  28.062  29.548  1.00  0.00     0.049 A 
ATOM     43  N   UNL A   1      39.588  30.255  29.725  1.00  0.00    -0.248 NA
ATOM     44  C   UNL A   1      38.130  28.948  28.454  1.00  0.00     0.031 C 
ATOM     45  C   UNL A   1      42.660  27.019  29.507  1.00  0.00     0.029 A 
ATOM     46  N   UNL A   1      42.180  29.039  30.341  1.00  0.00    -0.354 N 
ATOM     47  C   UNL A   1      38.396  30.945  29.539  1.00  0.00     0.074 A 
ATOM     48  C   UNL A   1      37.546  30.109  28.721  1.00  0.00     0.031 C 
ATOM     49  C   UNL A   1      43.685  27.383  30.292  1.00  0.00     0.029 A 
ATOM     50  C   UNL A   1      43.418  28.710  30.836  1.00  0.00     0.049 A 
ATOM     51  H   UNL A   1      41.729  29.891  30.536  1.00  0.00     0.167 HD
ATOM     52  C   UNL A   1      38.040  32.161  30.016  1.00  0.00     0.031 A 
ATOM     53  C   UNL A   1      44.254  29.401  31.633  1.00  0.00     0.031 A 
ATOM     54  C   UNL A   1      38.879  32.986  30.842  1.00  0.00     0.049 A 
ATOM     55  C   UNL A   1      43.852  30.763  32.115  1.00  0.00     0.074 A 
ATOM     56  C   UNL A   1      38.602  34.235  31.373  1.00  0.00     0.029 A 
ATOM     57  N   UNL A   1      40.154  32.644  31.265  1.00  0.00    -0.354 N 
ATOM     58  N   UNL A   1      42.731  31.409  31.911  1.00  0.00    -0.248 NA
ATOM     59  C   UNL A   1      44.832  31.495  32.929  1.00  0.00     0.031 C 
ATOM     60  C   UNL A   1      39.727  34.667  32.080  1.00  0.00     0.029 A 
ATOM     61  C   UNL A   1      40.683  33.666  32.034  1.00  0.00     0.049 A 
ATOM     62  H   UNL A   1      40.615  31.802  31.048  1.00  0.00     0.167 HD
ATOM     63  C   UNL A   1      42.865  32.620  32.575  1.00  0.00     0.074 A 
ATOM     64  C   UNL A   1      44.170  32.611  33.205  1.00  0.00     0.031 C 
ATOM     65  C   UNL A   1      41.986  33.647  32.648  1.00  0.00     0.031 A 
BRANCH  52  66
ATOM     66  C   UNL A   1      36.684  32.693  29.643  1.00  0.00    -0.014 A 
ATOM     67  C   UNL A   1      36.511  33.358  28.418  1.00  0.00     0.009 A 
ATOM     68  C   UNL A   1      35.601  32.612  30.531  1.00  0.00     0.009 A 
ATOM     69  C   UNL A   1      35.283  33.938  28.093  1.00  0.00     0.001 A 
ATOM     70  C   UNL A   1      34.367  33.172  30.192  1.00  0.00     0.001 A 
ATOM     71  C   UNL A   1      34.211  33.840  28.978  1.00  0.00     0.000 A 
ENDBRANCH  52  66
BRANCH  53  72
ATOM     72  C   UNL A   1      45.553  28.794  32.016  1.00  0.00    -0.014 A 
ATOM     73  C   UNL A   1      45.668  28.050  33.202  1.00  0.00     0.009 A 
ATOM     74  C   UNL A   1      46.699  29.014  31.238  1.00  0.00     0.009 A 
ATOM     75  C   UNL A   1      46.908  27.564  33.616  1.00  0.00     0.001 A 
ATOM     76  C   UNL A   1      47.934  28.502  31.642  1.00  0.00     0.001 A 
ATOM     77  C   UNL A   1      48.040  27.788  32.836  1.00  0.00     0.000 A 
ENDBRANCH  53  72
BRANCH  65  78
ATOM     78  C   UNL A   1      42.391  34.854  33.443  1.00  0.00    -0.014 A 
ATOM     79  C   UNL A   1      42.027  34.954  34.796  1.00  0.00     0.009 A 
ATOM     80  C   UNL A   1      43.048  35.932  32.832  1.00  0.00     0.009 A 
ATOM     81  C   UNL A   1      42.304  36.114  35.519  1.00  0.00     0.001 A 
ATOM     82  C   UNL A   1      43.345  37.083  33.565  1.00  0.00     0.001 A 
ATOM     83  C   UNL A   1      42.966  37.175  34.904  1.00  0.00     0.000 A 
ENDBRANCH  65  78
ENDBRANCH  39  40
ENDBRANCH  31  34
ENDBRANCH  29  30
ENDBRANCH  28  29
ENDBRANCH   1  28
TORSDOF 15
ENDMDL
MODEL 3
REMARK VINA RESULT:     -11.4      1.303      5.966
REMARK SMILES CC[N@@H+](C)Cc1cc2c(cc1Cl)C=C(C(=O)NCCCCNC(=O)c1ccc(-c3c4nc(c(-c5ccccc5)c5ccc([nH]5)c(-c5ccccc5)c5nc(c(-c6ccccc6)c6ccc3[nH]6)C=C5)C=C4)cc1)[C@@H](C(F)(F)F)O2
REMARK SMILES IDX 19 1 18 2 17 3 15 4 16 5 14 7 6 8 7 9 11 10 8 11 10 12 12 13
REMARK SMILES IDX 9 14 78 15 13 16 73 17 5 18 3 19 4 20 2 22 1 23 74 24 75 25
REMARK SMILES IDX 76 26 77 27 20 28 21 29 22 30 23 31 24 33 25 34 26 35 72 36
REMARK SMILES IDX 27 37 71 38 28 39 29 40 30 41 65 42 31 43 70 44 64 45 66 46
REMARK SMILES IDX 32 47 69 48 63 49 62 50 33 52 55 53 40 54 54 55 41 56 44 57
REMARK SMILES IDX 53 58 67 59 42 60 43 61 52 63 68 64 45 65 34 66 35 67 39 68
REMARK SMILES IDX 36 69 38 70 37 71 56 72 57 73 61 74 58 75 60 76 59 77 46 78
REMARK SMILES IDX 47 79 51 80 48 81 50 82 49 83
REMARK H PARENT 17 6 3 21 22 32 66 51 44 62
REMARK Flexibility Score: inf
ROOT
ATOM      1  C   UNL A   1      36.380  22.481  25.432  1.00  0.00     0.023 C 
ENDROOT
BRANCH   1   2
ATOM      2  C   UNL A   1      35.142  21.915  26.122  1.00  0.00     0.116 C 
BRANCH   2   3
ATOM      3  N   UNL A   1      34.327  21.111  25.226  1.00  0.00    -0.352 N 
ATOM      4  C   UNL A   1      33.310  21.328  24.357  1.00  0.00     0.251 C 
ATOM      5  O   UNL A   1      32.894  20.325  23.768  1.00  0.00    -0.270 OA
ATOM      6  H   UNL A   1      34.580  20.161  25.261  1.00  0.00     0.163 HD
BRANCH   4   7
ATOM      7  C   UNL A   1      32.682  22.655  24.088  1.00  0.00     0.067 C 
ATOM      8  C   UNL A   1      31.687  27.416  22.670  1.00  0.00     0.029 A 
ATOM      9  C   UNL A   1      30.934  26.290  23.021  1.00  0.00     0.058 A 
ATOM     10  C   UNL A   1      33.091  27.260  22.657  1.00  0.00     0.050 A 
ATOM     11  C   UNL A   1      31.537  25.072  23.317  1.00  0.00     0.128 A 
ATOM     12  C   UNL A   1      33.699  26.028  22.961  1.00  0.00     0.033 A 
ATOM     13  Cl  UNL A   1      34.145  28.578  22.269  1.00  0.00    -0.084 Cl
ATOM     14  C   UNL A   1      32.918  24.922  23.290  1.00  0.00     0.019 A 
ATOM     15  O   UNL A   1      30.685  24.042  23.584  1.00  0.00    -0.475 OA
ATOM     16  C   UNL A   1      33.486  23.607  23.573  1.00  0.00     0.025 C 
ATOM     17  C   UNL A   1      31.243  22.970  24.383  1.00  0.00     0.314 C 
BRANCH   8  18
ATOM     18  C   UNL A   1      31.054  28.755  22.326  1.00  0.00     0.300 C 
BRANCH  18  19
ATOM     19  N   UNL A   1      30.685  29.708  23.387  1.00  0.00    -0.334 N 
ATOM     20  C   UNL A   1      31.224  29.376  24.699  1.00  0.00     0.333 C 
ATOM     21  H   UNL A   1      31.182  30.540  23.069  1.00  0.00     0.348 HD
BRANCH  19  22
ATOM     22  C   UNL A   1      29.309  30.202  23.423  1.00  0.00     0.258 C 
ATOM     23  C   UNL A   1      28.360  29.492  22.464  1.00  0.00     0.071 C 
ENDBRANCH  19  22
ENDBRANCH  18  19
ENDBRANCH   8  18
BRANCH  17  24
ATOM     24  C   UNL A   1      30.988  23.259  25.874  1.00  0.00     0.429 C 
ATOM     25  F   UNL A   1      32.161  23.486  26.517  1.00  0.00    -0.167 F 
ATOM     26  F   UNL A   1      30.227  24.364  26.065  1.00  0.00    -0.167 F 
ATOM     27  F   UNL A   1      30.368  22.241  26.508  1.00  0.00    -0.167 F 
ENDBRANCH  17  24
ENDBRANCH   4   7
ENDBRANCH   2   3
ENDBRANCH   1   2
BRANCH   1  28
ATOM     28  C   UNL A   1      37.378  21.419  24.968  1.00  0.00     0.023 C 
BRANCH  28  29
ATOM     29  C   UNL A   1      38.708  21.404  25.717  1.00  0.00     0.116 C 
BRANCH  29  30
ATOM     30  N   UNL A   1      39.432  20.141  25.645  1.00  0.00    -0.352 N 
ATOM     31  C   UNL A   1      40.738  19.909  26.020  1.00  0.00     0.251 C 
ATOM     32  H   UNL A   1      38.933  19.369  25.291  1.00  0.00     0.163 HD
ATOM     33  O   UNL A   1      41.265  18.815  25.856  1.00  0.00    -0.269 OA
BRANCH  31  34
ATOM     34  C   UNL A   1      41.509  21.042  26.567  1.00  0.00     0.039 A 
ATOM     35  C   UNL A   1      41.477  21.302  27.938  1.00  0.00     0.014 A 
ATOM     36  C   UNL A   1      42.124  21.930  25.682  1.00  0.00     0.014 A 
ATOM     37  C   UNL A   1      41.891  22.543  28.400  1.00  0.00     0.010 A 
ATOM     38  C   UNL A   1      42.613  23.145  26.165  1.00  0.00     0.010 A 
ATOM     39  C   UNL A   1      42.436  23.488  27.514  1.00  0.00    -0.014 A 
BRANCH  39  40
ATOM     40  C   UNL A   1      42.769  24.845  28.016  1.00  0.00     0.031 A 
ATOM     41  C   UNL A   1      41.685  25.866  28.241  1.00  0.00     0.074 A 
ATOM     42  C   UNL A   1      44.042  25.131  28.343  1.00  0.00     0.049 A 
ATOM     43  N   UNL A   1      41.790  27.088  28.703  1.00  0.00    -0.248 NA
ATOM     44  C   UNL A   1      40.305  25.470  27.911  1.00  0.00     0.031 C 
ATOM     45  C   UNL A   1      45.172  24.212  28.203  1.00  0.00     0.029 A 
ATOM     46  N   UNL A   1      44.593  26.259  28.895  1.00  0.00    -0.354 N 
ATOM     47  C   UNL A   1      40.502  27.610  28.696  1.00  0.00     0.074 A 
ATOM     48  C   UNL A   1      39.632  26.584  28.167  1.00  0.00     0.031 C 
ATOM     49  C   UNL A   1      46.270  24.788  28.714  1.00  0.00     0.029 A 
ATOM     50  C   UNL A   1      45.935  26.139  29.155  1.00  0.00     0.049 A 
ATOM     51  H   UNL A   1      44.076  27.074  29.086  1.00  0.00     0.167 HD
ATOM     52  C   UNL A   1      40.083  28.833  29.101  1.00  0.00     0.031 A 
ATOM     53  C   UNL A   1      46.808  27.018  29.681  1.00  0.00     0.031 A 
ATOM     54  C   UNL A   1      40.947  29.848  29.640  1.00  0.00     0.049 A 
ATOM     55  C   UNL A   1      46.326  28.379  30.086  1.00  0.00     0.074 A 
ATOM     56  C   UNL A   1      40.611  31.118  30.079  1.00  0.00     0.029 A 
ATOM     57  N   UNL A   1      42.314  29.709  29.824  1.00  0.00    -0.354 N 
ATOM     58  N   UNL A   1      45.109  28.863  30.050  1.00  0.00    -0.248 NA
ATOM     59  C   UNL A   1      47.336  29.317  30.595  1.00  0.00     0.031 C 
ATOM     60  C   UNL A   1      41.782  31.763  30.487  1.00  0.00     0.029 A 
ATOM     61  C   UNL A   1      42.838  30.876  30.352  1.00  0.00     0.049 A 
ATOM     62  H   UNL A   1      42.834  28.901  29.609  1.00  0.00     0.167 HD
ATOM     63  C   UNL A   1      45.204  30.160  30.537  1.00  0.00     0.074 A 
ATOM     64  C   UNL A   1      46.594  30.380  30.880  1.00  0.00     0.031 C 
ATOM     65  C   UNL A   1      44.224  31.084  30.680  1.00  0.00     0.031 A 
BRANCH  52  66
ATOM     66  C   UNL A   1      38.622  29.157  28.963  1.00  0.00    -0.014 A 
ATOM     67  C   UNL A   1      38.137  29.675  27.751  1.00  0.00     0.009 A 
ATOM     68  C   UNL A   1      37.743  29.029  30.048  1.00  0.00     0.009 A 
ATOM     69  C   UNL A   1      36.802  30.067  27.631  1.00  0.00     0.001 A 
ATOM     70  C   UNL A   1      36.402  29.399  29.917  1.00  0.00     0.001 A 
ATOM     71  C   UNL A   1      35.935  29.924  28.713  1.00  0.00     0.000 A 
ENDBRANCH  52  66
BRANCH  53  72
ATOM     72  C   UNL A   1      48.226  26.615  29.850  1.00  0.00    -0.014 A 
ATOM     73  C   UNL A   1      49.183  26.954  28.879  1.00  0.00     0.009 A 
ATOM     74  C   UNL A   1      48.617  25.829  30.944  1.00  0.00     0.009 A 
ATOM     75  C   UNL A   1      50.494  26.490  28.983  1.00  0.00     0.001 A 
ATOM     76  C   UNL A   1      49.938  25.389  31.060  1.00  0.00     0.001 A 
ATOM     77  C   UNL A   1      50.872  25.710  30.074  1.00  0.00     0.000 A 
ENDBRANCH  53  72
BRANCH  65  78
ATOM     78  C   UNL A   1      44.608  32.423  31.238  1.00  0.00    -0.014 A 
ATOM     79  C   UNL A   1      44.534  32.650  32.622  1.00  0.00     0.009 A 
ATOM     80  C   UNL A   1      44.950  33.486  30.389  1.00  0.00     0.009 A 
ATOM     81  C   UNL A   1      44.786  33.918  33.145  1.00  0.00     0.001 A 
ATOM     82  C   UNL A   1      45.224  34.749  30.918  1.00  0.00     0.001 A 
ATOM     83  C   UNL A   1      45.134  34.966  32.293  1.00  0.00     0.000 A 
ENDBRANCH  65  78
ENDBRANCH  39  40
ENDBRANCH  31  34
ENDBRANCH  29  30
ENDBRANCH  28  29
ENDBRANCH   1  28
TORSDOF 15
ENDMDL
