MODEL 1
REMARK VINA RESULT:     -11.7      0.000      0.000
REMARK SMILES Cc1cc(C)cc(C(=O)N2CC[C@H](C(=O)NCCCCNC(=O)c3ccc(-c4c5nc(c(-c6ccccc6)c6ccc([nH]6)c(-c6ccccc6)c6nc(c(-c7ccccc7)c7ccc4[nH]7)C=C6)C=C5)cc3)[C@@H]2C)c1
REMARK SMILES IDX 18 1 17 2 16 3 14 4 15 5 13 7 10 8 11 9 72 10 12 11 73 12
REMARK SMILES IDX 8 13 9 14 7 15 1 16 2 17 3 18 74 19 4 20 5 21 6 22 19 23
REMARK SMILES IDX 20 24 21 25 22 26 23 28 24 29 25 30 71 31 26 32 70 33 27 34
REMARK SMILES IDX 28 35 29 36 64 37 30 38 69 39 63 40 65 41 31 42 68 43 62 44
REMARK SMILES IDX 61 45 32 47 54 48 39 49 53 50 40 51 43 52 52 53 66 54 41 55
REMARK SMILES IDX 42 56 51 58 67 59 44 60 33 61 34 62 38 63 35 64 37 65 36 66
REMARK SMILES IDX 55 67 56 68 60 69 57 70 59 71 58 72 45 73 46 74 50 75 47 76
REMARK SMILES IDX 49 77 48 78
REMARK H PARENT 16 6 21 27 65 46 43 57
REMARK Flexibility Score: inf
ROOT
ATOM      1  C   UNL A   1      36.803  21.147  24.680  1.00  0.00     0.023 C 
ENDROOT
BRANCH   1   2
ATOM      2  C   UNL A   1      35.865  21.364  25.865  1.00  0.00     0.116 C 
BRANCH   2   3
ATOM      3  N   UNL A   1      34.578  20.722  25.671  1.00  0.00    -0.356 N 
ATOM      4  C   UNL A   1      33.403  21.220  25.197  1.00  0.00     0.225 C 
ATOM      5  O   UNL A   1      32.460  20.439  25.071  1.00  0.00    -0.275 OA
ATOM      6  H   UNL A   1      34.551  19.771  25.924  1.00  0.00     0.163 HD
BRANCH   4   7
ATOM      7  C   UNL A   1      33.286  22.694  24.854  1.00  0.00     0.102 C 
ATOM      8  N   UNL A   1      31.546  24.180  25.514  1.00  0.00    -0.335 N 
ATOM      9  C   UNL A   1      31.000  23.346  24.468  1.00  0.00     0.121 C 
ATOM     10  C   UNL A   1      32.804  23.605  26.014  1.00  0.00     0.094 C 
ATOM     11  C   UNL A   1      32.247  22.898  23.735  1.00  0.00     0.037 C 
ATOM     12  C   UNL A   1      32.572  22.905  27.355  1.00  0.00     0.032 C 
BRANCH   8  13
ATOM     13  C   UNL A   1      30.798  25.243  25.982  1.00  0.00     0.254 C 
ATOM     14  O   UNL A   1      29.807  25.062  26.693  1.00  0.00    -0.269 OA
BRANCH  13  15
ATOM     15  C   UNL A   1      31.073  26.631  25.508  1.00  0.00     0.040 A 
ATOM     16  C   UNL A   1      30.155  28.997  22.661  1.00  0.00     0.044 C 
ATOM     17  C   UNL A   1      30.696  28.477  23.960  1.00  0.00    -0.050 A 
ATOM     18  C   UNL A   1      31.292  29.355  24.872  1.00  0.00     0.006 A 
ATOM     19  C   UNL A   1      30.556  27.125  24.305  1.00  0.00     0.017 A 
ATOM     20  C   UNL A   1      31.764  28.894  26.108  1.00  0.00    -0.050 A 
ATOM     21  C   UNL A   1      32.287  29.872  27.119  1.00  0.00     0.044 C 
ATOM     22  C   UNL A   1      31.671  27.528  26.407  1.00  0.00     0.017 A 
ENDBRANCH  13  15
ENDBRANCH   8  13
ENDBRANCH   4   7
ENDBRANCH   2   3
ENDBRANCH   1   2
BRANCH   1  23
ATOM     23  C   UNL A   1      37.851  20.050  24.875  1.00  0.00     0.023 C 
BRANCH  23  24
ATOM     24  C   UNL A   1      39.013  20.408  25.796  1.00  0.00     0.116 C 
BRANCH  24  25
ATOM     25  N   UNL A   1      40.052  19.391  25.819  1.00  0.00    -0.352 N 
ATOM     26  C   UNL A   1      41.387  19.514  26.118  1.00  0.00     0.251 C 
ATOM     27  H   UNL A   1      39.755  18.481  25.587  1.00  0.00     0.163 HD
ATOM     28  O   UNL A   1      42.144  18.561  25.946  1.00  0.00    -0.269 OA
BRANCH  26  29
ATOM     29  C   UNL A   1      41.924  20.800  26.614  1.00  0.00     0.039 A 
ATOM     30  C   UNL A   1      42.427  21.720  25.691  1.00  0.00     0.014 A 
ATOM     31  C   UNL A   1      41.930  21.104  27.978  1.00  0.00     0.014 A 
ATOM     32  C   UNL A   1      42.865  22.973  26.128  1.00  0.00     0.010 A 
ATOM     33  C   UNL A   1      42.294  22.379  28.403  1.00  0.00     0.010 A 
ATOM     34  C   UNL A   1      42.763  23.330  27.482  1.00  0.00    -0.014 A 
BRANCH  34  35
ATOM     35  C   UNL A   1      43.130  24.692  27.950  1.00  0.00     0.031 A 
ATOM     36  C   UNL A   1      42.063  25.727  28.192  1.00  0.00     0.074 A 
ATOM     37  C   UNL A   1      44.428  25.019  28.104  1.00  0.00     0.049 A 
ATOM     38  N   UNL A   1      42.194  26.981  28.543  1.00  0.00    -0.248 NA
ATOM     39  C   UNL A   1      40.668  25.302  27.993  1.00  0.00     0.031 C 
ATOM     40  C   UNL A   1      45.564  24.123  27.873  1.00  0.00     0.029 A 
ATOM     41  N   UNL A   1      45.014  26.200  28.490  1.00  0.00    -0.354 N 
ATOM     42  C   UNL A   1      40.904  27.495  28.598  1.00  0.00     0.074 A 
ATOM     43  C   UNL A   1      40.009  26.435  28.192  1.00  0.00     0.031 C 
ATOM     44  C   UNL A   1      46.705  24.776  28.145  1.00  0.00     0.029 A 
ATOM     45  C   UNL A   1      46.388  26.149  28.525  1.00  0.00     0.049 A 
ATOM     46  H   UNL A   1      44.499  27.007  28.719  1.00  0.00     0.167 HD
ATOM     47  C   UNL A   1      40.499  28.732  28.972  1.00  0.00     0.031 A 
ATOM     48  C   UNL A   1      47.293  27.104  28.818  1.00  0.00     0.031 A 
ATOM     49  C   UNL A   1      41.388  29.789  29.379  1.00  0.00     0.049 A 
ATOM     50  C   UNL A   1      46.814  28.479  29.193  1.00  0.00     0.074 A 
ATOM     51  C   UNL A   1      41.066  31.063  29.816  1.00  0.00     0.029 A 
ATOM     52  N   UNL A   1      42.770  29.696  29.399  1.00  0.00    -0.354 N 
ATOM     53  N   UNL A   1      45.587  28.928  29.303  1.00  0.00    -0.248 NA
ATOM     54  C   UNL A   1      47.849  29.479  29.497  1.00  0.00     0.031 C 
ATOM     55  C   UNL A   1      42.256  31.759  30.047  1.00  0.00     0.029 A 
ATOM     56  C   UNL A   1      43.316  30.898  29.816  1.00  0.00     0.049 A 
ATOM     57  H   UNL A   1      43.286  28.895  29.152  1.00  0.00     0.167 HD
ATOM     58  C   UNL A   1      45.703  30.248  29.721  1.00  0.00     0.074 A 
ATOM     59  C   UNL A   1      47.118  30.521  29.863  1.00  0.00     0.031 C 
ATOM     60  C   UNL A   1      44.725  31.154  29.962  1.00  0.00     0.031 A 
BRANCH  47  61
ATOM     61  C   UNL A   1      39.022  29.015  28.959  1.00  0.00    -0.014 A 
ATOM     62  C   UNL A   1      38.236  28.818  30.106  1.00  0.00     0.009 A 
ATOM     63  C   UNL A   1      38.419  29.543  27.806  1.00  0.00     0.009 A 
ATOM     64  C   UNL A   1      36.872  29.116  30.089  1.00  0.00     0.001 A 
ATOM     65  C   UNL A   1      37.062  29.867  27.802  1.00  0.00     0.001 A 
ATOM     66  C   UNL A   1      36.288  29.646  28.940  1.00  0.00     0.000 A 
ENDBRANCH  47  61
BRANCH  48  67
ATOM     67  C   UNL A   1      48.749  26.803  28.768  1.00  0.00    -0.014 A 
ATOM     68  C   UNL A   1      49.468  26.943  27.570  1.00  0.00     0.009 A 
ATOM     69  C   UNL A   1      49.421  26.336  29.909  1.00  0.00     0.009 A 
ATOM     70  C   UNL A   1      50.816  26.580  27.506  1.00  0.00     0.001 A 
ATOM     71  C   UNL A   1      50.777  26.008  29.850  1.00  0.00     0.001 A 
ATOM     72  C   UNL A   1      51.470  26.116  28.646  1.00  0.00     0.000 A 
ENDBRANCH  48  67
BRANCH  60  73
ATOM     73  C   UNL A   1      45.147  32.511  30.454  1.00  0.00    -0.014 A 
ATOM     74  C   UNL A   1      45.383  33.572  29.566  1.00  0.00     0.009 A 
ATOM     75  C   UNL A   1      45.273  32.739  31.834  1.00  0.00     0.009 A 
ATOM     76  C   UNL A   1      45.774  34.823  30.048  1.00  0.00     0.001 A 
ATOM     77  C   UNL A   1      45.630  33.999  32.315  1.00  0.00     0.001 A 
ATOM     78  C   UNL A   1      45.890  35.037  31.422  1.00  0.00     0.000 A 
ENDBRANCH  60  73
ENDBRANCH  34  35
ENDBRANCH  26  29
ENDBRANCH  24  25
ENDBRANCH  23  24
ENDBRANCH   1  23
TORSDOF 13
ENDMDL
MODEL 2
REMARK VINA RESULT:     -11.7      2.314      7.786
REMARK SMILES Cc1cc(C)cc(C(=O)N2CC[C@H](C(=O)NCCCCNC(=O)c3ccc(-c4c5nc(c(-c6ccccc6)c6ccc([nH]6)c(-c6ccccc6)c6nc(c(-c7ccccc7)c7ccc4[nH]7)C=C6)C=C5)cc3)[C@@H]2C)c1
REMARK SMILES IDX 18 1 17 2 16 3 14 4 15 5 13 7 10 8 11 9 72 10 12 11 73 12
REMARK SMILES IDX 8 13 9 14 7 15 1 16 2 17 3 18 74 19 4 20 5 21 6 22 19 23
REMARK SMILES IDX 20 24 21 25 22 26 23 28 24 29 25 30 71 31 26 32 70 33 27 34
REMARK SMILES IDX 28 35 29 36 64 37 30 38 69 39 63 40 65 41 31 42 68 43 62 44
REMARK SMILES IDX 61 45 32 47 54 48 39 49 53 50 40 51 43 52 52 53 66 54 41 55
REMARK SMILES IDX 42 56 51 58 67 59 44 60 33 61 34 62 38 63 35 64 37 65 36 66
REMARK SMILES IDX 55 67 56 68 60 69 57 70 59 71 58 72 45 73 46 74 50 75 47 76
REMARK SMILES IDX 49 77 48 78
REMARK H PARENT 16 6 21 27 65 46 43 57
REMARK Flexibility Score: inf
ROOT
ATOM      1  C   UNL A   1      33.043  29.661  25.002  1.00  0.00     0.023 C 
ENDROOT
BRANCH   1   2
ATOM      2  C   UNL A   1      31.530  29.522  25.154  1.00  0.00     0.116 C 
BRANCH   2   3
ATOM      3  N   UNL A   1      30.892  29.093  23.925  1.00  0.00    -0.356 N 
ATOM      4  C   UNL A   1      30.785  27.854  23.369  1.00  0.00     0.225 C 
ATOM      5  O   UNL A   1      30.128  27.746  22.334  1.00  0.00    -0.275 OA
ATOM      6  H   UNL A   1      30.466  29.814  23.408  1.00  0.00     0.163 HD
BRANCH   4   7
ATOM      7  C   UNL A   1      31.474  26.667  24.019  1.00  0.00     0.102 C 
ATOM      8  N   UNL A   1      32.577  24.873  22.911  1.00  0.00    -0.335 N 
ATOM      9  C   UNL A   1      31.159  24.644  22.753  1.00  0.00     0.121 C 
ATOM     10  C   UNL A   1      32.818  26.249  23.371  1.00  0.00     0.094 C 
ATOM     11  C   UNL A   1      30.581  25.416  23.919  1.00  0.00     0.037 C 
ATOM     12  C   UNL A   1      33.296  27.121  22.207  1.00  0.00     0.032 C 
BRANCH   8  13
ATOM     13  C   UNL A   1      33.464  23.898  22.493  1.00  0.00     0.254 C 
ATOM     14  O   UNL A   1      33.542  23.574  21.307  1.00  0.00    -0.269 OA
BRANCH  13  15
ATOM     15  C   UNL A   1      34.234  23.097  23.488  1.00  0.00     0.040 A 
ATOM     16  C   UNL A   1      37.221  23.423  25.839  1.00  0.00     0.044 C 
ATOM     17  C   UNL A   1      35.988  22.890  25.170  1.00  0.00    -0.050 A 
ATOM     18  C   UNL A   1      35.399  21.706  25.629  1.00  0.00     0.006 A 
ATOM     19  C   UNL A   1      35.376  23.598  24.126  1.00  0.00     0.017 A 
ATOM     20  C   UNL A   1      34.223  21.217  25.045  1.00  0.00    -0.050 A 
ATOM     21  C   UNL A   1      33.543  20.015  25.631  1.00  0.00     0.044 C 
ATOM     22  C   UNL A   1      33.662  21.906  23.961  1.00  0.00     0.017 A 
ENDBRANCH  13  15
ENDBRANCH   8  13
ENDBRANCH   4   7
ENDBRANCH   2   3
ENDBRANCH   1   2
BRANCH   1  23
ATOM     23  C   UNL A   1      33.873  28.750  25.907  1.00  0.00     0.023 C 
BRANCH  23  24
ATOM     24  C   UNL A   1      33.586  28.870  27.400  1.00  0.00     0.116 C 
BRANCH  24  25
ATOM     25  N   UNL A   1      33.634  30.242  27.878  1.00  0.00    -0.352 N 
ATOM     26  C   UNL A   1      34.656  30.913  28.505  1.00  0.00     0.251 C 
ATOM     27  H   UNL A   1      32.814  30.767  27.733  1.00  0.00     0.163 HD
ATOM     28  O   UNL A   1      34.461  32.035  28.965  1.00  0.00    -0.269 OA
BRANCH  26  29
ATOM     29  C   UNL A   1      35.983  30.276  28.657  1.00  0.00     0.039 A 
ATOM     30  C   UNL A   1      36.864  30.291  27.573  1.00  0.00     0.014 A 
ATOM     31  C   UNL A   1      36.363  29.674  29.859  1.00  0.00     0.014 A 
ATOM     32  C   UNL A   1      38.152  29.768  27.718  1.00  0.00     0.010 A 
ATOM     33  C   UNL A   1      37.671  29.224  30.026  1.00  0.00     0.010 A 
ATOM     34  C   UNL A   1      38.581  29.268  28.958  1.00  0.00    -0.014 A 
BRANCH  34  35
ATOM     35  C   UNL A   1      39.978  28.802  29.159  1.00  0.00     0.031 A 
ATOM     36  C   UNL A   1      41.015  29.729  29.735  1.00  0.00     0.074 A 
ATOM     37  C   UNL A   1      40.329  27.559  28.772  1.00  0.00     0.049 A 
ATOM     38  N   UNL A   1      42.294  29.519  29.927  1.00  0.00    -0.248 NA
ATOM     39  C   UNL A   1      40.562  31.074  30.125  1.00  0.00     0.031 C 
ATOM     40  C   UNL A   1      39.432  26.570  28.171  1.00  0.00     0.029 A 
ATOM     41  N   UNL A   1      41.542  26.915  28.823  1.00  0.00    -0.354 N 
ATOM     42  C   UNL A   1      42.796  30.705  30.451  1.00  0.00     0.074 A 
ATOM     43  C   UNL A   1      41.699  31.646  30.495  1.00  0.00     0.031 C 
ATOM     44  C   UNL A   1      40.116  25.439  27.933  1.00  0.00     0.029 A 
ATOM     45  C   UNL A   1      41.509  25.636  28.320  1.00  0.00     0.049 A 
ATOM     46  H   UNL A   1      42.357  27.331  29.185  1.00  0.00     0.167 HD
ATOM     47  C   UNL A   1      44.052  30.979  30.875  1.00  0.00     0.031 A 
ATOM     48  C   UNL A   1      42.492  24.726  28.175  1.00  0.00     0.031 A 
ATOM     49  C   UNL A   1      45.145  30.044  30.836  1.00  0.00     0.049 A 
ATOM     50  C   UNL A   1      43.886  25.073  28.622  1.00  0.00     0.074 A 
ATOM     51  C   UNL A   1      46.444  30.219  31.283  1.00  0.00     0.029 A 
ATOM     52  N   UNL A   1      45.069  28.761  30.319  1.00  0.00    -0.354 N 
ATOM     53  N   UNL A   1      44.328  26.177  29.175  1.00  0.00    -0.248 NA
ATOM     54  C   UNL A   1      44.917  24.042  28.433  1.00  0.00     0.031 C 
ATOM     55  C   UNL A   1      47.168  29.061  30.986  1.00  0.00     0.029 A 
ATOM     56  C   UNL A   1      46.304  28.142  30.413  1.00  0.00     0.049 A 
ATOM     57  H   UNL A   1      44.259  28.352  29.940  1.00  0.00     0.167 HD
ATOM     58  C   UNL A   1      45.676  25.958  29.431  1.00  0.00     0.074 A 
ATOM     59  C   UNL A   1      45.974  24.611  28.990  1.00  0.00     0.031 C 
ATOM     60  C   UNL A   1      46.586  26.799  29.979  1.00  0.00     0.031 A 
BRANCH  47  61
ATOM     61  C   UNL A   1      44.316  32.354  31.425  1.00  0.00    -0.014 A 
ATOM     62  C   UNL A   1      44.666  33.418  30.579  1.00  0.00     0.009 A 
ATOM     63  C   UNL A   1      44.155  32.604  32.797  1.00  0.00     0.009 A 
ATOM     64  C   UNL A   1      44.877  34.697  31.099  1.00  0.00     0.001 A 
ATOM     65  C   UNL A   1      44.337  33.889  33.310  1.00  0.00     0.001 A 
ATOM     66  C   UNL A   1      44.706  34.932  32.462  1.00  0.00     0.000 A 
ENDBRANCH  47  61
BRANCH  48  67
ATOM     67  C   UNL A   1      42.205  23.394  27.578  1.00  0.00    -0.014 A 
ATOM     68  C   UNL A   1      42.407  23.166  26.208  1.00  0.00     0.009 A 
ATOM     69  C   UNL A   1      41.688  22.354  28.367  1.00  0.00     0.009 A 
ATOM     70  C   UNL A   1      42.059  21.940  25.634  1.00  0.00     0.001 A 
ATOM     71  C   UNL A   1      41.373  21.119  27.798  1.00  0.00     0.001 A 
ATOM     72  C   UNL A   1      41.545  20.917  26.430  1.00  0.00     0.000 A 
ENDBRANCH  48  67
BRANCH  60  73
ATOM     73  C   UNL A   1      47.980  26.271  30.181  1.00  0.00    -0.014 A 
ATOM     74  C   UNL A   1      48.941  26.332  29.160  1.00  0.00     0.009 A 
ATOM     75  C   UNL A   1      48.345  25.739  31.428  1.00  0.00     0.009 A 
ATOM     76  C   UNL A   1      50.229  25.835  29.373  1.00  0.00     0.001 A 
ATOM     77  C   UNL A   1      49.642  25.274  31.649  1.00  0.00     0.001 A 
ATOM     78  C   UNL A   1      50.580  25.313  30.619  1.00  0.00     0.000 A 
ENDBRANCH  60  73
ENDBRANCH  34  35
ENDBRANCH  26  29
ENDBRANCH  24  25
ENDBRANCH  23  24
ENDBRANCH   1  23
TORSDOF 13
ENDMDL
MODEL 3
REMARK VINA RESULT:     -11.6      1.233      6.107
REMARK SMILES Cc1cc(C)cc(C(=O)N2CC[C@H](C(=O)NCCCCNC(=O)c3ccc(-c4c5nc(c(-c6ccccc6)c6ccc([nH]6)c(-c6ccccc6)c6nc(c(-c7ccccc7)c7ccc4[nH]7)C=C6)C=C5)cc3)[C@@H]2C)c1
REMARK SMILES IDX 18 1 17 2 16 3 14 4 15 5 13 7 10 8 11 9 72 10 12 11 73 12
REMARK SMILES IDX 8 13 9 14 7 15 1 16 2 17 3 18 74 19 4 20 5 21 6 22 19 23
REMARK SMILES IDX 20 24 21 25 22 26 23 28 24 29 25 30 71 31 26 32 70 33 27 34
REMARK SMILES IDX 28 35 29 36 64 37 30 38 69 39 63 40 65 41 31 42 68 43 62 44
REMARK SMILES IDX 61 45 32 47 54 48 39 49 53 50 40 51 43 52 52 53 66 54 41 55
REMARK SMILES IDX 42 56 51 58 67 59 44 60 33 61 34 62 38 63 35 64 37 65 36 66
REMARK SMILES IDX 55 67 56 68 60 69 57 70 59 71 58 72 45 73 46 74 50 75 47 76
REMARK SMILES IDX 49 77 48 78
REMARK H PARENT 16 6 21 27 65 46 43 57
REMARK Flexibility Score: inf
ROOT
ATOM      1  C   UNL A   1      36.530  20.792  24.962  1.00  0.00     0.023 C 
ENDROOT
BRANCH   1   2
ATOM      2  C   UNL A   1      35.172  20.096  24.946  1.00  0.00     0.116 C 
BRANCH   2   3
ATOM      3  N   UNL A   1      34.180  20.809  25.730  1.00  0.00    -0.356 N 
ATOM      4  C   UNL A   1      33.295  21.778  25.366  1.00  0.00     0.225 C 
ATOM      5  O   UNL A   1      32.507  22.181  26.220  1.00  0.00    -0.275 OA
ATOM      6  H   UNL A   1      34.141  20.550  26.678  1.00  0.00     0.163 HD
BRANCH   4   7
ATOM      7  C   UNL A   1      33.311  22.331  23.952  1.00  0.00     0.102 C 
ATOM      8  N   UNL A   1      33.059  24.608  23.306  1.00  0.00    -0.335 N 
ATOM      9  C   UNL A   1      31.744  24.138  23.678  1.00  0.00     0.121 C 
ATOM     10  C   UNL A   1      34.084  23.663  23.774  1.00  0.00     0.094 C 
ATOM     11  C   UNL A   1      31.876  22.642  23.488  1.00  0.00     0.037 C 
ATOM     12  C   UNL A   1      34.773  24.205  25.029  1.00  0.00     0.032 C 
BRANCH   8  13
ATOM     13  C   UNL A   1      33.187  25.863  22.740  1.00  0.00     0.254 C 
ATOM     14  O   UNL A   1      33.779  26.022  21.671  1.00  0.00    -0.269 OA
BRANCH  13  15
ATOM     15  C   UNL A   1      32.754  27.079  23.488  1.00  0.00     0.040 A 
ATOM     16  C   UNL A   1      29.931  29.644  23.539  1.00  0.00     0.044 C 
ATOM     17  C   UNL A   1      31.142  28.852  23.938  1.00  0.00    -0.050 A 
ATOM     18  C   UNL A   1      31.774  29.108  25.160  1.00  0.00     0.006 A 
ATOM     19  C   UNL A   1      31.615  27.810  23.128  1.00  0.00     0.017 A 
ATOM     20  C   UNL A   1      32.879  28.350  25.568  1.00  0.00    -0.050 A 
ATOM     21  C   UNL A   1      33.464  28.558  26.934  1.00  0.00     0.044 C 
ATOM     22  C   UNL A   1      33.376  27.355  24.716  1.00  0.00     0.017 A 
ENDBRANCH  13  15
ENDBRANCH   8  13
ENDBRANCH   4   7
ENDBRANCH   2   3
ENDBRANCH   1   2
BRANCH   1  23
ATOM     23  C   UNL A   1      37.740  19.856  24.955  1.00  0.00     0.023 C 
BRANCH  23  24
ATOM     24  C   UNL A   1      38.954  20.346  25.736  1.00  0.00     0.116 C 
BRANCH  24  25
ATOM     25  N   UNL A   1      40.029  19.368  25.786  1.00  0.00    -0.352 N 
ATOM     26  C   UNL A   1      41.351  19.540  26.118  1.00  0.00     0.251 C 
ATOM     27  H   UNL A   1      39.772  18.448  25.546  1.00  0.00     0.163 HD
ATOM     28  O   UNL A   1      42.146  18.616  25.965  1.00  0.00    -0.269 OA
BRANCH  26  29
ATOM     29  C   UNL A   1      41.828  20.844  26.627  1.00  0.00     0.039 A 
ATOM     30  C   UNL A   1      42.318  21.784  25.717  1.00  0.00     0.014 A 
ATOM     31  C   UNL A   1      41.790  21.146  27.991  1.00  0.00     0.014 A 
ATOM     32  C   UNL A   1      42.699  23.052  26.164  1.00  0.00     0.010 A 
ATOM     33  C   UNL A   1      42.096  22.434  28.425  1.00  0.00     0.010 A 
ATOM     34  C   UNL A   1      42.551  23.402  27.516  1.00  0.00    -0.014 A 
BRANCH  34  35
ATOM     35  C   UNL A   1      42.855  24.776  27.993  1.00  0.00     0.031 A 
ATOM     36  C   UNL A   1      44.266  25.164  28.350  1.00  0.00     0.074 A 
ATOM     37  C   UNL A   1      41.853  25.663  28.160  1.00  0.00     0.049 A 
ATOM     38  N   UNL A   1      44.713  26.294  28.838  1.00  0.00    -0.248 NA
ATOM     39  C   UNL A   1      45.307  24.143  28.152  1.00  0.00     0.031 C 
ATOM     40  C   UNL A   1      40.438  25.408  27.884  1.00  0.00     0.029 A 
ATOM     41  N   UNL A   1      41.872  26.961  28.610  1.00  0.00    -0.354 N 
ATOM     42  C   UNL A   1      46.080  26.115  29.014  1.00  0.00     0.074 A 
ATOM     43  C   UNL A   1      46.381  24.753  28.631  1.00  0.00     0.031 C 
ATOM     44  C   UNL A   1      39.730  26.519  28.144  1.00  0.00     0.029 A 
ATOM     45  C   UNL A   1      40.630  27.550  28.649  1.00  0.00     0.049 A 
ATOM     46  H   UNL A   1      42.697  27.426  28.878  1.00  0.00     0.167 HD
ATOM     47  C   UNL A   1      47.005  27.010  29.435  1.00  0.00     0.031 A 
ATOM     48  C   UNL A   1      40.255  28.778  29.057  1.00  0.00     0.031 A 
ATOM     49  C   UNL A   1      46.710  28.367  29.813  1.00  0.00     0.049 A 
ATOM     50  C   UNL A   1      41.301  29.737  29.556  1.00  0.00     0.074 A 
ATOM     51  C   UNL A   1      47.588  29.359  30.213  1.00  0.00     0.029 A 
ATOM     52  N   UNL A   1      45.440  28.921  29.840  1.00  0.00    -0.354 N 
ATOM     53  N   UNL A   1      42.598  29.572  29.652  1.00  0.00    -0.248 NA
ATOM     54  C   UNL A   1      40.830  31.060  29.992  1.00  0.00     0.031 C 
ATOM     55  C   UNL A   1      46.844  30.498  30.535  1.00  0.00     0.029 A 
ATOM     56  C   UNL A   1      45.509  30.234  30.273  1.00  0.00     0.049 A 
ATOM     57  H   UNL A   1      44.613  28.451  29.589  1.00  0.00     0.167 HD
ATOM     58  C   UNL A   1      43.099  30.778  30.126  1.00  0.00     0.074 A 
ATOM     59  C   UNL A   1      41.969  31.671  30.279  1.00  0.00     0.031 C 
ATOM     60  C   UNL A   1      44.380  31.115  30.412  1.00  0.00     0.031 A 
BRANCH  47  61
ATOM     61  C   UNL A   1      48.435  26.549  29.511  1.00  0.00    -0.014 A 
ATOM     62  C   UNL A   1      49.300  26.687  28.414  1.00  0.00     0.009 A 
ATOM     63  C   UNL A   1      48.941  26.029  30.713  1.00  0.00     0.009 A 
ATOM     64  C   UNL A   1      50.634  26.285  28.509  1.00  0.00     0.001 A 
ATOM     65  C   UNL A   1      50.282  25.656  30.814  1.00  0.00     0.001 A 
ATOM     66  C   UNL A   1      51.125  25.776  29.710  1.00  0.00     0.000 A 
ENDBRANCH  47  61
BRANCH  48  67
ATOM     67  C   UNL A   1      38.824  29.181  29.018  1.00  0.00    -0.014 A 
ATOM     68  C   UNL A   1      38.008  29.032  30.151  1.00  0.00     0.009 A 
ATOM     69  C   UNL A   1      38.254  29.681  27.836  1.00  0.00     0.009 A 
ATOM     70  C   UNL A   1      36.645  29.333  30.087  1.00  0.00     0.001 A 
ATOM     71  C   UNL A   1      36.899  30.014  27.786  1.00  0.00     0.001 A 
ATOM     72  C   UNL A   1      36.093  29.827  28.906  1.00  0.00     0.000 A 
ENDBRANCH  48  67
BRANCH  60  73
ATOM     73  C   UNL A   1      44.637  32.524  30.871  1.00  0.00    -0.014 A 
ATOM     74  C   UNL A   1      44.879  33.560  29.956  1.00  0.00     0.009 A 
ATOM     75  C   UNL A   1      44.597  32.824  32.242  1.00  0.00     0.009 A 
ATOM     76  C   UNL A   1      45.114  34.861  30.408  1.00  0.00     0.001 A 
ATOM     77  C   UNL A   1      44.798  34.131  32.689  1.00  0.00     0.001 A 
ATOM     78  C   UNL A   1      45.067  35.146  31.772  1.00  0.00     0.000 A 
ENDBRANCH  60  73
ENDBRANCH  34  35
ENDBRANCH  26  29
ENDBRANCH  24  25
ENDBRANCH  23  24
ENDBRANCH   1  23
TORSDOF 13
ENDMDL
