MODEL 1
REMARK VINA RESULT:     -11.0      0.000      0.000
REMARK SMILES O=C(C[C@H]1C(=O)Nc2ccccc21)NCCCCNC(=O)c1ccc(-c2c3nc(c(-c4ccccc4)c4ccc([nH]4)c(-c4ccccc4)c4nc(c(-c5ccccc5)c5ccc2[nH]5)C=C4)C=C3)cc1
REMARK SMILES IDX 17 1 16 2 15 3 14 4 1 5 2 6 3 8 4 9 5 10 13 11 6 12 7 13
REMARK SMILES IDX 8 14 12 15 9 17 11 18 10 19 18 20 19 21 20 22 21 24 22 25
REMARK SMILES IDX 23 26 69 27 24 28 68 29 25 30 26 31 27 32 62 33 28 34 67 35
REMARK SMILES IDX 61 36 63 37 29 38 66 39 60 40 59 41 30 43 52 44 37 45 51 46
REMARK SMILES IDX 38 47 41 48 50 49 64 50 39 51 40 52 49 54 65 55 42 56 31 57
REMARK SMILES IDX 32 58 36 59 33 60 35 61 34 62 53 63 54 64 58 65 55 66 57 67
REMARK SMILES IDX 56 68 43 69 44 70 48 71 45 72 47 73 46 74
REMARK H PARENT 14 7 7 16 19 23 63 42 41 53
REMARK Flexibility Score: inf
ROOT
ATOM      1  C   UNL A   1      32.142  28.099  27.180  1.00  0.00     0.023 C 
ENDROOT
BRANCH   1   2
ATOM      2  C   UNL A   1      31.550  28.169  25.768  1.00  0.00     0.023 C 
BRANCH   2   3
ATOM      3  C   UNL A   1      30.749  26.942  25.334  1.00  0.00     0.116 C 
BRANCH   3   4
ATOM      4  N   UNL A   1      31.592  25.777  25.167  1.00  0.00    -0.356 N 
ATOM      5  O   UNL A   1      30.798  24.614  26.972  1.00  0.00    -0.275 OA
ATOM      6  C   UNL A   1      31.513  24.670  25.978  1.00  0.00     0.221 C 
ATOM      7  H   UNL A   1      32.253  25.777  24.436  1.00  0.00     0.163 HD
BRANCH   6   8
ATOM      8  C   UNL A   1      32.428  23.521  25.579  1.00  0.00     0.118 C 
BRANCH   8   9
ATOM      9  C   UNL A   1      33.753  23.463  26.338  1.00  0.00     0.120 C 
ATOM     10  C   UNL A   1      33.743  22.383  27.436  1.00  0.00     0.232 C 
ATOM     11  C   UNL A   1      34.938  23.045  25.501  1.00  0.00    -0.011 A 
ATOM     12  O   UNL A   1      32.989  22.320  28.393  1.00  0.00    -0.274 OA
ATOM     13  N   UNL A   1      34.765  21.486  27.148  1.00  0.00    -0.325 N 
ATOM     14  C   UNL A   1      35.469  21.864  26.018  1.00  0.00     0.045 A 
ATOM     15  C   UNL A   1      35.478  23.626  24.367  1.00  0.00     0.007 A 
ATOM     16  H   UNL A   1      34.963  20.684  27.682  1.00  0.00     0.169 HD
ATOM     17  C   UNL A   1      36.526  21.206  25.427  1.00  0.00     0.026 A 
ATOM     18  C   UNL A   1      36.549  22.975  23.748  1.00  0.00     0.000 A 
ATOM     19  C   UNL A   1      37.066  21.775  24.270  1.00  0.00     0.002 A 
ENDBRANCH   8   9
ENDBRANCH   6   8
ENDBRANCH   3   4
ENDBRANCH   2   3
ENDBRANCH   1   2
BRANCH   1  20
ATOM     20  C   UNL A   1      33.565  28.631  27.322  1.00  0.00     0.116 C 
BRANCH  20  21
ATOM     21  N   UNL A   1      33.605  30.035  27.696  1.00  0.00    -0.352 N 
ATOM     22  C   UNL A   1      34.617  30.766  28.272  1.00  0.00     0.251 C 
ATOM     23  H   UNL A   1      32.781  30.539  27.509  1.00  0.00     0.163 HD
ATOM     24  O   UNL A   1      34.401  31.914  28.653  1.00  0.00    -0.269 OA
BRANCH  22  25
ATOM     25  C   UNL A   1      35.961  30.175  28.465  1.00  0.00     0.039 A 
ATOM     26  C   UNL A   1      36.865  30.202  27.399  1.00  0.00     0.014 A 
ATOM     27  C   UNL A   1      36.329  29.578  29.674  1.00  0.00     0.014 A 
ATOM     28  C   UNL A   1      38.157  29.698  27.567  1.00  0.00     0.010 A 
ATOM     29  C   UNL A   1      37.641  29.145  29.864  1.00  0.00     0.010 A 
ATOM     30  C   UNL A   1      38.571  29.202  28.814  1.00  0.00    -0.014 A 
BRANCH  30  31
ATOM     31  C   UNL A   1      39.972  28.757  29.038  1.00  0.00     0.031 A 
ATOM     32  C   UNL A   1      40.988  29.696  29.629  1.00  0.00     0.074 A 
ATOM     33  C   UNL A   1      40.348  27.519  28.658  1.00  0.00     0.049 A 
ATOM     34  N   UNL A   1      42.266  29.499  29.846  1.00  0.00    -0.248 NA
ATOM     35  C   UNL A   1      40.516  31.037  30.002  1.00  0.00     0.031 C 
ATOM     36  C   UNL A   1      39.472  26.518  28.044  1.00  0.00     0.029 A 
ATOM     37  N   UNL A   1      41.568  26.893  28.727  1.00  0.00    -0.354 N 
ATOM     38  C   UNL A   1      42.748  30.693  30.369  1.00  0.00     0.074 A 
ATOM     39  C   UNL A   1      41.641  31.624  30.383  1.00  0.00     0.031 C 
ATOM     40  C   UNL A   1      40.176  25.397  27.820  1.00  0.00     0.029 A 
ATOM     41  C   UNL A   1      41.561  25.612  28.229  1.00  0.00     0.049 A 
ATOM     42  H   UNL A   1      42.373  27.322  29.099  1.00  0.00     0.167 HD
ATOM     43  C   UNL A   1      43.994  30.984  30.816  1.00  0.00     0.031 A 
ATOM     44  C   UNL A   1      42.554  24.713  28.102  1.00  0.00     0.031 A 
ATOM     45  C   UNL A   1      45.098  30.061  30.801  1.00  0.00     0.049 A 
ATOM     46  C   UNL A   1      43.937  25.072  28.572  1.00  0.00     0.074 A 
ATOM     47  C   UNL A   1      46.386  30.250  31.275  1.00  0.00     0.029 A 
ATOM     48  N   UNL A   1      45.048  28.777  30.282  1.00  0.00    -0.354 N 
ATOM     49  N   UNL A   1      44.360  26.184  29.122  1.00  0.00    -0.248 NA
ATOM     50  C   UNL A   1      44.977  24.045  28.412  1.00  0.00     0.031 C 
ATOM     51  C   UNL A   1      47.131  29.103  30.984  1.00  0.00     0.029 A 
ATOM     52  C   UNL A   1      46.290  28.173  30.394  1.00  0.00     0.049 A 
ATOM     53  H   UNL A   1      44.249  28.356  29.891  1.00  0.00     0.167 HD
ATOM     54  C   UNL A   1      45.706  25.981  29.402  1.00  0.00     0.074 A 
ATOM     55  C   UNL A   1      46.023  24.633  28.976  1.00  0.00     0.031 C 
ATOM     56  C   UNL A   1      46.597  26.834  29.963  1.00  0.00     0.031 A 
BRANCH  43  57
ATOM     57  C   UNL A   1      44.232  32.373  31.347  1.00  0.00    -0.014 A 
ATOM     58  C   UNL A   1      44.051  32.676  32.706  1.00  0.00     0.009 A 
ATOM     59  C   UNL A   1      44.676  33.386  30.482  1.00  0.00     0.009 A 
ATOM     60  C   UNL A   1      44.266  33.973  33.178  1.00  0.00     0.001 A 
ATOM     61  C   UNL A   1      44.924  34.672  30.963  1.00  0.00     0.001 A 
ATOM     62  C   UNL A   1      44.707  34.968  32.308  1.00  0.00     0.000 A 
ENDBRANCH  43  57
BRANCH  44  63
ATOM     63  C   UNL A   1      42.279  23.377  27.508  1.00  0.00    -0.014 A 
ATOM     64  C   UNL A   1      41.765  22.336  28.296  1.00  0.00     0.009 A 
ATOM     65  C   UNL A   1      42.537  23.135  26.150  1.00  0.00     0.009 A 
ATOM     66  C   UNL A   1      41.542  21.073  27.742  1.00  0.00     0.001 A 
ATOM     67  C   UNL A   1      42.281  21.880  25.592  1.00  0.00     0.001 A 
ATOM     68  C   UNL A   1      41.793  20.848  26.391  1.00  0.00     0.000 A 
ENDBRANCH  44  63
BRANCH  56  69
ATOM     69  C   UNL A   1      47.996  26.323  30.185  1.00  0.00    -0.014 A 
ATOM     70  C   UNL A   1      48.394  25.789  31.420  1.00  0.00     0.009 A 
ATOM     71  C   UNL A   1      48.917  26.342  29.125  1.00  0.00     0.009 A 
ATOM     72  C   UNL A   1      49.697  25.318  31.599  1.00  0.00     0.001 A 
ATOM     73  C   UNL A   1      50.207  25.840  29.297  1.00  0.00     0.001 A 
ATOM     74  C   UNL A   1      50.600  25.339  30.536  1.00  0.00     0.000 A 
ENDBRANCH  56  69
ENDBRANCH  30  31
ENDBRANCH  22  25
ENDBRANCH  20  21
ENDBRANCH   1  20
TORSDOF 12
ENDMDL
MODEL 2
REMARK VINA RESULT:     -10.9      1.162      1.698
REMARK SMILES O=C(C[C@H]1C(=O)Nc2ccccc21)NCCCCNC(=O)c1ccc(-c2c3nc(c(-c4ccccc4)c4ccc([nH]4)c(-c4ccccc4)c4nc(c(-c5ccccc5)c5ccc2[nH]5)C=C4)C=C3)cc1
REMARK SMILES IDX 17 1 16 2 15 3 14 4 1 5 2 6 3 8 4 9 5 10 13 11 6 12 7 13
REMARK SMILES IDX 8 14 12 15 9 17 11 18 10 19 18 20 19 21 20 22 21 24 22 25
REMARK SMILES IDX 23 26 69 27 24 28 68 29 25 30 26 31 27 32 62 33 28 34 67 35
REMARK SMILES IDX 61 36 63 37 29 38 66 39 60 40 59 41 30 43 52 44 37 45 51 46
REMARK SMILES IDX 38 47 41 48 50 49 64 50 39 51 40 52 49 54 65 55 42 56 31 57
REMARK SMILES IDX 32 58 36 59 33 60 35 61 34 62 53 63 54 64 58 65 55 66 57 67
REMARK SMILES IDX 56 68 43 69 44 70 48 71 45 72 47 73 46 74
REMARK H PARENT 14 7 7 16 19 23 63 42 41 53
REMARK Flexibility Score: inf
ROOT
ATOM      1  C   UNL A   1      33.903  28.511  25.881  1.00  0.00     0.023 C 
ENDROOT
BRANCH   1   2
ATOM      2  C   UNL A   1      33.119  29.304  24.829  1.00  0.00     0.023 C 
BRANCH   2   3
ATOM      3  C   UNL A   1      32.502  28.469  23.707  1.00  0.00     0.116 C 
BRANCH   3   4
ATOM      4  N   UNL A   1      32.801  27.060  23.856  1.00  0.00    -0.356 N 
ATOM      5  O   UNL A   1      33.808  26.786  21.818  1.00  0.00    -0.275 OA
ATOM      6  C   UNL A   1      33.485  26.334  22.910  1.00  0.00     0.221 C 
ATOM      7  H   UNL A   1      32.502  26.601  24.675  1.00  0.00     0.163 HD
BRANCH   6   8
ATOM      8  C   UNL A   1      33.770  24.890  23.300  1.00  0.00     0.118 C 
BRANCH   8   9
ATOM      9  C   UNL A   1      34.551  24.719  24.601  1.00  0.00     0.120 C 
ATOM     10  C   UNL A   1      33.623  24.477  25.805  1.00  0.00     0.232 C 
ATOM     11  C   UNL A   1      35.440  23.499  24.643  1.00  0.00    -0.011 A 
ATOM     12  O   UNL A   1      32.753  25.224  26.221  1.00  0.00    -0.274 OA
ATOM     13  N   UNL A   1      33.962  23.244  26.352  1.00  0.00    -0.325 N 
ATOM     14  C   UNL A   1      35.022  22.664  25.679  1.00  0.00     0.045 A 
ATOM     15  C   UNL A   1      36.495  23.135  23.824  1.00  0.00     0.007 A 
ATOM     16  H   UNL A   1      33.504  22.837  27.122  1.00  0.00     0.169 HD
ATOM     17  C   UNL A   1      35.608  21.441  25.926  1.00  0.00     0.026 A 
ATOM     18  C   UNL A   1      37.102  21.897  24.053  1.00  0.00     0.000 A 
ATOM     19  C   UNL A   1      36.661  21.057  25.092  1.00  0.00     0.002 A 
ENDBRANCH   8   9
ENDBRANCH   6   8
ENDBRANCH   3   4
ENDBRANCH   2   3
ENDBRANCH   1   2
BRANCH   1  20
ATOM     20  C   UNL A   1      33.500  28.767  27.329  1.00  0.00     0.116 C 
BRANCH  20  21
ATOM     21  N   UNL A   1      33.560  30.174  27.690  1.00  0.00    -0.352 N 
ATOM     22  C   UNL A   1      34.575  30.893  28.275  1.00  0.00     0.251 C 
ATOM     23  H   UNL A   1      32.748  30.691  27.484  1.00  0.00     0.163 HD
ATOM     24  O   UNL A   1      34.372  32.048  28.641  1.00  0.00    -0.269 OA
BRANCH  22  25
ATOM     25  C   UNL A   1      35.904  30.280  28.497  1.00  0.00     0.039 A 
ATOM     26  C   UNL A   1      36.828  30.285  27.448  1.00  0.00     0.014 A 
ATOM     27  C   UNL A   1      36.240  29.686  29.716  1.00  0.00     0.014 A 
ATOM     28  C   UNL A   1      38.108  29.760  27.643  1.00  0.00     0.010 A 
ATOM     29  C   UNL A   1      37.540  29.231  29.933  1.00  0.00     0.010 A 
ATOM     30  C   UNL A   1      38.490  29.265  28.901  1.00  0.00    -0.014 A 
BRANCH  30  31
ATOM     31  C   UNL A   1      39.879  28.798  29.154  1.00  0.00     0.031 A 
ATOM     32  C   UNL A   1      40.893  29.714  29.783  1.00  0.00     0.074 A 
ATOM     33  C   UNL A   1      40.248  27.561  28.766  1.00  0.00     0.049 A 
ATOM     34  N   UNL A   1      42.161  29.497  30.030  1.00  0.00    -0.248 NA
ATOM     35  C   UNL A   1      40.429  31.057  30.162  1.00  0.00     0.031 C 
ATOM     36  C   UNL A   1      39.374  26.579  28.117  1.00  0.00     0.029 A 
ATOM     37  N   UNL A   1      41.457  26.917  28.857  1.00  0.00    -0.354 N 
ATOM     38  C   UNL A   1      42.647  30.678  30.581  1.00  0.00     0.074 A 
ATOM     39  C   UNL A   1      41.552  31.623  30.579  1.00  0.00     0.031 C 
ATOM     40  C   UNL A   1      40.068  25.452  27.895  1.00  0.00     0.029 A 
ATOM     41  C   UNL A   1      41.445  25.643  28.341  1.00  0.00     0.049 A 
ATOM     42  H   UNL A   1      42.258  27.329  29.255  1.00  0.00     0.167 HD
ATOM     43  C   UNL A   1      43.884  30.945  31.062  1.00  0.00     0.031 A 
ATOM     44  C   UNL A   1      42.429  24.731  28.227  1.00  0.00     0.031 A 
ATOM     45  C   UNL A   1      44.976  30.007  31.063  1.00  0.00     0.049 A 
ATOM     46  C   UNL A   1      43.805  25.065  28.736  1.00  0.00     0.074 A 
ATOM     47  C   UNL A   1      46.254  30.171  31.571  1.00  0.00     0.029 A 
ATOM     48  N   UNL A   1      44.921  28.731  30.524  1.00  0.00    -0.354 N 
ATOM     49  N   UNL A   1      44.228  26.164  29.312  1.00  0.00    -0.248 NA
ATOM     50  C   UNL A   1      44.834  24.026  28.588  1.00  0.00     0.031 C 
ATOM     51  C   UNL A   1      46.990  29.018  31.283  1.00  0.00     0.029 A 
ATOM     52  C   UNL A   1      46.152  28.108  30.660  1.00  0.00     0.049 A 
ATOM     53  H   UNL A   1      44.127  28.326  30.108  1.00  0.00     0.167 HD
ATOM     54  C   UNL A   1      45.564  25.938  29.623  1.00  0.00     0.074 A 
ATOM     55  C   UNL A   1      45.873  24.592  29.186  1.00  0.00     0.031 C 
ATOM     56  C   UNL A   1      46.452  26.770  30.218  1.00  0.00     0.031 A 
BRANCH  43  57
ATOM     57  C   UNL A   1      44.128  32.323  31.618  1.00  0.00    -0.014 A 
ATOM     58  C   UNL A   1      44.541  33.382  30.792  1.00  0.00     0.009 A 
ATOM     59  C   UNL A   1      43.910  32.575  32.982  1.00  0.00     0.009 A 
ATOM     60  C   UNL A   1      44.772  34.650  31.329  1.00  0.00     0.001 A 
ATOM     61  C   UNL A   1      44.108  33.853  33.508  1.00  0.00     0.001 A 
ATOM     62  C   UNL A   1      44.551  34.886  32.684  1.00  0.00     0.000 A 
ENDBRANCH  43  57
BRANCH  44  63
ATOM     63  C   UNL A   1      42.151  23.408  27.608  1.00  0.00    -0.014 A 
ATOM     64  C   UNL A   1      42.443  23.177  26.255  1.00  0.00     0.009 A 
ATOM     65  C   UNL A   1      41.585  22.371  28.366  1.00  0.00     0.009 A 
ATOM     66  C   UNL A   1      42.148  21.943  25.668  1.00  0.00     0.001 A 
ATOM     67  C   UNL A   1      41.322  21.128  27.783  1.00  0.00     0.001 A 
ATOM     68  C   UNL A   1      41.594  20.920  26.433  1.00  0.00     0.000 A 
ENDBRANCH  44  63
BRANCH  56  69
ATOM     69  C   UNL A   1      47.837  26.237  30.468  1.00  0.00    -0.014 A 
ATOM     70  C   UNL A   1      48.821  26.251  29.467  1.00  0.00     0.009 A 
ATOM     71  C   UNL A   1      48.172  25.750  31.742  1.00  0.00     0.009 A 
ATOM     72  C   UNL A   1      50.100  25.754  29.727  1.00  0.00     0.001 A 
ATOM     73  C   UNL A   1      49.461  25.285  32.008  1.00  0.00     0.001 A 
ATOM     74  C   UNL A   1      50.420  25.277  30.998  1.00  0.00     0.000 A 
ENDBRANCH  56  69
ENDBRANCH  30  31
ENDBRANCH  22  25
ENDBRANCH  20  21
ENDBRANCH   1  20
TORSDOF 12
ENDMDL
MODEL 3
REMARK VINA RESULT:     -10.8      1.854      7.711
REMARK SMILES O=C(C[C@H]1C(=O)Nc2ccccc21)NCCCCNC(=O)c1ccc(-c2c3nc(c(-c4ccccc4)c4ccc([nH]4)c(-c4ccccc4)c4nc(c(-c5ccccc5)c5ccc2[nH]5)C=C4)C=C3)cc1
REMARK SMILES IDX 17 1 16 2 15 3 14 4 1 5 2 6 3 8 4 9 5 10 13 11 6 12 7 13
REMARK SMILES IDX 8 14 12 15 9 17 11 18 10 19 18 20 19 21 20 22 21 24 22 25
REMARK SMILES IDX 23 26 69 27 24 28 68 29 25 30 26 31 27 32 62 33 28 34 67 35
REMARK SMILES IDX 61 36 63 37 29 38 66 39 60 40 59 41 30 43 52 44 37 45 51 46
REMARK SMILES IDX 38 47 41 48 50 49 64 50 39 51 40 52 49 54 65 55 42 56 31 57
REMARK SMILES IDX 32 58 36 59 33 60 35 61 34 62 53 63 54 64 58 65 55 66 57 67
REMARK SMILES IDX 56 68 43 69 44 70 48 71 45 72 47 73 46 74
REMARK H PARENT 14 7 7 16 19 23 63 42 41 53
REMARK Flexibility Score: inf
ROOT
ATOM      1  C   UNL A   1      37.753  19.608  24.972  1.00  0.00     0.023 C 
ENDROOT
BRANCH   1   2
ATOM      2  C   UNL A   1      36.488  20.473  25.001  1.00  0.00     0.023 C 
BRANCH   2   3
ATOM      3  C   UNL A   1      36.701  21.927  25.422  1.00  0.00     0.116 C 
BRANCH   3   4
ATOM      4  N   UNL A   1      35.526  22.483  26.060  1.00  0.00    -0.356 N 
ATOM      5  O   UNL A   1      35.466  24.429  24.856  1.00  0.00    -0.275 OA
ATOM      6  C   UNL A   1      34.964  23.681  25.686  1.00  0.00     0.221 C 
ATOM      7  H   UNL A   1      35.109  21.978  26.796  1.00  0.00     0.163 HD
BRANCH   6   8
ATOM      8  C   UNL A   1      33.684  24.041  26.426  1.00  0.00     0.118 C 
BRANCH   8   9
ATOM      9  C   UNL A   1      32.758  24.998  25.677  1.00  0.00     0.120 C 
ATOM     10  C   UNL A   1      31.272  24.682  25.932  1.00  0.00     0.232 C 
ATOM     11  C   UNL A   1      32.850  26.438  26.122  1.00  0.00    -0.011 A 
ATOM     12  O   UNL A   1      30.692  23.639  25.677  1.00  0.00    -0.274 OA
ATOM     13  N   UNL A   1      30.697  25.812  26.501  1.00  0.00    -0.325 N 
ATOM     14  C   UNL A   1      31.611  26.844  26.618  1.00  0.00     0.045 A 
ATOM     15  C   UNL A   1      33.931  27.302  26.127  1.00  0.00     0.007 A 
ATOM     16  H   UNL A   1      29.756  25.870  26.786  1.00  0.00     0.169 HD
ATOM     17  C   UNL A   1      31.403  28.096  27.154  1.00  0.00     0.026 A 
ATOM     18  C   UNL A   1      33.745  28.577  26.669  1.00  0.00     0.000 A 
ATOM     19  C   UNL A   1      32.494  28.969  27.181  1.00  0.00     0.002 A 
ENDBRANCH   8   9
ENDBRANCH   6   8
ENDBRANCH   3   4
ENDBRANCH   2   3
ENDBRANCH   1   2
BRANCH   1  20
ATOM     20  C   UNL A   1      38.954  20.178  25.720  1.00  0.00     0.116 C 
BRANCH  20  21
ATOM     21  N   UNL A   1      40.057  19.236  25.814  1.00  0.00    -0.352 N 
ATOM     22  C   UNL A   1      41.379  19.452  26.124  1.00  0.00     0.251 C 
ATOM     23  H   UNL A   1      39.821  18.299  25.625  1.00  0.00     0.163 HD
ATOM     24  O   UNL A   1      42.192  18.540  26.001  1.00  0.00    -0.269 OA
BRANCH  22  25
ATOM     25  C   UNL A   1      41.839  20.783  26.580  1.00  0.00     0.039 A 
ATOM     26  C   UNL A   1      42.274  21.706  25.624  1.00  0.00     0.014 A 
ATOM     27  C   UNL A   1      41.866  21.122  27.935  1.00  0.00     0.014 A 
ATOM     28  C   UNL A   1      42.667  22.988  26.019  1.00  0.00     0.010 A 
ATOM     29  C   UNL A   1      42.185  22.424  28.320  1.00  0.00     0.010 A 
ATOM     30  C   UNL A   1      42.587  23.372  27.367  1.00  0.00    -0.014 A 
BRANCH  30  31
ATOM     31  C   UNL A   1      42.903  24.762  27.790  1.00  0.00     0.031 A 
ATOM     32  C   UNL A   1      44.329  25.193  28.000  1.00  0.00     0.074 A 
ATOM     33  C   UNL A   1      41.900  25.628  28.041  1.00  0.00     0.049 A 
ATOM     34  N   UNL A   1      44.790  26.347  28.418  1.00  0.00    -0.248 NA
ATOM     35  C   UNL A   1      45.372  24.193  27.729  1.00  0.00     0.031 C 
ATOM     36  C   UNL A   1      40.472  25.332  27.908  1.00  0.00     0.029 A 
ATOM     37  N   UNL A   1      41.929  26.934  28.465  1.00  0.00    -0.354 N 
ATOM     38  C   UNL A   1      46.172  26.205  28.470  1.00  0.00     0.074 A 
ATOM     39  C   UNL A   1      46.469  24.840  28.096  1.00  0.00     0.031 C 
ATOM     40  C   UNL A   1      39.765  26.431  28.216  1.00  0.00     0.029 A 
ATOM     41  C   UNL A   1      40.683  27.493  28.613  1.00  0.00     0.049 A 
ATOM     42  H   UNL A   1      42.765  27.423  28.647  1.00  0.00     0.167 HD
ATOM     43  C   UNL A   1      47.110  27.132  28.781  1.00  0.00     0.031 A 
ATOM     44  C   UNL A   1      40.314  28.719  29.031  1.00  0.00     0.031 A 
ATOM     45  C   UNL A   1      46.818  28.490  29.156  1.00  0.00     0.049 A 
ATOM     46  C   UNL A   1      41.374  29.719  29.407  1.00  0.00     0.074 A 
ATOM     47  C   UNL A   1      47.704  29.515  29.444  1.00  0.00     0.029 A 
ATOM     48  N   UNL A   1      45.542  29.013  29.300  1.00  0.00    -0.354 N 
ATOM     49  N   UNL A   1      42.678  29.587  29.389  1.00  0.00    -0.248 NA
ATOM     50  C   UNL A   1      40.908  31.041  29.849  1.00  0.00     0.031 C 
ATOM     51  C   UNL A   1      46.963  30.639  29.824  1.00  0.00     0.029 A 
ATOM     52  C   UNL A   1      45.617  30.337  29.704  1.00  0.00     0.049 A 
ATOM     53  H   UNL A   1      44.706  28.518  29.139  1.00  0.00     0.167 HD
ATOM     54  C   UNL A   1      43.189  30.816  29.787  1.00  0.00     0.074 A 
ATOM     55  C   UNL A   1      42.054  31.684  30.023  1.00  0.00     0.031 C 
ATOM     56  C   UNL A   1      44.482  31.191  29.941  1.00  0.00     0.031 A 
BRANCH  43  57
ATOM     57  C   UNL A   1      48.551  26.697  28.744  1.00  0.00    -0.014 A 
ATOM     58  C   UNL A   1      49.178  26.148  29.875  1.00  0.00     0.009 A 
ATOM     59  C   UNL A   1      49.285  26.807  27.551  1.00  0.00     0.009 A 
ATOM     60  C   UNL A   1      50.519  25.760  29.824  1.00  0.00     0.001 A 
ATOM     61  C   UNL A   1      50.614  26.386  27.494  1.00  0.00     0.001 A 
ATOM     62  C   UNL A   1      51.234  25.875  28.633  1.00  0.00     0.000 A 
ENDBRANCH  43  57
BRANCH  44  63
ATOM     63  C   UNL A   1      38.873  29.076  29.114  1.00  0.00    -0.014 A 
ATOM     64  C   UNL A   1      38.186  29.542  27.983  1.00  0.00     0.009 A 
ATOM     65  C   UNL A   1      38.178  28.959  30.328  1.00  0.00     0.009 A 
ATOM     66  C   UNL A   1      36.841  29.910  28.074  1.00  0.00     0.001 A 
ATOM     67  C   UNL A   1      36.825  29.296  30.407  1.00  0.00     0.001 A 
ATOM     68  C   UNL A   1      36.161  29.781  29.282  1.00  0.00     0.000 A 
ENDBRANCH  44  63
BRANCH  56  69
ATOM     69  C   UNL A   1      44.744  32.616  30.350  1.00  0.00    -0.014 A 
ATOM     70  C   UNL A   1      44.867  33.641  29.400  1.00  0.00     0.009 A 
ATOM     71  C   UNL A   1      44.828  32.940  31.714  1.00  0.00     0.009 A 
ATOM     72  C   UNL A   1      45.105  34.957  29.807  1.00  0.00     0.001 A 
ATOM     73  C   UNL A   1      45.033  34.260  32.119  1.00  0.00     0.001 A 
ATOM     74  C   UNL A   1      45.183  35.264  31.166  1.00  0.00     0.000 A 
ENDBRANCH  56  69
ENDBRANCH  30  31
ENDBRANCH  22  25
ENDBRANCH  20  21
ENDBRANCH   1  20
TORSDOF 12
ENDMDL
