MODEL 1
REMARK VINA RESULT:     -11.7      0.000      0.000
REMARK SMILES O=C(NCCCCNC(=O)c1cccc(Nc2nc(-c3ccc(F)cc3F)cs2)c1)c1ccc(-c2c3nc(c(-c4ccccc4)c4ccc([nH]4)c(-c4ccccc4)c4nc(c(-c5ccccc5)c5ccc2[nH]5)C=C4)C=C3)cc1
REMARK SMILES IDX 6 1 5 2 4 3 3 4 1 5 2 6 31 8 32 9 78 10 33 11 77 12 34 13
REMARK SMILES IDX 35 14 36 15 71 16 37 17 76 18 70 19 72 20 38 21 75 22 69 23
REMARK SMILES IDX 68 24 39 26 61 27 46 28 60 29 47 30 50 31 59 32 73 33 48 34
REMARK SMILES IDX 49 35 58 37 74 38 51 39 40 40 41 41 45 42 42 43 44 44 43 45
REMARK SMILES IDX 62 46 63 47 67 48 64 49 66 50 65 51 52 52 53 53 57 54 54 55
REMARK SMILES IDX 56 56 55 57 7 58 8 59 9 60 10 62 11 63 12 64 30 65 13 66
REMARK SMILES IDX 15 67 14 68 16 69 17 71 18 72 29 73 19 74 28 75 20 76 21 77
REMARK SMILES IDX 26 78 22 79 25 80 27 81 23 82 24 83
REMARK H PARENT 3 7 72 25 50 36 8 61 16 70
REMARK Flexibility Score: inf
ROOT
ATOM      1  C   UNL A   1      33.287  29.284  24.602  1.00  0.00     0.023 C 
ENDROOT
BRANCH   1   2
ATOM      2  C   UNL A   1      33.423  28.029  25.463  1.00  0.00     0.023 C 
BRANCH   2   3
ATOM      3  C   UNL A   1      33.898  28.273  26.889  1.00  0.00     0.116 C 
BRANCH   3   4
ATOM      4  N   UNL A   1      33.765  29.663  27.299  1.00  0.00    -0.352 N 
ATOM      5  O   UNL A   1      34.300  31.571  28.378  1.00  0.00    -0.269 OA
ATOM      6  C   UNL A   1      34.648  30.460  27.985  1.00  0.00     0.251 C 
ATOM      7  H   UNL A   1      32.917  30.095  27.048  1.00  0.00     0.163 HD
BRANCH   6   8
ATOM      8  C   UNL A   1      36.010  29.971  28.277  1.00  0.00     0.039 A 
ATOM      9  C   UNL A   1      36.323  29.418  29.521  1.00  0.00     0.014 A 
ATOM     10  C   UNL A   1      36.991  30.070  27.286  1.00  0.00     0.014 A 
ATOM     11  C   UNL A   1      37.643  29.105  29.828  1.00  0.00     0.010 A 
ATOM     12  C   UNL A   1      38.299  29.672  27.566  1.00  0.00     0.010 A 
ATOM     13  C   UNL A   1      38.643  29.219  28.850  1.00  0.00    -0.014 A 
BRANCH  13  14
ATOM     14  C   UNL A   1      40.038  28.824  29.164  1.00  0.00     0.031 A 
ATOM     15  C   UNL A   1      40.971  29.773  29.863  1.00  0.00     0.074 A 
ATOM     16  C   UNL A   1      40.470  27.603  28.796  1.00  0.00     0.049 A 
ATOM     17  N   UNL A   1      42.238  29.618  30.156  1.00  0.00    -0.248 NA
ATOM     18  C   UNL A   1      40.410  31.068  30.280  1.00  0.00     0.031 C 
ATOM     19  C   UNL A   1      39.658  26.589  28.120  1.00  0.00     0.029 A 
ATOM     20  N   UNL A   1      41.698  27.010  28.934  1.00  0.00    -0.354 N 
ATOM     21  C   UNL A   1      42.633  30.801  30.767  1.00  0.00     0.074 A 
ATOM     22  C   UNL A   1      41.478  31.674  30.778  1.00  0.00     0.031 C 
ATOM     23  C   UNL A   1      40.403  25.492  27.923  1.00  0.00     0.029 A 
ATOM     24  C   UNL A   1      41.759  25.750  28.392  1.00  0.00     0.049 A 
ATOM     25  H   UNL A   1      42.462  27.445  29.377  1.00  0.00     0.167 HD
ATOM     26  C   UNL A   1      43.847  31.129  31.272  1.00  0.00     0.031 A 
ATOM     27  C   UNL A   1      42.797  24.905  28.253  1.00  0.00     0.031 A 
ATOM     28  C   UNL A   1      44.997  30.261  31.243  1.00  0.00     0.049 A 
ATOM     29  C   UNL A   1      44.147  25.314  28.765  1.00  0.00     0.074 A 
ATOM     30  C   UNL A   1      46.263  30.490  31.753  1.00  0.00     0.029 A 
ATOM     31  N   UNL A   1      45.023  29.002  30.661  1.00  0.00    -0.354 N 
ATOM     32  N   UNL A   1      44.499  26.423  29.367  1.00  0.00    -0.248 NA
ATOM     33  C   UNL A   1      45.242  24.351  28.581  1.00  0.00     0.031 C 
ATOM     34  C   UNL A   1      47.072  29.398  31.422  1.00  0.00     0.029 A 
ATOM     35  C   UNL A   1      46.290  28.455  30.773  1.00  0.00     0.049 A 
ATOM     36  H   UNL A   1      44.253  28.562  30.233  1.00  0.00     0.167 HD
ATOM     37  C   UNL A   1      45.848  26.281  29.664  1.00  0.00     0.074 A 
ATOM     38  C   UNL A   1      46.247  24.974  29.182  1.00  0.00     0.031 C 
ATOM     39  C   UNL A   1      46.676  27.153  30.288  1.00  0.00     0.031 A 
BRANCH  26  40
ATOM     40  C   UNL A   1      44.006  32.508  31.856  1.00  0.00    -0.014 A 
ATOM     41  C   UNL A   1      44.424  33.596  31.073  1.00  0.00     0.009 A 
ATOM     42  C   UNL A   1      43.712  32.726  33.211  1.00  0.00     0.009 A 
ATOM     43  C   UNL A   1      44.590  34.860  31.647  1.00  0.00     0.001 A 
ATOM     44  C   UNL A   1      43.848  33.996  33.775  1.00  0.00     0.001 A 
ATOM     45  C   UNL A   1      44.300  35.059  32.996  1.00  0.00     0.000 A 
ENDBRANCH  26  40
BRANCH  27  46
ATOM     46  C   UNL A   1      42.588  23.595  27.585  1.00  0.00    -0.014 A 
ATOM     47  C   UNL A   1      42.250  22.457  28.332  1.00  0.00     0.009 A 
ATOM     48  C   UNL A   1      42.692  23.486  26.188  1.00  0.00     0.009 A 
ATOM     49  C   UNL A   1      42.035  21.233  27.694  1.00  0.00     0.001 A 
ATOM     50  C   UNL A   1      42.446  22.269  25.551  1.00  0.00     0.001 A 
ATOM     51  C   UNL A   1      42.126  21.142  26.305  1.00  0.00     0.000 A 
ENDBRANCH  27  46
BRANCH  39  52
ATOM     52  C   UNL A   1      48.090  26.705  30.537  1.00  0.00    -0.014 A 
ATOM     53  C   UNL A   1      49.127  27.004  29.640  1.00  0.00     0.009 A 
ATOM     54  C   UNL A   1      48.395  26.015  31.722  1.00  0.00     0.009 A 
ATOM     55  C   UNL A   1      50.435  26.597  29.914  1.00  0.00     0.001 A 
ATOM     56  C   UNL A   1      49.707  25.638  32.007  1.00  0.00     0.001 A 
ATOM     57  C   UNL A   1      50.725  25.922  31.099  1.00  0.00     0.000 A 
ENDBRANCH  39  52
ENDBRANCH  13  14
ENDBRANCH   6   8
ENDBRANCH   3   4
ENDBRANCH   2   3
ENDBRANCH   1   2
BRANCH   1  58
ATOM     58  C   UNL A   1      33.287  29.040  23.096  1.00  0.00     0.116 C 
BRANCH  58  59
ATOM     59  N   UNL A   1      32.076  29.524  22.452  1.00  0.00    -0.352 N 
ATOM     60  C   UNL A   1      30.894  28.864  22.235  1.00  0.00     0.251 C 
ATOM     61  H   UNL A   1      32.110  30.454  22.128  1.00  0.00     0.163 HD
ATOM     62  O   UNL A   1      30.021  29.371  21.536  1.00  0.00    -0.269 OA
BRANCH  60  63
ATOM     63  C   UNL A   1      30.680  27.532  22.831  1.00  0.00     0.041 A 
ATOM     64  C   UNL A   1      29.797  27.408  23.903  1.00  0.00     0.014 A 
ATOM     65  C   UNL A   1      31.366  26.412  22.342  1.00  0.00     0.040 A 
ATOM     66  C   UNL A   1      29.539  26.145  24.428  1.00  0.00     0.003 A 
ATOM     67  C   UNL A   1      31.128  25.138  22.871  1.00  0.00     0.041 A 
ATOM     68  C   UNL A   1      30.178  25.021  23.895  1.00  0.00     0.026 A 
BRANCH  67  69
ATOM     69  N   UNL A   1      31.834  24.047  22.335  1.00  0.00    -0.332 N 
ATOM     70  H   UNL A   1      31.662  23.835  21.389  1.00  0.00     0.169 HD
BRANCH  69  71
ATOM     71  C   UNL A   1      32.724  23.256  22.975  1.00  0.00     0.187 A 
ATOM     72  N   UNL A   1      33.928  23.589  23.389  1.00  0.00    -0.220 NA
ATOM     73  S   UNL A   1      32.276  21.619  23.313  1.00  0.00    -0.105 S 
ATOM     74  C   UNL A   1      34.540  22.511  23.998  1.00  0.00     0.086 A 
ATOM     75  C   UNL A   1      33.827  21.332  23.971  1.00  0.00     0.097 A 
BRANCH  74  76
ATOM     76  C   UNL A   1      35.834  22.619  24.639  1.00  0.00     0.037 A 
ATOM     77  C   UNL A   1      36.761  21.572  24.553  1.00  0.00     0.016 A 
ATOM     78  C   UNL A   1      36.145  23.747  25.408  1.00  0.00     0.135 A 
ATOM     79  C   UNL A   1      37.971  21.655  25.247  1.00  0.00     0.040 A 
ATOM     80  C   UNL A   1      37.348  23.834  26.101  1.00  0.00     0.079 A 
ATOM     81  F   UNL A   1      35.267  24.754  25.531  1.00  0.00    -0.206 F 
ATOM     82  C   UNL A   1      38.249  22.782  26.018  1.00  0.00     0.126 A 
ATOM     83  F   UNL A   1      39.401  22.845  26.698  1.00  0.00    -0.207 F 
ENDBRANCH  74  76
ENDBRANCH  69  71
ENDBRANCH  67  69
ENDBRANCH  60  63
ENDBRANCH  58  59
ENDBRANCH   1  58
TORSDOF 14
ENDMDL
MODEL 2
REMARK VINA RESULT:     -11.6      3.061      7.993
REMARK SMILES O=C(NCCCCNC(=O)c1cccc(Nc2nc(-c3ccc(F)cc3F)cs2)c1)c1ccc(-c2c3nc(c(-c4ccccc4)c4ccc([nH]4)c(-c4ccccc4)c4nc(c(-c5ccccc5)c5ccc2[nH]5)C=C4)C=C3)cc1
REMARK SMILES IDX 6 1 5 2 4 3 3 4 1 5 2 6 31 8 32 9 78 10 33 11 77 12 34 13
REMARK SMILES IDX 35 14 36 15 71 16 37 17 76 18 70 19 72 20 38 21 75 22 69 23
REMARK SMILES IDX 68 24 39 26 61 27 46 28 60 29 47 30 50 31 59 32 73 33 48 34
REMARK SMILES IDX 49 35 58 37 74 38 51 39 40 40 41 41 45 42 42 43 44 44 43 45
REMARK SMILES IDX 62 46 63 47 67 48 64 49 66 50 65 51 52 52 53 53 57 54 54 55
REMARK SMILES IDX 56 56 55 57 7 58 8 59 9 60 10 62 11 63 12 64 30 65 13 66
REMARK SMILES IDX 15 67 14 68 16 69 17 71 18 72 29 73 19 74 28 75 20 76 21 77
REMARK SMILES IDX 26 78 22 79 25 80 27 81 23 82 24 83
REMARK H PARENT 3 7 72 25 50 36 8 61 16 70
REMARK Flexibility Score: inf
ROOT
ATOM      1  C   UNL A   1      35.480  21.557  26.075  1.00  0.00     0.023 C 
ENDROOT
BRANCH   1   2
ATOM      2  C   UNL A   1      35.457  22.977  25.513  1.00  0.00     0.023 C 
BRANCH   2   3
ATOM      3  C   UNL A   1      36.777  23.730  25.608  1.00  0.00     0.116 C 
BRANCH   3   4
ATOM      4  N   UNL A   1      37.925  22.845  25.729  1.00  0.00    -0.352 N 
ATOM      5  O   UNL A   1      40.068  22.265  26.128  1.00  0.00    -0.269 OA
ATOM      6  C   UNL A   1      39.171  23.095  26.250  1.00  0.00     0.251 C 
ATOM      7  H   UNL A   1      37.789  21.932  25.386  1.00  0.00     0.163 HD
BRANCH   6   8
ATOM      8  C   UNL A   1      39.442  24.376  26.932  1.00  0.00     0.039 A 
ATOM      9  C   UNL A   1      40.150  25.395  26.291  1.00  0.00     0.014 A 
ATOM     10  C   UNL A   1      38.977  24.557  28.238  1.00  0.00     0.014 A 
ATOM     11  C   UNL A   1      40.525  26.531  27.002  1.00  0.00     0.010 A 
ATOM     12  C   UNL A   1      39.279  25.736  28.921  1.00  0.00     0.010 A 
ATOM     13  C   UNL A   1      40.085  26.718  28.321  1.00  0.00    -0.014 A 
BRANCH  13  14
ATOM     14  C   UNL A   1      40.435  27.960  29.052  1.00  0.00     0.031 A 
ATOM     15  C   UNL A   1      41.759  28.097  29.751  1.00  0.00     0.074 A 
ATOM     16  C   UNL A   1      39.541  28.964  29.101  1.00  0.00     0.049 A 
ATOM     17  N   UNL A   1      42.203  29.082  30.491  1.00  0.00    -0.248 NA
ATOM     18  C   UNL A   1      42.703  26.977  29.609  1.00  0.00     0.031 C 
ATOM     19  C   UNL A   1      38.227  28.956  28.455  1.00  0.00     0.029 A 
ATOM     20  N   UNL A   1      39.598  30.185  29.723  1.00  0.00    -0.354 N 
ATOM     21  C   UNL A   1      43.465  28.694  30.921  1.00  0.00     0.074 A 
ATOM     22  C   UNL A   1      43.704  27.371  30.384  1.00  0.00     0.031 C 
ATOM     23  C   UNL A   1      37.612  30.123  28.696  1.00  0.00     0.029 A 
ATOM     24  C   UNL A   1      38.456  30.930  29.569  1.00  0.00     0.049 A 
ATOM     25  H   UNL A   1      40.382  30.496  30.232  1.00  0.00     0.167 HD
ATOM     26  C   UNL A   1      44.343  29.377  31.696  1.00  0.00     0.031 A 
ATOM     27  C   UNL A   1      38.106  32.117  30.097  1.00  0.00     0.031 A 
ATOM     28  C   UNL A   1      44.092  30.687  32.241  1.00  0.00     0.049 A 
ATOM     29  C   UNL A   1      39.070  32.828  31.001  1.00  0.00     0.074 A 
ATOM     30  C   UNL A   1      44.929  31.474  33.014  1.00  0.00     0.029 A 
ATOM     31  N   UNL A   1      42.911  31.397  32.082  1.00  0.00    -0.354 N 
ATOM     32  N   UNL A   1      40.272  32.463  31.376  1.00  0.00    -0.248 NA
ATOM     33  C   UNL A   1      38.631  34.118  31.551  1.00  0.00     0.031 C 
ATOM     34  C   UNL A   1      44.230  32.630  33.376  1.00  0.00     0.029 A 
ATOM     35  C   UNL A   1      42.985  32.598  32.767  1.00  0.00     0.049 A 
ATOM     36  H   UNL A   1      42.135  31.091  31.559  1.00  0.00     0.167 HD
ATOM     37  C   UNL A   1      40.746  33.491  32.180  1.00  0.00     0.074 A 
ATOM     38  C   UNL A   1      39.705  34.497  32.231  1.00  0.00     0.031 C 
ATOM     39  C   UNL A   1      41.941  33.593  32.810  1.00  0.00     0.031 A 
BRANCH  26  40
ATOM     40  C   UNL A   1      45.641  28.695  32.039  1.00  0.00    -0.014 A 
ATOM     41  C   UNL A   1      45.766  27.876  33.173  1.00  0.00     0.009 A 
ATOM     42  C   UNL A   1      46.755  28.860  31.200  1.00  0.00     0.009 A 
ATOM     43  C   UNL A   1      46.991  27.278  33.484  1.00  0.00     0.001 A 
ATOM     44  C   UNL A   1      47.968  28.235  31.495  1.00  0.00     0.001 A 
ATOM     45  C   UNL A   1      48.089  27.457  32.644  1.00  0.00     0.000 A 
ENDBRANCH  26  40
BRANCH  27  46
ATOM     46  C   UNL A   1      36.772  32.690  29.787  1.00  0.00    -0.014 A 
ATOM     47  C   UNL A   1      35.654  32.358  30.566  1.00  0.00     0.009 A 
ATOM     48  C   UNL A   1      36.618  33.600  28.728  1.00  0.00     0.009 A 
ATOM     49  C   UNL A   1      34.405  32.916  30.281  1.00  0.00     0.001 A 
ATOM     50  C   UNL A   1      35.376  34.180  28.467  1.00  0.00     0.001 A 
ATOM     51  C   UNL A   1      34.269  33.832  29.238  1.00  0.00     0.000 A 
ENDBRANCH  27  46
BRANCH  39  52
ATOM     52  C   UNL A   1      42.216  34.861  33.570  1.00  0.00    -0.014 A 
ATOM     53  C   UNL A   1      41.886  34.993  34.927  1.00  0.00     0.009 A 
ATOM     54  C   UNL A   1      42.867  35.924  32.923  1.00  0.00     0.009 A 
ATOM     55  C   UNL A   1      42.179  36.175  35.612  1.00  0.00     0.001 A 
ATOM     56  C   UNL A   1      43.186  37.090  33.617  1.00  0.00     0.001 A 
ATOM     57  C   UNL A   1      42.834  37.219  34.959  1.00  0.00     0.000 A 
ENDBRANCH  39  52
ENDBRANCH  13  14
ENDBRANCH   6   8
ENDBRANCH   3   4
ENDBRANCH   2   3
ENDBRANCH   1   2
BRANCH   1  58
ATOM     58  C   UNL A   1      35.391  20.445  25.033  1.00  0.00     0.116 C 
BRANCH  58  59
ATOM     59  N   UNL A   1      34.369  19.461  25.353  1.00  0.00    -0.352 N 
ATOM     60  C   UNL A   1      33.008  19.553  25.203  1.00  0.00     0.251 C 
ATOM     61  H   UNL A   1      34.699  18.613  25.728  1.00  0.00     0.163 HD
ATOM     62  O   UNL A   1      32.274  18.686  25.668  1.00  0.00    -0.269 OA
BRANCH  60  63
ATOM     63  C   UNL A   1      32.427  20.709  24.494  1.00  0.00     0.041 A 
ATOM     64  C   UNL A   1      32.548  20.779  23.108  1.00  0.00     0.014 A 
ATOM     65  C   UNL A   1      31.780  21.730  25.204  1.00  0.00     0.040 A 
ATOM     66  C   UNL A   1      31.945  21.831  22.425  1.00  0.00     0.003 A 
ATOM     67  C   UNL A   1      31.183  22.803  24.532  1.00  0.00     0.041 A 
ATOM     68  C   UNL A   1      31.246  22.815  23.132  1.00  0.00     0.026 A 
BRANCH  67  69
ATOM     69  N   UNL A   1      30.535  23.793  25.291  1.00  0.00    -0.332 N 
ATOM     70  H   UNL A   1      29.873  23.479  25.948  1.00  0.00     0.169 HD
BRANCH  69  71
ATOM     71  C   UNL A   1      30.723  25.131  25.219  1.00  0.00     0.187 A 
ATOM     72  N   UNL A   1      31.535  25.859  25.955  1.00  0.00    -0.220 NA
ATOM     73  S   UNL A   1      29.823  26.025  24.042  1.00  0.00    -0.105 S 
ATOM     74  C   UNL A   1      31.448  27.188  25.590  1.00  0.00     0.086 A 
ATOM     75  C   UNL A   1      30.505  27.478  24.628  1.00  0.00     0.097 A 
BRANCH  74  76
ATOM     76  C   UNL A   1      32.305  28.204  26.164  1.00  0.00     0.037 A 
ATOM     77  C   UNL A   1      31.780  29.443  26.554  1.00  0.00     0.016 A 
ATOM     78  C   UNL A   1      33.684  27.980  26.275  1.00  0.00     0.135 A 
ATOM     79  C   UNL A   1      32.634  30.443  27.028  1.00  0.00     0.040 A 
ATOM     80  C   UNL A   1      34.537  28.973  26.746  1.00  0.00     0.079 A 
ATOM     81  F   UNL A   1      34.220  26.813  25.885  1.00  0.00    -0.206 F 
ATOM     82  C   UNL A   1      34.002  30.199  27.113  1.00  0.00     0.126 A 
ATOM     83  F   UNL A   1      34.817  31.170  27.547  1.00  0.00    -0.207 F 
ENDBRANCH  74  76
ENDBRANCH  69  71
ENDBRANCH  67  69
ENDBRANCH  60  63
ENDBRANCH  58  59
ENDBRANCH   1  58
TORSDOF 14
ENDMDL
MODEL 3
REMARK VINA RESULT:     -11.3      1.693      2.377
REMARK SMILES O=C(NCCCCNC(=O)c1cccc(Nc2nc(-c3ccc(F)cc3F)cs2)c1)c1ccc(-c2c3nc(c(-c4ccccc4)c4ccc([nH]4)c(-c4ccccc4)c4nc(c(-c5ccccc5)c5ccc2[nH]5)C=C4)C=C3)cc1
REMARK SMILES IDX 6 1 5 2 4 3 3 4 1 5 2 6 31 8 32 9 78 10 33 11 77 12 34 13
REMARK SMILES IDX 35 14 36 15 71 16 37 17 76 18 70 19 72 20 38 21 75 22 69 23
REMARK SMILES IDX 68 24 39 26 61 27 46 28 60 29 47 30 50 31 59 32 73 33 48 34
REMARK SMILES IDX 49 35 58 37 74 38 51 39 40 40 41 41 45 42 42 43 44 44 43 45
REMARK SMILES IDX 62 46 63 47 67 48 64 49 66 50 65 51 52 52 53 53 57 54 54 55
REMARK SMILES IDX 56 56 55 57 7 58 8 59 9 60 10 62 11 63 12 64 30 65 13 66
REMARK SMILES IDX 15 67 14 68 16 69 17 71 18 72 29 73 19 74 28 75 20 76 21 77
REMARK SMILES IDX 26 78 22 79 25 80 27 81 23 82 24 83
REMARK H PARENT 3 7 72 25 50 36 8 61 16 70
REMARK Flexibility Score: inf
ROOT
ATOM      1  C   UNL A   1      32.628  29.499  25.030  1.00  0.00     0.023 C 
ENDROOT
BRANCH   1   2
ATOM      2  C   UNL A   1      32.978  28.256  25.846  1.00  0.00     0.023 C 
BRANCH   2   3
ATOM      3  C   UNL A   1      33.680  28.529  27.170  1.00  0.00     0.116 C 
BRANCH   3   4
ATOM      4  N   UNL A   1      33.620  29.929  27.563  1.00  0.00    -0.352 N 
ATOM      5  O   UNL A   1      34.275  31.829  28.587  1.00  0.00    -0.269 OA
ATOM      6  C   UNL A   1      34.562  30.700  28.198  1.00  0.00     0.251 C 
ATOM      7  H   UNL A   1      32.780  30.392  27.340  1.00  0.00     0.163 HD
BRANCH   6   8
ATOM      8  C   UNL A   1      35.915  30.160  28.442  1.00  0.00     0.039 A 
ATOM      9  C   UNL A   1      36.265  29.636  29.688  1.00  0.00     0.014 A 
ATOM     10  C   UNL A   1      36.848  30.181  27.401  1.00  0.00     0.014 A 
ATOM     11  C   UNL A   1      37.584  29.275  29.941  1.00  0.00     0.010 A 
ATOM     12  C   UNL A   1      38.149  29.735  27.631  1.00  0.00     0.010 A 
ATOM     13  C   UNL A   1      38.538  29.310  28.913  1.00  0.00    -0.014 A 
BRANCH  13  14
ATOM     14  C   UNL A   1      39.928  28.863  29.172  1.00  0.00     0.031 A 
ATOM     15  C   UNL A   1      40.929  29.785  29.812  1.00  0.00     0.074 A 
ATOM     16  C   UNL A   1      40.294  27.620  28.809  1.00  0.00     0.049 A 
ATOM     17  N   UNL A   1      42.200  29.584  30.052  1.00  0.00    -0.248 NA
ATOM     18  C   UNL A   1      40.440  31.109  30.228  1.00  0.00     0.031 C 
ATOM     19  C   UNL A   1      39.413  26.628  28.189  1.00  0.00     0.029 A 
ATOM     20  N   UNL A   1      41.502  26.979  28.904  1.00  0.00    -0.354 N 
ATOM     21  C   UNL A   1      42.669  30.760  30.623  1.00  0.00     0.074 A 
ATOM     22  C   UNL A   1      41.553  31.680  30.667  1.00  0.00     0.031 C 
ATOM     23  C   UNL A   1      40.103  25.499  27.980  1.00  0.00     0.029 A 
ATOM     24  C   UNL A   1      41.488  25.709  28.384  1.00  0.00     0.049 A 
ATOM     25  H   UNL A   1      42.302  27.390  29.306  1.00  0.00     0.167 HD
ATOM     26  C   UNL A   1      43.918  31.046  31.067  1.00  0.00     0.031 A 
ATOM     27  C   UNL A   1      42.483  24.819  28.217  1.00  0.00     0.031 A 
ATOM     28  C   UNL A   1      45.029  30.131  31.005  1.00  0.00     0.049 A 
ATOM     29  C   UNL A   1      43.871  25.181  28.661  1.00  0.00     0.074 A 
ATOM     30  C   UNL A   1      46.325  30.317  31.454  1.00  0.00     0.029 A 
ATOM     31  N   UNL A   1      44.978  28.862  30.447  1.00  0.00    -0.354 N 
ATOM     32  N   UNL A   1      44.294  26.285  29.226  1.00  0.00    -0.248 NA
ATOM     33  C   UNL A   1      44.916  24.171  28.448  1.00  0.00     0.031 C 
ATOM     34  C   UNL A   1      47.074  29.187  31.108  1.00  0.00     0.029 A 
ATOM     35  C   UNL A   1      46.226  28.266  30.513  1.00  0.00     0.049 A 
ATOM     36  H   UNL A   1      44.173  28.447  30.061  1.00  0.00     0.167 HD
ATOM     37  C   UNL A   1      45.647  26.093  29.466  1.00  0.00     0.074 A 
ATOM     38  C   UNL A   1      45.972  24.763  28.991  1.00  0.00     0.031 C 
ATOM     39  C   UNL A   1      46.537  26.941  30.036  1.00  0.00     0.031 A 
BRANCH  26  40
ATOM     40  C   UNL A   1      44.157  32.427  31.618  1.00  0.00    -0.014 A 
ATOM     41  C   UNL A   1      44.552  33.492  30.791  1.00  0.00     0.009 A 
ATOM     42  C   UNL A   1      43.966  32.672  32.986  1.00  0.00     0.009 A 
ATOM     43  C   UNL A   1      44.796  34.757  31.332  1.00  0.00     0.001 A 
ATOM     44  C   UNL A   1      44.178  33.945  33.520  1.00  0.00     0.001 A 
ATOM     45  C   UNL A   1      44.606  34.983  32.695  1.00  0.00     0.000 A 
ENDBRANCH  26  40
BRANCH  27  46
ATOM     46  C   UNL A   1      42.192  23.508  27.583  1.00  0.00    -0.014 A 
ATOM     47  C   UNL A   1      42.410  23.313  26.212  1.00  0.00     0.009 A 
ATOM     48  C   UNL A   1      41.726  22.433  28.358  1.00  0.00     0.009 A 
ATOM     49  C   UNL A   1      42.153  22.071  25.626  1.00  0.00     0.001 A 
ATOM     50  C   UNL A   1      41.501  21.185  27.776  1.00  0.00     0.001 A 
ATOM     51  C   UNL A   1      41.707  21.006  26.410  1.00  0.00     0.000 A 
ENDBRANCH  27  46
BRANCH  39  52
ATOM     52  C   UNL A   1      47.942  26.440  30.232  1.00  0.00    -0.014 A 
ATOM     53  C   UNL A   1      48.947  26.673  29.281  1.00  0.00     0.009 A 
ATOM     54  C   UNL A   1      48.274  25.766  31.419  1.00  0.00     0.009 A 
ATOM     55  C   UNL A   1      50.249  26.218  29.504  1.00  0.00     0.001 A 
ATOM     56  C   UNL A   1      49.580  25.341  31.653  1.00  0.00     0.001 A 
ATOM     57  C   UNL A   1      50.565  25.559  30.692  1.00  0.00     0.000 A 
ENDBRANCH  39  52
ENDBRANCH  13  14
ENDBRANCH   6   8
ENDBRANCH   3   4
ENDBRANCH   2   3
ENDBRANCH   1   2
BRANCH   1  58
ATOM     58  C   UNL A   1      31.147  29.863  25.006  1.00  0.00     0.116 C 
BRANCH  58  59
ATOM     59  N   UNL A   1      30.659  30.125  23.661  1.00  0.00    -0.352 N 
ATOM     60  C   UNL A   1      30.289  29.231  22.689  1.00  0.00     0.251 C 
ATOM     61  H   UNL A   1      30.584  31.076  23.415  1.00  0.00     0.163 HD
ATOM     62  O   UNL A   1      30.045  29.620  21.551  1.00  0.00    -0.269 OA
BRANCH  60  63
ATOM     63  C   UNL A   1      30.201  27.794  23.013  1.00  0.00     0.041 A 
ATOM     64  C   UNL A   1      29.148  27.347  23.809  1.00  0.00     0.014 A 
ATOM     65  C   UNL A   1      31.169  26.897  22.543  1.00  0.00     0.040 A 
ATOM     66  C   UNL A   1      29.020  25.985  24.064  1.00  0.00     0.003 A 
ATOM     67  C   UNL A   1      31.062  25.525  22.804  1.00  0.00     0.041 A 
ATOM     68  C   UNL A   1      29.954  25.084  23.540  1.00  0.00     0.026 A 
BRANCH  67  69
ATOM     69  N   UNL A   1      32.054  24.666  22.299  1.00  0.00    -0.332 N 
ATOM     70  H   UNL A   1      32.341  24.827  21.372  1.00  0.00     0.169 HD
BRANCH  69  71
ATOM     71  C   UNL A   1      32.658  23.645  22.948  1.00  0.00     0.187 A 
ATOM     72  N   UNL A   1      32.155  22.454  23.196  1.00  0.00    -0.220 NA
ATOM     73  S   UNL A   1      34.270  23.880  23.529  1.00  0.00    -0.105 S 
ATOM     74  C   UNL A   1      33.071  21.682  23.883  1.00  0.00     0.086 A 
ATOM     75  C   UNL A   1      34.243  22.320  24.228  1.00  0.00     0.097 A 
BRANCH  74  76
ATOM     76  C   UNL A   1      32.825  20.291  24.200  1.00  0.00     0.037 A 
ATOM     77  C   UNL A   1      33.055  19.803  25.493  1.00  0.00     0.016 A 
ATOM     78  C   UNL A   1      32.416  19.404  23.196  1.00  0.00     0.135 A 
ATOM     79  C   UNL A   1      32.893  18.441  25.762  1.00  0.00     0.040 A 
ATOM     80  C   UNL A   1      32.254  18.047  23.460  1.00  0.00     0.079 A 
ATOM     81  F   UNL A   1      32.213  19.836  21.942  1.00  0.00    -0.206 F 
ATOM     82  C   UNL A   1      32.501  17.578  24.742  1.00  0.00     0.126 A 
ATOM     83  F   UNL A   1      32.371  16.271  25.001  1.00  0.00    -0.207 F 
ENDBRANCH  74  76
ENDBRANCH  69  71
ENDBRANCH  67  69
ENDBRANCH  60  63
ENDBRANCH  58  59
ENDBRANCH   1  58
TORSDOF 14
ENDMDL
