MODEL 1
REMARK VINA RESULT:     -12.7      0.000      0.000
REMARK SMILES O=C(NCCCCNC(=O)c1ccc(-c2c3nc(c(-c4ccccc4)c4ccc([nH]4)c(-c4ccccc4)c4nc(c(-c5ccccc5)c5ccc2[nH]5)C=C4)C=C3)cc1)C1=Cc2cc(Cl)cc(-c3ccc(O)cc3)c2O[C@@H]1C(F)(F)F
REMARK SMILES IDX 5 1 4 2 3 3 1 4 2 5 59 7 60 8 76 9 61 10 75 11 62 12 74 13
REMARK SMILES IDX 63 14 66 15 64 16 65 17 77 18 78 19 79 20 80 21 67 22 68 23
REMARK SMILES IDX 73 24 69 25 72 26 70 27 71 28 6 30 7 31 8 32 9 33 10 35
REMARK SMILES IDX 11 36 12 37 58 38 13 39 57 40 14 41 15 42 16 43 51 44 17 45
REMARK SMILES IDX 56 46 50 47 52 48 18 49 55 50 49 51 48 52 19 54 41 55 26 56
REMARK SMILES IDX 40 57 27 58 30 59 39 60 53 61 28 62 29 63 38 65 54 66 31 67
REMARK SMILES IDX 20 68 21 69 25 70 22 71 24 72 23 73 42 74 43 75 47 76 44 77
REMARK SMILES IDX 46 78 45 79 32 80 33 81 37 82 34 83 36 84 35 85
REMARK H PARENT 3 6 71 29 8 34 52 53 30 64
REMARK Flexibility Score: inf
ROOT
ATOM      1  C   UNL A   1      31.703  27.832  26.929  1.00  0.00     0.023 C 
ENDROOT
BRANCH   1   2
ATOM      2  C   UNL A   1      31.089  26.669  26.155  1.00  0.00     0.116 C 
BRANCH   2   3
ATOM      3  N   UNL A   1      31.225  25.377  26.816  1.00  0.00    -0.352 N 
ATOM      4  O   UNL A   1      32.145  23.403  27.365  1.00  0.00    -0.270 OA
ATOM      5  C   UNL A   1      32.019  24.296  26.531  1.00  0.00     0.251 C 
ATOM      6  H   UNL A   1      30.646  25.260  27.604  1.00  0.00     0.163 HD
BRANCH   5   7
ATOM      7  C   UNL A   1      32.852  24.257  25.298  1.00  0.00     0.067 C 
ATOM      8  C   UNL A   1      34.170  24.488  25.312  1.00  0.00     0.025 C 
ATOM      9  C   UNL A   1      32.322  23.345  24.234  1.00  0.00     0.314 C 
ATOM     10  C   UNL A   1      35.004  23.337  24.947  1.00  0.00     0.019 A 
ATOM     11  O   UNL A   1      33.037  22.086  24.226  1.00  0.00    -0.475 OA
ATOM     12  C   UNL A   1      36.336  23.356  25.372  1.00  0.00     0.032 A 
ATOM     13  C   UNL A   1      34.366  22.116  24.604  1.00  0.00     0.135 A 
ATOM     14  C   UNL A   1      37.013  22.153  25.517  1.00  0.00     0.042 A 
ATOM     15  C   UNL A   1      35.019  20.884  24.842  1.00  0.00     0.026 A 
ATOM     16  Cl  UNL A   1      38.596  22.146  26.192  1.00  0.00    -0.084 Cl
ATOM     17  C   UNL A   1      36.369  20.942  25.262  1.00  0.00     0.033 A 
BRANCH   9  18
ATOM     18  C   UNL A   1      32.341  24.075  22.870  1.00  0.00     0.429 C 
ATOM     19  F   UNL A   1      32.945  23.329  21.915  1.00  0.00    -0.167 F 
ATOM     20  F   UNL A   1      31.084  24.333  22.428  1.00  0.00    -0.167 F 
ATOM     21  F   UNL A   1      32.988  25.265  22.917  1.00  0.00    -0.167 F 
ENDBRANCH   9  18
BRANCH  15  22
ATOM     22  C   UNL A   1      34.316  19.570  24.887  1.00  0.00    -0.014 A 
ATOM     23  C   UNL A   1      34.928  18.432  24.317  1.00  0.00     0.012 A 
ATOM     24  C   UNL A   1      33.062  19.379  25.489  1.00  0.00     0.012 A 
ATOM     25  C   UNL A   1      34.311  17.179  24.315  1.00  0.00     0.047 A 
ATOM     26  C   UNL A   1      32.447  18.115  25.511  1.00  0.00     0.047 A 
ATOM     27  C   UNL A   1      33.077  17.027  24.918  1.00  0.00     0.115 A 
BRANCH  27  28
ATOM     28  O   UNL A   1      32.520  15.784  24.901  1.00  0.00    -0.508 OA
ATOM     29  H   UNL A   1      32.623  15.216  25.638  1.00  0.00     0.293 HD
ENDBRANCH  27  28
ENDBRANCH  15  22
ENDBRANCH   5   7
ENDBRANCH   2   3
ENDBRANCH   1   2
BRANCH   1  30
ATOM     30  C   UNL A   1      33.227  27.911  26.863  1.00  0.00     0.023 C 
BRANCH  30  31
ATOM     31  C   UNL A   1      33.800  29.145  26.171  1.00  0.00     0.116 C 
BRANCH  31  32
ATOM     32  N   UNL A   1      33.630  30.393  26.899  1.00  0.00    -0.352 N 
ATOM     33  C   UNL A   1      34.479  30.957  27.825  1.00  0.00     0.251 C 
ATOM     34  H   UNL A   1      32.806  30.896  26.707  1.00  0.00     0.163 HD
ATOM     35  O   UNL A   1      34.176  32.016  28.374  1.00  0.00    -0.269 OA
BRANCH  33  36
ATOM     36  C   UNL A   1      35.744  30.278  28.186  1.00  0.00     0.039 A 
ATOM     37  C   UNL A   1      36.788  30.256  27.256  1.00  0.00     0.014 A 
ATOM     38  C   UNL A   1      35.916  29.683  29.439  1.00  0.00     0.014 A 
ATOM     39  C   UNL A   1      38.025  29.715  27.615  1.00  0.00     0.010 A 
ATOM     40  C   UNL A   1      37.160  29.194  29.817  1.00  0.00     0.010 A 
ATOM     41  C   UNL A   1      38.226  29.215  28.911  1.00  0.00    -0.014 A 
BRANCH  41  42
ATOM     42  C   UNL A   1      39.557  28.750  29.357  1.00  0.00     0.031 A 
ATOM     43  C   UNL A   1      40.419  29.630  30.214  1.00  0.00     0.074 A 
ATOM     44  C   UNL A   1      40.012  27.563  28.912  1.00  0.00     0.049 A 
ATOM     45  N   UNL A   1      41.611  29.394  30.698  1.00  0.00    -0.248 NA
ATOM     46  C   UNL A   1      39.882  30.958  30.556  1.00  0.00     0.031 C 
ATOM     47  C   UNL A   1      39.286  26.661  28.013  1.00  0.00     0.029 A 
ATOM     48  N   UNL A   1      41.198  26.917  29.142  1.00  0.00    -0.354 N 
ATOM     49  C   UNL A   1      41.958  30.531  31.416  1.00  0.00     0.074 A 
ATOM     50  C   UNL A   1      40.882  31.483  31.248  1.00  0.00     0.031 C 
ATOM     51  C   UNL A   1      40.038  25.573  27.780  1.00  0.00     0.029 A 
ATOM     52  C   UNL A   1      41.302  25.711  28.493  1.00  0.00     0.049 A 
ATOM     53  H   UNL A   1      41.908  27.282  29.718  1.00  0.00     0.167 HD
ATOM     54  C   UNL A   1      43.061  30.748  32.169  1.00  0.00     0.031 A 
ATOM     55  C   UNL A   1      42.307  24.815  28.480  1.00  0.00     0.031 A 
ATOM     56  C   UNL A   1      44.141  29.805  32.302  1.00  0.00     0.049 A 
ATOM     57  C   UNL A   1      43.528  25.090  29.315  1.00  0.00     0.074 A 
ATOM     58  C   UNL A   1      45.297  29.914  33.055  1.00  0.00     0.029 A 
ATOM     59  N   UNL A   1      44.197  28.579  31.657  1.00  0.00    -0.354 N 
ATOM     60  N   UNL A   1      43.802  26.132  30.063  1.00  0.00    -0.248 NA
ATOM     61  C   UNL A   1      44.562  24.047  29.331  1.00  0.00     0.031 C 
ATOM     62  C   UNL A   1      46.072  28.771  32.831  1.00  0.00     0.029 A 
ATOM     63  C   UNL A   1      45.370  27.923  31.990  1.00  0.00     0.049 A 
ATOM     64  H   UNL A   1      43.505  28.226  31.051  1.00  0.00     0.167 HD
ATOM     65  C   UNL A   1      45.017  25.850  30.673  1.00  0.00     0.074 A 
ATOM     66  C   UNL A   1      45.415  24.532  30.220  1.00  0.00     0.031 C 
ATOM     67  C   UNL A   1      45.740  26.609  31.534  1.00  0.00     0.031 A 
BRANCH  54  68
ATOM     68  C   UNL A   1      43.145  32.048  32.921  1.00  0.00    -0.014 A 
ATOM     69  C   UNL A   1      43.730  33.181  32.332  1.00  0.00     0.009 A 
ATOM     70  C   UNL A   1      42.591  32.162  34.204  1.00  0.00     0.009 A 
ATOM     71  C   UNL A   1      43.779  34.394  33.021  1.00  0.00     0.001 A 
ATOM     72  C   UNL A   1      42.616  33.385  34.881  1.00  0.00     0.001 A 
ATOM     73  C   UNL A   1      43.216  34.496  34.292  1.00  0.00     0.000 A 
ENDBRANCH  54  68
BRANCH  55  74
ATOM     74  C   UNL A   1      42.196  23.566  27.680  1.00  0.00    -0.014 A 
ATOM     75  C   UNL A   1      41.720  22.382  28.264  1.00  0.00     0.009 A 
ATOM     76  C   UNL A   1      42.597  23.543  26.336  1.00  0.00     0.009 A 
ATOM     77  C   UNL A   1      41.694  21.192  27.533  1.00  0.00     0.001 A 
ATOM     78  C   UNL A   1      42.537  22.360  25.597  1.00  0.00     0.001 A 
ATOM     79  C   UNL A   1      42.101  21.182  26.200  1.00  0.00     0.000 A 
ENDBRANCH  55  74
BRANCH  67  80
ATOM     80  C   UNL A   1      46.997  25.998  32.088  1.00  0.00    -0.014 A 
ATOM     81  C   UNL A   1      47.005  25.288  33.298  1.00  0.00     0.009 A 
ATOM     82  C   UNL A   1      48.198  26.131  31.370  1.00  0.00     0.009 A 
ATOM     83  C   UNL A   1      48.198  24.771  33.806  1.00  0.00     0.001 A 
ATOM     84  C   UNL A   1      49.381  25.582  31.861  1.00  0.00     0.001 A 
ATOM     85  C   UNL A   1      49.384  24.917  33.086  1.00  0.00     0.000 A 
ENDBRANCH  67  80
ENDBRANCH  41  42
ENDBRANCH  33  36
ENDBRANCH  31  32
ENDBRANCH  30  31
ENDBRANCH   1  30
TORSDOF 14
ENDMDL
MODEL 2
REMARK VINA RESULT:     -12.3      3.176      8.438
REMARK SMILES O=C(NCCCCNC(=O)c1ccc(-c2c3nc(c(-c4ccccc4)c4ccc([nH]4)c(-c4ccccc4)c4nc(c(-c5ccccc5)c5ccc2[nH]5)C=C4)C=C3)cc1)C1=Cc2cc(Cl)cc(-c3ccc(O)cc3)c2O[C@@H]1C(F)(F)F
REMARK SMILES IDX 5 1 4 2 3 3 1 4 2 5 59 7 60 8 76 9 61 10 75 11 62 12 74 13
REMARK SMILES IDX 63 14 66 15 64 16 65 17 77 18 78 19 79 20 80 21 67 22 68 23
REMARK SMILES IDX 73 24 69 25 72 26 70 27 71 28 6 30 7 31 8 32 9 33 10 35
REMARK SMILES IDX 11 36 12 37 58 38 13 39 57 40 14 41 15 42 16 43 51 44 17 45
REMARK SMILES IDX 56 46 50 47 52 48 18 49 55 50 49 51 48 52 19 54 41 55 26 56
REMARK SMILES IDX 40 57 27 58 30 59 39 60 53 61 28 62 29 63 38 65 54 66 31 67
REMARK SMILES IDX 20 68 21 69 25 70 22 71 24 72 23 73 42 74 43 75 47 76 44 77
REMARK SMILES IDX 46 78 45 79 32 80 33 81 37 82 34 83 36 84 35 85
REMARK H PARENT 3 6 71 29 8 34 52 53 30 64
REMARK Flexibility Score: inf
ROOT
ATOM      1  C   UNL A   1      35.131  22.051  24.469  1.00  0.00     0.023 C 
ENDROOT
BRANCH   1   2
ATOM      2  C   UNL A   1      33.807  22.591  23.937  1.00  0.00     0.116 C 
BRANCH   2   3
ATOM      3  N   UNL A   1      33.929  23.841  23.198  1.00  0.00    -0.352 N 
ATOM      4  O   UNL A   1      34.016  26.060  22.854  1.00  0.00    -0.270 OA
ATOM      5  C   UNL A   1      33.603  25.129  23.542  1.00  0.00     0.251 C 
ATOM      6  H   UNL A   1      34.311  23.745  22.295  1.00  0.00     0.163 HD
BRANCH   5   7
ATOM      7  C   UNL A   1      32.893  25.428  24.815  1.00  0.00     0.067 C 
ATOM      8  C   UNL A   1      33.463  26.118  25.811  1.00  0.00     0.025 C 
ATOM      9  C   UNL A   1      31.405  25.520  24.675  1.00  0.00     0.314 C 
ATOM     10  C   UNL A   1      32.846  27.419  26.096  1.00  0.00     0.019 A 
ATOM     11  O   UNL A   1      30.972  26.901  24.621  1.00  0.00    -0.475 OA
ATOM     12  C   UNL A   1      33.629  28.362  26.769  1.00  0.00     0.032 A 
ATOM     13  C   UNL A   1      31.722  27.822  25.326  1.00  0.00     0.135 A 
ATOM     14  C   UNL A   1      33.333  29.709  26.625  1.00  0.00     0.042 A 
ATOM     15  C   UNL A   1      31.476  29.196  25.098  1.00  0.00     0.026 A 
ATOM     16  Cl  UNL A   1      34.381  30.887  27.314  1.00  0.00    -0.084 Cl
ATOM     17  C   UNL A   1      32.282  30.120  25.804  1.00  0.00     0.033 A 
BRANCH   9  18
ATOM     18  C   UNL A   1      30.728  24.703  25.801  1.00  0.00     0.429 C 
ATOM     19  F   UNL A   1      29.575  25.281  26.210  1.00  0.00    -0.167 F 
ATOM     20  F   UNL A   1      30.412  23.451  25.384  1.00  0.00    -0.167 F 
ATOM     21  F   UNL A   1      31.514  24.561  26.896  1.00  0.00    -0.167 F 
ENDBRANCH   9  18
BRANCH  15  22
ATOM     22  C   UNL A   1      30.586  29.709  24.017  1.00  0.00    -0.014 A 
ATOM     23  C   UNL A   1      29.699  30.774  24.291  1.00  0.00     0.012 A 
ATOM     24  C   UNL A   1      30.583  29.204  22.707  1.00  0.00     0.012 A 
ATOM     25  C   UNL A   1      28.831  31.285  23.324  1.00  0.00     0.047 A 
ATOM     26  C   UNL A   1      29.728  29.730  21.723  1.00  0.00     0.047 A 
ATOM     27  C   UNL A   1      28.855  30.764  22.044  1.00  0.00     0.115 A 
BRANCH  27  28
ATOM     28  O   UNL A   1      27.999  31.303  21.132  1.00  0.00    -0.508 OA
ATOM     29  H   UNL A   1      28.003  32.226  20.975  1.00  0.00     0.293 HD
ENDBRANCH  27  28
ENDBRANCH  15  22
ENDBRANCH   5   7
ENDBRANCH   2   3
ENDBRANCH   1   2
BRANCH   1  30
ATOM     30  C   UNL A   1      35.797  22.924  25.531  1.00  0.00     0.023 C 
BRANCH  30  31
ATOM     31  C   UNL A   1      37.168  23.487  25.165  1.00  0.00     0.116 C 
BRANCH  31  32
ATOM     32  N   UNL A   1      38.290  22.609  25.454  1.00  0.00    -0.352 N 
ATOM     33  C   UNL A   1      39.424  22.892  26.183  1.00  0.00     0.251 C 
ATOM     34  H   UNL A   1      38.233  21.699  25.082  1.00  0.00     0.163 HD
ATOM     35  O   UNL A   1      40.300  22.037  26.316  1.00  0.00    -0.269 OA
BRANCH  33  36
ATOM     36  C   UNL A   1      39.608  24.233  26.783  1.00  0.00     0.039 A 
ATOM     37  C   UNL A   1      39.135  24.463  28.078  1.00  0.00     0.014 A 
ATOM     38  C   UNL A   1      40.261  25.255  26.088  1.00  0.00     0.014 A 
ATOM     39  C   UNL A   1      39.392  25.686  28.702  1.00  0.00     0.010 A 
ATOM     40  C   UNL A   1      40.564  26.451  26.726  1.00  0.00     0.010 A 
ATOM     41  C   UNL A   1      40.141  26.672  28.040  1.00  0.00    -0.014 A 
BRANCH  41  42
ATOM     42  C   UNL A   1      40.532  27.926  28.721  1.00  0.00     0.031 A 
ATOM     43  C   UNL A   1      41.896  28.061  29.333  1.00  0.00     0.074 A 
ATOM     44  C   UNL A   1      39.617  28.905  28.852  1.00  0.00     0.049 A 
ATOM     45  N   UNL A   1      42.414  29.079  29.969  1.00  0.00    -0.248 NA
ATOM     46  C   UNL A   1      42.787  26.893  29.235  1.00  0.00     0.031 C 
ATOM     47  C   UNL A   1      38.237  28.846  28.361  1.00  0.00     0.029 A 
ATOM     48  N   UNL A   1      39.704  30.134  29.452  1.00  0.00    -0.354 N 
ATOM     49  C   UNL A   1      43.696  28.684  30.330  1.00  0.00     0.074 A 
ATOM     50  C   UNL A   1      43.853  27.311  29.904  1.00  0.00     0.031 C 
ATOM     51  C   UNL A   1      37.612  29.995  28.668  1.00  0.00     0.029 A 
ATOM     52  C   UNL A   1      38.537  30.857  29.392  1.00  0.00     0.049 A 
ATOM     53  H   UNL A   1      40.523  30.467  29.883  1.00  0.00     0.167 HD
ATOM     54  C   UNL A   1      44.662  29.412  30.937  1.00  0.00     0.031 A 
ATOM     55  C   UNL A   1      38.251  32.083  29.869  1.00  0.00     0.031 A 
ATOM     56  C   UNL A   1      44.483  30.768  31.387  1.00  0.00     0.049 A 
ATOM     57  C   UNL A   1      39.341  32.864  30.553  1.00  0.00     0.074 A 
ATOM     58  C   UNL A   1      45.400  31.606  31.995  1.00  0.00     0.029 A 
ATOM     59  N   UNL A   1      43.298  31.481  31.280  1.00  0.00    -0.354 N 
ATOM     60  N   UNL A   1      40.578  32.510  30.806  1.00  0.00    -0.248 NA
ATOM     61  C   UNL A   1      39.003  34.226  30.984  1.00  0.00     0.031 C 
ATOM     62  C   UNL A   1      44.758  32.811  32.296  1.00  0.00     0.029 A 
ATOM     63  C   UNL A   1      43.459  32.747  31.816  1.00  0.00     0.049 A 
ATOM     64  H   UNL A   1      42.466  31.138  30.882  1.00  0.00     0.167 HD
ATOM     65  C   UNL A   1      41.177  33.621  31.385  1.00  0.00     0.074 A 
ATOM     66  C   UNL A   1      40.172  34.663  31.426  1.00  0.00     0.031 C 
ATOM     67  C   UNL A   1      42.447  33.770  31.838  1.00  0.00     0.031 A 
BRANCH  54  68
ATOM     68  C   UNL A   1      46.004  28.761  31.133  1.00  0.00    -0.014 A 
ATOM     69  C   UNL A   1      46.280  28.022  32.296  1.00  0.00     0.009 A 
ATOM     70  C   UNL A   1      46.982  28.835  30.130  1.00  0.00     0.009 A 
ATOM     71  C   UNL A   1      47.516  27.395  32.461  1.00  0.00     0.001 A 
ATOM     72  C   UNL A   1      48.207  28.183  30.286  1.00  0.00     0.001 A 
ATOM     73  C   UNL A   1      48.475  27.469  31.453  1.00  0.00     0.000 A 
ENDBRANCH  54  68
BRANCH  55  74
ATOM     74  C   UNL A   1      36.893  32.665  29.693  1.00  0.00    -0.014 A 
ATOM     75  C   UNL A   1      36.597  33.470  28.583  1.00  0.00     0.009 A 
ATOM     76  C   UNL A   1      35.894  32.442  30.652  1.00  0.00     0.009 A 
ATOM     77  C   UNL A   1      35.346  34.080  28.463  1.00  0.00     0.001 A 
ATOM     78  C   UNL A   1      34.633  33.025  30.512  1.00  0.00     0.001 A 
ATOM     79  C   UNL A   1      34.365  33.857  29.426  1.00  0.00     0.000 A 
ENDBRANCH  55  74
BRANCH  67  80
ATOM     80  C   UNL A   1      42.829  35.130  32.354  1.00  0.00    -0.014 A 
ATOM     81  C   UNL A   1      43.487  36.070  31.547  1.00  0.00     0.009 A 
ATOM     82  C   UNL A   1      42.510  35.475  33.678  1.00  0.00     0.009 A 
ATOM     83  C   UNL A   1      43.866  37.307  32.072  1.00  0.00     0.001 A 
ATOM     84  C   UNL A   1      42.857  36.725  34.188  1.00  0.00     0.001 A 
ATOM     85  C   UNL A   1      43.549  37.634  33.390  1.00  0.00     0.000 A 
ENDBRANCH  67  80
ENDBRANCH  41  42
ENDBRANCH  33  36
ENDBRANCH  31  32
ENDBRANCH  30  31
ENDBRANCH   1  30
TORSDOF 14
ENDMDL
MODEL 3
REMARK VINA RESULT:     -12.2      0.927      5.861
REMARK SMILES O=C(NCCCCNC(=O)c1ccc(-c2c3nc(c(-c4ccccc4)c4ccc([nH]4)c(-c4ccccc4)c4nc(c(-c5ccccc5)c5ccc2[nH]5)C=C4)C=C3)cc1)C1=Cc2cc(Cl)cc(-c3ccc(O)cc3)c2O[C@@H]1C(F)(F)F
REMARK SMILES IDX 5 1 4 2 3 3 1 4 2 5 59 7 60 8 76 9 61 10 75 11 62 12 74 13
REMARK SMILES IDX 63 14 66 15 64 16 65 17 77 18 78 19 79 20 80 21 67 22 68 23
REMARK SMILES IDX 73 24 69 25 72 26 70 27 71 28 6 30 7 31 8 32 9 33 10 35
REMARK SMILES IDX 11 36 12 37 58 38 13 39 57 40 14 41 15 42 16 43 51 44 17 45
REMARK SMILES IDX 56 46 50 47 52 48 18 49 55 50 49 51 48 52 19 54 41 55 26 56
REMARK SMILES IDX 40 57 27 58 30 59 39 60 53 61 28 62 29 63 38 65 54 66 31 67
REMARK SMILES IDX 20 68 21 69 25 70 22 71 24 72 23 73 42 74 43 75 47 76 44 77
REMARK SMILES IDX 46 78 45 79 32 80 33 81 37 82 34 83 36 84 35 85
REMARK H PARENT 3 6 71 29 8 34 52 53 30 64
REMARK Flexibility Score: inf
ROOT
ATOM      1  C   UNL A   1      31.921  27.217  25.941  1.00  0.00     0.023 C 
ENDROOT
BRANCH   1   2
ATOM      2  C   UNL A   1      30.744  26.266  26.142  1.00  0.00     0.116 C 
BRANCH   2   3
ATOM      3  N   UNL A   1      31.076  25.057  26.884  1.00  0.00    -0.352 N 
ATOM      4  O   UNL A   1      32.278  23.273  27.533  1.00  0.00    -0.270 OA
ATOM      5  C   UNL A   1      32.007  24.078  26.644  1.00  0.00     0.251 C 
ATOM      6  H   UNL A   1      30.540  24.919  27.698  1.00  0.00     0.163 HD
BRANCH   5   7
ATOM      7  C   UNL A   1      32.804  24.066  25.388  1.00  0.00     0.067 C 
ATOM      8  C   UNL A   1      34.121  24.302  25.370  1.00  0.00     0.025 C 
ATOM      9  C   UNL A   1      32.248  23.171  24.323  1.00  0.00     0.314 C 
ATOM     10  C   UNL A   1      34.949  23.161  24.959  1.00  0.00     0.019 A 
ATOM     11  O   UNL A   1      32.967  21.915  24.272  1.00  0.00    -0.475 OA
ATOM     12  C   UNL A   1      36.293  23.177  25.347  1.00  0.00     0.032 A 
ATOM     13  C   UNL A   1      34.306  21.944  24.612  1.00  0.00     0.135 A 
ATOM     14  C   UNL A   1      36.978  21.975  25.450  1.00  0.00     0.042 A 
ATOM     15  C   UNL A   1      34.970  20.710  24.809  1.00  0.00     0.026 A 
ATOM     16  Cl  UNL A   1      38.579  21.961  26.080  1.00  0.00    -0.084 Cl
ATOM     17  C   UNL A   1      36.330  20.766  25.192  1.00  0.00     0.033 A 
BRANCH   9  18
ATOM     18  C   UNL A   1      32.226  23.926  22.973  1.00  0.00     0.429 C 
ATOM     19  F   UNL A   1      33.018  23.326  22.054  1.00  0.00    -0.167 F 
ATOM     20  F   UNL A   1      30.976  23.964  22.446  1.00  0.00    -0.167 F 
ATOM     21  F   UNL A   1      32.641  25.212  23.080  1.00  0.00    -0.167 F 
ENDBRANCH   9  18
BRANCH  15  22
ATOM     22  C   UNL A   1      34.272  19.393  24.849  1.00  0.00    -0.014 A 
ATOM     23  C   UNL A   1      34.902  18.254  24.298  1.00  0.00     0.012 A 
ATOM     24  C   UNL A   1      33.008  19.199  25.428  1.00  0.00     0.012 A 
ATOM     25  C   UNL A   1      34.291  16.998  24.293  1.00  0.00     0.047 A 
ATOM     26  C   UNL A   1      32.399  17.932  25.447  1.00  0.00     0.047 A 
ATOM     27  C   UNL A   1      33.046  16.844  24.873  1.00  0.00     0.115 A 
BRANCH  27  28
ATOM     28  O   UNL A   1      32.496  15.598  24.853  1.00  0.00    -0.508 OA
ATOM     29  H   UNL A   1      31.963  15.333  24.130  1.00  0.00     0.293 HD
ENDBRANCH  27  28
ENDBRANCH  15  22
ENDBRANCH   5   7
ENDBRANCH   2   3
ENDBRANCH   1   2
BRANCH   1  30
ATOM     30  C   UNL A   1      32.557  27.728  27.232  1.00  0.00     0.023 C 
BRANCH  30  31
ATOM     31  C   UNL A   1      33.803  28.594  27.062  1.00  0.00     0.116 C 
BRANCH  31  32
ATOM     32  N   UNL A   1      33.698  29.936  27.613  1.00  0.00    -0.352 N 
ATOM     33  C   UNL A   1      34.675  30.672  28.247  1.00  0.00     0.251 C 
ATOM     34  H   UNL A   1      32.821  30.373  27.522  1.00  0.00     0.163 HD
ATOM     35  O   UNL A   1      34.416  31.795  28.681  1.00  0.00    -0.269 OA
BRANCH  33  36
ATOM     36  C   UNL A   1      36.029  30.105  28.436  1.00  0.00     0.039 A 
ATOM     37  C   UNL A   1      36.948  30.189  27.386  1.00  0.00     0.014 A 
ATOM     38  C   UNL A   1      36.406  29.513  29.645  1.00  0.00     0.014 A 
ATOM     39  C   UNL A   1      38.263  29.756  27.580  1.00  0.00     0.010 A 
ATOM     40  C   UNL A   1      37.724  29.133  29.857  1.00  0.00     0.010 A 
ATOM     41  C   UNL A   1      38.665  29.260  28.830  1.00  0.00    -0.014 A 
BRANCH  41  42
ATOM     42  C   UNL A   1      40.077  28.911  29.100  1.00  0.00     0.031 A 
ATOM     43  C   UNL A   1      40.601  27.551  28.745  1.00  0.00     0.074 A 
ATOM     44  C   UNL A   1      40.854  29.803  29.744  1.00  0.00     0.049 A 
ATOM     45  N   UNL A   1      41.804  27.065  28.908  1.00  0.00    -0.248 NA
ATOM     46  C   UNL A   1      39.645  26.604  28.147  1.00  0.00     0.031 C 
ATOM     47  C   UNL A   1      40.422  31.127  30.203  1.00  0.00     0.029 A 
ATOM     48  N   UNL A   1      42.164  29.727  30.138  1.00  0.00    -0.354 N 
ATOM     49  C   UNL A   1      41.756  25.767  28.417  1.00  0.00     0.074 A 
ATOM     50  C   UNL A   1      40.390  25.517  28.013  1.00  0.00     0.031 C 
ATOM     51  C   UNL A   1      41.453  31.743  30.803  1.00  0.00     0.029 A 
ATOM     52  C   UNL A   1      42.608  30.852  30.790  1.00  0.00     0.049 A 
ATOM     53  H   UNL A   1      42.733  28.942  29.969  1.00  0.00     0.167 HD
ATOM     54  C   UNL A   1      42.767  24.877  28.288  1.00  0.00     0.031 A 
ATOM     55  C   UNL A   1      43.815  31.131  31.315  1.00  0.00     0.031 A 
ATOM     56  C   UNL A   1      44.117  25.126  28.724  1.00  0.00     0.049 A 
ATOM     57  C   UNL A   1      44.917  30.116  31.171  1.00  0.00     0.074 A 
ATOM     58  C   UNL A   1      45.224  24.302  28.624  1.00  0.00     0.029 A 
ATOM     59  N   UNL A   1      44.538  26.289  29.350  1.00  0.00    -0.354 N 
ATOM     60  N   UNL A   1      44.879  28.926  30.620  1.00  0.00    -0.248 NA
ATOM     61  C   UNL A   1      46.236  30.499  31.689  1.00  0.00     0.031 C 
ATOM     62  C   UNL A   1      46.306  24.951  29.229  1.00  0.00     0.029 A 
ATOM     63  C   UNL A   1      45.888  26.204  29.647  1.00  0.00     0.049 A 
ATOM     64  H   UNL A   1      43.963  27.062  29.553  1.00  0.00     0.167 HD
ATOM     65  C   UNL A   1      46.177  28.439  30.686  1.00  0.00     0.074 A 
ATOM     66  C   UNL A   1      46.979  29.469  31.312  1.00  0.00     0.031 C 
ATOM     67  C   UNL A   1      46.666  27.246  30.262  1.00  0.00     0.031 A 
BRANCH  54  68
ATOM     68  C   UNL A   1      42.455  23.559  27.635  1.00  0.00    -0.014 A 
ATOM     69  C   UNL A   1      41.942  22.489  28.387  1.00  0.00     0.009 A 
ATOM     70  C   UNL A   1      42.619  23.396  26.251  1.00  0.00     0.009 A 
ATOM     71  C   UNL A   1      41.625  21.276  27.772  1.00  0.00     0.001 A 
ATOM     72  C   UNL A   1      42.274  22.190  25.634  1.00  0.00     0.001 A 
ATOM     73  C   UNL A   1      41.784  21.131  26.395  1.00  0.00     0.000 A 
ENDBRANCH  54  68
BRANCH  55  74
ATOM     74  C   UNL A   1      44.061  32.430  31.996  1.00  0.00    -0.014 A 
ATOM     75  C   UNL A   1      44.531  33.539  31.275  1.00  0.00     0.009 A 
ATOM     76  C   UNL A   1      43.857  32.560  33.378  1.00  0.00     0.009 A 
ATOM     77  C   UNL A   1      44.838  34.734  31.931  1.00  0.00     0.001 A 
ATOM     78  C   UNL A   1      44.132  33.767  34.026  1.00  0.00     0.001 A 
ATOM     79  C   UNL A   1      44.637  34.847  33.305  1.00  0.00     0.000 A 
ENDBRANCH  55  74
BRANCH  67  80
ATOM     80  C   UNL A   1      48.147  27.030  30.407  1.00  0.00    -0.014 A 
ATOM     81  C   UNL A   1      49.054  27.428  29.413  1.00  0.00     0.009 A 
ATOM     82  C   UNL A   1      48.640  26.420  31.573  1.00  0.00     0.009 A 
ATOM     83  C   UNL A   1      50.418  27.172  29.560  1.00  0.00     0.001 A 
ATOM     84  C   UNL A   1      50.007  26.199  31.733  1.00  0.00     0.001 A 
ATOM     85  C   UNL A   1      50.893  26.561  30.720  1.00  0.00     0.000 A 
ENDBRANCH  67  80
ENDBRANCH  41  42
ENDBRANCH  33  36
ENDBRANCH  31  32
ENDBRANCH  30  31
ENDBRANCH   1  30
TORSDOF 14
ENDMDL
