MODEL 1
REMARK VINA RESULT:     -11.5      0.000      0.000
REMARK SMILES C[C@@H]1CCCN(C(=O)c2ccncc2/C=C/C(=O)NCCCCNC(=O)c2ccc(-c3c4nc(c(-c5ccccc5)c5ccc([nH]5)c(-c5ccccc5)c5nc(c(-c6ccccc6)c6ccc3[nH]6)C=C5)C=C4)cc2)[C@@H]1C
REMARK SMILES IDX 21 1 20 2 19 3 17 4 18 5 16 7 15 8 14 9 9 10 10 11 11 12
REMARK SMILES IDX 13 13 12 14 7 15 8 16 6 17 1 18 2 19 3 20 75 21 4 22 76 23
REMARK SMILES IDX 5 24 22 25 23 26 24 27 25 28 26 30 27 31 28 32 74 33 29 34
REMARK SMILES IDX 73 35 30 36 31 37 32 38 67 39 33 40 72 41 66 42 68 43 34 44
REMARK SMILES IDX 71 45 65 46 64 47 35 49 57 50 42 51 56 52 43 53 46 54 55 55
REMARK SMILES IDX 69 56 44 57 45 58 54 60 70 61 47 62 36 63 37 64 41 65 38 66
REMARK SMILES IDX 40 67 39 68 58 69 59 70 63 71 60 72 62 73 61 74 48 75 49 76
REMARK SMILES IDX 53 77 50 78 52 79 51 80
REMARK H PARENT 19 6 24 29 68 48 46 59
REMARK Flexibility Score: inf
ROOT
ATOM      1  C   UNL A   1      36.487  20.721  25.004  1.00  0.00     0.023 C 
ENDROOT
BRANCH   1   2
ATOM      2  C   UNL A   1      36.657  22.030  25.769  1.00  0.00     0.116 C 
BRANCH   2   3
ATOM      3  N   UNL A   1      35.543  22.244  26.671  1.00  0.00    -0.353 N 
ATOM      4  C   UNL A   1      34.383  22.925  26.469  1.00  0.00     0.244 C 
ATOM      5  O   UNL A   1      33.518  22.936  27.341  1.00  0.00    -0.270 OA
ATOM      6  H   UNL A   1      35.639  21.835  27.561  1.00  0.00     0.163 HD
BRANCH   4   7
ATOM      7  C   UNL A   1      34.105  23.575  25.167  1.00  0.00     0.072 C 
ATOM      8  C   UNL A   1      32.888  23.962  24.750  1.00  0.00     0.016 C 
BRANCH   8   9
ATOM      9  C   UNL A   1      32.646  24.616  23.453  1.00  0.00     0.006 A 
ATOM     10  C   UNL A   1      31.740  25.676  23.281  1.00  0.00     0.050 A 
ATOM     11  C   UNL A   1      31.587  26.285  22.029  1.00  0.00     0.034 A 
ATOM     12  C   UNL A   1      32.287  25.762  20.961  1.00  0.00     0.112 A 
ATOM     13  C   UNL A   1      33.283  24.170  22.296  1.00  0.00     0.119 A 
ATOM     14  N   UNL A   1      33.119  24.709  21.064  1.00  0.00    -0.264 NA
BRANCH  10  15
ATOM     15  C   UNL A   1      30.981  26.239  24.427  1.00  0.00     0.254 C 
ATOM     16  O   UNL A   1      29.858  25.778  24.609  1.00  0.00    -0.269 OA
BRANCH  15  17
ATOM     17  N   UNL A   1      31.580  27.224  25.222  1.00  0.00    -0.336 N 
ATOM     18  C   UNL A   1      33.561  28.910  23.452  1.00  0.00     0.010 C 
ATOM     19  C   UNL A   1      32.870  29.323  24.753  1.00  0.00     0.008 C 
ATOM     20  C   UNL A   1      33.761  28.999  25.962  1.00  0.00     0.007 C 
ATOM     21  C   UNL A   1      31.467  28.680  24.934  1.00  0.00     0.085 C 
ATOM     22  C   UNL A   1      33.817  27.502  26.245  1.00  0.00     0.022 C 
ATOM     23  C   UNL A   1      30.495  29.117  23.833  1.00  0.00     0.031 C 
ATOM     24  C   UNL A   1      32.416  26.916  26.392  1.00  0.00     0.120 C 
ENDBRANCH  15  17
ENDBRANCH  10  15
ENDBRANCH   8   9
ENDBRANCH   4   7
ENDBRANCH   2   3
ENDBRANCH   1   2
BRANCH   1  25
ATOM     25  C   UNL A   1      37.777  19.932  24.779  1.00  0.00     0.023 C 
BRANCH  25  26
ATOM     26  C   UNL A   1      38.915  20.296  25.725  1.00  0.00     0.116 C 
BRANCH  26  27
ATOM     27  N   UNL A   1      39.992  19.319  25.736  1.00  0.00    -0.352 N 
ATOM     28  C   UNL A   1      41.310  19.488  26.092  1.00  0.00     0.251 C 
ATOM     29  H   UNL A   1      39.744  18.411  25.448  1.00  0.00     0.163 HD
ATOM     30  O   UNL A   1      42.115  18.582  25.933  1.00  0.00    -0.269 OA
BRANCH  28  31
ATOM     31  C   UNL A   1      41.759  20.792  26.632  1.00  0.00     0.039 A 
ATOM     32  C   UNL A   1      42.241  21.755  25.743  1.00  0.00     0.014 A 
ATOM     33  C   UNL A   1      41.690  21.071  28.000  1.00  0.00     0.014 A 
ATOM     34  C   UNL A   1      42.590  23.021  26.218  1.00  0.00     0.010 A 
ATOM     35  C   UNL A   1      41.959  22.357  28.459  1.00  0.00     0.010 A 
ATOM     36  C   UNL A   1      42.416  23.343  27.573  1.00  0.00    -0.014 A 
BRANCH  36  37
ATOM     37  C   UNL A   1      42.704  24.709  28.078  1.00  0.00     0.031 A 
ATOM     38  C   UNL A   1      44.106  25.099  28.458  1.00  0.00     0.074 A 
ATOM     39  C   UNL A   1      41.690  25.580  28.248  1.00  0.00     0.049 A 
ATOM     40  N   UNL A   1      44.544  26.239  28.935  1.00  0.00    -0.248 NA
ATOM     41  C   UNL A   1      45.149  24.070  28.313  1.00  0.00     0.031 C 
ATOM     42  C   UNL A   1      40.277  25.303  27.978  1.00  0.00     0.029 A 
ATOM     43  N   UNL A   1      41.692  26.878  28.693  1.00  0.00    -0.354 N 
ATOM     44  C   UNL A   1      45.902  26.054  29.163  1.00  0.00     0.074 A 
ATOM     45  C   UNL A   1      46.207  24.683  28.822  1.00  0.00     0.031 C 
ATOM     46  C   UNL A   1      39.555  26.406  28.231  1.00  0.00     0.029 A 
ATOM     47  C   UNL A   1      40.447  27.457  28.710  1.00  0.00     0.049 A 
ATOM     48  H   UNL A   1      42.510  27.350  28.973  1.00  0.00     0.167 HD
ATOM     49  C   UNL A   1      46.817  26.952  29.597  1.00  0.00     0.031 A 
ATOM     50  C   UNL A   1      40.065  28.698  29.067  1.00  0.00     0.031 A 
ATOM     51  C   UNL A   1      46.519  28.323  29.915  1.00  0.00     0.049 A 
ATOM     52  C   UNL A   1      41.108  29.684  29.514  1.00  0.00     0.074 A 
ATOM     53  C   UNL A   1      47.390  29.329  30.296  1.00  0.00     0.029 A 
ATOM     54  N   UNL A   1      45.251  28.879  29.885  1.00  0.00    -0.354 N 
ATOM     55  N   UNL A   1      42.402  29.518  29.642  1.00  0.00    -0.248 NA
ATOM     56  C   UNL A   1      40.637  31.035  29.847  1.00  0.00     0.031 C 
ATOM     57  C   UNL A   1      46.641  30.485  30.539  1.00  0.00     0.029 A 
ATOM     58  C   UNL A   1      45.312  30.211  30.258  1.00  0.00     0.049 A 
ATOM     59  H   UNL A   1      44.428  28.399  29.637  1.00  0.00     0.167 HD
ATOM     60  C   UNL A   1      42.903  30.750  30.041  1.00  0.00     0.074 A 
ATOM     61  C   UNL A   1      41.776  31.657  30.114  1.00  0.00     0.031 C 
ATOM     62  C   UNL A   1      44.182  31.099  30.323  1.00  0.00     0.031 A 
BRANCH  49  63
ATOM     63  C   UNL A   1      48.236  26.478  29.752  1.00  0.00    -0.014 A 
ATOM     64  C   UNL A   1      49.174  26.643  28.720  1.00  0.00     0.009 A 
ATOM     65  C   UNL A   1      48.652  25.898  30.961  1.00  0.00     0.009 A 
ATOM     66  C   UNL A   1      50.490  26.208  28.884  1.00  0.00     0.001 A 
ATOM     67  C   UNL A   1      49.976  25.489  31.131  1.00  0.00     0.001 A 
ATOM     68  C   UNL A   1      50.892  25.637  30.090  1.00  0.00     0.000 A 
ENDBRANCH  49  63
BRANCH  50  69
ATOM     69  C   UNL A   1      38.635  29.093  28.990  1.00  0.00    -0.014 A 
ATOM     70  C   UNL A   1      38.097  29.597  27.796  1.00  0.00     0.009 A 
ATOM     71  C   UNL A   1      37.802  28.985  30.116  1.00  0.00     0.009 A 
ATOM     72  C   UNL A   1      36.767  30.019  27.740  1.00  0.00     0.001 A 
ATOM     73  C   UNL A   1      36.465  29.379  30.047  1.00  0.00     0.001 A 
ATOM     74  C   UNL A   1      35.951  29.907  28.864  1.00  0.00     0.000 A 
ENDBRANCH  50  69
BRANCH  62  75
ATOM     75  C   UNL A   1      44.431  32.533  30.698  1.00  0.00    -0.014 A 
ATOM     76  C   UNL A   1      44.696  33.507  29.722  1.00  0.00     0.009 A 
ATOM     77  C   UNL A   1      44.374  32.917  32.046  1.00  0.00     0.009 A 
ATOM     78  C   UNL A   1      44.942  34.830  30.095  1.00  0.00     0.001 A 
ATOM     79  C   UNL A   1      44.589  34.246  32.413  1.00  0.00     0.001 A 
ATOM     80  C   UNL A   1      44.885  35.198  31.440  1.00  0.00     0.000 A 
ENDBRANCH  62  75
ENDBRANCH  36  37
ENDBRANCH  28  31
ENDBRANCH  26  27
ENDBRANCH  25  26
ENDBRANCH   1  25
TORSDOF 14
ENDMDL
MODEL 2
REMARK VINA RESULT:     -11.4      3.189      8.795
REMARK SMILES C[C@@H]1CCCN(C(=O)c2ccncc2/C=C/C(=O)NCCCCNC(=O)c2ccc(-c3c4nc(c(-c5ccccc5)c5ccc([nH]5)c(-c5ccccc5)c5nc(c(-c6ccccc6)c6ccc3[nH]6)C=C5)C=C4)cc2)[C@@H]1C
REMARK SMILES IDX 21 1 20 2 19 3 17 4 18 5 16 7 15 8 14 9 9 10 10 11 11 12
REMARK SMILES IDX 13 13 12 14 7 15 8 16 6 17 1 18 2 19 3 20 75 21 4 22 76 23
REMARK SMILES IDX 5 24 22 25 23 26 24 27 25 28 26 30 27 31 28 32 74 33 29 34
REMARK SMILES IDX 73 35 30 36 31 37 32 38 67 39 33 40 72 41 66 42 68 43 34 44
REMARK SMILES IDX 71 45 65 46 64 47 35 49 57 50 42 51 56 52 43 53 46 54 55 55
REMARK SMILES IDX 69 56 44 57 45 58 54 60 70 61 47 62 36 63 37 64 41 65 38 66
REMARK SMILES IDX 40 67 39 68 58 69 59 70 63 71 60 72 62 73 61 74 48 75 49 76
REMARK SMILES IDX 53 77 50 78 52 79 51 80
REMARK H PARENT 19 6 24 29 68 48 46 59
REMARK Flexibility Score: inf
ROOT
ATOM      1  C   UNL A   1      31.691  30.348  25.847  1.00  0.00     0.023 C 
ENDROOT
BRANCH   1   2
ATOM      2  C   UNL A   1      33.112  29.825  26.028  1.00  0.00     0.116 C 
BRANCH   2   3
ATOM      3  N   UNL A   1      33.630  29.307  24.776  1.00  0.00    -0.353 N 
ATOM      4  C   UNL A   1      33.541  28.054  24.254  1.00  0.00     0.244 C 
ATOM      5  O   UNL A   1      33.988  27.823  23.134  1.00  0.00    -0.270 OA
ATOM      6  H   UNL A   1      34.117  29.958  24.222  1.00  0.00     0.163 HD
BRANCH   4   7
ATOM      7  C   UNL A   1      32.820  26.982  24.980  1.00  0.00     0.072 C 
ATOM      8  C   UNL A   1      32.473  25.799  24.448  1.00  0.00     0.016 C 
BRANCH   8   9
ATOM      9  C   UNL A   1      31.765  24.748  25.200  1.00  0.00     0.006 A 
ATOM     10  C   UNL A   1      31.893  23.378  24.915  1.00  0.00     0.050 A 
ATOM     11  C   UNL A   1      31.227  22.425  25.697  1.00  0.00     0.034 A 
ATOM     12  C   UNL A   1      30.384  22.873  26.693  1.00  0.00     0.112 A 
ATOM     13  C   UNL A   1      30.875  25.075  26.222  1.00  0.00     0.119 A 
ATOM     14  N   UNL A   1      30.181  24.177  26.962  1.00  0.00    -0.264 NA
BRANCH  10  15
ATOM     15  C   UNL A   1      32.796  22.890  23.842  1.00  0.00     0.254 C 
ATOM     16  O   UNL A   1      32.274  22.689  22.749  1.00  0.00    -0.269 OA
BRANCH  15  17
ATOM     17  N   UNL A   1      34.156  22.711  24.125  1.00  0.00    -0.336 N 
ATOM     18  C   UNL A   1      34.483  21.952  27.161  1.00  0.00     0.010 C 
ATOM     19  C   UNL A   1      35.440  21.659  26.004  1.00  0.00     0.008 C 
ATOM     20  C   UNL A   1      36.481  22.781  25.869  1.00  0.00     0.007 C 
ATOM     21  C   UNL A   1      34.714  21.435  24.648  1.00  0.00     0.085 C 
ATOM     22  C   UNL A   1      35.875  24.055  25.293  1.00  0.00     0.022 C 
ATOM     23  C   UNL A   1      33.789  20.215  24.692  1.00  0.00     0.031 C 
ATOM     24  C   UNL A   1      35.157  23.778  23.976  1.00  0.00     0.120 C 
ENDBRANCH  15  17
ENDBRANCH  10  15
ENDBRANCH   8   9
ENDBRANCH   4   7
ENDBRANCH   2   3
ENDBRANCH   1   2
BRANCH   1  25
ATOM     25  C   UNL A   1      31.403  31.683  26.534  1.00  0.00     0.023 C 
BRANCH  25  26
ATOM     26  C   UNL A   1      32.603  32.306  27.237  1.00  0.00     0.116 C 
BRANCH  26  27
ATOM     27  N   UNL A   1      32.374  33.676  27.667  1.00  0.00    -0.352 N 
ATOM     28  C   UNL A   1      33.150  34.469  28.480  1.00  0.00     0.251 C 
ATOM     29  H   UNL A   1      31.550  34.094  27.330  1.00  0.00     0.163 HD
ATOM     30  O   UNL A   1      32.750  35.568  28.836  1.00  0.00    -0.269 OA
BRANCH  28  31
ATOM     31  C   UNL A   1      34.458  33.965  28.959  1.00  0.00     0.039 A 
ATOM     32  C   UNL A   1      34.499  33.231  30.147  1.00  0.00     0.014 A 
ATOM     33  C   UNL A   1      35.631  34.197  28.236  1.00  0.00     0.014 A 
ATOM     34  C   UNL A   1      35.706  32.674  30.573  1.00  0.00     0.010 A 
ATOM     35  C   UNL A   1      36.815  33.574  28.618  1.00  0.00     0.010 A 
ATOM     36  C   UNL A   1      36.866  32.809  29.793  1.00  0.00    -0.014 A 
BRANCH  36  37
ATOM     37  C   UNL A   1      38.136  32.154  30.190  1.00  0.00     0.031 A 
ATOM     38  C   UNL A   1      39.072  32.830  31.154  1.00  0.00     0.074 A 
ATOM     39  C   UNL A   1      38.474  30.973  29.636  1.00  0.00     0.049 A 
ATOM     40  N   UNL A   1      40.233  32.419  31.602  1.00  0.00    -0.248 NA
ATOM     41  C   UNL A   1      38.668  34.152  31.661  1.00  0.00     0.031 C 
ATOM     42  C   UNL A   1      37.684  30.245  28.639  1.00  0.00     0.029 A 
ATOM     43  N   UNL A   1      39.575  30.177  29.830  1.00  0.00    -0.354 N 
ATOM     44  C   UNL A   1      40.702  33.438  32.422  1.00  0.00     0.074 A 
ATOM     45  C   UNL A   1      39.729  34.505  32.372  1.00  0.00     0.031 C 
ATOM     46  C   UNL A   1      38.309  29.095  28.337  1.00  0.00     0.029 A 
ATOM     47  C   UNL A   1      39.556  29.020  29.091  1.00  0.00     0.049 A 
ATOM     48  H   UNL A   1      40.308  30.412  30.444  1.00  0.00     0.167 HD
ATOM     49  C   UNL A   1      41.832  33.473  33.166  1.00  0.00     0.031 A 
ATOM     50  C   UNL A   1      40.441  28.008  29.030  1.00  0.00     0.031 A 
ATOM     51  C   UNL A   1      42.790  32.402  33.234  1.00  0.00     0.049 A 
ATOM     52  C   UNL A   1      41.672  28.058  29.892  1.00  0.00     0.074 A 
ATOM     53  C   UNL A   1      43.930  32.313  34.013  1.00  0.00     0.029 A 
ATOM     54  N   UNL A   1      42.716  31.233  32.496  1.00  0.00    -0.354 N 
ATOM     55  N   UNL A   1      42.057  28.991  30.728  1.00  0.00    -0.248 NA
ATOM     56  C   UNL A   1      42.577  26.904  29.816  1.00  0.00     0.031 C 
ATOM     57  C   UNL A   1      44.571  31.106  33.714  1.00  0.00     0.029 A 
ATOM     58  C   UNL A   1      43.800  30.422  32.788  1.00  0.00     0.049 A 
ATOM     59  H   UNL A   1      42.000  31.010  31.858  1.00  0.00     0.167 HD
ATOM     60  C   UNL A   1      43.234  28.524  31.298  1.00  0.00     0.074 A 
ATOM     61  C   UNL A   1      43.487  27.217  30.728  1.00  0.00     0.031 C 
ATOM     62  C   UNL A   1      44.035  29.124  32.212  1.00  0.00     0.031 A 
BRANCH  49  63
ATOM     63  C   UNL A   1      42.094  34.714  33.974  1.00  0.00    -0.014 A 
ATOM     64  C   UNL A   1      41.696  34.804  35.317  1.00  0.00     0.009 A 
ATOM     65  C   UNL A   1      42.785  35.791  33.398  1.00  0.00     0.009 A 
ATOM     66  C   UNL A   1      41.956  35.959  36.057  1.00  0.00     0.001 A 
ATOM     67  C   UNL A   1      43.067  36.934  34.148  1.00  0.00     0.001 A 
ATOM     68  C   UNL A   1      42.646  37.020  35.475  1.00  0.00     0.000 A 
ENDBRANCH  49  63
BRANCH  50  69
ATOM     69  C   UNL A   1      40.188  26.843  28.141  1.00  0.00    -0.014 A 
ATOM     70  C   UNL A   1      39.399  25.769  28.580  1.00  0.00     0.009 A 
ATOM     71  C   UNL A   1      40.750  26.790  26.855  1.00  0.00     0.009 A 
ATOM     72  C   UNL A   1      39.206  24.652  27.766  1.00  0.00     0.001 A 
ATOM     73  C   UNL A   1      40.530  25.684  26.032  1.00  0.00     0.001 A 
ATOM     74  C   UNL A   1      39.768  24.611  26.492  1.00  0.00     0.000 A 
ENDBRANCH  50  69
BRANCH  62  75
ATOM     75  C   UNL A   1      45.236  28.352  32.678  1.00  0.00    -0.014 A 
ATOM     76  C   UNL A   1      45.153  27.447  33.749  1.00  0.00     0.009 A 
ATOM     77  C   UNL A   1      46.464  28.516  32.018  1.00  0.00     0.009 A 
ATOM     78  C   UNL A   1      46.287  26.753  34.175  1.00  0.00     0.001 A 
ATOM     79  C   UNL A   1      47.589  27.798  32.427  1.00  0.00     0.001 A 
ATOM     80  C   UNL A   1      47.502  26.927  33.512  1.00  0.00     0.000 A 
ENDBRANCH  62  75
ENDBRANCH  36  37
ENDBRANCH  28  31
ENDBRANCH  26  27
ENDBRANCH  25  26
ENDBRANCH   1  25
TORSDOF 14
ENDMDL
MODEL 3
REMARK VINA RESULT:     -11.3      0.568      5.880
REMARK SMILES C[C@@H]1CCCN(C(=O)c2ccncc2/C=C/C(=O)NCCCCNC(=O)c2ccc(-c3c4nc(c(-c5ccccc5)c5ccc([nH]5)c(-c5ccccc5)c5nc(c(-c6ccccc6)c6ccc3[nH]6)C=C5)C=C4)cc2)[C@@H]1C
REMARK SMILES IDX 21 1 20 2 19 3 17 4 18 5 16 7 15 8 14 9 9 10 10 11 11 12
REMARK SMILES IDX 13 13 12 14 7 15 8 16 6 17 1 18 2 19 3 20 75 21 4 22 76 23
REMARK SMILES IDX 5 24 22 25 23 26 24 27 25 28 26 30 27 31 28 32 74 33 29 34
REMARK SMILES IDX 73 35 30 36 31 37 32 38 67 39 33 40 72 41 66 42 68 43 34 44
REMARK SMILES IDX 71 45 65 46 64 47 35 49 57 50 42 51 56 52 43 53 46 54 55 55
REMARK SMILES IDX 69 56 44 57 45 58 54 60 70 61 47 62 36 63 37 64 41 65 38 66
REMARK SMILES IDX 40 67 39 68 58 69 59 70 63 71 60 72 62 73 61 74 48 75 49 76
REMARK SMILES IDX 53 77 50 78 52 79 51 80
REMARK H PARENT 19 6 24 29 68 48 46 59
REMARK Flexibility Score: inf
ROOT
ATOM      1  C   UNL A   1      36.880  21.296  24.570  1.00  0.00     0.023 C 
ENDROOT
BRANCH   1   2
ATOM      2  C   UNL A   1      37.109  22.551  25.407  1.00  0.00     0.116 C 
BRANCH   2   3
ATOM      3  N   UNL A   1      36.054  22.710  26.389  1.00  0.00    -0.353 N 
ATOM      4  C   UNL A   1      34.846  23.323  26.271  1.00  0.00     0.244 C 
ATOM      5  O   UNL A   1      34.049  23.294  27.205  1.00  0.00    -0.270 OA
ATOM      6  H   UNL A   1      36.239  22.315  27.271  1.00  0.00     0.163 HD
BRANCH   4   7
ATOM      7  C   UNL A   1      34.436  23.945  24.989  1.00  0.00     0.072 C 
ATOM      8  C   UNL A   1      33.166  24.202  24.637  1.00  0.00     0.016 C 
BRANCH   8   9
ATOM      9  C   UNL A   1      32.791  24.831  23.359  1.00  0.00     0.006 A 
ATOM     10  C   UNL A   1      31.757  25.775  23.239  1.00  0.00     0.050 A 
ATOM     11  C   UNL A   1      31.478  26.371  22.002  1.00  0.00     0.034 A 
ATOM     12  C   UNL A   1      32.189  25.944  20.899  1.00  0.00     0.112 A 
ATOM     13  C   UNL A   1      33.427  24.474  22.171  1.00  0.00     0.119 A 
ATOM     14  N   UNL A   1      33.146  24.998  20.953  1.00  0.00    -0.264 NA
BRANCH  10  15
ATOM     15  C   UNL A   1      30.985  26.234  24.422  1.00  0.00     0.254 C 
ATOM     16  O   UNL A   1      29.903  25.685  24.607  1.00  0.00    -0.269 OA
BRANCH  15  17
ATOM     17  N   UNL A   1      31.530  27.227  25.246  1.00  0.00    -0.336 N 
ATOM     18  C   UNL A   1      33.580  28.937  23.580  1.00  0.00     0.010 C 
ATOM     19  C   UNL A   1      32.817  29.342  24.842  1.00  0.00     0.008 C 
ATOM     20  C   UNL A   1      33.648  29.029  26.097  1.00  0.00     0.007 C 
ATOM     21  C   UNL A   1      31.414  28.681  24.951  1.00  0.00     0.085 C 
ATOM     22  C   UNL A   1      33.706  27.534  26.384  1.00  0.00     0.022 C 
ATOM     23  C   UNL A   1      30.495  29.105  23.800  1.00  0.00     0.031 C 
ATOM     24  C   UNL A   1      32.308  26.931  26.459  1.00  0.00     0.120 C 
ENDBRANCH  15  17
ENDBRANCH  10  15
ENDBRANCH   8   9
ENDBRANCH   4   7
ENDBRANCH   2   3
ENDBRANCH   1   2
BRANCH   1  25
ATOM     25  C   UNL A   1      37.779  20.111  24.925  1.00  0.00     0.023 C 
BRANCH  25  26
ATOM     26  C   UNL A   1      38.981  20.466  25.793  1.00  0.00     0.116 C 
BRANCH  26  27
ATOM     27  N   UNL A   1      40.013  19.441  25.797  1.00  0.00    -0.352 N 
ATOM     28  C   UNL A   1      41.349  19.560  26.101  1.00  0.00     0.251 C 
ATOM     29  H   UNL A   1      39.714  18.537  25.548  1.00  0.00     0.163 HD
ATOM     30  O   UNL A   1      42.106  18.613  25.942  1.00  0.00    -0.269 OA
BRANCH  28  31
ATOM     31  C   UNL A   1      41.876  20.858  26.582  1.00  0.00     0.039 A 
ATOM     32  C   UNL A   1      42.337  21.783  25.643  1.00  0.00     0.014 A 
ATOM     33  C   UNL A   1      41.899  21.169  27.944  1.00  0.00     0.014 A 
ATOM     34  C   UNL A   1      42.759  23.045  26.066  1.00  0.00     0.010 A 
ATOM     35  C   UNL A   1      42.241  22.453  28.355  1.00  0.00     0.010 A 
ATOM     36  C   UNL A   1      42.679  23.403  27.421  1.00  0.00    -0.014 A 
BRANCH  36  37
ATOM     37  C   UNL A   1      43.045  24.767  27.875  1.00  0.00     0.031 A 
ATOM     38  C   UNL A   1      41.977  25.796  28.130  1.00  0.00     0.074 A 
ATOM     39  C   UNL A   1      44.345  25.098  28.001  1.00  0.00     0.049 A 
ATOM     40  N   UNL A   1      42.107  27.043  28.511  1.00  0.00    -0.248 NA
ATOM     41  C   UNL A   1      40.583  25.383  27.900  1.00  0.00     0.031 C 
ATOM     42  C   UNL A   1      45.478  24.212  27.721  1.00  0.00     0.029 A 
ATOM     43  N   UNL A   1      44.935  26.272  28.395  1.00  0.00    -0.354 N 
ATOM     44  C   UNL A   1      40.820  27.563  28.547  1.00  0.00     0.074 A 
ATOM     45  C   UNL A   1      39.927  26.517  28.101  1.00  0.00     0.031 C 
ATOM     46  C   UNL A   1      46.622  24.863  27.984  1.00  0.00     0.029 A 
ATOM     47  C   UNL A   1      46.307  26.220  28.420  1.00  0.00     0.049 A 
ATOM     48  H   UNL A   1      44.422  27.077  28.638  1.00  0.00     0.167 HD
ATOM     49  C   UNL A   1      40.414  28.794  28.935  1.00  0.00     0.031 A 
ATOM     50  C   UNL A   1      47.211  27.157  28.760  1.00  0.00     0.031 A 
ATOM     51  C   UNL A   1      41.298  29.829  29.400  1.00  0.00     0.049 A 
ATOM     52  C   UNL A   1      46.731  28.505  29.219  1.00  0.00     0.074 A 
ATOM     53  C   UNL A   1      40.978  31.085  29.883  1.00  0.00     0.029 A 
ATOM     54  N   UNL A   1      42.679  29.722  29.443  1.00  0.00    -0.354 N 
ATOM     55  N   UNL A   1      45.503  28.951  29.329  1.00  0.00    -0.248 NA
ATOM     56  C   UNL A   1      47.763  29.471  29.621  1.00  0.00     0.031 C 
ATOM     57  C   UNL A   1      42.168  31.757  30.178  1.00  0.00     0.029 A 
ATOM     58  C   UNL A   1      43.227  30.898  29.928  1.00  0.00     0.049 A 
ATOM     59  H   UNL A   1      43.195  28.930  29.170  1.00  0.00     0.167 HD
ATOM     60  C   UNL A   1      45.614  30.239  29.839  1.00  0.00     0.074 A 
ATOM     61  C   UNL A   1      47.026  30.492  30.035  1.00  0.00     0.031 C 
ATOM     62  C   UNL A   1      44.634  31.132  30.119  1.00  0.00     0.031 A 
BRANCH  49  63
ATOM     63  C   UNL A   1      38.941  29.091  28.877  1.00  0.00    -0.014 A 
ATOM     64  C   UNL A   1      38.129  28.968  30.016  1.00  0.00     0.009 A 
ATOM     65  C   UNL A   1      38.364  29.540  27.678  1.00  0.00     0.009 A 
ATOM     66  C   UNL A   1      36.765  29.258  29.948  1.00  0.00     0.001 A 
ATOM     67  C   UNL A   1      37.006  29.855  27.621  1.00  0.00     0.001 A 
ATOM     68  C   UNL A   1      36.206  29.707  28.753  1.00  0.00     0.000 A 
ENDBRANCH  49  63
BRANCH  50  69
ATOM     69  C   UNL A   1      48.665  26.849  28.709  1.00  0.00    -0.014 A 
ATOM     70  C   UNL A   1      49.401  27.077  27.536  1.00  0.00     0.009 A 
ATOM     71  C   UNL A   1      49.320  26.311  29.828  1.00  0.00     0.009 A 
ATOM     72  C   UNL A   1      50.754  26.738  27.472  1.00  0.00     0.001 A 
ATOM     73  C   UNL A   1      50.681  26.002  29.769  1.00  0.00     0.001 A 
ATOM     74  C   UNL A   1      51.394  26.204  28.589  1.00  0.00     0.000 A 
ENDBRANCH  50  69
BRANCH  62  75
ATOM     75  C   UNL A   1      45.058  32.449  30.704  1.00  0.00    -0.014 A 
ATOM     76  C   UNL A   1      45.340  33.555  29.886  1.00  0.00     0.009 A 
ATOM     77  C   UNL A   1      45.151  32.590  32.097  1.00  0.00     0.009 A 
ATOM     78  C   UNL A   1      45.749  34.763  30.452  1.00  0.00     0.001 A 
ATOM     79  C   UNL A   1      45.531  33.809  32.661  1.00  0.00     0.001 A 
ATOM     80  C   UNL A   1      45.841  34.890  31.839  1.00  0.00     0.000 A 
ENDBRANCH  62  75
ENDBRANCH  36  37
ENDBRANCH  28  31
ENDBRANCH  26  27
ENDBRANCH  25  26
ENDBRANCH   1  25
TORSDOF 14
ENDMDL
