MODEL 1
REMARK VINA RESULT:     -12.1      0.000      0.000
REMARK SMILES O=C(NCCCCNC(=O)[C@H]1Cc2[nH]cnc2CN1C(=O)c1ccncc1Cl)c1ccc(-c2c3nc(c(-c4ccccc4)c4ccc([nH]4)c(-c4ccccc4)c4nc(c(-c5ccccc5)c5ccc2[nH]5)C=C4)C=C3)cc1
REMARK SMILES IDX 5 1 4 2 3 3 1 4 2 5 29 7 30 8 76 9 31 10 75 11 32 12 33 13
REMARK SMILES IDX 34 14 69 15 35 16 74 17 68 18 70 19 36 20 73 21 67 22 66 23
REMARK SMILES IDX 37 25 59 26 44 27 58 28 45 29 48 30 57 31 71 32 46 33 47 34
REMARK SMILES IDX 56 36 72 37 49 38 38 39 39 40 43 41 40 42 42 43 41 44 60 45
REMARK SMILES IDX 61 46 65 47 62 48 64 49 63 50 50 51 51 52 55 53 52 54 54 55
REMARK SMILES IDX 53 56 6 57 7 58 8 59 9 60 10 62 11 63 12 64 19 65 13 66
REMARK SMILES IDX 18 67 14 68 17 69 15 70 16 72 20 73 21 74 22 75 23 76 27 77
REMARK SMILES IDX 24 78 26 79 28 80 25 81
REMARK H PARENT 3 6 70 24 48 35 8 61 14 71
REMARK Flexibility Score: inf
ROOT
ATOM      1  C   UNL A   1      33.814  28.789  27.278  1.00  0.00     0.023 C 
ENDROOT
BRANCH   1   2
ATOM      2  C   UNL A   1      34.029  30.276  27.032  1.00  0.00     0.116 C 
BRANCH   2   3
ATOM      3  N   UNL A   1      34.110  31.116  28.203  1.00  0.00    -0.352 N 
ATOM      4  O   UNL A   1      35.068  32.619  29.536  1.00  0.00    -0.269 OA
ATOM      5  C   UNL A   1      35.190  31.568  28.921  1.00  0.00     0.251 C 
ATOM      6  H   UNL A   1      33.239  31.419  28.547  1.00  0.00     0.163 HD
BRANCH   5   7
ATOM      7  C   UNL A   1      36.432  30.770  29.099  1.00  0.00     0.039 A 
ATOM      8  C   UNL A   1      37.633  30.976  28.426  1.00  0.00     0.014 A 
ATOM      9  C   UNL A   1      36.332  29.701  30.010  1.00  0.00     0.014 A 
ATOM     10  C   UNL A   1      38.684  30.079  28.586  1.00  0.00     0.010 A 
ATOM     11  C   UNL A   1      37.387  28.812  30.189  1.00  0.00     0.010 A 
ATOM     12  C   UNL A   1      38.555  28.986  29.451  1.00  0.00    -0.014 A 
BRANCH  12  13
ATOM     13  C   UNL A   1      39.730  28.144  29.651  1.00  0.00     0.031 A 
ATOM     14  C   UNL A   1      40.298  28.153  31.028  1.00  0.00     0.074 A 
ATOM     15  C   UNL A   1      40.230  27.287  28.741  1.00  0.00     0.049 A 
ATOM     16  N   UNL A   1      41.487  28.499  31.401  1.00  0.00    -0.248 NA
ATOM     17  C   UNL A   1      39.402  27.777  32.132  1.00  0.00     0.031 C 
ATOM     18  C   UNL A   1      39.640  26.880  27.467  1.00  0.00     0.029 A 
ATOM     19  N   UNL A   1      41.348  26.507  28.838  1.00  0.00    -0.354 N 
ATOM     20  C   UNL A   1      41.552  28.239  32.769  1.00  0.00     0.074 A 
ATOM     21  C   UNL A   1      40.213  27.898  33.183  1.00  0.00     0.031 C 
ATOM     22  C   UNL A   1      40.284  25.778  27.017  1.00  0.00     0.029 A 
ATOM     23  C   UNL A   1      41.401  25.487  27.902  1.00  0.00     0.049 A 
ATOM     24  H   UNL A   1      42.051  26.656  29.511  1.00  0.00     0.167 HD
ATOM     25  C   UNL A   1      42.735  28.130  33.434  1.00  0.00     0.031 A 
ATOM     26  C   UNL A   1      42.261  24.442  27.887  1.00  0.00     0.031 A 
ATOM     27  C   UNL A   1      43.831  28.709  32.704  1.00  0.00     0.049 A 
ATOM     28  C   UNL A   1      43.419  24.771  28.747  1.00  0.00     0.074 A 
ATOM     29  C   UNL A   1      44.126  29.959  32.200  1.00  0.00     0.029 A 
ATOM     30  N   UNL A   1      44.732  27.852  32.122  1.00  0.00    -0.354 N 
ATOM     31  N   UNL A   1      44.340  25.634  28.433  1.00  0.00    -0.248 NA
ATOM     32  C   UNL A   1      43.392  24.369  30.144  1.00  0.00     0.031 C 
ATOM     33  C   UNL A   1      44.862  29.715  31.004  1.00  0.00     0.029 A 
ATOM     34  C   UNL A   1      44.991  28.333  30.867  1.00  0.00     0.049 A 
ATOM     35  H   UNL A   1      45.120  27.045  32.531  1.00  0.00     0.167 HD
ATOM     36  C   UNL A   1      44.721  26.199  29.639  1.00  0.00     0.074 A 
ATOM     37  C   UNL A   1      44.210  25.289  30.658  1.00  0.00     0.031 C 
ATOM     38  C   UNL A   1      45.161  27.491  29.704  1.00  0.00     0.031 A 
BRANCH  25  39
ATOM     39  C   UNL A   1      42.962  27.161  34.570  1.00  0.00    -0.014 A 
ATOM     40  C   UNL A   1      43.362  25.844  34.270  1.00  0.00     0.009 A 
ATOM     41  C   UNL A   1      42.518  27.400  35.884  1.00  0.00     0.009 A 
ATOM     42  C   UNL A   1      43.236  24.811  35.206  1.00  0.00     0.001 A 
ATOM     43  C   UNL A   1      42.438  26.380  36.837  1.00  0.00     0.001 A 
ATOM     44  C   UNL A   1      42.766  25.078  36.487  1.00  0.00     0.000 A 
ENDBRANCH  25  39
BRANCH  26  45
ATOM     45  C   UNL A   1      42.070  23.088  27.330  1.00  0.00    -0.014 A 
ATOM     46  C   UNL A   1      42.915  22.604  26.320  1.00  0.00     0.009 A 
ATOM     47  C   UNL A   1      41.213  22.172  27.965  1.00  0.00     0.009 A 
ATOM     48  C   UNL A   1      42.926  21.244  25.983  1.00  0.00     0.001 A 
ATOM     49  C   UNL A   1      41.216  20.817  27.623  1.00  0.00     0.001 A 
ATOM     50  C   UNL A   1      42.085  20.350  26.642  1.00  0.00     0.000 A 
ENDBRANCH  26  45
BRANCH  38  51
ATOM     51  C   UNL A   1      45.548  28.180  28.420  1.00  0.00    -0.014 A 
ATOM     52  C   UNL A   1      44.641  28.915  27.640  1.00  0.00     0.009 A 
ATOM     53  C   UNL A   1      46.904  28.197  28.056  1.00  0.00     0.009 A 
ATOM     54  C   UNL A   1      45.067  29.605  26.503  1.00  0.00     0.001 A 
ATOM     55  C   UNL A   1      47.336  28.909  26.935  1.00  0.00     0.001 A 
ATOM     56  C   UNL A   1      46.415  29.605  26.152  1.00  0.00     0.000 A 
ENDBRANCH  38  51
ENDBRANCH  12  13
ENDBRANCH   5   7
ENDBRANCH   2   3
ENDBRANCH   1   2
BRANCH   1  57
ATOM     57  C   UNL A   1      32.350  28.355  27.453  1.00  0.00     0.023 C 
BRANCH  57  58
ATOM     58  C   UNL A   1      31.762  27.459  26.356  1.00  0.00     0.116 C 
BRANCH  58  59
ATOM     59  N   UNL A   1      31.173  26.239  26.878  1.00  0.00    -0.354 N 
ATOM     60  C   UNL A   1      31.515  24.940  26.643  1.00  0.00     0.243 C 
ATOM     61  H   UNL A   1      30.415  26.369  27.492  1.00  0.00     0.163 HD
ATOM     62  O   UNL A   1      30.806  24.068  27.156  1.00  0.00    -0.273 OA
BRANCH  60  63
ATOM     63  C   UNL A   1      32.621  24.549  25.642  1.00  0.00     0.181 C 
ATOM     64  C   UNL A   1      33.756  23.980  26.560  1.00  0.00     0.091 C 
ATOM     65  N   UNL A   1      32.189  23.725  24.453  1.00  0.00    -0.320 N 
ATOM     66  C   UNL A   1      34.528  22.928  25.889  1.00  0.00     0.042 A 
ATOM     67  C   UNL A   1      33.179  22.863  23.760  1.00  0.00     0.178 C 
ATOM     68  N   UNL A   1      35.612  22.251  26.364  1.00  0.00    -0.348 N 
ATOM     69  C   UNL A   1      34.264  22.406  24.654  1.00  0.00     0.081 A 
ATOM     70  C   UNL A   1      35.965  21.349  25.395  1.00  0.00     0.197 A 
ATOM     71  H   UNL A   1      36.056  22.383  27.233  1.00  0.00     0.167 HD
ATOM     72  N   UNL A   1      35.168  21.422  24.349  1.00  0.00    -0.240 NA
BRANCH  65  73
ATOM     73  C   UNL A   1      31.138  24.091  23.584  1.00  0.00     0.256 C 
ATOM     74  O   UNL A   1      30.335  23.280  23.125  1.00  0.00    -0.269 OA
BRANCH  73  75
ATOM     75  C   UNL A   1      30.854  25.501  23.280  1.00  0.00     0.061 A 
ATOM     76  C   UNL A   1      29.614  25.983  23.704  1.00  0.00     0.035 A 
ATOM     77  C   UNL A   1      31.706  26.328  22.559  1.00  0.00     0.072 A 
ATOM     78  C   UNL A   1      29.329  27.323  23.521  1.00  0.00     0.112 A 
ATOM     79  C   UNL A   1      31.333  27.659  22.435  1.00  0.00     0.132 A 
ATOM     80  Cl  UNL A   1      33.134  25.772  21.782  1.00  0.00    -0.082 Cl
ATOM     81  N   UNL A   1      30.178  28.180  22.922  1.00  0.00    -0.263 NA
ENDBRANCH  73  75
ENDBRANCH  65  73
ENDBRANCH  60  63
ENDBRANCH  58  59
ENDBRANCH  57  58
ENDBRANCH   1  57
TORSDOF 13
ENDMDL
MODEL 2
REMARK VINA RESULT:     -11.9      3.157      7.740
REMARK SMILES O=C(NCCCCNC(=O)[C@H]1Cc2[nH]cnc2CN1C(=O)c1ccncc1Cl)c1ccc(-c2c3nc(c(-c4ccccc4)c4ccc([nH]4)c(-c4ccccc4)c4nc(c(-c5ccccc5)c5ccc2[nH]5)C=C4)C=C3)cc1
REMARK SMILES IDX 5 1 4 2 3 3 1 4 2 5 29 7 30 8 76 9 31 10 75 11 32 12 33 13
REMARK SMILES IDX 34 14 69 15 35 16 74 17 68 18 70 19 36 20 73 21 67 22 66 23
REMARK SMILES IDX 37 25 59 26 44 27 58 28 45 29 48 30 57 31 71 32 46 33 47 34
REMARK SMILES IDX 56 36 72 37 49 38 38 39 39 40 43 41 40 42 42 43 41 44 60 45
REMARK SMILES IDX 61 46 65 47 62 48 64 49 63 50 50 51 51 52 55 53 52 54 54 55
REMARK SMILES IDX 53 56 6 57 7 58 8 59 9 60 10 62 11 63 12 64 19 65 13 66
REMARK SMILES IDX 18 67 14 68 17 69 15 70 16 72 20 73 21 74 22 75 23 76 27 77
REMARK SMILES IDX 24 78 26 79 28 80 25 81
REMARK H PARENT 3 6 70 24 48 35 8 61 14 71
REMARK Flexibility Score: inf
ROOT
ATOM      1  C   UNL A   1      38.390  22.243  25.871  1.00  0.00     0.023 C 
ENDROOT
BRANCH   1   2
ATOM      2  C   UNL A   1      39.705  22.148  26.634  1.00  0.00     0.116 C 
BRANCH   2   3
ATOM      3  N   UNL A   1      40.911  22.326  25.862  1.00  0.00    -0.352 N 
ATOM      4  O   UNL A   1      43.075  22.768  25.587  1.00  0.00    -0.269 OA
ATOM      5  C   UNL A   1      42.007  23.129  26.065  1.00  0.00     0.251 C 
ATOM      6  H   UNL A   1      40.957  21.775  25.048  1.00  0.00     0.163 HD
BRANCH   5   7
ATOM      7  C   UNL A   1      41.918  24.468  26.703  1.00  0.00     0.039 A 
ATOM      8  C   UNL A   1      42.573  24.857  27.869  1.00  0.00     0.014 A 
ATOM      9  C   UNL A   1      41.061  25.383  26.062  1.00  0.00     0.014 A 
ATOM     10  C   UNL A   1      42.307  26.099  28.436  1.00  0.00     0.010 A 
ATOM     11  C   UNL A   1      40.806  26.633  26.615  1.00  0.00     0.010 A 
ATOM     12  C   UNL A   1      41.408  26.979  27.821  1.00  0.00    -0.014 A 
BRANCH  12  13
ATOM     13  C   UNL A   1      41.253  28.305  28.413  1.00  0.00     0.031 A 
ATOM     14  C   UNL A   1      42.331  29.280  28.090  1.00  0.00     0.074 A 
ATOM     15  C   UNL A   1      40.170  28.725  29.092  1.00  0.00     0.049 A 
ATOM     16  N   UNL A   1      43.121  29.900  28.906  1.00  0.00    -0.248 NA
ATOM     17  C   UNL A   1      42.591  29.557  26.669  1.00  0.00     0.031 C 
ATOM     18  C   UNL A   1      38.879  28.053  29.236  1.00  0.00     0.029 A 
ATOM     19  N   UNL A   1      39.973  29.926  29.713  1.00  0.00    -0.354 N 
ATOM     20  C   UNL A   1      43.879  30.767  28.122  1.00  0.00     0.074 A 
ATOM     21  C   UNL A   1      43.587  30.438  26.749  1.00  0.00     0.031 C 
ATOM     22  C   UNL A   1      37.972  28.940  29.706  1.00  0.00     0.029 A 
ATOM     23  C   UNL A   1      38.648  30.191  30.013  1.00  0.00     0.049 A 
ATOM     24  H   UNL A   1      40.707  30.547  29.927  1.00  0.00     0.167 HD
ATOM     25  C   UNL A   1      44.549  31.828  28.651  1.00  0.00     0.031 A 
ATOM     26  C   UNL A   1      38.128  31.371  30.424  1.00  0.00     0.031 A 
ATOM     27  C   UNL A   1      44.733  31.709  30.072  1.00  0.00     0.049 A 
ATOM     28  C   UNL A   1      39.226  32.217  30.939  1.00  0.00     0.074 A 
ATOM     29  C   UNL A   1      45.335  30.795  30.913  1.00  0.00     0.029 A 
ATOM     30  N   UNL A   1      43.972  32.514  30.883  1.00  0.00    -0.354 N 
ATOM     31  N   UNL A   1      39.844  32.009  32.064  1.00  0.00    -0.248 NA
ATOM     32  C   UNL A   1      39.883  33.143  30.029  1.00  0.00     0.031 C 
ATOM     33  C   UNL A   1      44.542  30.800  32.099  1.00  0.00     0.029 A 
ATOM     34  C   UNL A   1      43.523  31.735  31.916  1.00  0.00     0.049 A 
ATOM     35  H   UNL A   1      43.784  33.471  30.749  1.00  0.00     0.167 HD
ATOM     36  C   UNL A   1      41.145  32.423  31.835  1.00  0.00     0.074 A 
ATOM     37  C   UNL A   1      41.073  33.235  30.624  1.00  0.00     0.031 C 
ATOM     38  C   UNL A   1      42.196  31.837  32.481  1.00  0.00     0.031 A 
BRANCH  25  39
ATOM     39  C   UNL A   1      44.700  33.152  27.940  1.00  0.00    -0.014 A 
ATOM     40  C   UNL A   1      43.567  33.975  27.789  1.00  0.00     0.009 A 
ATOM     41  C   UNL A   1      45.827  33.483  27.164  1.00  0.00     0.009 A 
ATOM     42  C   UNL A   1      43.537  35.011  26.848  1.00  0.00     0.001 A 
ATOM     43  C   UNL A   1      45.817  34.549  26.259  1.00  0.00     0.001 A 
ATOM     44  C   UNL A   1      44.659  35.292  26.077  1.00  0.00     0.000 A 
ENDBRANCH  25  39
BRANCH  26  45
ATOM     45  C   UNL A   1      36.763  31.904  30.233  1.00  0.00    -0.014 A 
ATOM     46  C   UNL A   1      35.956  32.219  31.337  1.00  0.00     0.009 A 
ATOM     47  C   UNL A   1      36.343  32.341  28.965  1.00  0.00     0.009 A 
ATOM     48  C   UNL A   1      34.788  32.976  31.180  1.00  0.00     0.001 A 
ATOM     49  C   UNL A   1      35.172  33.088  28.806  1.00  0.00     0.001 A 
ATOM     50  C   UNL A   1      34.402  33.419  29.917  1.00  0.00     0.000 A 
ENDBRANCH  26  45
BRANCH  38  51
ATOM     51  C   UNL A   1      41.905  30.978  33.685  1.00  0.00    -0.014 A 
ATOM     52  C   UNL A   1      41.803  31.493  34.988  1.00  0.00     0.009 A 
ATOM     53  C   UNL A   1      41.593  29.625  33.479  1.00  0.00     0.009 A 
ATOM     54  C   UNL A   1      41.449  30.669  36.059  1.00  0.00     0.001 A 
ATOM     55  C   UNL A   1      41.212  28.807  34.545  1.00  0.00     0.001 A 
ATOM     56  C   UNL A   1      41.149  29.327  35.836  1.00  0.00     0.000 A 
ENDBRANCH  38  51
ENDBRANCH  12  13
ENDBRANCH   5   7
ENDBRANCH   2   3
ENDBRANCH   1   2
BRANCH   1  57
ATOM     57  C   UNL A   1      37.748  23.639  25.837  1.00  0.00     0.023 C 
BRANCH  57  58
ATOM     58  C   UNL A   1      36.222  23.691  25.694  1.00  0.00     0.116 C 
BRANCH  58  59
ATOM     59  N   UNL A   1      35.531  22.937  26.724  1.00  0.00    -0.354 N 
ATOM     60  C   UNL A   1      34.677  21.880  26.603  1.00  0.00     0.243 C 
ATOM     61  H   UNL A   1      35.705  23.232  27.648  1.00  0.00     0.163 HD
ATOM     62  O   UNL A   1      34.157  21.453  27.639  1.00  0.00    -0.273 OA
BRANCH  60  63
ATOM     63  C   UNL A   1      34.226  21.342  25.230  1.00  0.00     0.181 C 
ATOM     64  C   UNL A   1      34.940  19.951  25.134  1.00  0.00     0.091 C 
ATOM     65  N   UNL A   1      32.745  21.402  24.940  1.00  0.00    -0.320 N 
ATOM     66  C   UNL A   1      34.153  18.983  24.362  1.00  0.00     0.042 A 
ATOM     67  C   UNL A   1      32.153  20.463  23.955  1.00  0.00     0.178 C 
ATOM     68  N   UNL A   1      34.485  17.702  24.035  1.00  0.00    -0.348 N 
ATOM     69  C   UNL A   1      32.901  19.193  23.855  1.00  0.00     0.081 A 
ATOM     70  C   UNL A   1      33.424  17.188  23.339  1.00  0.00     0.197 A 
ATOM     71  H   UNL A   1      35.324  17.236  24.255  1.00  0.00     0.167 HD
ATOM     72  N   UNL A   1      32.452  18.068  23.213  1.00  0.00    -0.240 NA
BRANCH  65  73
ATOM     73  C   UNL A   1      31.970  22.577  25.052  1.00  0.00     0.256 C 
ATOM     74  O   UNL A   1      30.812  22.580  25.467  1.00  0.00    -0.269 OA
BRANCH  73  75
ATOM     75  C   UNL A   1      32.554  23.904  24.804  1.00  0.00     0.061 A 
ATOM     76  C   UNL A   1      32.516  24.802  25.873  1.00  0.00     0.035 A 
ATOM     77  C   UNL A   1      33.064  24.312  23.578  1.00  0.00     0.072 A 
ATOM     78  C   UNL A   1      33.126  26.032  25.722  1.00  0.00     0.112 A 
ATOM     79  C   UNL A   1      33.662  25.563  23.532  1.00  0.00     0.132 A 
ATOM     80  Cl  UNL A   1      32.936  23.381  22.140  1.00  0.00    -0.082 Cl
ATOM     81  N   UNL A   1      33.728  26.421  24.583  1.00  0.00    -0.263 NA
ENDBRANCH  73  75
ENDBRANCH  65  73
ENDBRANCH  60  63
ENDBRANCH  58  59
ENDBRANCH  57  58
ENDBRANCH   1  57
TORSDOF 13
ENDMDL
MODEL 3
REMARK VINA RESULT:     -11.9      1.176      3.300
REMARK SMILES O=C(NCCCCNC(=O)[C@H]1Cc2[nH]cnc2CN1C(=O)c1ccncc1Cl)c1ccc(-c2c3nc(c(-c4ccccc4)c4ccc([nH]4)c(-c4ccccc4)c4nc(c(-c5ccccc5)c5ccc2[nH]5)C=C4)C=C3)cc1
REMARK SMILES IDX 5 1 4 2 3 3 1 4 2 5 29 7 30 8 76 9 31 10 75 11 32 12 33 13
REMARK SMILES IDX 34 14 69 15 35 16 74 17 68 18 70 19 36 20 73 21 67 22 66 23
REMARK SMILES IDX 37 25 59 26 44 27 58 28 45 29 48 30 57 31 71 32 46 33 47 34
REMARK SMILES IDX 56 36 72 37 49 38 38 39 39 40 43 41 40 42 42 43 41 44 60 45
REMARK SMILES IDX 61 46 65 47 62 48 64 49 63 50 50 51 51 52 55 53 52 54 54 55
REMARK SMILES IDX 53 56 6 57 7 58 8 59 9 60 10 62 11 63 12 64 19 65 13 66
REMARK SMILES IDX 18 67 14 68 17 69 15 70 16 72 20 73 21 74 22 75 23 76 27 77
REMARK SMILES IDX 24 78 26 79 28 80 25 81
REMARK H PARENT 3 6 70 24 48 35 8 61 14 71
REMARK Flexibility Score: inf
ROOT
ATOM      1  C   UNL A   1      33.900  29.035  27.208  1.00  0.00     0.023 C 
ENDROOT
BRANCH   1   2
ATOM      2  C   UNL A   1      34.178  30.525  27.065  1.00  0.00     0.116 C 
BRANCH   2   3
ATOM      3  N   UNL A   1      34.312  31.275  28.290  1.00  0.00    -0.352 N 
ATOM      4  O   UNL A   1      35.388  32.564  29.750  1.00  0.00    -0.269 OA
ATOM      5  C   UNL A   1      35.408  31.546  29.073  1.00  0.00     0.251 C 
ATOM      6  H   UNL A   1      33.470  31.662  28.624  1.00  0.00     0.163 HD
BRANCH   5   7
ATOM      7  C   UNL A   1      36.535  30.592  29.239  1.00  0.00     0.039 A 
ATOM      8  C   UNL A   1      36.454  29.334  29.830  1.00  0.00     0.014 A 
ATOM      9  C   UNL A   1      37.783  31.051  28.777  1.00  0.00     0.014 A 
ATOM     10  C   UNL A   1      37.609  28.587  30.042  1.00  0.00     0.010 A 
ATOM     11  C   UNL A   1      38.938  30.301  28.969  1.00  0.00     0.010 A 
ATOM     12  C   UNL A   1      38.853  29.079  29.630  1.00  0.00    -0.014 A 
BRANCH  12  13
ATOM     13  C   UNL A   1      40.010  28.202  29.789  1.00  0.00     0.031 A 
ATOM     14  C   UNL A   1      40.616  28.183  31.149  1.00  0.00     0.074 A 
ATOM     15  C   UNL A   1      40.459  27.341  28.858  1.00  0.00     0.049 A 
ATOM     16  N   UNL A   1      41.825  28.492  31.491  1.00  0.00    -0.248 NA
ATOM     17  C   UNL A   1      39.742  27.823  32.276  1.00  0.00     0.031 C 
ATOM     18  C   UNL A   1      39.822  26.961  27.598  1.00  0.00     0.029 A 
ATOM     19  N   UNL A   1      41.556  26.529  28.916  1.00  0.00    -0.354 N 
ATOM     20  C   UNL A   1      41.921  28.218  32.854  1.00  0.00     0.074 A 
ATOM     21  C   UNL A   1      40.585  27.911  33.304  1.00  0.00     0.031 C 
ATOM     22  C   UNL A   1      40.421  25.847  27.121  1.00  0.00     0.029 A 
ATOM     23  C   UNL A   1      41.554  25.516  27.971  1.00  0.00     0.049 A 
ATOM     24  H   UNL A   1      42.282  26.651  29.570  1.00  0.00     0.167 HD
ATOM     25  C   UNL A   1      43.119  28.070  33.484  1.00  0.00     0.031 A 
ATOM     26  C   UNL A   1      42.384  24.448  27.923  1.00  0.00     0.031 A 
ATOM     27  C   UNL A   1      44.209  28.624  32.728  1.00  0.00     0.049 A 
ATOM     28  C   UNL A   1      43.574  24.736  28.751  1.00  0.00     0.074 A 
ATOM     29  C   UNL A   1      44.526  29.870  32.226  1.00  0.00     0.029 A 
ATOM     30  N   UNL A   1      45.069  27.748  32.114  1.00  0.00    -0.354 N 
ATOM     31  N   UNL A   1      44.510  25.575  28.418  1.00  0.00    -0.248 NA
ATOM     32  C   UNL A   1      43.575  24.322  30.145  1.00  0.00     0.031 C 
ATOM     33  C   UNL A   1      45.220  29.617  31.007  1.00  0.00     0.029 A 
ATOM     34  C   UNL A   1      45.306  28.233  30.855  1.00  0.00     0.049 A 
ATOM     35  H   UNL A   1      45.446  26.926  32.504  1.00  0.00     0.167 HD
ATOM     36  C   UNL A   1      44.941  26.119  29.617  1.00  0.00     0.074 A 
ATOM     37  C   UNL A   1      44.434  25.214  30.644  1.00  0.00     0.031 C 
ATOM     38  C   UNL A   1      45.419  27.397  29.681  1.00  0.00     0.031 A 
BRANCH  25  39
ATOM     39  C   UNL A   1      43.351  27.084  34.605  1.00  0.00    -0.014 A 
ATOM     40  C   UNL A   1      43.147  25.713  34.357  1.00  0.00     0.009 A 
ATOM     41  C   UNL A   1      43.470  27.469  35.954  1.00  0.00     0.009 A 
ATOM     42  C   UNL A   1      42.981  24.798  35.404  1.00  0.00     0.001 A 
ATOM     43  C   UNL A   1      43.354  26.549  37.001  1.00  0.00     0.001 A 
ATOM     44  C   UNL A   1      43.077  25.218  36.725  1.00  0.00     0.000 A 
ENDBRANCH  25  39
BRANCH  26  45
ATOM     45  C   UNL A   1      42.139  23.104  27.360  1.00  0.00    -0.014 A 
ATOM     46  C   UNL A   1      42.980  22.580  26.366  1.00  0.00     0.009 A 
ATOM     47  C   UNL A   1      41.226  22.231  27.976  1.00  0.00     0.009 A 
ATOM     48  C   UNL A   1      42.932  21.222  26.027  1.00  0.00     0.001 A 
ATOM     49  C   UNL A   1      41.170  20.877  27.632  1.00  0.00     0.001 A 
ATOM     50  C   UNL A   1      42.035  20.370  26.668  1.00  0.00     0.000 A 
ENDBRANCH  26  45
BRANCH  38  51
ATOM     51  C   UNL A   1      45.789  28.086  28.393  1.00  0.00    -0.014 A 
ATOM     52  C   UNL A   1      44.885  28.865  27.652  1.00  0.00     0.009 A 
ATOM     53  C   UNL A   1      47.132  28.056  27.982  1.00  0.00     0.009 A 
ATOM     54  C   UNL A   1      45.299  29.552  26.509  1.00  0.00     0.001 A 
ATOM     55  C   UNL A   1      47.552  28.765  26.855  1.00  0.00     0.001 A 
ATOM     56  C   UNL A   1      46.634  29.505  26.113  1.00  0.00     0.000 A 
ENDBRANCH  38  51
ENDBRANCH  12  13
ENDBRANCH   5   7
ENDBRANCH   2   3
ENDBRANCH   1   2
BRANCH   1  57
ATOM     57  C   UNL A   1      32.466  28.670  27.626  1.00  0.00     0.023 C 
BRANCH  57  58
ATOM     58  C   UNL A   1      31.496  28.295  26.499  1.00  0.00     0.116 C 
BRANCH  58  59
ATOM     59  N   UNL A   1      31.071  26.908  26.556  1.00  0.00    -0.354 N 
ATOM     60  C   UNL A   1      30.674  26.080  25.547  1.00  0.00     0.243 C 
ATOM     61  H   UNL A   1      31.071  26.506  27.454  1.00  0.00     0.163 HD
ATOM     62  O   UNL A   1      30.288  24.950  25.865  1.00  0.00    -0.273 OA
BRANCH  60  63
ATOM     63  C   UNL A   1      30.531  26.567  24.091  1.00  0.00     0.181 C 
ATOM     64  C   UNL A   1      29.072  27.135  24.041  1.00  0.00     0.091 C 
ATOM     65  N   UNL A   1      31.649  27.431  23.559  1.00  0.00    -0.320 N 
ATOM     66  C   UNL A   1      28.952  28.251  23.095  1.00  0.00     0.042 A 
ATOM     67  C   UNL A   1      31.383  28.367  22.439  1.00  0.00     0.178 C 
ATOM     68  N   UNL A   1      27.829  28.948  22.759  1.00  0.00    -0.348 N 
ATOM     69  C   UNL A   1      29.978  28.823  22.397  1.00  0.00     0.081 A 
ATOM     70  C   UNL A   1      28.219  29.911  21.867  1.00  0.00     0.197 A 
ATOM     71  H   UNL A   1      26.916  28.790  23.092  1.00  0.00     0.167 HD
ATOM     72  N   UNL A   1      29.513  29.858  21.628  1.00  0.00    -0.240 NA
BRANCH  65  73
ATOM     73  C   UNL A   1      33.013  27.065  23.604  1.00  0.00     0.256 C 
ATOM     74  O   UNL A   1      33.913  27.862  23.866  1.00  0.00    -0.269 OA
BRANCH  73  75
ATOM     75  C   UNL A   1      33.432  25.662  23.470  1.00  0.00     0.061 A 
ATOM     76  C   UNL A   1      34.113  25.118  24.561  1.00  0.00     0.035 A 
ATOM     77  C   UNL A   1      33.247  24.901  22.323  1.00  0.00     0.072 A 
ATOM     78  C   UNL A   1      34.455  23.780  24.524  1.00  0.00     0.112 A 
ATOM     79  C   UNL A   1      33.619  23.566  22.389  1.00  0.00     0.132 A 
ATOM     80  Cl  UNL A   1      32.648  25.542  20.846  1.00  0.00    -0.082 Cl
ATOM     81  N   UNL A   1      34.193  22.982  23.472  1.00  0.00    -0.263 NA
ENDBRANCH  73  75
ENDBRANCH  65  73
ENDBRANCH  60  63
ENDBRANCH  58  59
ENDBRANCH  57  58
ENDBRANCH   1  57
TORSDOF 13
ENDMDL
