MODEL 1
REMARK VINA RESULT:     -12.5      0.000      0.000
REMARK SMILES O=C(NCCCCNC(=O)c1cc(N2C(=O)C[C@H](Nc3ccccc3O)C2=O)ccc1O)c1ccc(-c2c3nc(c(-c4ccccc4)c4ccc([nH]4)c(-c4ccccc4)c4nc(c(-c5ccccc5)c5ccc2[nH]5)C=C4)C=C3)cc1
REMARK SMILES IDX 6 1 5 2 4 3 3 4 1 5 2 6 33 8 34 9 80 10 35 11 79 12 36 13
REMARK SMILES IDX 37 14 38 15 73 16 39 17 78 18 72 19 74 20 40 21 77 22 71 23
REMARK SMILES IDX 70 24 41 26 63 27 48 28 62 29 49 30 52 31 61 32 75 33 50 34
REMARK SMILES IDX 51 35 60 37 76 38 53 39 42 40 43 41 47 42 44 43 46 44 45 45
REMARK SMILES IDX 64 46 65 47 69 48 66 49 68 50 67 51 54 52 55 53 59 54 56 55
REMARK SMILES IDX 58 56 57 57 7 58 8 59 9 60 10 62 11 63 12 64 31 65 13 66
REMARK SMILES IDX 30 67 29 68 32 69 14 71 15 72 27 73 16 74 17 75 18 76 28 77
REMARK SMILES IDX 19 78 20 80 21 81 25 82 22 83 24 84 23 85 26 86
REMARK H PARENT 3 7 74 25 52 36 8 61 32 70 19 79 26 87
REMARK Flexibility Score: inf
ROOT
ATOM      1  C   UNL A   1      36.624  20.363  25.034  1.00  0.00     0.023 C 
ENDROOT
BRANCH   1   2
ATOM      2  C   UNL A   1      37.960  19.641  24.844  1.00  0.00     0.023 C 
BRANCH   2   3
ATOM      3  C   UNL A   1      39.069  20.062  25.803  1.00  0.00     0.116 C 
BRANCH   3   4
ATOM      4  N   UNL A   1      40.162  19.104  25.844  1.00  0.00    -0.352 N 
ATOM      5  O   UNL A   1      42.296  18.387  25.911  1.00  0.00    -0.269 OA
ATOM      6  C   UNL A   1      41.498  19.301  26.088  1.00  0.00     0.251 C 
ATOM      7  H   UNL A   1      39.904  18.170  25.672  1.00  0.00     0.163 HD
BRANCH   6   8
ATOM      8  C   UNL A   1      41.985  20.622  26.542  1.00  0.00     0.039 A 
ATOM      9  C   UNL A   1      42.076  20.929  27.902  1.00  0.00     0.014 A 
ATOM     10  C   UNL A   1      42.384  21.555  25.583  1.00  0.00     0.014 A 
ATOM     11  C   UNL A   1      42.441  22.213  28.300  1.00  0.00     0.010 A 
ATOM     12  C   UNL A   1      42.816  22.819  25.985  1.00  0.00     0.010 A 
ATOM     13  C   UNL A   1      42.820  23.168  27.345  1.00  0.00    -0.014 A 
BRANCH  13  14
ATOM     14  C   UNL A   1      43.257  24.521  27.768  1.00  0.00     0.031 A 
ATOM     15  C   UNL A   1      42.247  25.575  28.121  1.00  0.00     0.074 A 
ATOM     16  C   UNL A   1      44.571  24.808  27.799  1.00  0.00     0.049 A 
ATOM     17  N   UNL A   1      42.441  26.834  28.423  1.00  0.00    -0.248 NA
ATOM     18  C   UNL A   1      40.835  25.164  28.127  1.00  0.00     0.031 C 
ATOM     19  C   UNL A   1      45.649  23.868  27.484  1.00  0.00     0.029 A 
ATOM     20  N   UNL A   1      45.223  25.977  28.097  1.00  0.00    -0.354 N 
ATOM     21  C   UNL A   1      41.178  27.374  28.628  1.00  0.00     0.074 A 
ATOM     22  C   UNL A   1      40.224  26.309  28.396  1.00  0.00     0.031 C 
ATOM     23  C   UNL A   1      46.827  24.494  27.613  1.00  0.00     0.029 A 
ATOM     24  C   UNL A   1      46.586  25.890  27.961  1.00  0.00     0.049 A 
ATOM     25  H   UNL A   1      44.759  26.797  28.382  1.00  0.00     0.167 HD
ATOM     26  C   UNL A   1      40.844  28.640  28.974  1.00  0.00     0.031 A 
ATOM     27  C   UNL A   1      47.538  26.835  28.067  1.00  0.00     0.031 A 
ATOM     28  C   UNL A   1      41.797  29.696  29.197  1.00  0.00     0.049 A 
ATOM     29  C   UNL A   1      47.144  28.242  28.407  1.00  0.00     0.074 A 
ATOM     30  C   UNL A   1      41.560  31.003  29.588  1.00  0.00     0.029 A 
ATOM     31  N   UNL A   1      43.169  29.569  29.041  1.00  0.00    -0.354 N 
ATOM     32  N   UNL A   1      45.948  28.730  28.628  1.00  0.00    -0.248 NA
ATOM     33  C   UNL A   1      48.229  29.226  28.516  1.00  0.00     0.031 C 
ATOM     34  C   UNL A   1      42.783  31.680  29.614  1.00  0.00     0.029 A 
ATOM     35  C   UNL A   1      43.789  30.779  29.298  1.00  0.00     0.049 A 
ATOM     36  H   UNL A   1      43.634  28.739  28.783  1.00  0.00     0.167 HD
ATOM     37  C   UNL A   1      46.137  30.072  28.926  1.00  0.00     0.074 A 
ATOM     38  C   UNL A   1      47.563  30.319  28.863  1.00  0.00     0.031 C 
ATOM     39  C   UNL A   1      45.209  31.012  29.232  1.00  0.00     0.031 A 
BRANCH  26  40
ATOM     40  C   UNL A   1      39.379  28.961  29.089  1.00  0.00    -0.014 A 
ATOM     41  C   UNL A   1      38.687  28.806  30.300  1.00  0.00     0.009 A 
ATOM     42  C   UNL A   1      38.686  29.446  27.969  1.00  0.00     0.009 A 
ATOM     43  C   UNL A   1      37.320  29.088  30.374  1.00  0.00     0.001 A 
ATOM     44  C   UNL A   1      37.328  29.754  28.053  1.00  0.00     0.001 A 
ATOM     45  C   UNL A   1      36.643  29.563  29.252  1.00  0.00     0.000 A 
ENDBRANCH  26  40
BRANCH  27  46
ATOM     46  C   UNL A   1      48.955  26.464  27.826  1.00  0.00    -0.014 A 
ATOM     47  C   UNL A   1      49.470  26.424  26.523  1.00  0.00     0.009 A 
ATOM     48  C   UNL A   1      49.813  26.203  28.907  1.00  0.00     0.009 A 
ATOM     49  C   UNL A   1      50.817  26.123  26.307  1.00  0.00     0.001 A 
ATOM     50  C   UNL A   1      51.163  25.928  28.689  1.00  0.00     0.001 A 
ATOM     51  C   UNL A   1      51.664  25.884  27.389  1.00  0.00     0.000 A 
ENDBRANCH  27  46
BRANCH  39  52
ATOM     52  C   UNL A   1      45.705  32.389  29.566  1.00  0.00    -0.014 A 
ATOM     53  C   UNL A   1      45.817  33.383  28.582  1.00  0.00     0.009 A 
ATOM     54  C   UNL A   1      46.005  32.711  30.899  1.00  0.00     0.009 A 
ATOM     55  C   UNL A   1      46.237  34.669  28.927  1.00  0.00     0.001 A 
ATOM     56  C   UNL A   1      46.400  34.004  31.244  1.00  0.00     0.001 A 
ATOM     57  C   UNL A   1      46.522  34.980  30.257  1.00  0.00     0.000 A 
ENDBRANCH  39  52
ENDBRANCH  13  14
ENDBRANCH   6   8
ENDBRANCH   3   4
ENDBRANCH   2   3
ENDBRANCH   1   2
BRANCH   1  58
ATOM     58  C   UNL A   1      36.727  21.855  25.336  1.00  0.00     0.116 C 
BRANCH  58  59
ATOM     59  N   UNL A   1      36.077  22.206  26.582  1.00  0.00    -0.352 N 
ATOM     60  C   UNL A   1      34.738  22.374  26.818  1.00  0.00     0.255 C 
ATOM     61  H   UNL A   1      36.671  22.342  27.355  1.00  0.00     0.163 HD
ATOM     62  O   UNL A   1      34.350  22.753  27.920  1.00  0.00    -0.269 OA
BRANCH  60  63
ATOM     63  C   UNL A   1      33.751  22.155  25.742  1.00  0.00     0.083 A 
ATOM     64  C   UNL A   1      33.443  23.253  24.926  1.00  0.00     0.044 A 
ATOM     65  C   UNL A   1      33.052  20.954  25.593  1.00  0.00     0.128 A 
ATOM     66  C   UNL A   1      32.408  23.172  23.987  1.00  0.00     0.053 A 
ATOM     67  C   UNL A   1      32.047  20.850  24.632  1.00  0.00     0.049 A 
ATOM     68  C   UNL A   1      31.712  21.962  23.853  1.00  0.00     0.031 A 
BRANCH  65  69
ATOM     69  O   UNL A   1      33.330  19.880  26.390  1.00  0.00    -0.507 OA
ATOM     70  H   UNL A   1      34.218  19.619  26.532  1.00  0.00     0.293 HD
ENDBRANCH  65  69
BRANCH  66  71
ATOM     71  N   UNL A   1      32.045  24.307  23.223  1.00  0.00    -0.249 N 
ATOM     72  C   UNL A   1      32.801  24.812  22.195  1.00  0.00     0.236 C 
ATOM     73  C   UNL A   1      30.908  25.048  23.451  1.00  0.00     0.256 C 
ATOM     74  O   UNL A   1      33.882  24.413  21.790  1.00  0.00    -0.274 OA
ATOM     75  C   UNL A   1      32.044  25.916  21.522  1.00  0.00     0.136 C 
ATOM     76  C   UNL A   1      30.848  26.173  22.423  1.00  0.00     0.179 C 
ATOM     77  O   UNL A   1      30.133  24.909  24.392  1.00  0.00    -0.272 OA
BRANCH  76  78
ATOM     78  N   UNL A   1      30.992  27.501  23.042  1.00  0.00    -0.370 N 
ATOM     79  H   UNL A   1      31.787  27.727  23.575  1.00  0.00     0.161 HD
BRANCH  78  80
ATOM     80  C   UNL A   1      29.963  28.432  22.850  1.00  0.00     0.077 A 
ATOM     81  C   UNL A   1      28.675  28.105  23.287  1.00  0.00     0.029 A 
ATOM     82  C   UNL A   1      30.114  29.591  22.070  1.00  0.00     0.138 A 
ATOM     83  C   UNL A   1      27.585  28.937  23.009  1.00  0.00     0.002 A 
ATOM     84  C   UNL A   1      29.032  30.423  21.778  1.00  0.00     0.048 A 
ATOM     85  C   UNL A   1      27.765  30.096  22.255  1.00  0.00     0.004 A 
BRANCH  82  86
ATOM     86  O   UNL A   1      31.350  29.897  21.571  1.00  0.00    -0.506 OA
ATOM     87  H   UNL A   1      31.490  30.712  21.132  1.00  0.00     0.293 HD
ENDBRANCH  82  86
ENDBRANCH  78  80
ENDBRANCH  76  78
ENDBRANCH  66  71
ENDBRANCH  60  63
ENDBRANCH  58  59
ENDBRANCH   1  58
TORSDOF 16
ENDMDL
MODEL 2
REMARK VINA RESULT:     -12.5      1.094      5.837
REMARK SMILES O=C(NCCCCNC(=O)c1cc(N2C(=O)C[C@H](Nc3ccccc3O)C2=O)ccc1O)c1ccc(-c2c3nc(c(-c4ccccc4)c4ccc([nH]4)c(-c4ccccc4)c4nc(c(-c5ccccc5)c5ccc2[nH]5)C=C4)C=C3)cc1
REMARK SMILES IDX 6 1 5 2 4 3 3 4 1 5 2 6 33 8 34 9 80 10 35 11 79 12 36 13
REMARK SMILES IDX 37 14 38 15 73 16 39 17 78 18 72 19 74 20 40 21 77 22 71 23
REMARK SMILES IDX 70 24 41 26 63 27 48 28 62 29 49 30 52 31 61 32 75 33 50 34
REMARK SMILES IDX 51 35 60 37 76 38 53 39 42 40 43 41 47 42 44 43 46 44 45 45
REMARK SMILES IDX 64 46 65 47 69 48 66 49 68 50 67 51 54 52 55 53 59 54 56 55
REMARK SMILES IDX 58 56 57 57 7 58 8 59 9 60 10 62 11 63 12 64 31 65 13 66
REMARK SMILES IDX 30 67 29 68 32 69 14 71 15 72 27 73 16 74 17 75 18 76 28 77
REMARK SMILES IDX 19 78 20 80 21 81 25 82 22 83 24 84 23 85 26 86
REMARK H PARENT 3 7 74 25 52 36 8 61 32 70 19 79 26 87
REMARK Flexibility Score: inf
ROOT
ATOM      1  C   UNL A   1      36.654  20.008  25.005  1.00  0.00     0.023 C 
ENDROOT
BRANCH   1   2
ATOM      2  C   UNL A   1      38.113  19.625  24.746  1.00  0.00     0.023 C 
BRANCH   2   3
ATOM      3  C   UNL A   1      39.100  20.055  25.827  1.00  0.00     0.116 C 
BRANCH   3   4
ATOM      4  N   UNL A   1      40.272  19.195  25.886  1.00  0.00    -0.352 N 
ATOM      5  O   UNL A   1      42.457  18.665  26.013  1.00  0.00    -0.269 OA
ATOM      6  C   UNL A   1      41.576  19.501  26.182  1.00  0.00     0.251 C 
ATOM      7  H   UNL A   1      40.102  18.247  25.682  1.00  0.00     0.163 HD
BRANCH   6   8
ATOM      8  C   UNL A   1      41.929  20.847  26.684  1.00  0.00     0.039 A 
ATOM      9  C   UNL A   1      41.813  21.164  28.041  1.00  0.00     0.014 A 
ATOM     10  C   UNL A   1      42.412  21.795  25.780  1.00  0.00     0.014 A 
ATOM     11  C   UNL A   1      42.056  22.466  28.471  1.00  0.00     0.010 A 
ATOM     12  C   UNL A   1      42.721  23.081  26.224  1.00  0.00     0.010 A 
ATOM     13  C   UNL A   1      42.518  23.435  27.567  1.00  0.00    -0.014 A 
BRANCH  13  14
ATOM     14  C   UNL A   1      42.824  24.810  28.031  1.00  0.00     0.031 A 
ATOM     15  C   UNL A   1      44.223  25.194  28.417  1.00  0.00     0.074 A 
ATOM     16  C   UNL A   1      41.825  25.706  28.135  1.00  0.00     0.049 A 
ATOM     17  N   UNL A   1      44.658  26.318  28.929  1.00  0.00    -0.248 NA
ATOM     18  C   UNL A   1      45.268  24.181  28.212  1.00  0.00     0.031 C 
ATOM     19  C   UNL A   1      40.426  25.456  27.784  1.00  0.00     0.029 A 
ATOM     20  N   UNL A   1      41.832  27.003  28.580  1.00  0.00    -0.354 N 
ATOM     21  C   UNL A   1      46.020  26.140  29.133  1.00  0.00     0.074 A 
ATOM     22  C   UNL A   1      46.336  24.792  28.708  1.00  0.00     0.031 C 
ATOM     23  C   UNL A   1      39.711  26.565  28.019  1.00  0.00     0.029 A 
ATOM     24  C   UNL A   1      40.587  27.582  28.591  1.00  0.00     0.049 A 
ATOM     25  H   UNL A   1      42.649  27.473  28.862  1.00  0.00     0.167 HD
ATOM     26  C   UNL A   1      46.924  27.017  29.630  1.00  0.00     0.031 A 
ATOM     27  C   UNL A   1      40.184  28.783  29.043  1.00  0.00     0.031 A 
ATOM     28  C   UNL A   1      46.604  28.355  30.057  1.00  0.00     0.049 A 
ATOM     29  C   UNL A   1      41.193  29.723  29.633  1.00  0.00     0.074 A 
ATOM     30  C   UNL A   1      47.456  29.333  30.540  1.00  0.00     0.029 A 
ATOM     31  N   UNL A   1      45.328  28.899  30.059  1.00  0.00    -0.354 N 
ATOM     32  N   UNL A   1      42.483  29.552  29.790  1.00  0.00    -0.248 NA
ATOM     33  C   UNL A   1      40.693  31.022  30.102  1.00  0.00     0.031 C 
ATOM     34  C   UNL A   1      46.688  30.449  30.886  1.00  0.00     0.029 A 
ATOM     35  C   UNL A   1      45.365  30.188  30.562  1.00  0.00     0.049 A 
ATOM     36  H   UNL A   1      44.516  28.436  29.749  1.00  0.00     0.167 HD
ATOM     37  C   UNL A   1      42.954  30.729  30.355  1.00  0.00     0.074 A 
ATOM     38  C   UNL A   1      41.812  31.608  30.507  1.00  0.00     0.031 C 
ATOM     39  C   UNL A   1      44.222  31.053  30.708  1.00  0.00     0.031 A 
BRANCH  26  40
ATOM     40  C   UNL A   1      48.342  26.538  29.781  1.00  0.00    -0.014 A 
ATOM     41  C   UNL A   1      49.295  26.738  28.770  1.00  0.00     0.009 A 
ATOM     42  C   UNL A   1      48.733  25.892  30.963  1.00  0.00     0.009 A 
ATOM     43  C   UNL A   1      50.599  26.261  28.925  1.00  0.00     0.001 A 
ATOM     44  C   UNL A   1      50.044  25.442  31.127  1.00  0.00     0.001 A 
ATOM     45  C   UNL A   1      50.973  25.616  30.103  1.00  0.00     0.000 A 
ENDBRANCH  26  40
BRANCH  27  46
ATOM     46  C   UNL A   1      38.745  29.140  28.965  1.00  0.00    -0.014 A 
ATOM     47  C   UNL A   1      37.906  28.968  30.075  1.00  0.00     0.009 A 
ATOM     48  C   UNL A   1      38.219  29.707  27.793  1.00  0.00     0.009 A 
ATOM     49  C   UNL A   1      36.565  29.352  30.010  1.00  0.00     0.001 A 
ATOM     50  C   UNL A   1      36.885  30.114  27.740  1.00  0.00     0.001 A 
ATOM     51  C   UNL A   1      36.058  29.932  28.847  1.00  0.00     0.000 A 
ENDBRANCH  27  46
BRANCH  39  52
ATOM     52  C   UNL A   1      44.456  32.431  31.255  1.00  0.00    -0.014 A 
ATOM     53  C   UNL A   1      44.430  32.683  32.635  1.00  0.00     0.009 A 
ATOM     54  C   UNL A   1      44.771  33.479  30.375  1.00  0.00     0.009 A 
ATOM     55  C   UNL A   1      44.697  33.965  33.120  1.00  0.00     0.001 A 
ATOM     56  C   UNL A   1      45.061  34.753  30.866  1.00  0.00     0.001 A 
ATOM     57  C   UNL A   1      45.019  34.996  32.237  1.00  0.00     0.000 A 
ENDBRANCH  39  52
ENDBRANCH  13  14
ENDBRANCH   6   8
ENDBRANCH   3   4
ENDBRANCH   2   3
ENDBRANCH   1   2
BRANCH   1  58
ATOM     58  C   UNL A   1      36.435  21.429  25.517  1.00  0.00     0.116 C 
BRANCH  58  59
ATOM     59  N   UNL A   1      35.455  21.480  26.582  1.00  0.00    -0.352 N 
ATOM     60  C   UNL A   1      34.098  21.628  26.475  1.00  0.00     0.255 C 
ATOM     61  H   UNL A   1      35.809  21.398  27.497  1.00  0.00     0.163 HD
ATOM     62  O   UNL A   1      33.408  21.732  27.486  1.00  0.00    -0.269 OA
BRANCH  60  63
ATOM     63  C   UNL A   1      33.453  21.717  25.149  1.00  0.00     0.083 A 
ATOM     64  C   UNL A   1      33.280  22.999  24.610  1.00  0.00     0.044 A 
ATOM     65  C   UNL A   1      32.923  20.603  24.492  1.00  0.00     0.128 A 
ATOM     66  C   UNL A   1      32.540  23.181  23.434  1.00  0.00     0.053 A 
ATOM     67  C   UNL A   1      32.222  20.769  23.300  1.00  0.00     0.049 A 
ATOM     68  C   UNL A   1      32.011  22.054  22.790  1.00  0.00     0.031 A 
BRANCH  65  69
ATOM     69  O   UNL A   1      33.071  19.348  25.013  1.00  0.00    -0.507 OA
ATOM     70  H   UNL A   1      33.885  19.095  25.401  1.00  0.00     0.293 HD
ENDBRANCH  65  69
BRANCH  66  71
ATOM     71  N   UNL A   1      32.298  24.484  22.937  1.00  0.00    -0.249 N 
ATOM     72  C   UNL A   1      33.276  25.311  22.447  1.00  0.00     0.236 C 
ATOM     73  C   UNL A   1      31.055  25.074  22.921  1.00  0.00     0.256 C 
ATOM     74  O   UNL A   1      34.477  25.099  22.380  1.00  0.00    -0.274 OA
ATOM     75  C   UNL A   1      32.641  26.542  21.875  1.00  0.00     0.136 C 
ATOM     76  C   UNL A   1      31.184  26.461  22.300  1.00  0.00     0.179 C 
ATOM     77  O   UNL A   1      30.034  24.621  23.428  1.00  0.00    -0.272 OA
BRANCH  76  78
ATOM     78  N   UNL A   1      30.908  27.533  23.270  1.00  0.00    -0.370 N 
ATOM     79  H   UNL A   1      31.423  27.605  24.105  1.00  0.00     0.161 HD
BRANCH  78  80
ATOM     80  C   UNL A   1      29.891  28.449  22.968  1.00  0.00     0.077 A 
ATOM     81  C   UNL A   1      28.575  28.123  23.311  1.00  0.00     0.029 A 
ATOM     82  C   UNL A   1      30.096  29.585  22.168  1.00  0.00     0.138 A 
ATOM     83  C   UNL A   1      27.505  28.936  22.921  1.00  0.00     0.002 A 
ATOM     84  C   UNL A   1      29.035  30.399  21.766  1.00  0.00     0.048 A 
ATOM     85  C   UNL A   1      27.736  30.074  22.150  1.00  0.00     0.004 A 
BRANCH  82  86
ATOM     86  O   UNL A   1      31.366  29.889  21.761  1.00  0.00    -0.506 OA
ATOM     87  H   UNL A   1      31.745  30.717  21.981  1.00  0.00     0.293 HD
ENDBRANCH  82  86
ENDBRANCH  78  80
ENDBRANCH  76  78
ENDBRANCH  66  71
ENDBRANCH  60  63
ENDBRANCH  58  59
ENDBRANCH   1  58
TORSDOF 16
ENDMDL
MODEL 3
REMARK VINA RESULT:     -12.4      2.175      2.693
REMARK SMILES O=C(NCCCCNC(=O)c1cc(N2C(=O)C[C@H](Nc3ccccc3O)C2=O)ccc1O)c1ccc(-c2c3nc(c(-c4ccccc4)c4ccc([nH]4)c(-c4ccccc4)c4nc(c(-c5ccccc5)c5ccc2[nH]5)C=C4)C=C3)cc1
REMARK SMILES IDX 6 1 5 2 4 3 3 4 1 5 2 6 33 8 34 9 80 10 35 11 79 12 36 13
REMARK SMILES IDX 37 14 38 15 73 16 39 17 78 18 72 19 74 20 40 21 77 22 71 23
REMARK SMILES IDX 70 24 41 26 63 27 48 28 62 29 49 30 52 31 61 32 75 33 50 34
REMARK SMILES IDX 51 35 60 37 76 38 53 39 42 40 43 41 47 42 44 43 46 44 45 45
REMARK SMILES IDX 64 46 65 47 69 48 66 49 68 50 67 51 54 52 55 53 59 54 56 55
REMARK SMILES IDX 58 56 57 57 7 58 8 59 9 60 10 62 11 63 12 64 31 65 13 66
REMARK SMILES IDX 30 67 29 68 32 69 14 71 15 72 27 73 16 74 17 75 18 76 28 77
REMARK SMILES IDX 19 78 20 80 21 81 25 82 22 83 24 84 23 85 26 86
REMARK H PARENT 3 7 74 25 52 36 8 61 32 70 19 79 26 87
REMARK Flexibility Score: inf
ROOT
ATOM      1  C   UNL A   1      36.229  19.548  25.015  1.00  0.00     0.023 C 
ENDROOT
BRANCH   1   2
ATOM      2  C   UNL A   1      37.686  19.779  24.605  1.00  0.00     0.023 C 
BRANCH   2   3
ATOM      3  C   UNL A   1      38.637  20.120  25.748  1.00  0.00     0.116 C 
BRANCH   3   4
ATOM      4  N   UNL A   1      39.797  19.244  25.788  1.00  0.00    -0.352 N 
ATOM      5  O   UNL A   1      41.978  18.685  25.873  1.00  0.00    -0.269 OA
ATOM      6  C   UNL A   1      41.111  19.534  26.056  1.00  0.00     0.251 C 
ATOM      7  H   UNL A   1      39.611  18.298  25.593  1.00  0.00     0.163 HD
BRANCH   6   8
ATOM      8  C   UNL A   1      41.493  20.877  26.543  1.00  0.00     0.039 A 
ATOM      9  C   UNL A   1      41.820  21.902  25.651  1.00  0.00     0.014 A 
ATOM     10  C   UNL A   1      41.494  21.117  27.919  1.00  0.00     0.014 A 
ATOM     11  C   UNL A   1      42.273  23.126  26.138  1.00  0.00     0.010 A 
ATOM     12  C   UNL A   1      41.882  22.366  28.404  1.00  0.00     0.010 A 
ATOM     13  C   UNL A   1      42.302  23.371  27.519  1.00  0.00    -0.014 A 
BRANCH  13  14
ATOM     14  C   UNL A   1      42.738  24.690  28.039  1.00  0.00     0.031 A 
ATOM     15  C   UNL A   1      41.731  25.756  28.364  1.00  0.00     0.074 A 
ATOM     16  C   UNL A   1      44.053  24.937  28.187  1.00  0.00     0.049 A 
ATOM     17  N   UNL A   1      41.932  26.993  28.741  1.00  0.00    -0.248 NA
ATOM     18  C   UNL A   1      40.313  25.386  28.239  1.00  0.00     0.031 C 
ATOM     19  C   UNL A   1      45.127  23.981  27.911  1.00  0.00     0.029 A 
ATOM     20  N   UNL A   1      44.708  26.071  28.591  1.00  0.00    -0.354 N 
ATOM     21  C   UNL A   1      40.671  27.559  28.872  1.00  0.00     0.074 A 
ATOM     22  C   UNL A   1      39.711  26.535  28.515  1.00  0.00     0.031 C 
ATOM     23  C   UNL A   1      46.307  24.566  28.163  1.00  0.00     0.029 A 
ATOM     24  C   UNL A   1      46.075  25.951  28.558  1.00  0.00     0.049 A 
ATOM     25  H   UNL A   1      44.244  26.890  28.878  1.00  0.00     0.167 HD
ATOM     26  C   UNL A   1      40.343  28.817  29.252  1.00  0.00     0.031 A 
ATOM     27  C   UNL A   1      47.040  26.861  28.784  1.00  0.00     0.031 A 
ATOM     28  C   UNL A   1      41.302  29.834  29.600  1.00  0.00     0.049 A 
ATOM     29  C   UNL A   1      46.656  28.262  29.160  1.00  0.00     0.074 A 
ATOM     30  C   UNL A   1      41.068  31.127  30.034  1.00  0.00     0.029 A 
ATOM     31  N   UNL A   1      42.678  29.674  29.545  1.00  0.00    -0.354 N 
ATOM     32  N   UNL A   1      45.459  28.774  29.311  1.00  0.00    -0.248 NA
ATOM     33  C   UNL A   1      47.754  29.208  29.401  1.00  0.00     0.031 C 
ATOM     34  C   UNL A   1      42.302  31.766  30.189  1.00  0.00     0.029 A 
ATOM     35  C   UNL A   1      43.307  30.852  29.909  1.00  0.00     0.049 A 
ATOM     36  H   UNL A   1      43.141  28.844  29.285  1.00  0.00     0.167 HD
ATOM     37  C   UNL A   1      45.658  30.095  29.688  1.00  0.00     0.074 A 
ATOM     38  C   UNL A   1      47.090  30.303  29.748  1.00  0.00     0.031 C 
ATOM     39  C   UNL A   1      44.733  31.046  29.965  1.00  0.00     0.031 A 
BRANCH  26  40
ATOM     40  C   UNL A   1      38.882  29.176  29.268  1.00  0.00    -0.014 A 
ATOM     41  C   UNL A   1      38.100  29.015  30.422  1.00  0.00     0.009 A 
ATOM     42  C   UNL A   1      38.285  29.702  28.112  1.00  0.00     0.009 A 
ATOM     43  C   UNL A   1      36.739  29.332  30.403  1.00  0.00     0.001 A 
ATOM     44  C   UNL A   1      36.933  30.045  28.104  1.00  0.00     0.001 A 
ATOM     45  C   UNL A   1      36.158  29.848  29.245  1.00  0.00     0.000 A 
ENDBRANCH  26  40
BRANCH  27  46
ATOM     46  C   UNL A   1      48.461  26.461  28.637  1.00  0.00    -0.014 A 
ATOM     47  C   UNL A   1      49.153  25.876  29.707  1.00  0.00     0.009 A 
ATOM     48  C   UNL A   1      49.115  26.612  27.403  1.00  0.00     0.009 A 
ATOM     49  C   UNL A   1      50.476  25.456  29.546  1.00  0.00     0.001 A 
ATOM     50  C   UNL A   1      50.428  26.168  27.238  1.00  0.00     0.001 A 
ATOM     51  C   UNL A   1      51.109  25.595  28.310  1.00  0.00     0.000 A 
ENDBRANCH  27  46
BRANCH  39  52
ATOM     52  C   UNL A   1      45.236  32.391  30.403  1.00  0.00    -0.014 A 
ATOM     53  C   UNL A   1      45.474  32.677  31.756  1.00  0.00     0.009 A 
ATOM     54  C   UNL A   1      45.536  33.364  29.437  1.00  0.00     0.009 A 
ATOM     55  C   UNL A   1      45.986  33.920  32.132  1.00  0.00     0.001 A 
ATOM     56  C   UNL A   1      46.071  34.597  29.815  1.00  0.00     0.001 A 
ATOM     57  C   UNL A   1      46.290  34.876  31.162  1.00  0.00     0.000 A 
ENDBRANCH  39  52
ENDBRANCH  13  14
ENDBRANCH   6   8
ENDBRANCH   3   4
ENDBRANCH   2   3
ENDBRANCH   1   2
BRANCH   1  58
ATOM     58  C   UNL A   1      35.578  18.301  24.427  1.00  0.00     0.116 C 
BRANCH  58  59
ATOM     59  N   UNL A   1      34.375  17.925  25.141  1.00  0.00    -0.352 N 
ATOM     60  C   UNL A   1      33.097  18.373  24.938  1.00  0.00     0.255 C 
ATOM     61  H   UNL A   1      34.491  17.266  25.863  1.00  0.00     0.163 HD
ATOM     62  O   UNL A   1      32.192  18.014  25.687  1.00  0.00    -0.269 OA
BRANCH  60  63
ATOM     63  C   UNL A   1      32.799  19.332  23.855  1.00  0.00     0.083 A 
ATOM     64  C   UNL A   1      33.042  20.687  24.118  1.00  0.00     0.044 A 
ATOM     65  C   UNL A   1      32.192  18.949  22.656  1.00  0.00     0.128 A 
ATOM     66  C   UNL A   1      32.643  21.671  23.205  1.00  0.00     0.053 A 
ATOM     67  C   UNL A   1      31.828  19.918  21.722  1.00  0.00     0.049 A 
ATOM     68  C   UNL A   1      32.030  21.272  22.009  1.00  0.00     0.031 A 
BRANCH  65  69
ATOM     69  O   UNL A   1      31.934  17.634  22.391  1.00  0.00    -0.507 OA
ATOM     70  H   UNL A   1      32.214  17.256  21.581  1.00  0.00     0.293 HD
ENDBRANCH  65  69
BRANCH  66  71
ATOM     71  N   UNL A   1      32.816  23.042  23.511  1.00  0.00    -0.249 N 
ATOM     72  C   UNL A   1      33.862  23.803  23.053  1.00  0.00     0.236 C 
ATOM     73  C   UNL A   1      31.967  23.754  24.328  1.00  0.00     0.256 C 
ATOM     74  O   UNL A   1      34.802  23.450  22.359  1.00  0.00    -0.274 OA
ATOM     75  C   UNL A   1      33.643  25.232  23.449  1.00  0.00     0.136 C 
ATOM     76  C   UNL A   1      32.462  25.194  24.406  1.00  0.00     0.179 C 
ATOM     77  O   UNL A   1      31.040  23.290  24.984  1.00  0.00    -0.272 OA
BRANCH  76  78
ATOM     78  N   UNL A   1      32.929  25.551  25.755  1.00  0.00    -0.370 N 
ATOM     79  H   UNL A   1      33.327  24.874  26.348  1.00  0.00     0.161 HD
BRANCH  78  80
ATOM     80  C   UNL A   1      32.791  26.882  26.170  1.00  0.00     0.077 A 
ATOM     81  C   UNL A   1      33.911  27.718  26.117  1.00  0.00     0.029 A 
ATOM     82  C   UNL A   1      31.642  27.367  26.816  1.00  0.00     0.138 A 
ATOM     83  C   UNL A   1      33.867  29.017  26.636  1.00  0.00     0.002 A 
ATOM     84  C   UNL A   1      31.591  28.658  27.346  1.00  0.00     0.048 A 
ATOM     85  C   UNL A   1      32.706  29.486  27.250  1.00  0.00     0.004 A 
BRANCH  82  86
ATOM     86  O   UNL A   1      30.556  26.546  26.943  1.00  0.00    -0.506 OA
ATOM     87  H   UNL A   1      29.733  26.895  27.219  1.00  0.00     0.293 HD
ENDBRANCH  82  86
ENDBRANCH  78  80
ENDBRANCH  76  78
ENDBRANCH  66  71
ENDBRANCH  60  63
ENDBRANCH  58  59
ENDBRANCH   1  58
TORSDOF 16
ENDMDL
