MODEL 1
REMARK VINA RESULT:     -12.1      0.000      0.000
REMARK SMILES O=C(NCCCCNC(=O)c1[nH]ncc1C[NH+]1CCC([N@H+]2CCC[C@@H](C(=O)N3CCCC3)C2)CC1)c1ccc(-c2c3nc(c(-c4ccccc4)c4ccc([nH]4)c(-c4ccccc4)c4nc(c(-c5ccccc5)c5ccc2[nH]5)C=C4)C=C3)cc1
REMARK SMILES IDX 6 1 5 2 4 3 3 4 1 5 2 6 36 8 37 9 83 10 38 11 82 12 39 13
REMARK SMILES IDX 40 14 41 15 76 16 42 17 81 18 75 19 77 20 43 21 80 22 74 23
REMARK SMILES IDX 73 24 44 26 66 27 51 28 65 29 52 30 55 31 64 32 78 33 53 34
REMARK SMILES IDX 54 35 63 37 79 38 56 39 45 40 46 41 50 42 47 43 49 44 48 45
REMARK SMILES IDX 67 46 68 47 72 48 69 49 71 50 70 51 57 52 58 53 62 54 59 55
REMARK SMILES IDX 61 56 60 57 7 58 8 59 9 60 10 62 11 63 12 64 15 65 13 66
REMARK SMILES IDX 14 68 16 69 17 70 18 71 35 72 19 74 34 75 20 76 21 77 22 78
REMARK SMILES IDX 33 79 23 81 25 82 24 83 26 84 27 85 28 86 29 87 32 88 30 89
REMARK SMILES IDX 31 90
REMARK H PARENT 3 7 77 25 55 36 8 61 12 67 17 73 21 80
REMARK Flexibility Score: inf
ROOT
ATOM      1  C   UNL A   1      32.891  26.726  26.009  1.00  0.00     0.023 C 
ENDROOT
BRANCH   1   2
ATOM      2  C   UNL A   1      33.373  27.522  24.800  1.00  0.00     0.023 C 
BRANCH   2   3
ATOM      3  C   UNL A   1      34.121  28.808  25.126  1.00  0.00     0.116 C 
BRANCH   3   4
ATOM      4  N   UNL A   1      33.249  29.871  25.602  1.00  0.00    -0.352 N 
ATOM      5  O   UNL A   1      32.472  31.431  27.039  1.00  0.00    -0.269 OA
ATOM      6  C   UNL A   1      33.377  30.671  26.713  1.00  0.00     0.251 C 
ATOM      7  H   UNL A   1      32.453  30.043  25.049  1.00  0.00     0.163 HD
BRANCH   6   8
ATOM      8  C   UNL A   1      34.603  30.585  27.534  1.00  0.00     0.039 A 
ATOM      9  C   UNL A   1      35.425  31.701  27.696  1.00  0.00     0.014 A 
ATOM     10  C   UNL A   1      34.943  29.367  28.128  1.00  0.00     0.014 A 
ATOM     11  C   UNL A   1      36.664  31.559  28.306  1.00  0.00     0.010 A 
ATOM     12  C   UNL A   1      36.148  29.250  28.826  1.00  0.00     0.010 A 
ATOM     13  C   UNL A   1      37.034  30.337  28.890  1.00  0.00    -0.014 A 
BRANCH  13  14
ATOM     14  C   UNL A   1      38.325  30.245  29.617  1.00  0.00     0.031 A 
ATOM     15  C   UNL A   1      38.485  30.799  31.005  1.00  0.00     0.074 A 
ATOM     16  C   UNL A   1      39.355  29.619  29.015  1.00  0.00     0.049 A 
ATOM     17  N   UNL A   1      39.541  30.777  31.779  1.00  0.00    -0.248 NA
ATOM     18  C   UNL A   1      37.318  31.466  31.603  1.00  0.00     0.031 C 
ATOM     19  C   UNL A   1      39.320  29.043  27.667  1.00  0.00     0.029 A 
ATOM     20  N   UNL A   1      40.620  29.341  29.461  1.00  0.00    -0.354 N 
ATOM     21  C   UNL A   1      39.176  31.444  32.943  1.00  0.00     0.074 A 
ATOM     22  C   UNL A   1      37.806  31.875  32.766  1.00  0.00     0.031 C 
ATOM     23  C   UNL A   1      40.488  28.436  27.418  1.00  0.00     0.029 A 
ATOM     24  C   UNL A   1      41.377  28.638  28.555  1.00  0.00     0.049 A 
ATOM     25  H   UNL A   1      40.955  29.618  30.344  1.00  0.00     0.167 HD
ATOM     26  C   UNL A   1      39.916  31.674  34.053  1.00  0.00     0.031 A 
ATOM     27  C   UNL A   1      42.652  28.217  28.620  1.00  0.00     0.031 A 
ATOM     28  C   UNL A   1      41.278  31.237  34.226  1.00  0.00     0.049 A 
ATOM     29  C   UNL A   1      43.454  28.511  29.851  1.00  0.00     0.074 A 
ATOM     30  C   UNL A   1      42.099  31.396  35.331  1.00  0.00     0.029 A 
ATOM     31  N   UNL A   1      42.020  30.562  33.271  1.00  0.00    -0.354 N 
ATOM     32  N   UNL A   1      43.081  29.117  30.952  1.00  0.00    -0.248 NA
ATOM     33  C   UNL A   1      44.853  28.065  29.848  1.00  0.00     0.031 C 
ATOM     34  C   UNL A   1      43.354  30.857  35.024  1.00  0.00     0.029 A 
ATOM     35  C   UNL A   1      43.297  30.318  33.749  1.00  0.00     0.049 A 
ATOM     36  H   UNL A   1      41.689  30.295  32.383  1.00  0.00     0.167 HD
ATOM     37  C   UNL A   1      44.195  29.112  31.779  1.00  0.00     0.074 A 
ATOM     38  C   UNL A   1      45.248  28.422  31.062  1.00  0.00     0.031 C 
ATOM     39  C   UNL A   1      44.334  29.635  33.021  1.00  0.00     0.031 A 
BRANCH  26  40
ATOM     40  C   UNL A   1      39.282  32.455  35.171  1.00  0.00    -0.014 A 
ATOM     41  C   UNL A   1      38.519  31.821  36.163  1.00  0.00     0.009 A 
ATOM     42  C   UNL A   1      39.510  33.837  35.269  1.00  0.00     0.009 A 
ATOM     43  C   UNL A   1      37.977  32.560  37.218  1.00  0.00     0.001 A 
ATOM     44  C   UNL A   1      38.988  34.569  36.336  1.00  0.00     0.001 A 
ATOM     45  C   UNL A   1      38.218  33.931  37.308  1.00  0.00     0.000 A 
ENDBRANCH  26  40
BRANCH  27  46
ATOM     46  C   UNL A   1      43.249  27.492  27.470  1.00  0.00    -0.014 A 
ATOM     47  C   UNL A   1      43.865  28.194  26.424  1.00  0.00     0.009 A 
ATOM     48  C   UNL A   1      43.213  26.090  27.420  1.00  0.00     0.009 A 
ATOM     49  C   UNL A   1      44.415  27.505  25.340  1.00  0.00     0.001 A 
ATOM     50  C   UNL A   1      43.790  25.403  26.351  1.00  0.00     0.001 A 
ATOM     51  C   UNL A   1      44.382  26.112  25.308  1.00  0.00     0.000 A 
ENDBRANCH  27  46
BRANCH  39  52
ATOM     52  C   UNL A   1      45.667  29.455  33.687  1.00  0.00    -0.014 A 
ATOM     53  C   UNL A   1      45.943  28.321  34.465  1.00  0.00     0.009 A 
ATOM     54  C   UNL A   1      46.665  30.426  33.514  1.00  0.00     0.009 A 
ATOM     55  C   UNL A   1      47.184  28.180  35.088  1.00  0.00     0.001 A 
ATOM     56  C   UNL A   1      47.915  30.268  34.117  1.00  0.00     0.001 A 
ATOM     57  C   UNL A   1      48.169  29.151  34.910  1.00  0.00     0.000 A 
ENDBRANCH  39  52
ENDBRANCH  13  14
ENDBRANCH   6   8
ENDBRANCH   3   4
ENDBRANCH   2   3
ENDBRANCH   1   2
BRANCH   1  58
ATOM     58  C   UNL A   1      31.474  26.175  25.897  1.00  0.00     0.116 C 
BRANCH  58  59
ATOM     59  N   UNL A   1      31.194  25.117  26.854  1.00  0.00    -0.351 N 
ATOM     60  C   UNL A   1      31.012  23.779  26.624  1.00  0.00     0.269 C 
ATOM     61  H   UNL A   1      31.127  25.401  27.794  1.00  0.00     0.163 HD
ATOM     62  O   UNL A   1      30.588  23.077  27.544  1.00  0.00    -0.268 OA
BRANCH  60  63
ATOM     63  C   UNL A   1      31.243  23.261  25.308  1.00  0.00     0.131 A 
ATOM     64  N   UNL A   1      30.571  23.750  24.221  1.00  0.00    -0.272 N 
ATOM     65  C   UNL A   1      32.054  22.242  24.819  1.00  0.00     0.057 A 
ATOM     66  N   UNL A   1      31.024  23.277  23.051  1.00  0.00    -0.183 NA
ATOM     67  H   UNL A   1      29.824  24.388  24.292  1.00  0.00     0.190 HD
ATOM     68  C   UNL A   1      31.922  22.361  23.415  1.00  0.00     0.145 A 
BRANCH  65  69
ATOM     69  C   UNL A   1      32.925  21.299  25.585  1.00  0.00     0.303 C 
BRANCH  69  70
ATOM     70  N   UNL A   1      34.322  21.709  25.709  1.00  0.00    -0.331 N 
ATOM     71  C   UNL A   1      35.258  20.864  24.970  1.00  0.00     0.268 C 
ATOM     72  C   UNL A   1      34.562  23.134  25.491  1.00  0.00     0.268 C 
ATOM     73  H   UNL A   1      34.524  21.555  26.697  1.00  0.00     0.348 HD
ATOM     74  C   UNL A   1      36.697  21.167  25.395  1.00  0.00     0.126 C 
ATOM     75  C   UNL A   1      35.966  23.510  25.964  1.00  0.00     0.126 C 
ATOM     76  C   UNL A   1      37.027  22.666  25.238  1.00  0.00     0.195 C 
BRANCH  76  77
ATOM     77  N   UNL A   1      38.408  23.074  25.612  1.00  0.00    -0.331 N 
ATOM     78  C   UNL A   1      38.472  24.156  26.604  1.00  0.00     0.262 C 
ATOM     79  C   UNL A   1      39.187  21.907  26.059  1.00  0.00     0.275 C 
ATOM     80  H   UNL A   1      38.822  23.459  24.763  1.00  0.00     0.348 HD
ATOM     81  C   UNL A   1      39.921  24.564  26.885  1.00  0.00     0.062 C 
ATOM     82  C   UNL A   1      40.657  22.226  26.393  1.00  0.00     0.134 C 
ATOM     83  C   UNL A   1      40.741  23.381  27.390  1.00  0.00     0.025 C 
BRANCH  82  84
ATOM     84  C   UNL A   1      41.204  20.919  26.957  1.00  0.00     0.231 C 
ATOM     85  O   UNL A   1      40.544  20.238  27.744  1.00  0.00    -0.274 OA
ATOM     86  N   UNL A   1      42.348  20.426  26.368  1.00  0.00    -0.342 N 
ATOM     87  C   UNL A   1      43.461  21.169  25.806  1.00  0.00     0.119 C 
ATOM     88  C   UNL A   1      42.577  18.996  26.285  1.00  0.00     0.119 C 
ATOM     89  C   UNL A   1      44.091  20.190  24.834  1.00  0.00     0.023 C 
ATOM     90  C   UNL A   1      43.878  18.837  25.508  1.00  0.00     0.023 C 
ENDBRANCH  82  84
ENDBRANCH  76  77
ENDBRANCH  69  70
ENDBRANCH  65  69
ENDBRANCH  60  63
ENDBRANCH  58  59
ENDBRANCH   1  58
TORSDOF 15
ENDMDL
MODEL 2
REMARK VINA RESULT:     -12.0      0.267      5.641
REMARK SMILES O=C(NCCCCNC(=O)c1[nH]ncc1C[NH+]1CCC([N@H+]2CCC[C@@H](C(=O)N3CCCC3)C2)CC1)c1ccc(-c2c3nc(c(-c4ccccc4)c4ccc([nH]4)c(-c4ccccc4)c4nc(c(-c5ccccc5)c5ccc2[nH]5)C=C4)C=C3)cc1
REMARK SMILES IDX 6 1 5 2 4 3 3 4 1 5 2 6 36 8 37 9 83 10 38 11 82 12 39 13
REMARK SMILES IDX 40 14 41 15 76 16 42 17 81 18 75 19 77 20 43 21 80 22 74 23
REMARK SMILES IDX 73 24 44 26 66 27 51 28 65 29 52 30 55 31 64 32 78 33 53 34
REMARK SMILES IDX 54 35 63 37 79 38 56 39 45 40 46 41 50 42 47 43 49 44 48 45
REMARK SMILES IDX 67 46 68 47 72 48 69 49 71 50 70 51 57 52 58 53 62 54 59 55
REMARK SMILES IDX 61 56 60 57 7 58 8 59 9 60 10 62 11 63 12 64 15 65 13 66
REMARK SMILES IDX 14 68 16 69 17 70 18 71 35 72 19 74 34 75 20 76 21 77 22 78
REMARK SMILES IDX 33 79 23 81 25 82 24 83 26 84 27 85 28 86 29 87 32 88 30 89
REMARK SMILES IDX 31 90
REMARK H PARENT 3 7 77 25 55 36 8 61 12 67 17 73 21 80
REMARK Flexibility Score: inf
ROOT
ATOM      1  C   UNL A   1      33.007  26.691  25.823  1.00  0.00     0.023 C 
ENDROOT
BRANCH   1   2
ATOM      2  C   UNL A   1      33.398  27.467  24.570  1.00  0.00     0.023 C 
BRANCH   2   3
ATOM      3  C   UNL A   1      34.055  28.818  24.821  1.00  0.00     0.116 C 
BRANCH   3   4
ATOM      4  N   UNL A   1      33.188  29.753  25.523  1.00  0.00    -0.352 N 
ATOM      5  O   UNL A   1      32.506  31.075  27.223  1.00  0.00    -0.269 OA
ATOM      6  C   UNL A   1      33.407  30.425  26.703  1.00  0.00     0.251 C 
ATOM      7  H   UNL A   1      32.322  29.930  25.091  1.00  0.00     0.163 HD
BRANCH   6   8
ATOM      8  C   UNL A   1      34.726  30.332  27.360  1.00  0.00     0.039 A 
ATOM      9  C   UNL A   1      35.203  29.102  27.817  1.00  0.00     0.014 A 
ATOM     10  C   UNL A   1      35.483  31.492  27.540  1.00  0.00     0.014 A 
ATOM     11  C   UNL A   1      36.350  29.058  28.598  1.00  0.00     0.010 A 
ATOM     12  C   UNL A   1      36.689  31.429  28.245  1.00  0.00     0.010 A 
ATOM     13  C   UNL A   1      37.113  30.217  28.809  1.00  0.00    -0.014 A 
BRANCH  13  14
ATOM     14  C   UNL A   1      38.384  30.117  29.570  1.00  0.00     0.031 A 
ATOM     15  C   UNL A   1      39.606  29.475  28.975  1.00  0.00     0.074 A 
ATOM     16  C   UNL A   1      38.433  30.648  30.807  1.00  0.00     0.049 A 
ATOM     17  N   UNL A   1      40.796  29.331  29.503  1.00  0.00    -0.248 NA
ATOM     18  C   UNL A   1      39.483  28.920  27.618  1.00  0.00     0.031 C 
ATOM     19  C   UNL A   1      37.309  31.295  31.492  1.00  0.00     0.029 A 
ATOM     20  N   UNL A   1      39.468  30.750  31.699  1.00  0.00    -0.354 N 
ATOM     21  C   UNL A   1      41.554  28.651  28.558  1.00  0.00     0.074 A 
ATOM     22  C   UNL A   1      40.686  28.395  27.429  1.00  0.00     0.031 C 
ATOM     23  C   UNL A   1      37.729  31.771  32.672  1.00  0.00     0.029 A 
ATOM     24  C   UNL A   1      39.127  31.405  32.857  1.00  0.00     0.049 A 
ATOM     25  H   UNL A   1      40.367  30.389  31.528  1.00  0.00     0.167 HD
ATOM     26  C   UNL A   1      42.854  28.277  28.627  1.00  0.00     0.031 A 
ATOM     27  C   UNL A   1      39.852  31.669  33.959  1.00  0.00     0.031 A 
ATOM     28  C   UNL A   1      43.716  28.539  29.750  1.00  0.00     0.049 A 
ATOM     29  C   UNL A   1      41.280  31.217  34.016  1.00  0.00     0.074 A 
ATOM     30  C   UNL A   1      45.058  28.227  29.898  1.00  0.00     0.029 A 
ATOM     31  N   UNL A   1      43.323  29.171  30.919  1.00  0.00    -0.354 N 
ATOM     32  N   UNL A   1      41.987  30.603  33.100  1.00  0.00    -0.248 NA
ATOM     33  C   UNL A   1      42.009  31.495  35.260  1.00  0.00     0.031 C 
ATOM     34  C   UNL A   1      45.463  28.629  31.175  1.00  0.00     0.029 A 
ATOM     35  C   UNL A   1      44.388  29.237  31.802  1.00  0.00     0.049 A 
ATOM     36  H   UNL A   1      42.420  29.523  31.094  1.00  0.00     0.167 HD
ATOM     37  C   UNL A   1      43.249  30.432  33.651  1.00  0.00     0.074 A 
ATOM     38  C   UNL A   1      43.215  31.029  34.971  1.00  0.00     0.031 C 
ATOM     39  C   UNL A   1      44.336  29.831  33.112  1.00  0.00     0.031 A 
BRANCH  26  40
ATOM     40  C   UNL A   1      43.429  27.518  27.463  1.00  0.00    -0.014 A 
ATOM     41  C   UNL A   1      44.069  28.180  26.404  1.00  0.00     0.009 A 
ATOM     42  C   UNL A   1      43.389  26.115  27.460  1.00  0.00     0.009 A 
ATOM     43  C   UNL A   1      44.638  27.451  25.355  1.00  0.00     0.001 A 
ATOM     44  C   UNL A   1      43.978  25.388  26.424  1.00  0.00     0.001 A 
ATOM     45  C   UNL A   1      44.597  26.057  25.369  1.00  0.00     0.000 A 
ENDBRANCH  26  40
BRANCH  27  46
ATOM     46  C   UNL A   1      39.225  32.378  35.103  1.00  0.00    -0.014 A 
ATOM     47  C   UNL A   1      39.271  33.776  35.191  1.00  0.00     0.009 A 
ATOM     48  C   UNL A   1      38.568  31.654  36.111  1.00  0.00     0.009 A 
ATOM     49  C   UNL A   1      38.689  34.434  36.278  1.00  0.00     0.001 A 
ATOM     50  C   UNL A   1      37.961  32.316  37.179  1.00  0.00     0.001 A 
ATOM     51  C   UNL A   1      38.031  33.704  37.266  1.00  0.00     0.000 A 
ENDBRANCH  27  46
BRANCH  39  52
ATOM     52  C   UNL A   1      45.585  29.816  33.946  1.00  0.00    -0.014 A 
ATOM     53  C   UNL A   1      45.866  28.752  34.815  1.00  0.00     0.009 A 
ATOM     54  C   UNL A   1      46.500  30.874  33.843  1.00  0.00     0.009 A 
ATOM     55  C   UNL A   1      47.025  28.764  35.593  1.00  0.00     0.001 A 
ATOM     56  C   UNL A   1      47.672  30.872  34.602  1.00  0.00     0.001 A 
ATOM     57  C   UNL A   1      47.928  29.822  35.483  1.00  0.00     0.000 A 
ENDBRANCH  39  52
ENDBRANCH  13  14
ENDBRANCH   6   8
ENDBRANCH   3   4
ENDBRANCH   2   3
ENDBRANCH   1   2
BRANCH   1  58
ATOM     58  C   UNL A   1      31.543  26.276  25.896  1.00  0.00     0.116 C 
BRANCH  58  59
ATOM     59  N   UNL A   1      31.294  25.223  26.867  1.00  0.00    -0.351 N 
ATOM     60  C   UNL A   1      31.110  23.882  26.649  1.00  0.00     0.269 C 
ATOM     61  H   UNL A   1      31.252  25.511  27.806  1.00  0.00     0.163 HD
ATOM     62  O   UNL A   1      30.716  23.184  27.585  1.00  0.00    -0.268 OA
BRANCH  60  63
ATOM     63  C   UNL A   1      31.307  23.358  25.331  1.00  0.00     0.131 A 
ATOM     64  N   UNL A   1      30.620  23.854  24.256  1.00  0.00    -0.272 N 
ATOM     65  C   UNL A   1      32.091  22.325  24.827  1.00  0.00     0.057 A 
ATOM     66  N   UNL A   1      31.042  23.372  23.078  1.00  0.00    -0.183 NA
ATOM     67  H   UNL A   1      29.885  24.504  24.340  1.00  0.00     0.190 HD
ATOM     68  C   UNL A   1      31.933  22.443  23.426  1.00  0.00     0.145 A 
BRANCH  65  69
ATOM     69  C   UNL A   1      32.963  21.370  25.578  1.00  0.00     0.303 C 
BRANCH  69  70
ATOM     70  N   UNL A   1      34.362  21.775  25.700  1.00  0.00    -0.331 N 
ATOM     71  C   UNL A   1      35.291  20.940  24.940  1.00  0.00     0.268 C 
ATOM     72  C   UNL A   1      34.605  23.202  25.505  1.00  0.00     0.268 C 
ATOM     73  H   UNL A   1      34.570  21.603  26.683  1.00  0.00     0.348 HD
ATOM     74  C   UNL A   1      36.734  21.231  25.360  1.00  0.00     0.126 C 
ATOM     75  C   UNL A   1      36.013  23.567  25.974  1.00  0.00     0.126 C 
ATOM     76  C   UNL A   1      37.067  22.732  25.227  1.00  0.00     0.195 C 
BRANCH  76  77
ATOM     77  N   UNL A   1      38.452  23.130  25.598  1.00  0.00    -0.331 N 
ATOM     78  C   UNL A   1      38.525  24.213  26.589  1.00  0.00     0.262 C 
ATOM     79  C   UNL A   1      39.222  21.958  26.047  1.00  0.00     0.275 C 
ATOM     80  H   UNL A   1      38.867  23.511  24.748  1.00  0.00     0.348 HD
ATOM     81  C   UNL A   1      39.977  24.611  26.868  1.00  0.00     0.062 C 
ATOM     82  C   UNL A   1      40.694  22.266  26.379  1.00  0.00     0.134 C 
ATOM     83  C   UNL A   1      40.789  23.422  27.373  1.00  0.00     0.025 C 
BRANCH  82  84
ATOM     84  C   UNL A   1      41.232  20.956  26.944  1.00  0.00     0.231 C 
ATOM     85  O   UNL A   1      40.571  20.284  27.738  1.00  0.00    -0.274 OA
ATOM     86  N   UNL A   1      42.367  20.449  26.349  1.00  0.00    -0.342 N 
ATOM     87  C   UNL A   1      43.484  21.178  25.777  1.00  0.00     0.119 C 
ATOM     88  C   UNL A   1      42.581  19.017  26.270  1.00  0.00     0.119 C 
ATOM     89  C   UNL A   1      44.098  20.189  24.804  1.00  0.00     0.023 C 
ATOM     90  C   UNL A   1      43.876  18.842  25.485  1.00  0.00     0.023 C 
ENDBRANCH  82  84
ENDBRANCH  76  77
ENDBRANCH  69  70
ENDBRANCH  65  69
ENDBRANCH  60  63
ENDBRANCH  58  59
ENDBRANCH   1  58
TORSDOF 15
ENDMDL
MODEL 3
REMARK VINA RESULT:     -10.9      3.967      9.706
REMARK SMILES O=C(NCCCCNC(=O)c1[nH]ncc1C[NH+]1CCC([N@H+]2CCC[C@@H](C(=O)N3CCCC3)C2)CC1)c1ccc(-c2c3nc(c(-c4ccccc4)c4ccc([nH]4)c(-c4ccccc4)c4nc(c(-c5ccccc5)c5ccc2[nH]5)C=C4)C=C3)cc1
REMARK SMILES IDX 6 1 5 2 4 3 3 4 1 5 2 6 36 8 37 9 83 10 38 11 82 12 39 13
REMARK SMILES IDX 40 14 41 15 76 16 42 17 81 18 75 19 77 20 43 21 80 22 74 23
REMARK SMILES IDX 73 24 44 26 66 27 51 28 65 29 52 30 55 31 64 32 78 33 53 34
REMARK SMILES IDX 54 35 63 37 79 38 56 39 45 40 46 41 50 42 47 43 49 44 48 45
REMARK SMILES IDX 67 46 68 47 72 48 69 49 71 50 70 51 57 52 58 53 62 54 59 55
REMARK SMILES IDX 61 56 60 57 7 58 8 59 9 60 10 62 11 63 12 64 15 65 13 66
REMARK SMILES IDX 14 68 16 69 17 70 18 71 35 72 19 74 34 75 20 76 21 77 22 78
REMARK SMILES IDX 33 79 23 81 25 82 24 83 26 84 27 85 28 86 29 87 32 88 30 89
REMARK SMILES IDX 31 90
REMARK H PARENT 3 7 77 25 55 36 8 61 12 67 17 73 21 80
REMARK Flexibility Score: inf
ROOT
ATOM      1  C   UNL A   1      44.438  23.343  24.616  1.00  0.00     0.023 C 
ENDROOT
BRANCH   1   2
ATOM      2  C   UNL A   1      45.562  22.918  25.556  1.00  0.00     0.023 C 
BRANCH   2   3
ATOM      3  C   UNL A   1      46.450  24.049  26.059  1.00  0.00     0.116 C 
BRANCH   3   4
ATOM      4  N   UNL A   1      46.764  25.029  25.030  1.00  0.00    -0.352 N 
ATOM      5  O   UNL A   1      46.713  27.033  23.987  1.00  0.00    -0.269 OA
ATOM      6  C   UNL A   1      46.495  26.378  25.001  1.00  0.00     0.251 C 
ATOM      7  H   UNL A   1      47.238  24.677  24.243  1.00  0.00     0.163 HD
BRANCH   6   8
ATOM      8  C   UNL A   1      45.909  27.028  26.190  1.00  0.00     0.039 A 
ATOM      9  C   UNL A   1      44.525  27.053  26.372  1.00  0.00     0.014 A 
ATOM     10  C   UNL A   1      46.752  27.641  27.120  1.00  0.00     0.014 A 
ATOM     11  C   UNL A   1      43.979  27.828  27.386  1.00  0.00     0.010 A 
ATOM     12  C   UNL A   1      46.203  28.341  28.197  1.00  0.00     0.010 A 
ATOM     13  C   UNL A   1      44.810  28.469  28.318  1.00  0.00    -0.014 A 
BRANCH  13  14
ATOM     14  C   UNL A   1      44.194  29.212  29.446  1.00  0.00     0.031 A 
ATOM     15  C   UNL A   1      43.891  28.540  30.756  1.00  0.00     0.074 A 
ATOM     16  C   UNL A   1      43.937  30.525  29.283  1.00  0.00     0.049 A 
ATOM     17  N   UNL A   1      43.374  29.057  31.842  1.00  0.00    -0.248 NA
ATOM     18  C   UNL A   1      44.200  27.105  30.865  1.00  0.00     0.031 C 
ATOM     19  C   UNL A   1      44.187  31.286  28.056  1.00  0.00     0.029 A 
ATOM     20  N   UNL A   1      43.435  31.455  30.155  1.00  0.00    -0.354 N 
ATOM     21  C   UNL A   1      43.275  28.013  32.754  1.00  0.00     0.074 A 
ATOM     22  C   UNL A   1      43.769  26.827  32.088  1.00  0.00     0.031 C 
ATOM     23  C   UNL A   1      43.885  32.575  28.269  1.00  0.00     0.029 A 
ATOM     24  C   UNL A   1      43.359  32.718  29.620  1.00  0.00     0.049 A 
ATOM     25  H   UNL A   1      43.155  31.240  31.073  1.00  0.00     0.167 HD
ATOM     26  C   UNL A   1      42.815  28.043  34.028  1.00  0.00     0.031 A 
ATOM     27  C   UNL A   1      42.900  33.866  30.149  1.00  0.00     0.031 A 
ATOM     28  C   UNL A   1      42.331  29.227  34.688  1.00  0.00     0.049 A 
ATOM     29  C   UNL A   1      42.371  33.860  31.552  1.00  0.00     0.074 A 
ATOM     30  C   UNL A   1      41.875  29.362  35.990  1.00  0.00     0.029 A 
ATOM     31  N   UNL A   1      42.235  30.478  34.101  1.00  0.00    -0.354 N 
ATOM     32  N   UNL A   1      42.314  32.869  32.407  1.00  0.00    -0.248 NA
ATOM     33  C   UNL A   1      41.843  35.132  32.061  1.00  0.00     0.031 C 
ATOM     34  C   UNL A   1      41.459  30.685  36.173  1.00  0.00     0.029 A 
ATOM     35  C   UNL A   1      41.704  31.386  35.003  1.00  0.00     0.049 A 
ATOM     36  H   UNL A   1      42.505  30.691  33.178  1.00  0.00     0.167 HD
ATOM     37  C   UNL A   1      41.757  33.400  33.561  1.00  0.00     0.074 A 
ATOM     38  C   UNL A   1      41.517  34.806  33.303  1.00  0.00     0.031 C 
ATOM     39  C   UNL A   1      41.467  32.778  34.729  1.00  0.00     0.031 A 
BRANCH  26  40
ATOM     40  C   UNL A   1      42.789  26.750  34.795  1.00  0.00    -0.014 A 
ATOM     41  C   UNL A   1      43.941  26.248  35.419  1.00  0.00     0.009 A 
ATOM     42  C   UNL A   1      41.576  26.060  34.953  1.00  0.00     0.009 A 
ATOM     43  C   UNL A   1      43.883  25.068  36.167  1.00  0.00     0.001 A 
ATOM     44  C   UNL A   1      41.516  24.895  35.719  1.00  0.00     0.001 A 
ATOM     45  C   UNL A   1      42.670  24.397  36.321  1.00  0.00     0.000 A 
ENDBRANCH  26  40
BRANCH  27  46
ATOM     46  C   UNL A   1      42.900  35.107  29.334  1.00  0.00    -0.014 A 
ATOM     47  C   UNL A   1      43.916  36.061  29.484  1.00  0.00     0.009 A 
ATOM     48  C   UNL A   1      41.883  35.337  28.394  1.00  0.00     0.009 A 
ATOM     49  C   UNL A   1      43.903  37.232  28.722  1.00  0.00     0.001 A 
ATOM     50  C   UNL A   1      41.889  36.493  27.612  1.00  0.00     0.001 A 
ATOM     51  C   UNL A   1      42.893  37.443  27.783  1.00  0.00     0.000 A 
ENDBRANCH  27  46
BRANCH  39  52
ATOM     52  C   UNL A   1      40.882  33.626  35.821  1.00  0.00    -0.014 A 
ATOM     53  C   UNL A   1      39.496  33.796  35.945  1.00  0.00     0.009 A 
ATOM     54  C   UNL A   1      41.733  34.245  36.750  1.00  0.00     0.009 A 
ATOM     55  C   UNL A   1      38.972  34.600  36.959  1.00  0.00     0.001 A 
ATOM     56  C   UNL A   1      41.205  35.027  37.779  1.00  0.00     0.001 A 
ATOM     57  C   UNL A   1      39.827  35.211  37.877  1.00  0.00     0.000 A 
ENDBRANCH  39  52
ENDBRANCH  13  14
ENDBRANCH   6   8
ENDBRANCH   3   4
ENDBRANCH   2   3
ENDBRANCH   1   2
BRANCH   1  58
ATOM     58  C   UNL A   1      43.038  23.279  25.213  1.00  0.00     0.116 C 
BRANCH  58  59
ATOM     59  N   UNL A   1      43.038  23.088  26.654  1.00  0.00    -0.351 N 
ATOM     60  C   UNL A   1      42.013  23.279  27.544  1.00  0.00     0.269 C 
ATOM     61  H   UNL A   1      43.887  22.779  27.042  1.00  0.00     0.163 HD
ATOM     62  O   UNL A   1      42.271  23.251  28.749  1.00  0.00    -0.268 OA
BRANCH  60  63
ATOM     63  C   UNL A   1      40.705  23.579  27.045  1.00  0.00     0.131 A 
ATOM     64  N   UNL A   1      39.787  22.591  26.809  1.00  0.00    -0.272 N 
ATOM     65  C   UNL A   1      40.083  24.764  26.666  1.00  0.00     0.057 A 
ATOM     66  N   UNL A   1      38.565  23.053  26.507  1.00  0.00    -0.183 NA
ATOM     67  H   UNL A   1      40.005  21.632  26.857  1.00  0.00     0.190 HD
ATOM     68  C   UNL A   1      38.746  24.371  26.418  1.00  0.00     0.145 A 
BRANCH  65  69
ATOM     69  C   UNL A   1      40.662  26.141  26.614  1.00  0.00     0.303 C 
BRANCH  69  70
ATOM     70  N   UNL A   1      40.129  27.075  27.604  1.00  0.00    -0.331 N 
ATOM     71  C   UNL A   1      40.703  26.918  28.939  1.00  0.00     0.268 C 
ATOM     72  C   UNL A   1      40.093  28.470  27.171  1.00  0.00     0.268 C 
ATOM     73  H   UNL A   1      39.151  26.797  27.684  1.00  0.00     0.348 HD
ATOM     74  C   UNL A   1      39.885  27.706  29.966  1.00  0.00     0.126 C 
ATOM     75  C   UNL A   1      39.229  29.296  28.124  1.00  0.00     0.126 C 
ATOM     76  C   UNL A   1      39.758  29.190  29.565  1.00  0.00     0.195 C 
BRANCH  76  77
ATOM     77  N   UNL A   1      38.991  30.056  30.499  1.00  0.00    -0.331 N 
ATOM     78  C   UNL A   1      39.771  30.555  31.641  1.00  0.00     0.262 C 
ATOM     79  C   UNL A   1      38.360  31.170  29.771  1.00  0.00     0.275 C 
ATOM     80  H   UNL A   1      38.270  29.458  30.903  1.00  0.00     0.348 HD
ATOM     81  C   UNL A   1      38.897  31.380  32.590  1.00  0.00     0.062 C 
ATOM     82  C   UNL A   1      37.480  32.077  30.652  1.00  0.00     0.134 C 
ATOM     83  C   UNL A   1      38.263  32.566  31.868  1.00  0.00     0.025 C 
BRANCH  82  84
ATOM     84  C   UNL A   1      37.064  33.212  29.721  1.00  0.00     0.231 C 
ATOM     85  O   UNL A   1      37.608  33.371  28.627  1.00  0.00    -0.274 OA
ATOM     86  N   UNL A   1      35.910  33.887  30.054  1.00  0.00    -0.342 N 
ATOM     87  C   UNL A   1      35.391  34.184  31.376  1.00  0.00     0.119 C 
ATOM     88  C   UNL A   1      35.059  34.445  29.020  1.00  0.00     0.119 C 
ATOM     89  C   UNL A   1      33.908  34.396  31.140  1.00  0.00     0.023 C 
ATOM     90  C   UNL A   1      33.859  35.031  29.753  1.00  0.00     0.023 C 
ENDBRANCH  82  84
ENDBRANCH  76  77
ENDBRANCH  69  70
ENDBRANCH  65  69
ENDBRANCH  60  63
ENDBRANCH  58  59
ENDBRANCH   1  58
TORSDOF 15
ENDMDL
