MODEL 1
REMARK VINA RESULT:     -12.7      0.000      0.000
REMARK SMILES COc1ccc(CCN2/C(=[NH+]/C(=O)CCC(=O)NCCCCNC(=O)c3ccc(-c4c5nc(c(-c6ccccc6)c6ccc([nH]6)c(-c6ccccc6)c6nc(c(-c7ccccc7)c7ccc4[nH]7)C=C6)C=C5)cc3)S[C@@H]3CS(=O)(=O)C[C@@H]32)cc1
REMARK SMILES IDX 16 1 17 2 18 3 15 5 14 6 12 7 9 8 10 9 81 10 11 11 74 12
REMARK SMILES IDX 75 13 80 14 76 16 77 17 13 18 78 19 79 20 8 21 7 22 6 23
REMARK SMILES IDX 3 24 4 25 83 26 5 27 82 28 2 29 1 30 19 31 20 32 21 33 22 34
REMARK SMILES IDX 23 35 24 36 25 38 26 39 27 40 73 41 28 42 72 43 29 44 30 45
REMARK SMILES IDX 31 46 66 47 32 48 71 49 65 50 67 51 33 52 70 53 64 54 63 55
REMARK SMILES IDX 34 57 56 58 41 59 55 60 42 61 45 62 54 63 68 64 43 65 44 66
REMARK SMILES IDX 53 68 69 69 46 70 35 71 36 72 40 73 37 74 39 75 38 76 57 77
REMARK SMILES IDX 58 78 62 79 59 80 61 81 60 82 47 83 48 84 52 85 49 86 51 87
REMARK SMILES IDX 50 88
REMARK H PARENT 18 4 11 15 23 37 67 56 45 67
REMARK Flexibility Score: inf
ROOT
ATOM      1  C   UNL A   1      38.738  23.034  26.321  1.00  0.00     0.220 C 
ATOM      2  O   UNL A   1      38.917  24.243  26.475  1.00  0.00    -0.275 OA
ATOM      3  N   UNL A   1      39.787  22.188  26.565  1.00  0.00    -0.356 N 
ATOM      4  H   UNL A   1      40.590  22.591  26.966  1.00  0.00     0.163 HD
ENDROOT
BRANCH   1   5
ATOM      5  C   UNL A   1      37.388  22.478  25.863  1.00  0.00     0.112 C 
BRANCH   5   6
ATOM      6  C   UNL A   1      37.412  22.001  24.398  1.00  0.00     0.138 C 
BRANCH   6   7
ATOM      7  C   UNL A   1      36.355  22.651  23.487  1.00  0.00     0.308 C 
ATOM      8  N   UNL A   1      32.685  22.180  23.490  1.00  0.00    -0.251 N 
ATOM      9  C   UNL A   1      33.973  22.701  23.241  1.00  0.00     0.314 C 
ATOM     10  C   UNL A   1      31.539  23.116  23.462  1.00  0.00     0.206 C 
ATOM     11  N   UNL A   1      35.077  22.114  23.604  1.00  0.00    -0.205 N 
ATOM     12  S   UNL A   1      33.973  24.350  22.518  1.00  0.00    -0.030 SA
ATOM     13  C   UNL A   1      32.205  24.754  22.652  1.00  0.00     0.120 C 
ATOM     14  C   UNL A   1      30.681  23.407  25.270  1.00  0.00     0.187 C 
ATOM     15  H   UNL A   1      35.000  21.214  23.996  1.00  0.00     0.316 HD
ATOM     16  C   UNL A   1      31.814  26.386  23.725  1.00  0.00     0.156 C 
ATOM     17  S   UNL A   1      30.570  25.817  25.587  1.00  0.00     0.155 S 
ATOM     18  O   UNL A   1      36.699  23.609  22.796  1.00  0.00    -0.247 OA
ATOM     19  O   UNL A   1      31.178  26.299  26.820  1.00  0.00    -0.229 OA
ATOM     20  O   UNL A   1      29.283  26.460  25.352  1.00  0.00    -0.229 OA
BRANCH   8  21
ATOM     21  C   UNL A   1      32.352  20.880  24.116  1.00  0.00     0.242 C 
BRANCH  21  22
ATOM     22  C   UNL A   1      32.195  19.637  23.237  1.00  0.00     0.081 C 
BRANCH  22  23
ATOM     23  C   UNL A   1      32.775  18.378  23.806  1.00  0.00    -0.044 A 
ATOM     24  C   UNL A   1      33.617  15.945  24.853  1.00  0.00     0.118 A 
ATOM     25  C   UNL A   1      32.868  16.809  25.645  1.00  0.00     0.046 A 
ATOM     26  C   UNL A   1      33.960  16.281  23.545  1.00  0.00     0.046 A 
ATOM     27  C   UNL A   1      32.471  18.037  25.130  1.00  0.00     0.007 A 
ATOM     28  C   UNL A   1      33.538  17.501  23.018  1.00  0.00     0.007 A 
BRANCH  24  29
ATOM     29  O   UNL A   1      33.927  14.709  25.347  1.00  0.00    -0.497 OA
ATOM     30  C   UNL A   1      32.726  14.031  25.708  1.00  0.00     0.278 C 
ENDBRANCH  24  29
ENDBRANCH  22  23
ENDBRANCH  21  22
ENDBRANCH   8  21
ENDBRANCH   6   7
ENDBRANCH   5   6
ENDBRANCH   1   5
BRANCH   3  31
ATOM     31  C   UNL A   1      39.849  20.764  26.297  1.00  0.00     0.116 C 
BRANCH  31  32
ATOM     32  C   UNL A   1      41.298  20.344  26.182  1.00  0.00     0.023 C 
BRANCH  32  33
ATOM     33  C   UNL A   1      42.290  21.436  26.494  1.00  0.00     0.023 C 
BRANCH  33  34
ATOM     34  C   UNL A   1      43.554  21.152  25.726  1.00  0.00     0.116 C 
BRANCH  34  35
ATOM     35  N   UNL A   1      44.334  22.532  24.973  1.00  0.00    -0.352 N 
ATOM     36  C   UNL A   1      44.462  24.461  25.121  1.00  0.00     0.251 C 
ATOM     37  H   UNL A   1      44.894  22.223  24.225  1.00  0.00     0.163 HD
ATOM     38  O   UNL A   1      45.354  25.180  24.627  1.00  0.00    -0.269 OA
BRANCH  36  39
ATOM     39  C   UNL A   1      43.428  25.613  25.897  1.00  0.00     0.039 A 
ATOM     40  C   UNL A   1      42.343  25.101  26.627  1.00  0.00     0.014 A 
ATOM     41  C   UNL A   1      43.696  27.002  26.068  1.00  0.00     0.014 A 
ATOM     42  C   UNL A   1      41.706  25.889  27.611  1.00  0.00     0.010 A 
ATOM     43  C   UNL A   1      43.203  27.702  27.144  1.00  0.00     0.010 A 
ATOM     44  C   UNL A   1      42.193  27.167  27.929  1.00  0.00    -0.014 A 
BRANCH  44  45
ATOM     45  C   UNL A   1      41.770  28.011  29.071  1.00  0.00     0.031 A 
ATOM     46  C   UNL A   1      42.434  27.819  30.418  1.00  0.00     0.074 A 
ATOM     47  C   UNL A   1      40.635  28.730  28.975  1.00  0.00     0.049 A 
ATOM     48  N   UNL A   1      42.084  28.290  31.587  1.00  0.00    -0.248 NA
ATOM     49  C   UNL A   1      43.588  26.897  30.473  1.00  0.00     0.031 C 
ATOM     50  C   UNL A   1      39.801  28.866  27.776  1.00  0.00     0.029 A 
ATOM     51  N   UNL A   1      39.966  29.463  29.922  1.00  0.00    -0.354 N 
ATOM     52  C   UNL A   1      42.944  27.692  32.502  1.00  0.00     0.074 A 
ATOM     53  C   UNL A   1      43.749  26.742  31.776  1.00  0.00     0.031 C 
ATOM     54  C   UNL A   1      38.767  29.679  28.046  1.00  0.00     0.029 A 
ATOM     55  C   UNL A   1      38.843  30.093  29.442  1.00  0.00     0.049 A 
ATOM     56  H   UNL A   1      40.264  29.532  30.858  1.00  0.00     0.167 HD
ATOM     57  C   UNL A   1      43.093  27.948  33.822  1.00  0.00     0.031 A 
ATOM     58  C   UNL A   1      37.985  30.926  30.060  1.00  0.00     0.031 A 
ATOM     59  C   UNL A   1      42.328  28.938  34.526  1.00  0.00     0.049 A 
ATOM     60  C   UNL A   1      38.213  31.263  31.509  1.00  0.00     0.074 A 
ATOM     61  C   UNL A   1      42.487  29.392  35.821  1.00  0.00     0.029 A 
ATOM     62  N   UNL A   1      41.259  29.629  33.980  1.00  0.00    -0.354 N 
ATOM     63  N   UNL A   1      39.138  30.817  32.325  1.00  0.00    -0.248 NA
ATOM     64  C   UNL A   1      37.289  32.232  32.114  1.00  0.00     0.031 C 
ATOM     65  C   UNL A   1      41.478  30.326  36.076  1.00  0.00     0.029 A 
ATOM     66  C   UNL A   1      40.728  30.490  34.922  1.00  0.00     0.049 A 
ATOM     67  H   UNL A   1      40.926  29.524  33.059  1.00  0.00     0.167 HD
ATOM     68  C   UNL A   1      38.928  31.478  33.530  1.00  0.00     0.074 A 
ATOM     69  C   UNL A   1      37.799  32.364  33.330  1.00  0.00     0.031 C 
ATOM     70  C   UNL A   1      39.608  31.365  34.697  1.00  0.00     0.031 A 
BRANCH  57  71
ATOM     71  C   UNL A   1      44.152  27.180  34.567  1.00  0.00    -0.014 A 
ATOM     72  C   UNL A   1      43.877  25.920  35.126  1.00  0.00     0.009 A 
ATOM     73  C   UNL A   1      45.445  27.709  34.699  1.00  0.00     0.009 A 
ATOM     74  C   UNL A   1      44.855  25.232  35.845  1.00  0.00     0.001 A 
ATOM     75  C   UNL A   1      46.433  27.000  35.386  1.00  0.00     0.001 A 
ATOM     76  C   UNL A   1      46.135  25.770  35.970  1.00  0.00     0.000 A 
ENDBRANCH  57  71
BRANCH  58  77
ATOM     77  C   UNL A   1      36.885  31.572  29.295  1.00  0.00    -0.014 A 
ATOM     78  C   UNL A   1      37.066  32.860  28.767  1.00  0.00     0.009 A 
ATOM     79  C   UNL A   1      35.658  30.923  29.093  1.00  0.00     0.009 A 
ATOM     80  C   UNL A   1      36.031  33.500  28.084  1.00  0.00     0.001 A 
ATOM     81  C   UNL A   1      34.633  31.556  28.382  1.00  0.00     0.001 A 
ATOM     82  C   UNL A   1      34.817  32.847  27.888  1.00  0.00     0.000 A 
ENDBRANCH  58  77
BRANCH  70  83
ATOM     83  C   UNL A   1      39.173  32.238  35.837  1.00  0.00    -0.014 A 
ATOM     84  C   UNL A   1      39.670  33.542  35.985  1.00  0.00     0.009 A 
ATOM     85  C   UNL A   1      38.199  31.773  36.735  1.00  0.00     0.009 A 
ATOM     86  C   UNL A   1      39.220  34.352  37.027  1.00  0.00     0.001 A 
ATOM     87  C   UNL A   1      37.727  32.596  37.757  1.00  0.00     0.001 A 
ATOM     88  C   UNL A   1      38.244  33.883  37.906  1.00  0.00     0.000 A 
ENDBRANCH  70  83
ENDBRANCH  44  45
ENDBRANCH  36  39
ENDBRANCH  34  35
ENDBRANCH  33  34
ENDBRANCH  32  33
ENDBRANCH  31  32
ENDBRANCH   3  31
TORSDOF 17
ENDMDL
MODEL 2
REMARK VINA RESULT:     -12.2      1.507      2.162
REMARK SMILES COc1ccc(CCN2/C(=[NH+]/C(=O)CCC(=O)NCCCCNC(=O)c3ccc(-c4c5nc(c(-c6ccccc6)c6ccc([nH]6)c(-c6ccccc6)c6nc(c(-c7ccccc7)c7ccc4[nH]7)C=C6)C=C5)cc3)S[C@@H]3CS(=O)(=O)C[C@@H]32)cc1
REMARK SMILES IDX 16 1 17 2 18 3 15 5 14 6 12 7 9 8 10 9 81 10 11 11 74 12
REMARK SMILES IDX 75 13 80 14 76 16 77 17 13 18 78 19 79 20 8 21 7 22 6 23
REMARK SMILES IDX 3 24 4 25 83 26 5 27 82 28 2 29 1 30 19 31 20 32 21 33 22 34
REMARK SMILES IDX 23 35 24 36 25 38 26 39 27 40 73 41 28 42 72 43 29 44 30 45
REMARK SMILES IDX 31 46 66 47 32 48 71 49 65 50 67 51 33 52 70 53 64 54 63 55
REMARK SMILES IDX 34 57 56 58 41 59 55 60 42 61 45 62 54 63 68 64 43 65 44 66
REMARK SMILES IDX 53 68 69 69 46 70 35 71 36 72 40 73 37 74 39 75 38 76 57 77
REMARK SMILES IDX 58 78 62 79 59 80 61 81 60 82 47 83 48 84 52 85 49 86 51 87
REMARK SMILES IDX 50 88
REMARK H PARENT 18 4 11 15 23 37 67 56 45 67
REMARK Flexibility Score: inf
ROOT
ATOM      1  C   UNL A   1      38.228  21.630  25.348  1.00  0.00     0.220 C 
ATOM      2  O   UNL A   1      37.555  20.855  24.667  1.00  0.00    -0.275 OA
ATOM      3  N   UNL A   1      39.324  21.133  26.003  1.00  0.00    -0.356 N 
ATOM      4  H   UNL A   1      39.577  20.205  25.791  1.00  0.00     0.163 HD
ENDROOT
BRANCH   1   5
ATOM      5  C   UNL A   1      37.859  23.110  25.475  1.00  0.00     0.112 C 
BRANCH   5   6
ATOM      6  C   UNL A   1      36.389  23.318  25.886  1.00  0.00     0.138 C 
BRANCH   6   7
ATOM      7  C   UNL A   1      35.464  23.810  24.759  1.00  0.00     0.308 C 
ATOM      8  N   UNL A   1      31.904  24.802  24.947  1.00  0.00    -0.251 N 
ATOM      9  C   UNL A   1      33.227  24.624  24.489  1.00  0.00     0.314 C 
ATOM     10  C   UNL A   1      31.145  25.969  24.442  1.00  0.00     0.206 C 
ATOM     11  N   UNL A   1      34.121  23.911  25.111  1.00  0.00    -0.205 N 
ATOM     12  S   UNL A   1      33.645  25.611  23.042  1.00  0.00    -0.030 SA
ATOM     13  C   UNL A   1      32.161  26.658  22.934  1.00  0.00     0.120 C 
ATOM     14  C   UNL A   1      30.761  27.364  25.854  1.00  0.00     0.187 C 
ATOM     15  H   UNL A   1      33.822  23.399  25.897  1.00  0.00     0.316 HD
ATOM     16  C   UNL A   1      32.524  28.612  23.047  1.00  0.00     0.156 C 
ATOM     17  S   UNL A   1      31.509  29.487  24.929  1.00  0.00     0.155 S 
ATOM     18  O   UNL A   1      35.978  24.128  23.688  1.00  0.00    -0.247 OA
ATOM     19  O   UNL A   1      32.447  30.221  25.768  1.00  0.00    -0.229 OA
ATOM     20  O   UNL A   1      30.485  30.373  24.389  1.00  0.00    -0.229 OA
BRANCH   8  21
ATOM     21  C   UNL A   1      31.276  24.175  26.132  1.00  0.00     0.242 C 
BRANCH  21  22
ATOM     22  C   UNL A   1      30.744  22.744  26.035  1.00  0.00     0.081 C 
BRANCH  22  23
ATOM     23  C   UNL A   1      31.776  21.701  25.728  1.00  0.00    -0.044 A 
ATOM     24  C   UNL A   1      33.804  19.941  25.013  1.00  0.00     0.118 A 
ATOM     25  C   UNL A   1      32.829  20.277  24.080  1.00  0.00     0.046 A 
ATOM     26  C   UNL A   1      33.779  20.464  26.304  1.00  0.00     0.046 A 
ATOM     27  C   UNL A   1      31.800  21.136  24.447  1.00  0.00     0.007 A 
ATOM     28  C   UNL A   1      32.762  21.348  26.664  1.00  0.00     0.007 A 
BRANCH  24  29
ATOM     29  O   UNL A   1      34.853  19.162  24.609  1.00  0.00    -0.497 OA
ATOM     30  C   UNL A   1      34.382  17.845  24.333  1.00  0.00     0.278 C 
ENDBRANCH  24  29
ENDBRANCH  22  23
ENDBRANCH  21  22
ENDBRANCH   8  21
ENDBRANCH   6   7
ENDBRANCH   5   6
ENDBRANCH   1   5
BRANCH   3  31
ATOM     31  C   UNL A   1      40.153  21.818  26.975  1.00  0.00     0.116 C 
BRANCH  31  32
ATOM     32  C   UNL A   1      41.183  20.851  27.517  1.00  0.00     0.023 C 
BRANCH  32  33
ATOM     33  C   UNL A   1      42.612  21.305  27.352  1.00  0.00     0.023 C 
BRANCH  33  34
ATOM     34  C   UNL A   1      43.012  21.077  25.919  1.00  0.00     0.116 C 
BRANCH  34  35
ATOM     35  N   UNL A   1      43.788  22.423  25.103  1.00  0.00    -0.352 N 
ATOM     36  C   UNL A   1      43.946  24.354  25.191  1.00  0.00     0.251 C 
ATOM     37  H   UNL A   1      44.321  22.085  24.348  1.00  0.00     0.163 HD
ATOM     38  O   UNL A   1      44.832  25.045  24.650  1.00  0.00    -0.269 OA
BRANCH  36  39
ATOM     39  C   UNL A   1      42.950  25.543  25.962  1.00  0.00     0.039 A 
ATOM     40  C   UNL A   1      41.917  25.067  26.787  1.00  0.00     0.014 A 
ATOM     41  C   UNL A   1      43.215  26.941  26.037  1.00  0.00     0.014 A 
ATOM     42  C   UNL A   1      41.335  25.906  27.761  1.00  0.00     0.010 A 
ATOM     43  C   UNL A   1      42.782  27.698  27.100  1.00  0.00     0.010 A 
ATOM     44  C   UNL A   1      41.828  27.203  27.975  1.00  0.00    -0.014 A 
BRANCH  44  45
ATOM     45  C   UNL A   1      41.467  28.108  29.092  1.00  0.00     0.031 A 
ATOM     46  C   UNL A   1      42.171  27.956  30.424  1.00  0.00     0.074 A 
ATOM     47  C   UNL A   1      40.351  28.857  29.000  1.00  0.00     0.049 A 
ATOM     48  N   UNL A   1      41.874  28.488  31.581  1.00  0.00    -0.248 NA
ATOM     49  C   UNL A   1      43.299  27.003  30.482  1.00  0.00     0.031 C 
ATOM     50  C   UNL A   1      39.482  28.964  27.823  1.00  0.00     0.029 A 
ATOM     51  N   UNL A   1      39.736  29.650  29.934  1.00  0.00    -0.354 N 
ATOM     52  C   UNL A   1      42.747  27.906  32.493  1.00  0.00     0.074 A 
ATOM     53  C   UNL A   1      43.500  26.901  31.785  1.00  0.00     0.031 C 
ATOM     54  C   UNL A   1      38.480  29.819  28.091  1.00  0.00     0.029 A 
ATOM     55  C   UNL A   1      38.615  30.292  29.464  1.00  0.00     0.049 A 
ATOM     56  H   UNL A   1      40.066  29.751  30.856  1.00  0.00     0.167 HD
ATOM     57  C   UNL A   1      42.948  28.215  33.795  1.00  0.00     0.031 A 
ATOM     58  C   UNL A   1      37.803  31.176  30.071  1.00  0.00     0.031 A 
ATOM     59  C   UNL A   1      42.236  29.257  34.478  1.00  0.00     0.049 A 
ATOM     60  C   UNL A   1      38.089  31.570  31.495  1.00  0.00     0.074 A 
ATOM     61  C   UNL A   1      42.451  29.763  35.746  1.00  0.00     0.029 A 
ATOM     62  N   UNL A   1      41.169  29.956  33.937  1.00  0.00    -0.354 N 
ATOM     63  N   UNL A   1      39.028  31.133  32.300  1.00  0.00    -0.248 NA
ATOM     64  C   UNL A   1      37.214  32.592  32.086  1.00  0.00     0.031 C 
ATOM     65  C   UNL A   1      41.479  30.737  35.991  1.00  0.00     0.029 A 
ATOM     66  C   UNL A   1      40.695  30.872  34.856  1.00  0.00     0.049 A 
ATOM     67  H   UNL A   1      40.803  29.820  33.033  1.00  0.00     0.167 HD
ATOM     68  C   UNL A   1      38.878  31.852  33.480  1.00  0.00     0.074 A 
ATOM     69  C   UNL A   1      37.769  32.761  33.277  1.00  0.00     0.031 C 
ATOM     70  C   UNL A   1      39.593  31.769  34.628  1.00  0.00     0.031 A 
BRANCH  57  71
ATOM     71  C   UNL A   1      44.009  27.449  34.539  1.00  0.00    -0.014 A 
ATOM     72  C   UNL A   1      45.352  27.860  34.516  1.00  0.00     0.009 A 
ATOM     73  C   UNL A   1      43.663  26.314  35.289  1.00  0.00     0.009 A 
ATOM     74  C   UNL A   1      46.334  27.122  35.181  1.00  0.00     0.001 A 
ATOM     75  C   UNL A   1      44.642  25.599  35.984  1.00  0.00     0.001 A 
ATOM     76  C   UNL A   1      45.977  25.995  35.919  1.00  0.00     0.000 A 
ENDBRANCH  57  71
BRANCH  58  77
ATOM     77  C   UNL A   1      36.697  31.821  29.314  1.00  0.00    -0.014 A 
ATOM     78  C   UNL A   1      36.894  33.083  28.732  1.00  0.00     0.009 A 
ATOM     79  C   UNL A   1      35.449  31.196  29.172  1.00  0.00     0.009 A 
ATOM     80  C   UNL A   1      35.855  33.724  28.055  1.00  0.00     0.001 A 
ATOM     81  C   UNL A   1      34.419  31.828  28.467  1.00  0.00     0.001 A 
ATOM     82  C   UNL A   1      34.619  33.094  27.919  1.00  0.00     0.000 A 
ENDBRANCH  58  77
BRANCH  70  83
ATOM     83  C   UNL A   1      39.222  32.705  35.742  1.00  0.00    -0.014 A 
ATOM     84  C   UNL A   1      38.286  32.334  36.720  1.00  0.00     0.009 A 
ATOM     85  C   UNL A   1      39.870  33.946  35.851  1.00  0.00     0.009 A 
ATOM     86  C   UNL A   1      37.988  33.202  37.771  1.00  0.00     0.001 A 
ATOM     87  C   UNL A   1      39.592  34.797  36.919  1.00  0.00     0.001 A 
ATOM     88  C   UNL A   1      38.646  34.428  37.875  1.00  0.00     0.000 A 
ENDBRANCH  70  83
ENDBRANCH  44  45
ENDBRANCH  36  39
ENDBRANCH  34  35
ENDBRANCH  33  34
ENDBRANCH  32  33
ENDBRANCH  31  32
ENDBRANCH   3  31
TORSDOF 17
ENDMDL
MODEL 3
REMARK VINA RESULT:     -12.2      0.610      5.683
REMARK SMILES COc1ccc(CCN2/C(=[NH+]/C(=O)CCC(=O)NCCCCNC(=O)c3ccc(-c4c5nc(c(-c6ccccc6)c6ccc([nH]6)c(-c6ccccc6)c6nc(c(-c7ccccc7)c7ccc4[nH]7)C=C6)C=C5)cc3)S[C@@H]3CS(=O)(=O)C[C@@H]32)cc1
REMARK SMILES IDX 16 1 17 2 18 3 15 5 14 6 12 7 9 8 10 9 81 10 11 11 74 12
REMARK SMILES IDX 75 13 80 14 76 16 77 17 13 18 78 19 79 20 8 21 7 22 6 23
REMARK SMILES IDX 3 24 4 25 83 26 5 27 82 28 2 29 1 30 19 31 20 32 21 33 22 34
REMARK SMILES IDX 23 35 24 36 25 38 26 39 27 40 73 41 28 42 72 43 29 44 30 45
REMARK SMILES IDX 31 46 66 47 32 48 71 49 65 50 67 51 33 52 70 53 64 54 63 55
REMARK SMILES IDX 34 57 56 58 41 59 55 60 42 61 45 62 54 63 68 64 43 65 44 66
REMARK SMILES IDX 53 68 69 69 46 70 35 71 36 72 40 73 37 74 39 75 38 76 57 77
REMARK SMILES IDX 58 78 62 79 59 80 61 81 60 82 47 83 48 84 52 85 49 86 51 87
REMARK SMILES IDX 50 88
REMARK H PARENT 18 4 11 15 23 37 67 56 45 67
REMARK Flexibility Score: inf
ROOT
ATOM      1  C   UNL A   1      38.607  23.358  26.540  1.00  0.00     0.220 C 
ATOM      2  O   UNL A   1      38.483  24.581  26.471  1.00  0.00    -0.275 OA
ATOM      3  N   UNL A   1      39.794  22.851  27.000  1.00  0.00    -0.356 N 
ATOM      4  H   UNL A   1      40.435  23.502  27.364  1.00  0.00     0.163 HD
ENDROOT
BRANCH   1   5
ATOM      5  C   UNL A   1      37.478  22.415  26.117  1.00  0.00     0.112 C 
BRANCH   5   6
ATOM      6  C   UNL A   1      37.575  22.003  24.636  1.00  0.00     0.138 C 
BRANCH   6   7
ATOM      7  C   UNL A   1      36.560  22.690  23.704  1.00  0.00     0.308 C 
ATOM      8  N   UNL A   1      32.890  22.245  23.543  1.00  0.00    -0.251 N 
ATOM      9  C   UNL A   1      34.190  22.764  23.363  1.00  0.00     0.314 C 
ATOM     10  C   UNL A   1      31.752  23.191  23.499  1.00  0.00     0.206 C 
ATOM     11  N   UNL A   1      35.275  22.159  23.752  1.00  0.00    -0.205 N 
ATOM     12  S   UNL A   1      34.230  24.435  22.694  1.00  0.00    -0.030 SA
ATOM     13  C   UNL A   1      32.460  24.849  22.769  1.00  0.00     0.120 C 
ATOM     14  C   UNL A   1      30.822  23.431  25.278  1.00  0.00     0.187 C 
ATOM     15  H   UNL A   1      35.177  21.247  24.111  1.00  0.00     0.316 HD
ATOM     16  C   UNL A   1      32.036  26.449  23.876  1.00  0.00     0.156 C 
ATOM     17  S   UNL A   1      30.714  25.831  25.668  1.00  0.00     0.155 S 
ATOM     18  O   UNL A   1      36.938  23.666  23.058  1.00  0.00    -0.247 OA
ATOM     19  O   UNL A   1      31.274  26.269  26.939  1.00  0.00    -0.229 OA
ATOM     20  O   UNL A   1      29.441  26.490  25.401  1.00  0.00    -0.229 OA
BRANCH   8  21
ATOM     21  C   UNL A   1      32.525  20.929  24.113  1.00  0.00     0.242 C 
BRANCH  21  22
ATOM     22  C   UNL A   1      32.324  19.732  23.181  1.00  0.00     0.081 C 
BRANCH  22  23
ATOM     23  C   UNL A   1      32.638  18.397  23.785  1.00  0.00    -0.044 A 
ATOM     24  C   UNL A   1      33.465  15.982  24.883  1.00  0.00     0.118 A 
ATOM     25  C   UNL A   1      33.631  16.208  23.521  1.00  0.00     0.046 A 
ATOM     26  C   UNL A   1      32.883  16.943  25.708  1.00  0.00     0.046 A 
ATOM     27  C   UNL A   1      33.192  17.404  22.968  1.00  0.00     0.007 A 
ATOM     28  C   UNL A   1      32.468  18.155  25.158  1.00  0.00     0.007 A 
BRANCH  24  29
ATOM     29  O   UNL A   1      33.978  14.835  25.423  1.00  0.00    -0.497 OA
ATOM     30  C   UNL A   1      32.910  13.949  25.746  1.00  0.00     0.278 C 
ENDBRANCH  24  29
ENDBRANCH  22  23
ENDBRANCH  21  22
ENDBRANCH   8  21
ENDBRANCH   6   7
ENDBRANCH   5   6
ENDBRANCH   1   5
BRANCH   3  31
ATOM     31  C   UNL A   1      40.212  21.463  27.011  1.00  0.00     0.116 C 
BRANCH  31  32
ATOM     32  C   UNL A   1      41.326  21.274  26.005  1.00  0.00     0.023 C 
BRANCH  32  33
ATOM     33  C   UNL A   1      42.702  21.595  26.532  1.00  0.00     0.023 C 
BRANCH  33  34
ATOM     34  C   UNL A   1      43.667  21.553  25.376  1.00  0.00     0.116 C 
BRANCH  34  35
ATOM     35  N   UNL A   1      44.318  23.095  24.849  1.00  0.00    -0.352 N 
ATOM     36  C   UNL A   1      44.258  24.985  25.278  1.00  0.00     0.251 C 
ATOM     37  H   UNL A   1      44.912  22.953  24.078  1.00  0.00     0.163 HD
ATOM     38  O   UNL A   1      45.081  25.849  24.914  1.00  0.00    -0.269 OA
BRANCH  36  39
ATOM     39  C   UNL A   1      43.110  25.910  26.187  1.00  0.00     0.039 A 
ATOM     40  C   UNL A   1      42.148  25.189  26.914  1.00  0.00     0.014 A 
ATOM     41  C   UNL A   1      43.185  27.305  26.463  1.00  0.00     0.014 A 
ATOM     42  C   UNL A   1      41.456  25.796  27.984  1.00  0.00     0.010 A 
ATOM     43  C   UNL A   1      42.651  27.840  27.612  1.00  0.00     0.010 A 
ATOM     44  C   UNL A   1      41.770  27.104  28.389  1.00  0.00    -0.014 A 
BRANCH  44  45
ATOM     45  C   UNL A   1      41.288  27.786  29.613  1.00  0.00     0.031 A 
ATOM     46  C   UNL A   1      40.077  28.690  29.527  1.00  0.00     0.074 A 
ATOM     47  C   UNL A   1      42.076  27.813  30.706  1.00  0.00     0.049 A 
ATOM     48  N   UNL A   1      39.615  29.538  30.410  1.00  0.00    -0.248 NA
ATOM     49  C   UNL A   1      39.348  28.716  28.242  1.00  0.00     0.031 C 
ATOM     50  C   UNL A   1      43.358  27.117  30.861  1.00  0.00     0.029 A 
ATOM     51  N   UNL A   1      41.924  28.485  31.892  1.00  0.00    -0.354 N 
ATOM     52  C   UNL A   1      38.580  30.212  29.772  1.00  0.00     0.074 A 
ATOM     53  C   UNL A   1      38.557  29.764  28.402  1.00  0.00     0.031 C 
ATOM     54  C   UNL A   1      43.844  27.355  32.090  1.00  0.00     0.029 A 
ATOM     55  C   UNL A   1      42.930  28.245  32.797  1.00  0.00     0.049 A 
ATOM     56  H   UNL A   1      41.164  29.083  32.078  1.00  0.00     0.167 HD
ATOM     57  C   UNL A   1      37.687  31.087  30.290  1.00  0.00     0.031 A 
ATOM     58  C   UNL A   1      43.082  28.681  34.061  1.00  0.00     0.031 A 
ATOM     59  C   UNL A   1      37.679  31.483  31.669  1.00  0.00     0.049 A 
ATOM     60  C   UNL A   1      42.037  29.590  34.648  1.00  0.00     0.074 A 
ATOM     61  C   UNL A   1      36.742  32.242  32.344  1.00  0.00     0.029 A 
ATOM     62  N   UNL A   1      38.661  31.140  32.584  1.00  0.00    -0.354 N 
ATOM     63  N   UNL A   1      40.964  30.090  34.083  1.00  0.00    -0.248 NA
ATOM     64  C   UNL A   1      42.215  29.979  36.055  1.00  0.00     0.031 C 
ATOM     65  C   UNL A   1      37.186  32.401  33.661  1.00  0.00     0.029 A 
ATOM     66  C   UNL A   1      38.369  31.695  33.815  1.00  0.00     0.049 A 
ATOM     67  H   UNL A   1      39.450  30.584  32.387  1.00  0.00     0.167 HD
ATOM     68  C   UNL A   1      40.322  30.823  35.073  1.00  0.00     0.074 A 
ATOM     69  C   UNL A   1      41.118  30.689  36.276  1.00  0.00     0.031 C 
ATOM     70  C   UNL A   1      39.176  31.543  34.997  1.00  0.00     0.031 A 
BRANCH  57  71
ATOM     71  C   UNL A   1      36.625  31.628  29.370  1.00  0.00    -0.014 A 
ATOM     72  C   UNL A   1      35.499  30.859  29.029  1.00  0.00     0.009 A 
ATOM     73  C   UNL A   1      36.737  32.927  28.852  1.00  0.00     0.009 A 
ATOM     74  C   UNL A   1      34.538  31.357  28.147  1.00  0.00     0.001 A 
ATOM     75  C   UNL A   1      35.754  33.437  28.000  1.00  0.00     0.001 A 
ATOM     76  C   UNL A   1      34.664  32.648  27.638  1.00  0.00     0.000 A 
ENDBRANCH  57  71
BRANCH  58  77
ATOM     77  C   UNL A   1      44.218  28.197  34.889  1.00  0.00    -0.014 A 
ATOM     78  C   UNL A   1      44.057  27.060  35.696  1.00  0.00     0.009 A 
ATOM     79  C   UNL A   1      45.455  28.859  34.890  1.00  0.00     0.009 A 
ATOM     80  C   UNL A   1      45.097  26.615  36.514  1.00  0.00     0.001 A 
ATOM     81  C   UNL A   1      46.505  28.393  35.688  1.00  0.00     0.001 A 
ATOM     82  C   UNL A   1      46.322  27.279  36.507  1.00  0.00     0.000 A 
ENDBRANCH  58  77
BRANCH  70  83
ATOM     83  C   UNL A   1      38.696  32.213  36.252  1.00  0.00    -0.014 A 
ATOM     84  C   UNL A   1      37.851  31.549  37.154  1.00  0.00     0.009 A 
ATOM     85  C   UNL A   1      39.155  33.502  36.568  1.00  0.00     0.009 A 
ATOM     86  C   UNL A   1      37.452  32.175  38.335  1.00  0.00     0.001 A 
ATOM     87  C   UNL A   1      38.781  34.112  37.765  1.00  0.00     0.001 A 
ATOM     88  C   UNL A   1      37.923  33.451  38.643  1.00  0.00     0.000 A 
ENDBRANCH  70  83
ENDBRANCH  44  45
ENDBRANCH  36  39
ENDBRANCH  34  35
ENDBRANCH  33  34
ENDBRANCH  32  33
ENDBRANCH  31  32
ENDBRANCH   3  31
TORSDOF 17
ENDMDL
