MODEL 1
REMARK VINA RESULT:     -11.2      0.000      0.000
REMARK SMILES C[C@@H]1CN(C(=O)N2CC(CC(=O)NCCCCNC(=O)c3ccc(-c4c5nc(c(-c6ccccc6)c6ccc([nH]6)c(-c6ccccc6)c6nc(c(-c7ccccc7)c7ccc4[nH]7)C=C6)C=C5)cc3)C2)C[C@H]1C
REMARK SMILES IDX 16 1 15 2 14 3 13 4 11 5 12 6 10 8 9 9 1 10 2 11 3 12 71 13
REMARK SMILES IDX 4 14 70 15 72 16 5 17 6 18 7 19 8 20 69 21 17 22 18 23 19 24
REMARK SMILES IDX 20 26 21 27 22 28 68 29 23 30 67 31 24 32 25 33 26 34 61 35
REMARK SMILES IDX 27 36 66 37 60 38 62 39 28 40 65 41 59 42 58 43 29 45 51 46
REMARK SMILES IDX 36 47 50 48 37 49 40 50 49 51 63 52 38 53 39 54 48 56 64 57
REMARK SMILES IDX 41 58 30 59 31 60 35 61 32 62 34 63 33 64 52 65 53 66 57 67
REMARK SMILES IDX 54 68 56 69 55 70 42 71 43 72 47 73 44 74 46 75 45 76
REMARK H PARENT 13 7 18 25 62 44 40 55
REMARK Flexibility Score: inf
ROOT
ATOM      1  C   UNL A   1      36.100  23.110  25.964  1.00  0.00     0.023 C 
ENDROOT
BRANCH   1   2
ATOM      2  C   UNL A   1      35.774  21.634  26.148  1.00  0.00     0.023 C 
BRANCH   2   3
ATOM      3  C   UNL A   1      35.479  20.859  24.864  1.00  0.00     0.116 C 
BRANCH   3   4
ATOM      4  N   UNL A   1      34.402  19.915  25.072  1.00  0.00    -0.356 N 
ATOM      5  C   UNL A   1      33.058  20.096  24.947  1.00  0.00     0.220 C 
ATOM      6  O   UNL A   1      32.311  19.195  25.329  1.00  0.00    -0.275 OA
ATOM      7  H   UNL A   1      34.682  19.011  25.343  1.00  0.00     0.163 HD
BRANCH   5   8
ATOM      8  C   UNL A   1      32.498  21.373  24.350  1.00  0.00     0.107 C 
BRANCH   8   9
ATOM      9  C   UNL A   1      32.101  22.427  25.378  1.00  0.00     0.037 C 
ATOM     10  C   UNL A   1      33.310  28.994  23.662  1.00  0.00     0.010 C 
ATOM     11  C   UNL A   1      33.101  28.338  25.019  1.00  0.00     0.010 C 
ATOM     12  C   UNL A   1      32.764  26.848  24.903  1.00  0.00     0.125 C 
ATOM     13  C   UNL A   1      31.904  28.913  25.797  1.00  0.00     0.010 C 
ATOM     14  N   UNL A   1      31.803  26.578  25.965  1.00  0.00    -0.324 N 
ATOM     15  C   UNL A   1      31.554  27.772  26.751  1.00  0.00     0.125 C 
ATOM     16  C   UNL A   1      32.215  30.216  26.514  1.00  0.00     0.010 C 
ATOM     17  C   UNL A   1      30.977  25.474  26.055  1.00  0.00     0.320 C 
ATOM     18  O   UNL A   1      29.938  25.480  26.714  1.00  0.00    -0.248 OA
ATOM     19  N   UNL A   1      31.373  24.363  25.363  1.00  0.00    -0.324 N 
ATOM     20  C   UNL A   1      30.712  23.079  25.203  1.00  0.00     0.127 C 
ATOM     21  C   UNL A   1      32.701  23.828  25.175  1.00  0.00     0.127 C 
ENDBRANCH   8   9
ENDBRANCH   5   8
ENDBRANCH   3   4
ENDBRANCH   2   3
ENDBRANCH   1   2
BRANCH   1  22
ATOM     22  C   UNL A   1      37.328  23.397  25.115  1.00  0.00     0.116 C 
BRANCH  22  23
ATOM     23  N   UNL A   1      38.478  22.565  25.440  1.00  0.00    -0.352 N 
ATOM     24  C   UNL A   1      39.586  22.893  26.185  1.00  0.00     0.251 C 
ATOM     25  H   UNL A   1      38.459  21.649  25.080  1.00  0.00     0.163 HD
ATOM     26  O   UNL A   1      40.515  22.101  26.303  1.00  0.00    -0.269 OA
BRANCH  24  27
ATOM     27  C   UNL A   1      39.664  24.233  26.801  1.00  0.00     0.039 A 
ATOM     28  C   UNL A   1      39.133  24.422  28.079  1.00  0.00     0.014 A 
ATOM     29  C   UNL A   1      40.326  25.276  26.147  1.00  0.00     0.014 A 
ATOM     30  C   UNL A   1      39.344  25.634  28.738  1.00  0.00     0.010 A 
ATOM     31  C   UNL A   1      40.609  26.447  26.837  1.00  0.00     0.010 A 
ATOM     32  C   UNL A   1      40.123  26.637  28.140  1.00  0.00    -0.014 A 
BRANCH  32  33
ATOM     33  C   UNL A   1      40.446  27.898  28.852  1.00  0.00     0.031 A 
ATOM     34  C   UNL A   1      41.768  28.043  29.552  1.00  0.00     0.074 A 
ATOM     35  C   UNL A   1      39.521  28.873  28.943  1.00  0.00     0.049 A 
ATOM     36  N   UNL A   1      42.200  29.023  30.304  1.00  0.00    -0.248 NA
ATOM     37  C   UNL A   1      42.716  26.925  29.418  1.00  0.00     0.031 C 
ATOM     38  C   UNL A   1      38.180  28.833  28.353  1.00  0.00     0.029 A 
ATOM     39  N   UNL A   1      39.569  30.089  29.577  1.00  0.00    -0.354 N 
ATOM     40  C   UNL A   1      43.452  28.626  30.754  1.00  0.00     0.074 A 
ATOM     41  C   UNL A   1      43.692  27.300  30.231  1.00  0.00     0.031 C 
ATOM     42  C   UNL A   1      37.545  29.984  28.630  1.00  0.00     0.029 A 
ATOM     43  C   UNL A   1      38.416  30.824  29.444  1.00  0.00     0.049 A 
ATOM     44  H   UNL A   1      40.353  30.404  30.079  1.00  0.00     0.167 HD
ATOM     45  C   UNL A   1      44.335  29.311  31.518  1.00  0.00     0.031 A 
ATOM     46  C   UNL A   1      38.097  32.040  29.925  1.00  0.00     0.031 A 
ATOM     47  C   UNL A   1      44.114  30.643  32.011  1.00  0.00     0.049 A 
ATOM     48  C   UNL A   1      39.104  32.791  30.749  1.00  0.00     0.074 A 
ATOM     49  C   UNL A   1      44.975  31.449  32.735  1.00  0.00     0.029 A 
ATOM     50  N   UNL A   1      42.946  31.365  31.826  1.00  0.00    -0.354 N 
ATOM     51  N   UNL A   1      40.309  32.428  31.112  1.00  0.00    -0.248 NA
ATOM     52  C   UNL A   1      38.707  34.125  31.222  1.00  0.00     0.031 C 
ATOM     53  C   UNL A   1      44.315  32.648  33.016  1.00  0.00     0.029 A 
ATOM     54  C   UNL A   1      43.059  32.604  32.432  1.00  0.00     0.049 A 
ATOM     55  H   UNL A   1      42.155  31.046  31.335  1.00  0.00     0.167 HD
ATOM     56  C   UNL A   1      40.826  33.497  31.832  1.00  0.00     0.074 A 
ATOM     57  C   UNL A   1      39.807  34.527  31.844  1.00  0.00     0.031 C 
ATOM     58  C   UNL A   1      42.036  33.616  32.430  1.00  0.00     0.031 A 
BRANCH  45  59
ATOM     59  C   UNL A   1      45.627  28.625  31.860  1.00  0.00    -0.014 A 
ATOM     60  C   UNL A   1      46.742  28.712  31.011  1.00  0.00     0.009 A 
ATOM     61  C   UNL A   1      45.736  27.896  33.053  1.00  0.00     0.009 A 
ATOM     62  C   UNL A   1      47.929  28.051  31.333  1.00  0.00     0.001 A 
ATOM     63  C   UNL A   1      46.933  27.259  33.386  1.00  0.00     0.001 A 
ATOM     64  C   UNL A   1      48.025  27.329  32.522  1.00  0.00     0.000 A 
ENDBRANCH  45  59
BRANCH  46  65
ATOM     65  C   UNL A   1      36.774  32.640  29.617  1.00  0.00    -0.014 A 
ATOM     66  C   UNL A   1      36.563  33.297  28.394  1.00  0.00     0.009 A 
ATOM     67  C   UNL A   1      35.720  32.565  30.539  1.00  0.00     0.009 A 
ATOM     68  C   UNL A   1      35.330  33.890  28.113  1.00  0.00     0.001 A 
ATOM     69  C   UNL A   1      34.480  33.137  30.244  1.00  0.00     0.001 A 
ATOM     70  C   UNL A   1      34.289  33.806  29.037  1.00  0.00     0.000 A 
ENDBRANCH  46  65
BRANCH  58  71
ATOM     71  C   UNL A   1      42.335  34.916  33.116  1.00  0.00    -0.014 A 
ATOM     72  C   UNL A   1      43.116  35.902  32.494  1.00  0.00     0.009 A 
ATOM     73  C   UNL A   1      41.791  35.172  34.384  1.00  0.00     0.009 A 
ATOM     74  C   UNL A   1      43.369  37.112  33.144  1.00  0.00     0.001 A 
ATOM     75  C   UNL A   1      42.025  36.393  35.020  1.00  0.00     0.001 A 
ATOM     76  C   UNL A   1      42.820  37.358  34.403  1.00  0.00     0.000 A 
ENDBRANCH  58  71
ENDBRANCH  32  33
ENDBRANCH  24  27
ENDBRANCH  22  23
ENDBRANCH   1  22
TORSDOF 12
ENDMDL
MODEL 2
REMARK VINA RESULT:     -11.1      2.310      6.885
REMARK SMILES C[C@@H]1CN(C(=O)N2CC(CC(=O)NCCCCNC(=O)c3ccc(-c4c5nc(c(-c6ccccc6)c6ccc([nH]6)c(-c6ccccc6)c6nc(c(-c7ccccc7)c7ccc4[nH]7)C=C6)C=C5)cc3)C2)C[C@H]1C
REMARK SMILES IDX 16 1 15 2 14 3 13 4 11 5 12 6 10 8 9 9 1 10 2 11 3 12 71 13
REMARK SMILES IDX 4 14 70 15 72 16 5 17 6 18 7 19 8 20 69 21 17 22 18 23 19 24
REMARK SMILES IDX 20 26 21 27 22 28 68 29 23 30 67 31 24 32 25 33 26 34 61 35
REMARK SMILES IDX 27 36 66 37 60 38 62 39 28 40 65 41 59 42 58 43 29 45 51 46
REMARK SMILES IDX 36 47 50 48 37 49 40 50 49 51 63 52 38 53 39 54 48 56 64 57
REMARK SMILES IDX 41 58 30 59 31 60 35 61 32 62 34 63 33 64 52 65 53 66 57 67
REMARK SMILES IDX 54 68 56 69 55 70 42 71 43 72 47 73 44 74 46 75 45 76
REMARK H PARENT 13 7 18 25 62 44 40 55
REMARK Flexibility Score: inf
ROOT
ATOM      1  C   UNL A   1      37.736  21.063  24.770  1.00  0.00     0.023 C 
ENDROOT
BRANCH   1   2
ATOM      2  C   UNL A   1      36.580  20.078  24.886  1.00  0.00     0.023 C 
BRANCH   2   3
ATOM      3  C   UNL A   1      35.226  20.689  25.245  1.00  0.00     0.116 C 
BRANCH   3   4
ATOM      4  N   UNL A   1      34.195  19.674  25.262  1.00  0.00    -0.356 N 
ATOM      5  C   UNL A   1      32.867  19.786  24.982  1.00  0.00     0.220 C 
ATOM      6  O   UNL A   1      32.139  18.820  25.215  1.00  0.00    -0.275 OA
ATOM      7  H   UNL A   1      34.498  18.771  25.514  1.00  0.00     0.163 HD
BRANCH   5   8
ATOM      8  C   UNL A   1      32.303  21.065  24.394  1.00  0.00     0.107 C 
BRANCH   8   9
ATOM      9  C   UNL A   1      32.127  22.196  25.402  1.00  0.00     0.037 C 
ATOM     10  C   UNL A   1      33.950  28.500  23.287  1.00  0.00     0.010 C 
ATOM     11  C   UNL A   1      33.786  27.923  24.686  1.00  0.00     0.010 C 
ATOM     12  C   UNL A   1      33.266  26.483  24.668  1.00  0.00     0.125 C 
ATOM     13  C   UNL A   1      32.741  28.668  25.534  1.00  0.00     0.010 C 
ATOM     14  N   UNL A   1      32.378  26.370  25.819  1.00  0.00    -0.324 N 
ATOM     15  C   UNL A   1      32.344  27.614  26.566  1.00  0.00     0.125 C 
ATOM     16  C   UNL A   1      33.268  29.948  26.161  1.00  0.00     0.010 C 
ATOM     17  C   UNL A   1      31.438  25.380  26.030  1.00  0.00     0.320 C 
ATOM     18  O   UNL A   1      30.470  25.537  26.772  1.00  0.00    -0.248 OA
ATOM     19  N   UNL A   1      31.636  24.205  25.359  1.00  0.00    -0.324 N 
ATOM     20  C   UNL A   1      30.816  23.007  25.315  1.00  0.00     0.127 C 
ATOM     21  C   UNL A   1      32.869  23.505  25.085  1.00  0.00     0.127 C 
ENDBRANCH   8   9
ENDBRANCH   5   8
ENDBRANCH   3   4
ENDBRANCH   2   3
ENDBRANCH   1   2
BRANCH   1  22
ATOM     22  C   UNL A   1      38.764  20.984  25.887  1.00  0.00     0.116 C 
BRANCH  22  23
ATOM     23  N   UNL A   1      39.705  19.881  25.745  1.00  0.00    -0.352 N 
ATOM     24  C   UNL A   1      41.049  19.864  26.034  1.00  0.00     0.251 C 
ATOM     25  H   UNL A   1      39.330  19.039  25.399  1.00  0.00     0.163 HD
ATOM     26  O   UNL A   1      41.728  18.874  25.783  1.00  0.00    -0.269 OA
BRANCH  24  27
ATOM     27  C   UNL A   1      41.674  21.073  26.606  1.00  0.00     0.039 A 
ATOM     28  C   UNL A   1      42.176  22.049  25.743  1.00  0.00     0.014 A 
ATOM     29  C   UNL A   1      41.694  21.273  27.989  1.00  0.00     0.014 A 
ATOM     30  C   UNL A   1      42.619  23.266  26.264  1.00  0.00     0.010 A 
ATOM     31  C   UNL A   1      42.053  22.514  28.497  1.00  0.00     0.010 A 
ATOM     32  C   UNL A   1      42.517  23.524  27.640  1.00  0.00    -0.014 A 
BRANCH  32  33
ATOM     33  C   UNL A   1      42.889  24.840  28.213  1.00  0.00     0.031 A 
ATOM     34  C   UNL A   1      41.831  25.885  28.435  1.00  0.00     0.074 A 
ATOM     35  C   UNL A   1      44.183  25.127  28.450  1.00  0.00     0.049 A 
ATOM     36  N   UNL A   1      41.965  27.123  28.836  1.00  0.00    -0.248 NA
ATOM     37  C   UNL A   1      40.443  25.497  28.136  1.00  0.00     0.031 C 
ATOM     38  C   UNL A   1      45.312  24.220  28.227  1.00  0.00     0.029 A 
ATOM     39  N   UNL A   1      44.769  26.273  28.927  1.00  0.00    -0.354 N 
ATOM     40  C   UNL A   1      40.688  27.667  28.807  1.00  0.00     0.074 A 
ATOM     41  C   UNL A   1      39.800  26.642  28.306  1.00  0.00     0.031 C 
ATOM     42  C   UNL A   1      46.449  24.835  28.592  1.00  0.00     0.029 A 
ATOM     43  C   UNL A   1      46.135  26.187  29.040  1.00  0.00     0.049 A 
ATOM     44  H   UNL A   1      44.258  27.080  29.164  1.00  0.00     0.167 HD
ATOM     45  C   UNL A   1      40.284  28.903  29.183  1.00  0.00     0.031 A 
ATOM     46  C   UNL A   1      47.034  27.097  29.458  1.00  0.00     0.031 A 
ATOM     47  C   UNL A   1      41.159  29.913  29.712  1.00  0.00     0.049 A 
ATOM     48  C   UNL A   1      46.558  28.454  29.893  1.00  0.00     0.074 A 
ATOM     49  C   UNL A   1      40.836  31.172  30.186  1.00  0.00     0.029 A 
ATOM     50  N   UNL A   1      42.532  29.774  29.841  1.00  0.00    -0.354 N 
ATOM     51  N   UNL A   1      45.338  28.932  29.920  1.00  0.00    -0.248 NA
ATOM     52  C   UNL A   1      47.585  29.394  30.365  1.00  0.00     0.031 C 
ATOM     53  C   UNL A   1      42.019  31.809  30.572  1.00  0.00     0.029 A 
ATOM     54  C   UNL A   1      43.073  30.929  30.377  1.00  0.00     0.049 A 
ATOM     55  H   UNL A   1      43.046  28.972  29.591  1.00  0.00     0.167 HD
ATOM     56  C   UNL A   1      45.446  30.216  30.436  1.00  0.00     0.074 A 
ATOM     57  C   UNL A   1      46.849  30.439  30.719  1.00  0.00     0.031 C 
ATOM     58  C   UNL A   1      44.470  31.130  30.655  1.00  0.00     0.031 A 
BRANCH  45  59
ATOM     59  C   UNL A   1      38.825  29.224  29.035  1.00  0.00    -0.014 A 
ATOM     60  C   UNL A   1      37.935  29.073  30.111  1.00  0.00     0.009 A 
ATOM     61  C   UNL A   1      38.334  29.701  27.810  1.00  0.00     0.009 A 
ATOM     62  C   UNL A   1      36.578  29.357  29.951  1.00  0.00     0.001 A 
ATOM     63  C   UNL A   1      36.981  30.010  27.661  1.00  0.00     0.001 A 
ATOM     64  C   UNL A   1      36.103  29.829  28.729  1.00  0.00     0.000 A 
ENDBRANCH  45  59
BRANCH  46  65
ATOM     65  C   UNL A   1      48.477  26.749  29.513  1.00  0.00    -0.014 A 
ATOM     66  C   UNL A   1      49.013  26.137  30.657  1.00  0.00     0.009 A 
ATOM     67  C   UNL A   1      49.324  27.027  28.430  1.00  0.00     0.009 A 
ATOM     68  C   UNL A   1      50.376  25.836  30.725  1.00  0.00     0.001 A 
ATOM     69  C   UNL A   1      50.681  26.702  28.492  1.00  0.00     0.001 A 
ATOM     70  C   UNL A   1      51.207  26.116  29.642  1.00  0.00     0.000 A 
ENDBRANCH  46  65
BRANCH  58  71
ATOM     71  C   UNL A   1      44.883  32.439  31.262  1.00  0.00    -0.014 A 
ATOM     72  C   UNL A   1      45.245  33.530  30.456  1.00  0.00     0.009 A 
ATOM     73  C   UNL A   1      44.865  32.593  32.656  1.00  0.00     0.009 A 
ATOM     74  C   UNL A   1      45.610  34.744  31.041  1.00  0.00     0.001 A 
ATOM     75  C   UNL A   1      45.207  33.816  33.236  1.00  0.00     0.001 A 
ATOM     76  C   UNL A   1      45.586  34.888  32.428  1.00  0.00     0.000 A 
ENDBRANCH  58  71
ENDBRANCH  32  33
ENDBRANCH  24  27
ENDBRANCH  22  23
ENDBRANCH   1  22
TORSDOF 12
ENDMDL
MODEL 3
REMARK VINA RESULT:     -11.0      2.434      3.681
REMARK SMILES C[C@@H]1CN(C(=O)N2CC(CC(=O)NCCCCNC(=O)c3ccc(-c4c5nc(c(-c6ccccc6)c6ccc([nH]6)c(-c6ccccc6)c6nc(c(-c7ccccc7)c7ccc4[nH]7)C=C6)C=C5)cc3)C2)C[C@H]1C
REMARK SMILES IDX 16 1 15 2 14 3 13 4 11 5 12 6 10 8 9 9 1 10 2 11 3 12 71 13
REMARK SMILES IDX 4 14 70 15 72 16 5 17 6 18 7 19 8 20 69 21 17 22 18 23 19 24
REMARK SMILES IDX 20 26 21 27 22 28 68 29 23 30 67 31 24 32 25 33 26 34 61 35
REMARK SMILES IDX 27 36 66 37 60 38 62 39 28 40 65 41 59 42 58 43 29 45 51 46
REMARK SMILES IDX 36 47 50 48 37 49 40 50 49 51 63 52 38 53 39 54 48 56 64 57
REMARK SMILES IDX 41 58 30 59 31 60 35 61 32 62 34 63 33 64 52 65 53 66 57 67
REMARK SMILES IDX 54 68 56 69 55 70 42 71 43 72 47 73 44 74 46 75 45 76
REMARK H PARENT 13 7 18 25 62 44 40 55
REMARK Flexibility Score: inf
ROOT
ATOM      1  C   UNL A   1      37.479  20.795  24.665  1.00  0.00     0.023 C 
ENDROOT
BRANCH   1   2
ATOM      2  C   UNL A   1      36.384  19.784  24.980  1.00  0.00     0.023 C 
BRANCH   2   3
ATOM      3  C   UNL A   1      34.951  20.292  24.822  1.00  0.00     0.116 C 
BRANCH   3   4
ATOM      4  N   UNL A   1      34.380  20.618  26.110  1.00  0.00    -0.356 N 
ATOM      5  C   UNL A   1      34.414  21.793  26.799  1.00  0.00     0.220 C 
ATOM      6  O   UNL A   1      33.995  21.801  27.956  1.00  0.00    -0.275 OA
ATOM      7  H   UNL A   1      33.896  19.884  26.553  1.00  0.00     0.163 HD
BRANCH   5   8
ATOM      8  C   UNL A   1      34.952  23.056  26.154  1.00  0.00     0.107 C 
BRANCH   8   9
ATOM      9  C   UNL A   1      34.182  23.505  24.917  1.00  0.00     0.037 C 
ATOM     10  C   UNL A   1      31.430  29.822  25.142  1.00  0.00     0.010 C 
ATOM     11  C   UNL A   1      31.094  28.616  24.277  1.00  0.00     0.010 C 
ATOM     12  C   UNL A   1      32.048  27.442  24.514  1.00  0.00     0.125 C 
ATOM     13  C   UNL A   1      31.234  28.888  22.769  1.00  0.00     0.010 C 
ATOM     14  N   UNL A   1      32.235  26.816  23.211  1.00  0.00    -0.324 N 
ATOM     15  C   UNL A   1      31.438  27.486  22.200  1.00  0.00     0.125 C 
ATOM     16  C   UNL A   1      30.039  29.608  22.168  1.00  0.00     0.010 C 
ATOM     17  C   UNL A   1      33.244  25.938  22.865  1.00  0.00     0.320 C 
ATOM     18  O   UNL A   1      33.592  25.760  21.699  1.00  0.00    -0.248 OA
ATOM     19  N   UNL A   1      33.848  25.273  23.896  1.00  0.00    -0.324 N 
ATOM     20  C   UNL A   1      34.963  24.342  23.880  1.00  0.00     0.127 C 
ATOM     21  C   UNL A   1      33.264  24.725  25.098  1.00  0.00     0.127 C 
ENDBRANCH   8   9
ENDBRANCH   5   8
ENDBRANCH   3   4
ENDBRANCH   2   3
ENDBRANCH   1   2
BRANCH   1  22
ATOM     22  C   UNL A   1      38.581  20.895  25.707  1.00  0.00     0.116 C 
BRANCH  22  23
ATOM     23  N   UNL A   1      39.551  19.809  25.646  1.00  0.00    -0.352 N 
ATOM     24  C   UNL A   1      40.879  19.831  26.000  1.00  0.00     0.251 C 
ATOM     25  H   UNL A   1      39.211  18.950  25.306  1.00  0.00     0.163 HD
ATOM     26  O   UNL A   1      41.590  18.849  25.814  1.00  0.00    -0.269 OA
BRANCH  24  27
ATOM     27  C   UNL A   1      41.449  21.070  26.566  1.00  0.00     0.039 A 
ATOM     28  C   UNL A   1      41.990  22.023  25.700  1.00  0.00     0.014 A 
ATOM     29  C   UNL A   1      41.380  21.319  27.939  1.00  0.00     0.014 A 
ATOM     30  C   UNL A   1      42.382  23.265  26.203  1.00  0.00     0.010 A 
ATOM     31  C   UNL A   1      41.689  22.584  28.423  1.00  0.00     0.010 A 
ATOM     32  C   UNL A   1      42.190  23.570  27.560  1.00  0.00    -0.014 A 
BRANCH  32  33
ATOM     33  C   UNL A   1      42.506  24.912  28.106  1.00  0.00     0.031 A 
ATOM     34  C   UNL A   1      43.909  25.230  28.543  1.00  0.00     0.074 A 
ATOM     35  C   UNL A   1      41.519  25.809  28.291  1.00  0.00     0.049 A 
ATOM     36  N   UNL A   1      44.365  26.307  29.129  1.00  0.00    -0.248 NA
ATOM     37  C   UNL A   1      44.925  24.189  28.321  1.00  0.00     0.031 C 
ATOM     38  C   UNL A   1      40.107  25.604  27.959  1.00  0.00     0.029 A 
ATOM     39  N   UNL A   1      41.555  27.077  28.815  1.00  0.00    -0.354 N 
ATOM     40  C   UNL A   1      45.710  26.060  29.373  1.00  0.00     0.074 A 
ATOM     41  C   UNL A   1      45.985  24.716  28.914  1.00  0.00     0.031 C 
ATOM     42  C   UNL A   1      39.418  26.717  28.261  1.00  0.00     0.029 A 
ATOM     43  C   UNL A   1      40.330  27.698  28.839  1.00  0.00     0.049 A 
ATOM     44  H   UNL A   1      42.381  27.501  29.142  1.00  0.00     0.167 HD
ATOM     45  C   UNL A   1      46.640  26.882  29.911  1.00  0.00     0.031 A 
ATOM     46  C   UNL A   1      39.981  28.921  29.279  1.00  0.00     0.031 A 
ATOM     47  C   UNL A   1      46.377  28.229  30.337  1.00  0.00     0.049 A 
ATOM     48  C   UNL A   1      41.036  29.825  29.850  1.00  0.00     0.074 A 
ATOM     49  C   UNL A   1      47.266  29.167  30.831  1.00  0.00     0.029 A 
ATOM     50  N   UNL A   1      45.129  28.831  30.314  1.00  0.00    -0.354 N 
ATOM     51  N   UNL A   1      42.317  29.599  30.014  1.00  0.00    -0.248 NA
ATOM     52  C   UNL A   1      40.597  31.159  30.287  1.00  0.00     0.031 C 
ATOM     53  C   UNL A   1      46.550  30.328  31.138  1.00  0.00     0.029 A 
ATOM     54  C   UNL A   1      45.222  30.125  30.796  1.00  0.00     0.049 A 
ATOM     55  H   UNL A   1      44.300  28.403  30.000  1.00  0.00     0.167 HD
ATOM     56  C   UNL A   1      42.842  30.769  30.547  1.00  0.00     0.074 A 
ATOM     57  C   UNL A   1      41.744  31.706  30.668  1.00  0.00     0.031 C 
ATOM     58  C   UNL A   1      44.119  31.042  30.905  1.00  0.00     0.031 A 
BRANCH  45  59
ATOM     59  C   UNL A   1      48.033  26.341  30.063  1.00  0.00    -0.014 A 
ATOM     60  C   UNL A   1      48.955  26.404  29.006  1.00  0.00     0.009 A 
ATOM     61  C   UNL A   1      48.434  25.777  31.283  1.00  0.00     0.009 A 
ATOM     62  C   UNL A   1      50.239  25.877  29.156  1.00  0.00     0.001 A 
ATOM     63  C   UNL A   1      49.728  25.276  31.439  1.00  0.00     0.001 A 
ATOM     64  C   UNL A   1      50.626  25.318  30.373  1.00  0.00     0.000 A 
ENDBRANCH  45  59
BRANCH  46  65
ATOM     65  C   UNL A   1      38.572  29.377  29.172  1.00  0.00    -0.014 A 
ATOM     66  C   UNL A   1      38.103  29.952  27.981  1.00  0.00     0.009 A 
ATOM     67  C   UNL A   1      37.691  29.246  30.256  1.00  0.00     0.009 A 
ATOM     68  C   UNL A   1      36.787  30.411  27.887  1.00  0.00     0.001 A 
ATOM     69  C   UNL A   1      36.369  29.683  30.150  1.00  0.00     0.001 A 
ATOM     70  C   UNL A   1      35.921  30.273  28.970  1.00  0.00     0.000 A 
ENDBRANCH  46  65
BRANCH  58  71
ATOM     71  C   UNL A   1      44.403  32.420  31.428  1.00  0.00    -0.014 A 
ATOM     72  C   UNL A   1      44.350  32.701  32.802  1.00  0.00     0.009 A 
ATOM     73  C   UNL A   1      44.772  33.438  30.535  1.00  0.00     0.009 A 
ATOM     74  C   UNL A   1      44.634  33.986  33.268  1.00  0.00     0.001 A 
ATOM     75  C   UNL A   1      45.079  34.715  31.007  1.00  0.00     0.001 A 
ATOM     76  C   UNL A   1      45.002  34.989  32.372  1.00  0.00     0.000 A 
ENDBRANCH  58  71
ENDBRANCH  32  33
ENDBRANCH  24  27
ENDBRANCH  22  23
ENDBRANCH   1  22
TORSDOF 12
ENDMDL
