MODEL 1
REMARK VINA RESULT:     -11.0      0.000      0.000
REMARK SMILES COCc1cccc(C(=O)N2C[C@@H](O)C[C@@H]2C(=O)NCCCCNC(=O)c2ccc(-c3c4nc(c(-c5ccccc5)c5ccc([nH]5)c(-c5ccccc5)c5nc(c(-c6ccccc6)c6ccc3[nH]6)C=C5)C=C4)cc2)c1
REMARK SMILES IDX 20 1 19 2 17 3 18 4 16 6 11 7 12 8 13 9 15 10 9 11 10 12
REMARK SMILES IDX 8 13 4 14 5 15 75 16 6 17 7 18 3 19 2 20 1 21 14 22 21 24
REMARK SMILES IDX 22 25 23 26 24 27 25 28 26 30 27 31 28 32 74 33 29 34 73 35
REMARK SMILES IDX 30 36 31 37 32 38 67 39 33 40 72 41 66 42 68 43 34 44 71 45
REMARK SMILES IDX 65 46 64 47 35 49 57 50 42 51 56 52 43 53 46 54 55 55 69 56
REMARK SMILES IDX 44 57 45 58 54 60 70 61 47 62 36 63 37 64 41 65 38 66 40 67
REMARK SMILES IDX 39 68 58 69 59 70 63 71 60 72 62 73 61 74 48 75 49 76 53 77
REMARK SMILES IDX 50 78 52 79 51 80
REMARK H PARENT 19 5 14 23 24 29 68 48 46 59
REMARK Flexibility Score: inf
ROOT
ATOM      1  C   UNL A   1      36.505  22.201  25.875  1.00  0.00     0.116 C 
ENDROOT
BRANCH   1   2
ATOM      2  N   UNL A   1      35.653  23.352  25.664  1.00  0.00    -0.354 N 
ATOM      3  C   UNL A   1      34.366  23.541  26.082  1.00  0.00     0.242 C 
ATOM      4  O   UNL A   1      33.990  24.712  26.179  1.00  0.00    -0.273 OA
ATOM      5  H   UNL A   1      36.052  24.093  25.154  1.00  0.00     0.163 HD
BRANCH   3   6
ATOM      6  C   UNL A   1      33.448  22.326  26.381  1.00  0.00     0.177 C 
ATOM      7  N   UNL A   1      32.562  22.067  25.239  1.00  0.00    -0.324 N 
ATOM      8  C   UNL A   1      31.160  22.145  25.612  1.00  0.00     0.152 C 
ATOM      9  C   UNL A   1      31.179  23.022  26.852  1.00  0.00     0.136 C 
ATOM     10  C   UNL A   1      32.476  22.593  27.538  1.00  0.00     0.069 C 
BRANCH   7  11
ATOM     11  C   UNL A   1      33.065  21.706  24.003  1.00  0.00     0.254 C 
ATOM     12  O   UNL A   1      33.460  22.531  23.185  1.00  0.00    -0.269 OA
BRANCH  11  13
ATOM     13  C   UNL A   1      32.971  20.263  23.628  1.00  0.00     0.040 A 
ATOM     14  C   UNL A   1      33.390  17.915  24.188  1.00  0.00    -0.022 A 
ATOM     15  C   UNL A   1      32.713  17.541  23.023  1.00  0.00     0.006 A 
ATOM     16  C   UNL A   1      33.493  19.280  24.486  1.00  0.00     0.020 A 
ATOM     17  C   UNL A   1      32.136  18.510  22.192  1.00  0.00     0.001 A 
ATOM     18  C   UNL A   1      32.264  19.871  22.492  1.00  0.00     0.014 A 
BRANCH  14  19
ATOM     19  C   UNL A   1      34.073  16.923  25.101  1.00  0.00     0.195 C 
BRANCH  19  20
ATOM     20  O   UNL A   1      33.814  15.561  24.768  1.00  0.00    -0.380 OA
ATOM     21  C   UNL A   1      32.734  15.017  25.516  1.00  0.00     0.195 C 
ENDBRANCH  19  20
ENDBRANCH  14  19
ENDBRANCH  11  13
ENDBRANCH   7  11
BRANCH   9  22
ATOM     22  O   UNL A   1      30.060  22.836  27.699  1.00  0.00    -0.391 OA
ATOM     23  H   UNL A   1      30.324  22.980  28.621  1.00  0.00     0.211 HD
ENDBRANCH   9  22
ENDBRANCH   3   6
ENDBRANCH   1   2
BRANCH   1  24
ATOM     24  C   UNL A   1      36.703  21.327  24.640  1.00  0.00     0.023 C 
BRANCH  24  25
ATOM     25  C   UNL A   1      37.774  20.238  24.734  1.00  0.00     0.023 C 
BRANCH  25  26
ATOM     26  C   UNL A   1      38.749  20.335  25.904  1.00  0.00     0.116 C 
BRANCH  26  27
ATOM     27  N   UNL A   1      39.875  19.425  25.798  1.00  0.00    -0.352 N 
ATOM     28  C   UNL A   1      41.211  19.627  26.054  1.00  0.00     0.251 C 
ATOM     29  H   UNL A   1      39.645  18.516  25.494  1.00  0.00     0.163 HD
ATOM     30  O   UNL A   1      42.020  18.741  25.794  1.00  0.00    -0.269 OA
BRANCH  28  31
ATOM     31  C   UNL A   1      41.691  20.917  26.599  1.00  0.00     0.039 A 
ATOM     32  C   UNL A   1      42.168  21.884  25.709  1.00  0.00     0.014 A 
ATOM     33  C   UNL A   1      41.686  21.180  27.971  1.00  0.00     0.014 A 
ATOM     34  C   UNL A   1      42.551  23.142  26.182  1.00  0.00     0.010 A 
ATOM     35  C   UNL A   1      41.995  22.459  28.435  1.00  0.00     0.010 A 
ATOM     36  C   UNL A   1      42.423  23.456  27.545  1.00  0.00    -0.014 A 
BRANCH  36  37
ATOM     37  C   UNL A   1      42.711  24.821  28.056  1.00  0.00     0.031 A 
ATOM     38  C   UNL A   1      44.104  25.197  28.482  1.00  0.00     0.074 A 
ATOM     39  C   UNL A   1      41.705  25.703  28.212  1.00  0.00     0.049 A 
ATOM     40  N   UNL A   1      44.527  26.305  29.037  1.00  0.00    -0.248 NA
ATOM     41  C   UNL A   1      45.153  24.185  28.283  1.00  0.00     0.031 C 
ATOM     42  C   UNL A   1      40.301  25.459  27.875  1.00  0.00     0.029 A 
ATOM     43  N   UNL A   1      41.708  26.984  28.706  1.00  0.00    -0.354 N 
ATOM     44  C   UNL A   1      45.881  26.114  29.277  1.00  0.00     0.074 A 
ATOM     45  C   UNL A   1      46.201  24.771  28.844  1.00  0.00     0.031 C 
ATOM     46  C   UNL A   1      39.584  26.562  28.146  1.00  0.00     0.029 A 
ATOM     47  C   UNL A   1      40.468  27.575  28.715  1.00  0.00     0.049 A 
ATOM     48  H   UNL A   1      42.522  27.437  29.025  1.00  0.00     0.167 HD
ATOM     49  C   UNL A   1      46.784  26.981  29.796  1.00  0.00     0.031 A 
ATOM     50  C   UNL A   1      40.081  28.793  29.136  1.00  0.00     0.031 A 
ATOM     51  C   UNL A   1      46.479  28.323  30.211  1.00  0.00     0.049 A 
ATOM     52  C   UNL A   1      41.100  29.737  29.711  1.00  0.00     0.074 A 
ATOM     53  C   UNL A   1      47.339  29.294  30.695  1.00  0.00     0.029 A 
ATOM     54  N   UNL A   1      45.212  28.886  30.190  1.00  0.00    -0.354 N 
ATOM     55  N   UNL A   1      42.386  29.557  29.881  1.00  0.00    -0.248 NA
ATOM     56  C   UNL A   1      40.610  31.054  30.143  1.00  0.00     0.031 C 
ATOM     57  C   UNL A   1      46.585  30.433  31.000  1.00  0.00     0.029 A 
ATOM     58  C   UNL A   1      45.264  30.185  30.666  1.00  0.00     0.049 A 
ATOM     59  H   UNL A   1      44.396  28.430  29.880  1.00  0.00     0.167 HD
ATOM     60  C   UNL A   1      42.865  30.746  30.416  1.00  0.00     0.074 A 
ATOM     61  C   UNL A   1      41.733  31.642  30.532  1.00  0.00     0.031 C 
ATOM     62  C   UNL A   1      44.132  31.065  30.777  1.00  0.00     0.031 A 
BRANCH  49  63
ATOM     63  C   UNL A   1      48.196  26.489  29.950  1.00  0.00    -0.014 A 
ATOM     64  C   UNL A   1      49.135  26.642  28.918  1.00  0.00     0.009 A 
ATOM     65  C   UNL A   1      48.597  25.882  31.150  1.00  0.00     0.009 A 
ATOM     66  C   UNL A   1      50.436  26.158  29.069  1.00  0.00     0.001 A 
ATOM     67  C   UNL A   1      49.907  25.424  31.308  1.00  0.00     0.001 A 
ATOM     68  C   UNL A   1      50.821  25.552  30.263  1.00  0.00     0.000 A 
ENDBRANCH  49  63
BRANCH  50  69
ATOM     69  C   UNL A   1      38.660  29.204  29.011  1.00  0.00    -0.014 A 
ATOM     70  C   UNL A   1      38.175  29.709  27.795  1.00  0.00     0.009 A 
ATOM     71  C   UNL A   1      37.781  29.090  30.099  1.00  0.00     0.009 A 
ATOM     72  C   UNL A   1      36.844  30.112  27.677  1.00  0.00     0.001 A 
ATOM     73  C   UNL A   1      36.444  29.471  29.971  1.00  0.00     0.001 A 
ATOM     74  C   UNL A   1      35.978  29.988  28.762  1.00  0.00     0.000 A 
ENDBRANCH  50  69
BRANCH  62  75
ATOM     75  C   UNL A   1      44.365  32.453  31.299  1.00  0.00    -0.014 A 
ATOM     76  C   UNL A   1      44.661  33.516  30.433  1.00  0.00     0.009 A 
ATOM     77  C   UNL A   1      44.251  32.705  32.676  1.00  0.00     0.009 A 
ATOM     78  C   UNL A   1      44.865  34.802  30.939  1.00  0.00     0.001 A 
ATOM     79  C   UNL A   1      44.433  33.994  33.176  1.00  0.00     0.001 A 
ATOM     80  C   UNL A   1      44.747  35.040  32.309  1.00  0.00     0.000 A 
ENDBRANCH  62  75
ENDBRANCH  36  37
ENDBRANCH  28  31
ENDBRANCH  26  27
ENDBRANCH  25  26
ENDBRANCH  24  25
ENDBRANCH   1  24
TORSDOF 16
ENDMDL
MODEL 2
REMARK VINA RESULT:     -10.9      0.754      5.928
REMARK SMILES COCc1cccc(C(=O)N2C[C@@H](O)C[C@@H]2C(=O)NCCCCNC(=O)c2ccc(-c3c4nc(c(-c5ccccc5)c5ccc([nH]5)c(-c5ccccc5)c5nc(c(-c6ccccc6)c6ccc3[nH]6)C=C5)C=C4)cc2)c1
REMARK SMILES IDX 20 1 19 2 17 3 18 4 16 6 11 7 12 8 13 9 15 10 9 11 10 12
REMARK SMILES IDX 8 13 4 14 5 15 75 16 6 17 7 18 3 19 2 20 1 21 14 22 21 24
REMARK SMILES IDX 22 25 23 26 24 27 25 28 26 30 27 31 28 32 74 33 29 34 73 35
REMARK SMILES IDX 30 36 31 37 32 38 67 39 33 40 72 41 66 42 68 43 34 44 71 45
REMARK SMILES IDX 65 46 64 47 35 49 57 50 42 51 56 52 43 53 46 54 55 55 69 56
REMARK SMILES IDX 44 57 45 58 54 60 70 61 47 62 36 63 37 64 41 65 38 66 40 67
REMARK SMILES IDX 39 68 58 69 59 70 63 71 60 72 62 73 61 74 48 75 49 76 53 77
REMARK SMILES IDX 50 78 52 79 51 80
REMARK H PARENT 19 5 14 23 24 29 68 48 46 59
REMARK Flexibility Score: inf
ROOT
ATOM      1  C   UNL A   1      36.431  22.405  25.818  1.00  0.00     0.116 C 
ENDROOT
BRANCH   1   2
ATOM      2  N   UNL A   1      35.519  23.502  25.574  1.00  0.00    -0.354 N 
ATOM      3  C   UNL A   1      34.234  23.648  26.013  1.00  0.00     0.242 C 
ATOM      4  O   UNL A   1      33.802  24.804  26.064  1.00  0.00    -0.273 OA
ATOM      5  H   UNL A   1      35.869  24.236  25.020  1.00  0.00     0.163 HD
BRANCH   3   6
ATOM      6  C   UNL A   1      33.384  22.406  26.392  1.00  0.00     0.177 C 
ATOM      7  N   UNL A   1      32.494  22.043  25.282  1.00  0.00    -0.324 N 
ATOM      8  C   UNL A   1      31.096  22.071  25.675  1.00  0.00     0.152 C 
ATOM      9  C   UNL A   1      31.089  23.012  26.869  1.00  0.00     0.136 C 
ATOM     10  C   UNL A   1      32.417  22.685  27.551  1.00  0.00     0.069 C 
BRANCH   7  11
ATOM     11  C   UNL A   1      32.995  21.644  24.056  1.00  0.00     0.254 C 
ATOM     12  O   UNL A   1      33.401  22.442  23.218  1.00  0.00    -0.269 OA
BRANCH  11  13
ATOM     13  C   UNL A   1      32.885  20.193  23.720  1.00  0.00     0.040 A 
ATOM     14  C   UNL A   1      33.088  17.853  24.415  1.00  0.00    -0.022 A 
ATOM     15  C   UNL A   1      32.581  17.464  23.172  1.00  0.00     0.006 A 
ATOM     16  C   UNL A   1      33.215  19.223  24.680  1.00  0.00     0.020 A 
ATOM     17  C   UNL A   1      32.190  18.423  22.230  1.00  0.00     0.001 A 
ATOM     18  C   UNL A   1      32.342  19.788  22.501  1.00  0.00     0.014 A 
BRANCH  14  19
ATOM     19  C   UNL A   1      33.569  16.869  25.457  1.00  0.00     0.195 C 
BRANCH  19  20
ATOM     20  O   UNL A   1      34.322  15.783  24.918  1.00  0.00    -0.380 OA
ATOM     21  C   UNL A   1      35.656  15.756  25.407  1.00  0.00     0.195 C 
ENDBRANCH  19  20
ENDBRANCH  14  19
ENDBRANCH  11  13
ENDBRANCH   7  11
BRANCH   9  22
ATOM     22  O   UNL A   1      29.995  22.815  27.744  1.00  0.00    -0.391 OA
ATOM     23  H   UNL A   1      30.064  23.428  28.492  1.00  0.00     0.211 HD
ENDBRANCH   9  22
ENDBRANCH   3   6
ENDBRANCH   1   2
BRANCH   1  24
ATOM     24  C   UNL A   1      36.695  21.521  24.603  1.00  0.00     0.023 C 
BRANCH  24  25
ATOM     25  C   UNL A   1      37.677  20.363  24.796  1.00  0.00     0.023 C 
BRANCH  25  26
ATOM     26  C   UNL A   1      38.794  20.576  25.814  1.00  0.00     0.116 C 
BRANCH  26  27
ATOM     27  N   UNL A   1      39.829  19.559  25.760  1.00  0.00    -0.352 N 
ATOM     28  C   UNL A   1      41.172  19.639  26.046  1.00  0.00     0.251 C 
ATOM     29  H   UNL A   1      39.520  18.668  25.473  1.00  0.00     0.163 HD
ATOM     30  O   UNL A   1      41.897  18.672  25.830  1.00  0.00    -0.269 OA
BRANCH  28  31
ATOM     31  C   UNL A   1      41.762  20.890  26.573  1.00  0.00     0.039 A 
ATOM     32  C   UNL A   1      42.240  21.839  25.663  1.00  0.00     0.014 A 
ATOM     33  C   UNL A   1      41.857  21.136  27.944  1.00  0.00     0.014 A 
ATOM     34  C   UNL A   1      42.726  23.066  26.123  1.00  0.00     0.010 A 
ATOM     35  C   UNL A   1      42.270  22.388  28.399  1.00  0.00     0.010 A 
ATOM     36  C   UNL A   1      42.701  23.369  27.494  1.00  0.00    -0.014 A 
BRANCH  36  37
ATOM     37  C   UNL A   1      43.102  24.708  27.999  1.00  0.00     0.031 A 
ATOM     38  C   UNL A   1      42.062  25.758  28.282  1.00  0.00     0.074 A 
ATOM     39  C   UNL A   1      44.408  25.011  28.129  1.00  0.00     0.049 A 
ATOM     40  N   UNL A   1      42.226  27.008  28.637  1.00  0.00    -0.248 NA
ATOM     41  C   UNL A   1      40.656  25.358  28.119  1.00  0.00     0.031 C 
ATOM     42  C   UNL A   1      45.523  24.102  27.855  1.00  0.00     0.029 A 
ATOM     43  N   UNL A   1      45.020  26.176  28.518  1.00  0.00    -0.354 N 
ATOM     44  C   UNL A   1      40.950  27.549  28.713  1.00  0.00     0.074 A 
ATOM     45  C   UNL A   1      40.025  26.504  28.330  1.00  0.00     0.031 C 
ATOM     46  C   UNL A   1      46.680  24.734  28.109  1.00  0.00     0.029 A 
ATOM     47  C   UNL A   1      46.392  26.104  28.524  1.00  0.00     0.049 A 
ATOM     48  H   UNL A   1      44.524  26.988  28.769  1.00  0.00     0.167 HD
ATOM     49  C   UNL A   1      40.575  28.797  29.084  1.00  0.00     0.031 A 
ATOM     50  C   UNL A   1      47.318  27.034  28.823  1.00  0.00     0.031 A 
ATOM     51  C   UNL A   1      41.486  29.835  29.484  1.00  0.00     0.049 A 
ATOM     52  C   UNL A   1      46.879  28.412  29.229  1.00  0.00     0.074 A 
ATOM     53  C   UNL A   1      41.196  31.113  29.932  1.00  0.00     0.029 A 
ATOM     54  N   UNL A   1      42.867  29.714  29.488  1.00  0.00    -0.354 N 
ATOM     55  N   UNL A   1      45.665  28.889  29.346  1.00  0.00    -0.248 NA
ATOM     56  C   UNL A   1      47.942  29.375  29.550  1.00  0.00     0.031 C 
ATOM     57  C   UNL A   1      42.404  31.777  30.172  1.00  0.00     0.029 A 
ATOM     58  C   UNL A   1      43.444  30.898  29.915  1.00  0.00     0.049 A 
ATOM     59  H   UNL A   1      43.364  28.905  29.227  1.00  0.00     0.167 HD
ATOM     60  C   UNL A   1      45.816  30.200  29.779  1.00  0.00     0.074 A 
ATOM     61  C   UNL A   1      47.238  30.438  29.914  1.00  0.00     0.031 C 
ATOM     62  C   UNL A   1      44.859  31.123  30.044  1.00  0.00     0.031 A 
BRANCH  49  63
ATOM     63  C   UNL A   1      39.104  29.106  29.062  1.00  0.00    -0.014 A 
ATOM     64  C   UNL A   1      38.302  28.902  30.196  1.00  0.00     0.009 A 
ATOM     65  C   UNL A   1      38.517  29.626  27.898  1.00  0.00     0.009 A 
ATOM     66  C   UNL A   1      36.933  29.172  30.151  1.00  0.00     0.001 A 
ATOM     67  C   UNL A   1      37.152  29.921  27.865  1.00  0.00     0.001 A 
ATOM     68  C   UNL A   1      36.360  29.683  28.988  1.00  0.00     0.000 A 
ENDBRANCH  49  63
BRANCH  50  69
ATOM     69  C   UNL A   1      48.761  26.686  28.772  1.00  0.00    -0.014 A 
ATOM     70  C   UNL A   1      49.465  26.775  27.561  1.00  0.00     0.009 A 
ATOM     71  C   UNL A   1      49.441  26.270  29.926  1.00  0.00     0.009 A 
ATOM     72  C   UNL A   1      50.818  26.434  27.503  1.00  0.00     0.001 A 
ATOM     73  C   UNL A   1      50.800  25.952  29.870  1.00  0.00     0.001 A 
ATOM     74  C   UNL A   1      51.485  26.028  28.658  1.00  0.00     0.000 A 
ENDBRANCH  50  69
BRANCH  62  75
ATOM     75  C   UNL A   1      45.318  32.463  30.538  1.00  0.00    -0.014 A 
ATOM     76  C   UNL A   1      45.569  33.519  29.650  1.00  0.00     0.009 A 
ATOM     77  C   UNL A   1      45.466  32.680  31.918  1.00  0.00     0.009 A 
ATOM     78  C   UNL A   1      45.987  34.762  30.133  1.00  0.00     0.001 A 
ATOM     79  C   UNL A   1      45.861  33.929  32.398  1.00  0.00     0.001 A 
ATOM     80  C   UNL A   1      46.129  34.966  31.506  1.00  0.00     0.000 A 
ENDBRANCH  62  75
ENDBRANCH  36  37
ENDBRANCH  28  31
ENDBRANCH  26  27
ENDBRANCH  25  26
ENDBRANCH  24  25
ENDBRANCH   1  24
TORSDOF 16
ENDMDL
MODEL 3
REMARK VINA RESULT:     -10.6      3.962      9.015
REMARK SMILES COCc1cccc(C(=O)N2C[C@@H](O)C[C@@H]2C(=O)NCCCCNC(=O)c2ccc(-c3c4nc(c(-c5ccccc5)c5ccc([nH]5)c(-c5ccccc5)c5nc(c(-c6ccccc6)c6ccc3[nH]6)C=C5)C=C4)cc2)c1
REMARK SMILES IDX 20 1 19 2 17 3 18 4 16 6 11 7 12 8 13 9 15 10 9 11 10 12
REMARK SMILES IDX 8 13 4 14 5 15 75 16 6 17 7 18 3 19 2 20 1 21 14 22 21 24
REMARK SMILES IDX 22 25 23 26 24 27 25 28 26 30 27 31 28 32 74 33 29 34 73 35
REMARK SMILES IDX 30 36 31 37 32 38 67 39 33 40 72 41 66 42 68 43 34 44 71 45
REMARK SMILES IDX 65 46 64 47 35 49 57 50 42 51 56 52 43 53 46 54 55 55 69 56
REMARK SMILES IDX 44 57 45 58 54 60 70 61 47 62 36 63 37 64 41 65 38 66 40 67
REMARK SMILES IDX 39 68 58 69 59 70 63 71 60 72 62 73 61 74 48 75 49 76 53 77
REMARK SMILES IDX 50 78 52 79 51 80
REMARK H PARENT 19 5 14 23 24 29 68 48 46 59
REMARK Flexibility Score: inf
ROOT
ATOM      1  C   UNL A   1      32.005  29.517  26.555  1.00  0.00     0.116 C 
ENDROOT
BRANCH   1   2
ATOM      2  N   UNL A   1      33.062  28.791  25.884  1.00  0.00    -0.354 N 
ATOM      3  C   UNL A   1      33.009  28.130  24.689  1.00  0.00     0.242 C 
ATOM      4  O   UNL A   1      34.086  27.963  24.109  1.00  0.00    -0.273 OA
ATOM      5  H   UNL A   1      33.930  28.769  26.347  1.00  0.00     0.163 HD
BRANCH   3   6
ATOM      6  C   UNL A   1      31.656  27.607  24.137  1.00  0.00     0.177 C 
ATOM      7  N   UNL A   1      31.514  26.173  24.416  1.00  0.00    -0.324 N 
ATOM      8  C   UNL A   1      31.347  25.397  23.199  1.00  0.00     0.152 C 
ATOM      9  C   UNL A   1      31.966  26.286  22.133  1.00  0.00     0.136 C 
ATOM     10  C   UNL A   1      31.575  27.686  22.606  1.00  0.00     0.069 C 
BRANCH   7  11
ATOM     11  C   UNL A   1      31.462  25.692  25.711  1.00  0.00     0.254 C 
ATOM     12  O   UNL A   1      30.767  26.210  26.580  1.00  0.00    -0.269 OA
BRANCH  11  13
ATOM     13  C   UNL A   1      32.411  24.595  26.065  1.00  0.00     0.040 A 
ATOM     14  C   UNL A   1      34.701  23.725  26.093  1.00  0.00    -0.022 A 
ATOM     15  C   UNL A   1      34.247  22.617  26.813  1.00  0.00     0.006 A 
ATOM     16  C   UNL A   1      33.774  24.715  25.744  1.00  0.00     0.020 A 
ATOM     17  C   UNL A   1      32.902  22.516  27.193  1.00  0.00     0.001 A 
ATOM     18  C   UNL A   1      31.983  23.503  26.820  1.00  0.00     0.014 A 
BRANCH  14  19
ATOM     19  C   UNL A   1      36.128  23.872  25.615  1.00  0.00     0.195 C 
BRANCH  19  20
ATOM     20  O   UNL A   1      36.652  22.696  25.000  1.00  0.00    -0.380 OA
ATOM     21  C   UNL A   1      37.838  22.237  25.636  1.00  0.00     0.195 C 
ENDBRANCH  19  20
ENDBRANCH  14  19
ENDBRANCH  11  13
ENDBRANCH   7  11
BRANCH   9  22
ATOM     22  O   UNL A   1      31.485  26.028  20.827  1.00  0.00    -0.391 OA
ATOM     23  H   UNL A   1      30.756  26.635  20.625  1.00  0.00     0.211 HD
ENDBRANCH   9  22
ENDBRANCH   3   6
ENDBRANCH   1   2
BRANCH   1  24
ATOM     24  C   UNL A   1      31.510  30.749  25.804  1.00  0.00     0.023 C 
BRANCH  24  25
ATOM     25  C   UNL A   1      31.317  32.024  26.627  1.00  0.00     0.023 C 
BRANCH  25  26
ATOM     26  C   UNL A   1      32.567  32.621  27.267  1.00  0.00     0.116 C 
BRANCH  26  27
ATOM     27  N   UNL A   1      32.392  33.992  27.712  1.00  0.00    -0.352 N 
ATOM     28  C   UNL A   1      33.139  34.747  28.586  1.00  0.00     0.251 C 
ATOM     29  H   UNL A   1      31.614  34.457  27.326  1.00  0.00     0.163 HD
ATOM     30  O   UNL A   1      32.749  35.865  28.909  1.00  0.00    -0.269 OA
BRANCH  28  31
ATOM     31  C   UNL A   1      34.386  34.210  29.176  1.00  0.00     0.039 A 
ATOM     32  C   UNL A   1      34.306  33.502  30.380  1.00  0.00     0.014 A 
ATOM     33  C   UNL A   1      35.628  34.402  28.566  1.00  0.00     0.014 A 
ATOM     34  C   UNL A   1      35.452  32.912  30.921  1.00  0.00     0.010 A 
ATOM     35  C   UNL A   1      36.756  33.750  29.064  1.00  0.00     0.010 A 
ATOM     36  C   UNL A   1      36.679  32.991  30.242  1.00  0.00    -0.014 A 
BRANCH  36  37
ATOM     37  C   UNL A   1      37.884  32.274  30.733  1.00  0.00     0.031 A 
ATOM     38  C   UNL A   1      38.701  32.842  31.862  1.00  0.00     0.074 A 
ATOM     39  C   UNL A   1      38.292  31.150  30.114  1.00  0.00     0.049 A 
ATOM     40  N   UNL A   1      39.830  32.408  32.363  1.00  0.00    -0.248 NA
ATOM     41  C   UNL A   1      38.195  34.071  32.491  1.00  0.00     0.031 C 
ATOM     42  C   UNL A   1      37.617  30.508  28.984  1.00  0.00     0.029 A 
ATOM     43  N   UNL A   1      39.384  30.350  30.344  1.00  0.00    -0.354 N 
ATOM     44  C   UNL A   1      40.183  33.324  33.345  1.00  0.00     0.074 A 
ATOM     45  C   UNL A   1      39.169  34.357  33.343  1.00  0.00     0.031 C 
ATOM     46  C   UNL A   1      38.294  29.401  28.636  1.00  0.00     0.029 A 
ATOM     47  C   UNL A   1      39.471  29.277  29.490  1.00  0.00     0.049 A 
ATOM     48  H   UNL A   1      40.044  30.528  31.052  1.00  0.00     0.167 HD
ATOM     49  C   UNL A   1      41.245  33.303  34.186  1.00  0.00     0.031 A 
ATOM     50  C   UNL A   1      40.396  28.303  29.398  1.00  0.00     0.031 A 
ATOM     51  C   UNL A   1      42.247  32.271  34.207  1.00  0.00     0.049 A 
ATOM     52  C   UNL A   1      41.567  28.302  30.339  1.00  0.00     0.074 A 
ATOM     53  C   UNL A   1      43.327  32.134  35.062  1.00  0.00     0.029 A 
ATOM     54  N   UNL A   1      42.288  31.195  33.334  1.00  0.00    -0.354 N 
ATOM     55  N   UNL A   1      41.855  29.148  31.297  1.00  0.00    -0.248 NA
ATOM     56  C   UNL A   1      42.534  27.205  30.189  1.00  0.00     0.031 C 
ATOM     57  C   UNL A   1      44.044  30.994  34.681  1.00  0.00     0.029 A 
ATOM     58  C   UNL A   1      43.385  30.399  33.618  1.00  0.00     0.049 A 
ATOM     59  H   UNL A   1      41.635  31.023  32.618  1.00  0.00     0.167 HD
ATOM     60  C   UNL A   1      43.023  28.672  31.880  1.00  0.00     0.074 A 
ATOM     61  C   UNL A   1      43.382  27.459  31.176  1.00  0.00     0.031 C 
ATOM     62  C   UNL A   1      43.731  29.196  32.910  1.00  0.00     0.031 A 
BRANCH  49  63
ATOM     63  C   UNL A   1      41.378  34.447  35.151  1.00  0.00    -0.014 A 
ATOM     64  C   UNL A   1      42.122  35.592  34.824  1.00  0.00     0.009 A 
ATOM     65  C   UNL A   1      40.734  34.388  36.397  1.00  0.00     0.009 A 
ATOM     66  C   UNL A   1      42.254  36.636  35.741  1.00  0.00     0.001 A 
ATOM     67  C   UNL A   1      40.846  35.446  37.302  1.00  0.00     0.001 A 
ATOM     68  C   UNL A   1      41.615  36.563  36.978  1.00  0.00     0.000 A 
ENDBRANCH  49  63
BRANCH  50  69
ATOM     69  C   UNL A   1      40.242  27.229  28.384  1.00  0.00    -0.014 A 
ATOM     70  C   UNL A   1      39.506  26.073  28.688  1.00  0.00     0.009 A 
ATOM     71  C   UNL A   1      40.823  27.351  27.113  1.00  0.00     0.009 A 
ATOM     72  C   UNL A   1      39.371  25.052  27.745  1.00  0.00     0.001 A 
ATOM     73  C   UNL A   1      40.667  26.339  26.164  1.00  0.00     0.001 A 
ATOM     74  C   UNL A   1      39.948  25.188  26.483  1.00  0.00     0.000 A 
ENDBRANCH  50  69
BRANCH  62  75
ATOM     75  C   UNL A   1      44.947  28.438  33.359  1.00  0.00    -0.014 A 
ATOM     76  C   UNL A   1      44.849  27.381  34.275  1.00  0.00     0.009 A 
ATOM     77  C   UNL A   1      46.205  28.767  32.827  1.00  0.00     0.009 A 
ATOM     78  C   UNL A   1      45.993  26.683  34.671  1.00  0.00     0.001 A 
ATOM     79  C   UNL A   1      47.341  28.054  33.207  1.00  0.00     0.001 A 
ATOM     80  C   UNL A   1      47.236  27.018  34.135  1.00  0.00     0.000 A 
ENDBRANCH  62  75
ENDBRANCH  36  37
ENDBRANCH  28  31
ENDBRANCH  26  27
ENDBRANCH  25  26
ENDBRANCH  24  25
ENDBRANCH   1  24
TORSDOF 16
ENDMDL
