MODEL 1
REMARK VINA RESULT:     -11.3      0.000      0.000
REMARK SMILES CC1=C(C(=O)NCCCCNC(=O)c2ccc(-c3c4nc(c(-c5ccccc5)c5ccc([nH]5)c(-c5ccccc5)c5nc(c(-c6ccccc6)c6ccc3[nH]6)C=C5)C=C4)cc2)N2C(=O)[C@H](NC(=O)c3cc(C(F)(F)F)nn3C)[C@@H]2SC1
REMARK SMILES IDX 8 1 7 2 6 3 4 4 5 5 3 7 1 8 2 9 81 10 62 11 80 12 63 13
REMARK SMILES IDX 79 14 64 15 65 16 66 17 67 18 68 20 69 21 70 22 77 23 71 24
REMARK SMILES IDX 76 25 78 26 72 27 73 28 74 29 75 30 9 31 10 32 11 33 12 34
REMARK SMILES IDX 13 36 14 37 15 38 61 39 16 40 60 41 17 42 18 43 19 44 54 45
REMARK SMILES IDX 20 46 59 47 53 48 55 49 21 50 58 51 52 52 51 53 22 55 44 56
REMARK SMILES IDX 29 57 43 58 30 59 33 60 42 61 56 62 31 63 32 64 41 66 57 67
REMARK SMILES IDX 34 68 23 69 24 70 28 71 25 72 27 73 26 74 45 75 46 76 50 77
REMARK SMILES IDX 47 78 49 79 48 80 35 81 36 82 40 83 37 84 39 85 38 86
REMARK H PARENT 6 6 66 19 11 35 55 54 33 65
REMARK Flexibility Score: inf
ROOT
ATOM      1  C   UNL A   1      37.833  23.002  25.752  1.00  0.00     0.023 C 
ENDROOT
BRANCH   1   2
ATOM      2  C   UNL A   1      36.329  23.297  25.680  1.00  0.00     0.116 C 
BRANCH   2   3
ATOM      3  N   UNL A   1      35.645  22.439  26.617  1.00  0.00    -0.351 N 
ATOM      4  C   UNL A   1      34.390  21.929  26.639  1.00  0.00     0.268 C 
ATOM      5  O   UNL A   1      33.973  21.541  27.737  1.00  0.00    -0.268 OA
ATOM      6  H   UNL A   1      36.195  22.173  27.389  1.00  0.00     0.163 HD
BRANCH   4   7
ATOM      7  C   UNL A   1      33.494  21.731  25.429  1.00  0.00     0.110 C 
ATOM      8  C   UNL A   1      34.189  19.416  24.626  1.00  0.00     0.043 C 
ATOM      9  C   UNL A   1      33.398  20.688  24.563  1.00  0.00    -0.034 C 
ATOM     10  C   UNL A   1      32.500  20.666  23.327  1.00  0.00     0.104 C 
ATOM     11  N   UNL A   1      32.834  22.876  25.094  1.00  0.00    -0.290 N 
ATOM     12  S   UNL A   1      31.427  22.093  23.057  1.00  0.00    -0.129 SA
ATOM     13  C   UNL A   1      32.400  24.003  25.694  1.00  0.00     0.253 C 
ATOM     14  C   UNL A   1      32.614  23.280  23.732  1.00  0.00     0.181 C 
ATOM     15  O   UNL A   1      32.276  24.329  26.849  1.00  0.00    -0.272 OA
ATOM     16  C   UNL A   1      32.049  24.615  24.301  1.00  0.00     0.206 C 
BRANCH  16  17
ATOM     17  N   UNL A   1      30.617  24.886  24.032  1.00  0.00    -0.336 N 
ATOM     18  C   UNL A   1      29.940  26.075  24.125  1.00  0.00     0.270 C 
ATOM     19  H   UNL A   1      30.081  24.111  23.749  1.00  0.00     0.164 HD
ATOM     20  O   UNL A   1      28.737  26.086  23.881  1.00  0.00    -0.268 OA
BRANCH  18  21
ATOM     21  C   UNL A   1      30.663  27.243  24.559  1.00  0.00     0.126 A 
ATOM     22  C   UNL A   1      31.260  27.544  25.770  1.00  0.00     0.069 A 
ATOM     23  N   UNL A   1      30.936  28.322  23.757  1.00  0.00    -0.262 N 
ATOM     24  C   UNL A   1      31.779  28.860  25.642  1.00  0.00     0.167 A 
ATOM     25  N   UNL A   1      31.567  29.326  24.398  1.00  0.00    -0.168 NA
ATOM     26  C   UNL A   1      30.553  28.530  22.378  1.00  0.00     0.174 C 
BRANCH  24  27
ATOM     27  C   UNL A   1      32.454  29.674  26.715  1.00  0.00     0.435 C 
ATOM     28  F   UNL A   1      32.883  28.920  27.761  1.00  0.00    -0.164 F 
ATOM     29  F   UNL A   1      33.531  30.361  26.246  1.00  0.00    -0.164 F 
ATOM     30  F   UNL A   1      31.608  30.608  27.237  1.00  0.00    -0.164 F 
ENDBRANCH  24  27
ENDBRANCH  18  21
ENDBRANCH  16  17
ENDBRANCH   4   7
ENDBRANCH   2   3
ENDBRANCH   1   2
BRANCH   1  31
ATOM     31  C   UNL A   1      38.284  21.688  25.124  1.00  0.00     0.023 C 
BRANCH  31  32
ATOM     32  C   UNL A   1      38.574  20.584  26.126  1.00  0.00     0.116 C 
BRANCH  32  33
ATOM     33  N   UNL A   1      39.652  19.694  25.720  1.00  0.00    -0.352 N 
ATOM     34  C   UNL A   1      41.007  19.879  25.836  1.00  0.00     0.251 C 
ATOM     35  H   UNL A   1      39.372  18.846  25.307  1.00  0.00     0.163 HD
ATOM     36  O   UNL A   1      41.786  19.052  25.375  1.00  0.00    -0.269 OA
BRANCH  34  37
ATOM     37  C   UNL A   1      41.518  21.114  26.467  1.00  0.00     0.039 A 
ATOM     38  C   UNL A   1      41.964  22.146  25.640  1.00  0.00     0.014 A 
ATOM     39  C   UNL A   1      41.502  21.276  27.854  1.00  0.00     0.014 A 
ATOM     40  C   UNL A   1      42.328  23.368  26.205  1.00  0.00     0.010 A 
ATOM     41  C   UNL A   1      41.773  22.521  28.407  1.00  0.00     0.010 A 
ATOM     42  C   UNL A   1      42.194  23.577  27.590  1.00  0.00    -0.014 A 
BRANCH  42  43
ATOM     43  C   UNL A   1      42.487  24.904  28.182  1.00  0.00     0.031 A 
ATOM     44  C   UNL A   1      43.885  25.259  28.600  1.00  0.00     0.074 A 
ATOM     45  C   UNL A   1      41.478  25.776  28.372  1.00  0.00     0.049 A 
ATOM     46  N   UNL A   1      44.337  26.390  29.080  1.00  0.00    -0.248 NA
ATOM     47  C   UNL A   1      44.905  24.203  28.494  1.00  0.00     0.031 C 
ATOM     48  C   UNL A   1      40.065  25.518  28.079  1.00  0.00     0.029 A 
ATOM     49  N   UNL A   1      41.490  27.062  28.848  1.00  0.00    -0.354 N 
ATOM     50  C   UNL A   1      45.685  26.177  29.339  1.00  0.00     0.074 A 
ATOM     51  C   UNL A   1      45.964  24.794  29.023  1.00  0.00     0.031 C 
ATOM     52  C   UNL A   1      39.355  26.630  28.331  1.00  0.00     0.029 A 
ATOM     53  C   UNL A   1      40.256  27.665  28.826  1.00  0.00     0.049 A 
ATOM     54  H   UNL A   1      42.304  27.510  29.174  1.00  0.00     0.167 HD
ATOM     55  C   UNL A   1      46.615  27.060  29.773  1.00  0.00     0.031 A 
ATOM     56  C   UNL A   1      39.896  28.922  29.147  1.00  0.00     0.031 A 
ATOM     57  C   UNL A   1      46.339  28.438  30.075  1.00  0.00     0.049 A 
ATOM     58  C   UNL A   1      40.951  29.893  29.590  1.00  0.00     0.074 A 
ATOM     59  C   UNL A   1      47.220  29.431  30.466  1.00  0.00     0.029 A 
ATOM     60  N   UNL A   1      45.080  29.018  30.022  1.00  0.00    -0.354 N 
ATOM     61  N   UNL A   1      42.240  29.702  29.742  1.00  0.00    -0.248 NA
ATOM     62  C   UNL A   1      40.505  31.262  29.882  1.00  0.00     0.031 C 
ATOM     63  C   UNL A   1      46.487  30.602  30.688  1.00  0.00     0.029 A 
ATOM     64  C   UNL A   1      45.159  30.351  30.385  1.00  0.00     0.049 A 
ATOM     65  H   UNL A   1      44.253  28.549  29.763  1.00  0.00     0.167 HD
ATOM     66  C   UNL A   1      42.761  30.931  30.123  1.00  0.00     0.074 A 
ATOM     67  C   UNL A   1      41.653  31.864  30.154  1.00  0.00     0.031 C 
ATOM     68  C   UNL A   1      44.042  31.260  30.420  1.00  0.00     0.031 A 
BRANCH  55  69
ATOM     69  C   UNL A   1      48.020  26.552  29.939  1.00  0.00    -0.014 A 
ATOM     70  C   UNL A   1      48.949  26.632  28.889  1.00  0.00     0.009 A 
ATOM     71  C   UNL A   1      48.427  26.003  31.165  1.00  0.00     0.009 A 
ATOM     72  C   UNL A   1      50.246  26.138  29.051  1.00  0.00     0.001 A 
ATOM     73  C   UNL A   1      49.732  25.538  31.334  1.00  0.00     0.001 A 
ATOM     74  C   UNL A   1      50.637  25.596  30.275  1.00  0.00     0.000 A 
ENDBRANCH  55  69
BRANCH  56  75
ATOM     75  C   UNL A   1      38.480  29.350  29.007  1.00  0.00    -0.014 A 
ATOM     76  C   UNL A   1      37.619  29.329  30.115  1.00  0.00     0.009 A 
ATOM     77  C   UNL A   1      37.981  29.778  27.768  1.00  0.00     0.009 A 
ATOM     78  C   UNL A   1      36.280  29.699  29.978  1.00  0.00     0.001 A 
ATOM     79  C   UNL A   1      36.648  30.173  27.640  1.00  0.00     0.001 A 
ATOM     80  C   UNL A   1      35.796  30.124  28.742  1.00  0.00     0.000 A 
ENDBRANCH  56  75
BRANCH  68  81
ATOM     81  C   UNL A   1      44.308  32.694  30.779  1.00  0.00    -0.014 A 
ATOM     82  C   UNL A   1      44.236  33.139  32.108  1.00  0.00     0.009 A 
ATOM     83  C   UNL A   1      44.643  33.611  29.771  1.00  0.00     0.009 A 
ATOM     84  C   UNL A   1      44.447  34.484  32.414  1.00  0.00     0.001 A 
ATOM     85  C   UNL A   1      44.884  34.949  30.084  1.00  0.00     0.001 A 
ATOM     86  C   UNL A   1      44.773  35.388  31.402  1.00  0.00     0.000 A 
ENDBRANCH  68  81
ENDBRANCH  42  43
ENDBRANCH  34  37
ENDBRANCH  32  33
ENDBRANCH  31  32
ENDBRANCH   1  31
TORSDOF 14
ENDMDL
MODEL 2
REMARK VINA RESULT:     -11.3      3.363      6.871
REMARK SMILES CC1=C(C(=O)NCCCCNC(=O)c2ccc(-c3c4nc(c(-c5ccccc5)c5ccc([nH]5)c(-c5ccccc5)c5nc(c(-c6ccccc6)c6ccc3[nH]6)C=C5)C=C4)cc2)N2C(=O)[C@H](NC(=O)c3cc(C(F)(F)F)nn3C)[C@@H]2SC1
REMARK SMILES IDX 8 1 7 2 6 3 4 4 5 5 3 7 1 8 2 9 81 10 62 11 80 12 63 13
REMARK SMILES IDX 79 14 64 15 65 16 66 17 67 18 68 20 69 21 70 22 77 23 71 24
REMARK SMILES IDX 76 25 78 26 72 27 73 28 74 29 75 30 9 31 10 32 11 33 12 34
REMARK SMILES IDX 13 36 14 37 15 38 61 39 16 40 60 41 17 42 18 43 19 44 54 45
REMARK SMILES IDX 20 46 59 47 53 48 55 49 21 50 58 51 52 52 51 53 22 55 44 56
REMARK SMILES IDX 29 57 43 58 30 59 33 60 42 61 56 62 31 63 32 64 41 66 57 67
REMARK SMILES IDX 34 68 23 69 24 70 28 71 25 72 27 73 26 74 45 75 46 76 50 77
REMARK SMILES IDX 47 78 49 79 48 80 35 81 36 82 40 83 37 84 39 85 38 86
REMARK H PARENT 6 6 66 19 11 35 55 54 33 65
REMARK Flexibility Score: inf
ROOT
ATOM      1  C   UNL A   1      39.358  23.410  26.839  1.00  0.00     0.023 C 
ENDROOT
BRANCH   1   2
ATOM      2  C   UNL A   1      37.869  23.753  26.700  1.00  0.00     0.116 C 
BRANCH   2   3
ATOM      3  N   UNL A   1      37.557  23.899  25.299  1.00  0.00    -0.351 N 
ATOM      4  C   UNL A   1      36.866  23.121  24.432  1.00  0.00     0.268 C 
ATOM      5  O   UNL A   1      37.080  23.313  23.229  1.00  0.00    -0.268 OA
ATOM      6  H   UNL A   1      37.918  24.721  24.894  1.00  0.00     0.163 HD
BRANCH   4   7
ATOM      7  C   UNL A   1      35.808  22.100  24.810  1.00  0.00     0.110 C 
ATOM      8  C   UNL A   1      37.093  19.908  24.620  1.00  0.00     0.043 C 
ATOM      9  C   UNL A   1      35.877  20.744  24.888  1.00  0.00    -0.034 C 
ATOM     10  C   UNL A   1      34.693  19.831  25.204  1.00  0.00     0.104 C 
ATOM     11  N   UNL A   1      34.569  22.661  24.900  1.00  0.00    -0.290 N 
ATOM     12  S   UNL A   1      33.117  20.623  25.589  1.00  0.00    -0.129 SA
ATOM     13  C   UNL A   1      34.025  23.868  25.155  1.00  0.00     0.253 C 
ATOM     14  C   UNL A   1      33.377  21.999  24.444  1.00  0.00     0.181 C 
ATOM     15  O   UNL A   1      34.469  24.897  25.603  1.00  0.00    -0.272 OA
ATOM     16  C   UNL A   1      32.620  23.329  24.738  1.00  0.00     0.206 C 
BRANCH  16  17
ATOM     17  N   UNL A   1      31.585  23.272  25.796  1.00  0.00    -0.336 N 
ATOM     18  C   UNL A   1      30.783  24.282  26.263  1.00  0.00     0.270 C 
ATOM     19  H   UNL A   1      31.454  22.393  26.219  1.00  0.00     0.164 HD
ATOM     20  O   UNL A   1      29.997  24.034  27.173  1.00  0.00    -0.268 OA
BRANCH  18  21
ATOM     21  C   UNL A   1      30.943  25.599  25.701  1.00  0.00     0.126 A 
ATOM     22  C   UNL A   1      31.512  26.747  26.224  1.00  0.00     0.069 A 
ATOM     23  N   UNL A   1      30.561  25.945  24.431  1.00  0.00    -0.262 N 
ATOM     24  C   UNL A   1      31.338  27.759  25.243  1.00  0.00     0.167 A 
ATOM     25  N   UNL A   1      30.747  27.250  24.146  1.00  0.00    -0.168 NA
ATOM     26  C   UNL A   1      29.917  25.118  23.434  1.00  0.00     0.174 C 
BRANCH  24  27
ATOM     27  C   UNL A   1      31.719  29.212  25.366  1.00  0.00     0.435 C 
ATOM     28  F   UNL A   1      31.664  29.667  26.644  1.00  0.00    -0.164 F 
ATOM     29  F   UNL A   1      32.973  29.462  24.902  1.00  0.00    -0.164 F 
ATOM     30  F   UNL A   1      30.882  30.007  24.639  1.00  0.00    -0.164 F 
ENDBRANCH  24  27
ENDBRANCH  18  21
ENDBRANCH  16  17
ENDBRANCH   4   7
ENDBRANCH   2   3
ENDBRANCH   1   2
BRANCH   1  31
ATOM     31  C   UNL A   1      39.853  22.238  25.997  1.00  0.00     0.023 C 
BRANCH  31  32
ATOM     32  C   UNL A   1      41.260  21.778  26.335  1.00  0.00     0.116 C 
BRANCH  32  33
ATOM     33  N   UNL A   1      42.260  22.190  25.360  1.00  0.00    -0.352 N 
ATOM     34  C   UNL A   1      42.998  23.347  25.325  1.00  0.00     0.251 C 
ATOM     35  H   UNL A   1      42.429  21.554  24.628  1.00  0.00     0.163 HD
ATOM     36  O   UNL A   1      43.754  23.569  24.385  1.00  0.00    -0.269 OA
BRANCH  34  37
ATOM     37  C   UNL A   1      42.827  24.347  26.397  1.00  0.00     0.039 A 
ATOM     38  C   UNL A   1      42.578  25.672  26.037  1.00  0.00     0.014 A 
ATOM     39  C   UNL A   1      42.853  23.975  27.744  1.00  0.00     0.014 A 
ATOM     40  C   UNL A   1      42.284  26.609  27.027  1.00  0.00     0.010 A 
ATOM     41  C   UNL A   1      42.468  24.886  28.720  1.00  0.00     0.010 A 
ATOM     42  C   UNL A   1      42.186  26.212  28.372  1.00  0.00    -0.014 A 
BRANCH  42  43
ATOM     43  C   UNL A   1      41.779  27.183  29.415  1.00  0.00     0.031 A 
ATOM     44  C   UNL A   1      40.508  27.969  29.268  1.00  0.00     0.074 A 
ATOM     45  C   UNL A   1      42.579  27.377  30.482  1.00  0.00     0.049 A 
ATOM     46  N   UNL A   1      39.965  28.817  30.105  1.00  0.00    -0.248 NA
ATOM     47  C   UNL A   1      39.761  27.808  28.010  1.00  0.00     0.031 C 
ATOM     48  C   UNL A   1      43.876  26.730  30.699  1.00  0.00     0.029 A 
ATOM     49  N   UNL A   1      42.411  28.167  31.590  1.00  0.00    -0.354 N 
ATOM     50  C   UNL A   1      38.824  29.293  29.471  1.00  0.00     0.074 A 
ATOM     51  C   UNL A   1      38.785  28.689  28.158  1.00  0.00     0.031 C 
ATOM     52  C   UNL A   1      44.360  27.110  31.893  1.00  0.00     0.029 A 
ATOM     53  C   UNL A   1      43.423  28.042  32.510  1.00  0.00     0.049 A 
ATOM     54  H   UNL A   1      41.640  28.767  31.713  1.00  0.00     0.167 HD
ATOM     55  C   UNL A   1      37.876  30.134  29.949  1.00  0.00     0.031 A 
ATOM     56  C   UNL A   1      43.567  28.599  33.726  1.00  0.00     0.031 A 
ATOM     57  C   UNL A   1      37.909  30.723  31.260  1.00  0.00     0.049 A 
ATOM     58  C   UNL A   1      42.485  29.499  34.250  1.00  0.00     0.074 A 
ATOM     59  C   UNL A   1      36.970  31.542  31.863  1.00  0.00     0.029 A 
ATOM     60  N   UNL A   1      38.941  30.557  32.171  1.00  0.00    -0.354 N 
ATOM     61  N   UNL A   1      41.365  29.867  33.674  1.00  0.00    -0.248 NA
ATOM     62  C   UNL A   1      42.676  30.040  35.602  1.00  0.00     0.031 C 
ATOM     63  C   UNL A   1      37.455  31.904  33.125  1.00  0.00     0.029 A 
ATOM     64  C   UNL A   1      38.669  31.269  33.327  1.00  0.00     0.049 A 
ATOM     65  H   UNL A   1      39.747  30.012  32.018  1.00  0.00     0.167 HD
ATOM     66  C   UNL A   1      40.708  30.662  34.604  1.00  0.00     0.074 A 
ATOM     67  C   UNL A   1      41.543  30.701  35.787  1.00  0.00     0.031 C 
ATOM     68  C   UNL A   1      39.518  31.303  34.489  1.00  0.00     0.031 A 
BRANCH  55  69
ATOM     69  C   UNL A   1      36.723  30.456  29.041  1.00  0.00    -0.014 A 
ATOM     70  C   UNL A   1      35.814  29.463  28.641  1.00  0.00     0.009 A 
ATOM     71  C   UNL A   1      36.529  31.772  28.594  1.00  0.00     0.009 A 
ATOM     72  C   UNL A   1      34.758  29.772  27.781  1.00  0.00     0.001 A 
ATOM     73  C   UNL A   1      35.455  32.085  27.759  1.00  0.00     0.001 A 
ATOM     74  C   UNL A   1      34.577  31.084  27.344  1.00  0.00     0.000 A 
ENDBRANCH  55  69
BRANCH  56  75
ATOM     75  C   UNL A   1      44.756  28.278  34.558  1.00  0.00    -0.014 A 
ATOM     76  C   UNL A   1      45.913  29.067  34.477  1.00  0.00     0.009 A 
ATOM     77  C   UNL A   1      44.742  27.181  35.433  1.00  0.00     0.009 A 
ATOM     78  C   UNL A   1      47.043  28.747  35.232  1.00  0.00     0.001 A 
ATOM     79  C   UNL A   1      45.864  26.880  36.207  1.00  0.00     0.001 A 
ATOM     80  C   UNL A   1      47.017  27.657  36.099  1.00  0.00     0.000 A 
ENDBRANCH  56  75
BRANCH  68  81
ATOM     81  C   UNL A   1      39.048  32.077  35.688  1.00  0.00    -0.014 A 
ATOM     82  C   UNL A   1      38.248  31.479  36.673  1.00  0.00     0.009 A 
ATOM     83  C   UNL A   1      39.420  33.422  35.835  1.00  0.00     0.009 A 
ATOM     84  C   UNL A   1      37.789  32.227  37.759  1.00  0.00     0.001 A 
ATOM     85  C   UNL A   1      38.985  34.159  36.937  1.00  0.00     0.001 A 
ATOM     86  C   UNL A   1      38.160  33.565  37.891  1.00  0.00     0.000 A 
ENDBRANCH  68  81
ENDBRANCH  42  43
ENDBRANCH  34  37
ENDBRANCH  32  33
ENDBRANCH  31  32
ENDBRANCH   1  31
TORSDOF 14
ENDMDL
MODEL 3
REMARK VINA RESULT:     -11.2      1.648      2.087
REMARK SMILES CC1=C(C(=O)NCCCCNC(=O)c2ccc(-c3c4nc(c(-c5ccccc5)c5ccc([nH]5)c(-c5ccccc5)c5nc(c(-c6ccccc6)c6ccc3[nH]6)C=C5)C=C4)cc2)N2C(=O)[C@H](NC(=O)c3cc(C(F)(F)F)nn3C)[C@@H]2SC1
REMARK SMILES IDX 8 1 7 2 6 3 4 4 5 5 3 7 1 8 2 9 81 10 62 11 80 12 63 13
REMARK SMILES IDX 79 14 64 15 65 16 66 17 67 18 68 20 69 21 70 22 77 23 71 24
REMARK SMILES IDX 76 25 78 26 72 27 73 28 74 29 75 30 9 31 10 32 11 33 12 34
REMARK SMILES IDX 13 36 14 37 15 38 61 39 16 40 60 41 17 42 18 43 19 44 54 45
REMARK SMILES IDX 20 46 59 47 53 48 55 49 21 50 58 51 52 52 51 53 22 55 44 56
REMARK SMILES IDX 29 57 43 58 30 59 33 60 42 61 56 62 31 63 32 64 41 66 57 67
REMARK SMILES IDX 34 68 23 69 24 70 28 71 25 72 27 73 26 74 45 75 46 76 50 77
REMARK SMILES IDX 47 78 49 79 48 80 35 81 36 82 40 83 37 84 39 85 38 86
REMARK H PARENT 6 6 66 19 11 35 55 54 33 65
REMARK Flexibility Score: inf
ROOT
ATOM      1  C   UNL A   1      39.091  22.818  26.499  1.00  0.00     0.023 C 
ENDROOT
BRANCH   1   2
ATOM      2  C   UNL A   1      37.714  23.496  26.470  1.00  0.00     0.116 C 
BRANCH   2   3
ATOM      3  N   UNL A   1      37.342  23.726  25.095  1.00  0.00    -0.351 N 
ATOM      4  C   UNL A   1      36.499  23.078  24.257  1.00  0.00     0.268 C 
ATOM      5  O   UNL A   1      36.665  23.276  23.047  1.00  0.00    -0.268 OA
ATOM      6  H   UNL A   1      37.788  24.505  24.687  1.00  0.00     0.163 HD
BRANCH   4   7
ATOM      7  C   UNL A   1      35.336  22.198  24.679  1.00  0.00     0.110 C 
ATOM      8  C   UNL A   1      36.378  19.875  24.623  1.00  0.00     0.043 C 
ATOM      9  C   UNL A   1      35.257  20.850  24.831  1.00  0.00    -0.034 C 
ATOM     10  C   UNL A   1      33.981  20.088  25.183  1.00  0.00     0.104 C 
ATOM     11  N   UNL A   1      34.164  22.894  24.724  1.00  0.00    -0.290 N 
ATOM     12  S   UNL A   1      32.497  21.064  25.507  1.00  0.00    -0.129 SA
ATOM     13  C   UNL A   1      33.751  24.164  24.906  1.00  0.00     0.253 C 
ATOM     14  C   UNL A   1      32.910  22.339  24.292  1.00  0.00     0.181 C 
ATOM     15  O   UNL A   1      34.301  25.162  25.303  1.00  0.00    -0.272 OA
ATOM     16  C   UNL A   1      32.299  23.756  24.503  1.00  0.00     0.206 C 
BRANCH  16  17
ATOM     17  N   UNL A   1      31.258  23.870  25.551  1.00  0.00    -0.336 N 
ATOM     18  C   UNL A   1      30.529  24.972  25.917  1.00  0.00     0.270 C 
ATOM     19  H   UNL A   1      31.063  23.044  26.051  1.00  0.00     0.164 HD
ATOM     20  O   UNL A   1      29.724  24.865  26.837  1.00  0.00    -0.268 OA
BRANCH  18  21
ATOM     21  C   UNL A   1      30.786  26.218  25.240  1.00  0.00     0.126 A 
ATOM     22  C   UNL A   1      30.311  26.713  24.038  1.00  0.00     0.069 A 
ATOM     23  N   UNL A   1      31.578  27.219  25.742  1.00  0.00    -0.262 N 
ATOM     24  C   UNL A   1      30.946  27.969  23.846  1.00  0.00     0.167 A 
ATOM     25  N   UNL A   1      31.726  28.264  24.902  1.00  0.00    -0.168 NA
ATOM     26  C   UNL A   1      32.320  27.234  26.984  1.00  0.00     0.174 C 
BRANCH  24  27
ATOM     27  C   UNL A   1      30.821  28.871  22.647  1.00  0.00     0.435 C 
ATOM     28  F   UNL A   1      32.008  29.405  22.259  1.00  0.00    -0.164 F 
ATOM     29  F   UNL A   1      30.295  28.232  21.568  1.00  0.00    -0.164 F 
ATOM     30  F   UNL A   1      29.993  29.925  22.902  1.00  0.00    -0.164 F 
ENDBRANCH  24  27
ENDBRANCH  18  21
ENDBRANCH  16  17
ENDBRANCH   4   7
ENDBRANCH   2   3
ENDBRANCH   1   2
BRANCH   1  31
ATOM     31  C   UNL A   1      39.195  21.491  25.755  1.00  0.00     0.023 C 
BRANCH  31  32
ATOM     32  C   UNL A   1      39.778  20.356  26.580  1.00  0.00     0.116 C 
BRANCH  32  33
ATOM     33  N   UNL A   1      40.905  19.690  25.944  1.00  0.00    -0.352 N 
ATOM     34  C   UNL A   1      42.209  20.109  25.850  1.00  0.00     0.251 C 
ATOM     35  H   UNL A   1      40.705  18.822  25.524  1.00  0.00     0.163 HD
ATOM     36  O   UNL A   1      43.025  19.452  25.212  1.00  0.00    -0.269 OA
BRANCH  34  37
ATOM     37  C   UNL A   1      42.604  21.388  26.473  1.00  0.00     0.039 A 
ATOM     38  C   UNL A   1      42.886  22.473  25.641  1.00  0.00     0.014 A 
ATOM     39  C   UNL A   1      42.639  21.535  27.862  1.00  0.00     0.014 A 
ATOM     40  C   UNL A   1      43.134  23.724  26.205  1.00  0.00     0.010 A 
ATOM     41  C   UNL A   1      42.792  22.799  28.419  1.00  0.00     0.010 A 
ATOM     42  C   UNL A   1      43.047  23.903  27.597  1.00  0.00    -0.014 A 
BRANCH  42  43
ATOM     43  C   UNL A   1      43.214  25.250  28.194  1.00  0.00     0.031 A 
ATOM     44  C   UNL A   1      44.577  25.746  28.583  1.00  0.00     0.074 A 
ATOM     45  C   UNL A   1      42.125  26.011  28.416  1.00  0.00     0.049 A 
ATOM     46  N   UNL A   1      44.920  26.916  29.062  1.00  0.00    -0.248 NA
ATOM     47  C   UNL A   1      45.699  24.804  28.443  1.00  0.00     0.031 C 
ATOM     48  C   UNL A   1      40.740  25.609  28.153  1.00  0.00     0.029 A 
ATOM     49  N   UNL A   1      42.013  27.288  28.902  1.00  0.00    -0.354 N 
ATOM     50  C   UNL A   1      46.288  26.843  29.288  1.00  0.00     0.074 A 
ATOM     51  C   UNL A   1      46.703  25.498  28.953  1.00  0.00     0.031 C 
ATOM     52  C   UNL A   1      39.924  26.638  28.431  1.00  0.00     0.029 A 
ATOM     53  C   UNL A   1      40.723  27.759  28.914  1.00  0.00     0.049 A 
ATOM     54  H   UNL A   1      42.784  27.816  29.213  1.00  0.00     0.167 HD
ATOM     55  C   UNL A   1      47.132  27.816  29.707  1.00  0.00     0.031 A 
ATOM     56  C   UNL A   1      40.242  28.969  29.254  1.00  0.00     0.031 A 
ATOM     57  C   UNL A   1      46.720  29.155  30.028  1.00  0.00     0.049 A 
ATOM     58  C   UNL A   1      41.201  30.043  29.681  1.00  0.00     0.074 A 
ATOM     59  C   UNL A   1      47.503  30.232  30.407  1.00  0.00     0.029 A 
ATOM     60  N   UNL A   1      45.407  29.601  30.009  1.00  0.00    -0.354 N 
ATOM     61  N   UNL A   1      42.506  29.986  29.801  1.00  0.00    -0.248 NA
ATOM     62  C   UNL A   1      40.621  31.356  29.995  1.00  0.00     0.031 C 
ATOM     63  C   UNL A   1      46.657  31.319  30.655  1.00  0.00     0.029 A 
ATOM     64  C   UNL A   1      45.355  30.933  30.382  1.00  0.00     0.049 A 
ATOM     65  H   UNL A   1      44.628  29.050  29.765  1.00  0.00     0.167 HD
ATOM     66  C   UNL A   1      42.905  31.261  30.180  1.00  0.00     0.074 A 
ATOM     67  C   UNL A   1      41.707  32.072  30.245  1.00  0.00     0.031 C 
ATOM     68  C   UNL A   1      44.152  31.719  30.451  1.00  0.00     0.031 A 
BRANCH  55  69
ATOM     69  C   UNL A   1      48.585  27.456  29.836  1.00  0.00    -0.014 A 
ATOM     70  C   UNL A   1      49.115  26.998  31.053  1.00  0.00     0.009 A 
ATOM     71  C   UNL A   1      49.434  27.558  28.722  1.00  0.00     0.009 A 
ATOM     72  C   UNL A   1      50.472  26.687  31.164  1.00  0.00     0.001 A 
ATOM     73  C   UNL A   1      50.784  27.217  28.828  1.00  0.00     0.001 A 
ATOM     74  C   UNL A   1      51.304  26.792  30.050  1.00  0.00     0.000 A 
ENDBRANCH  55  69
BRANCH  56  75
ATOM     75  C   UNL A   1      38.786  29.248  29.151  1.00  0.00    -0.014 A 
ATOM     76  C   UNL A   1      38.228  29.671  27.935  1.00  0.00     0.009 A 
ATOM     77  C   UNL A   1      37.948  29.093  30.265  1.00  0.00     0.009 A 
ATOM     78  C   UNL A   1      36.867  29.966  27.845  1.00  0.00     0.001 A 
ATOM     79  C   UNL A   1      36.581  29.362  30.165  1.00  0.00     0.001 A 
ATOM     80  C   UNL A   1      36.043  29.807  28.958  1.00  0.00     0.000 A 
ENDBRANCH  56  75
BRANCH  68  81
ATOM     81  C   UNL A   1      44.274  33.172  30.815  1.00  0.00    -0.014 A 
ATOM     82  C   UNL A   1      44.205  33.596  32.151  1.00  0.00     0.009 A 
ATOM     83  C   UNL A   1      44.471  34.127  29.806  1.00  0.00     0.009 A 
ATOM     84  C   UNL A   1      44.281  34.955  32.464  1.00  0.00     0.001 A 
ATOM     85  C   UNL A   1      44.578  35.480  30.125  1.00  0.00     0.001 A 
ATOM     86  C   UNL A   1      44.470  35.895  31.451  1.00  0.00     0.000 A 
ENDBRANCH  68  81
ENDBRANCH  42  43
ENDBRANCH  34  37
ENDBRANCH  32  33
ENDBRANCH  31  32
ENDBRANCH   1  31
TORSDOF 14
ENDMDL
