MODEL 1
REMARK VINA RESULT:     -10.0      0.000      0.000
REMARK SMILES CC[C@](C)(C(=O)NCCCCNC(=O)c1ccc(-c2c3nc(c(-c4ccccc4)c4ccc([nH]4)c(-c4ccccc4)c4nc(c(-c5ccccc5)c5ccc2[nH]5)C=C4)C=C3)cc1)[C@H]1CCC[C@H](OC)C1
REMARK SMILES IDX 9 1 8 2 7 3 5 4 6 5 3 7 4 8 2 9 1 10 63 11 64 12 70 13 65 14
REMARK SMILES IDX 67 15 66 16 68 17 69 18 10 19 11 20 12 21 13 22 14 24 15 25
REMARK SMILES IDX 16 26 62 27 17 28 61 29 18 30 19 31 20 32 55 33 21 34 60 35
REMARK SMILES IDX 54 36 56 37 22 38 59 39 53 40 52 41 23 43 45 44 30 45 44 46
REMARK SMILES IDX 31 47 34 48 43 49 57 50 32 51 33 52 42 54 58 55 35 56 24 57
REMARK SMILES IDX 25 58 29 59 26 60 28 61 27 62 46 63 47 64 51 65 48 66 50 67
REMARK SMILES IDX 49 68 36 69 37 70 41 71 38 72 40 73 39 74
REMARK H PARENT 7 6 12 23 56 42 34 53
REMARK Flexibility Score: inf
ROOT
ATOM      1  C   UNL A   1      38.914  22.658  26.366  1.00  0.00     0.023 C 
ENDROOT
BRANCH   1   2
ATOM      2  C   UNL A   1      37.791  23.564  25.864  1.00  0.00     0.116 C 
BRANCH   2   3
ATOM      3  N   UNL A   1      37.560  23.373  24.449  1.00  0.00    -0.356 N 
ATOM      4  C   UNL A   1      36.449  23.207  23.687  1.00  0.00     0.226 C 
ATOM      5  O   UNL A   1      36.711  23.082  22.488  1.00  0.00    -0.274 OA
ATOM      6  H   UNL A   1      38.391  23.361  23.924  1.00  0.00     0.163 HD
BRANCH   4   7
ATOM      7  C   UNL A   1      34.988  23.264  24.247  1.00  0.00     0.049 C 
ATOM      8  C   UNL A   1      34.681  24.719  24.675  1.00  0.00     0.022 C 
BRANCH   7   9
ATOM      9  C   UNL A   1      34.018  22.901  23.067  1.00  0.00     0.013 C 
ATOM     10  C   UNL A   1      33.134  24.050  22.579  1.00  0.00     0.005 C 
ENDBRANCH   7   9
BRANCH   7  11
ATOM     11  C   UNL A   1      34.670  22.225  25.458  1.00  0.00     0.007 C 
ATOM     12  C   UNL A   1      33.387  22.405  26.297  1.00  0.00     0.005 C 
ATOM     13  C   UNL A   1      34.734  20.706  25.112  1.00  0.00     0.036 C 
ATOM     14  C   UNL A   1      32.129  22.006  25.535  1.00  0.00     0.003 C 
ATOM     15  C   UNL A   1      33.460  20.158  24.433  1.00  0.00     0.118 C 
ATOM     16  C   UNL A   1      32.175  20.523  25.183  1.00  0.00     0.032 C 
BRANCH  15  17
ATOM     17  O   UNL A   1      33.556  18.765  24.116  1.00  0.00    -0.381 OA
ATOM     18  C   UNL A   1      32.481  17.938  24.526  1.00  0.00     0.195 C 
ENDBRANCH  15  17
ENDBRANCH   7  11
ENDBRANCH   4   7
ENDBRANCH   2   3
ENDBRANCH   1   2
BRANCH   1  19
ATOM     19  C   UNL A   1      38.996  21.307  25.651  1.00  0.00     0.023 C 
BRANCH  19  20
ATOM     20  C   UNL A   1      39.494  20.155  26.517  1.00  0.00     0.116 C 
BRANCH  20  21
ATOM     21  N   UNL A   1      40.626  19.456  25.930  1.00  0.00    -0.352 N 
ATOM     22  C   UNL A   1      41.929  19.871  25.809  1.00  0.00     0.251 C 
ATOM     23  H   UNL A   1      40.431  18.562  25.569  1.00  0.00     0.163 HD
ATOM     24  O   UNL A   1      42.734  19.207  25.172  1.00  0.00    -0.269 OA
BRANCH  22  25
ATOM     25  C   UNL A   1      42.336  21.148  26.425  1.00  0.00     0.039 A 
ATOM     26  C   UNL A   1      42.675  22.212  25.587  1.00  0.00     0.014 A 
ATOM     27  C   UNL A   1      42.349  21.304  27.813  1.00  0.00     0.014 A 
ATOM     28  C   UNL A   1      42.968  23.455  26.144  1.00  0.00     0.010 A 
ATOM     29  C   UNL A   1      42.564  22.564  28.363  1.00  0.00     0.010 A 
ATOM     30  C   UNL A   1      42.875  23.650  27.533  1.00  0.00    -0.014 A 
BRANCH  30  31
ATOM     31  C   UNL A   1      43.082  24.997  28.118  1.00  0.00     0.031 A 
ATOM     32  C   UNL A   1      44.451  25.436  28.557  1.00  0.00     0.074 A 
ATOM     33  C   UNL A   1      42.023  25.814  28.281  1.00  0.00     0.049 A 
ATOM     34  N   UNL A   1      44.822  26.579  29.077  1.00  0.00    -0.248 NA
ATOM     35  C   UNL A   1      45.545  24.459  28.413  1.00  0.00     0.031 C 
ATOM     36  C   UNL A   1      40.636  25.482  27.941  1.00  0.00     0.029 A 
ATOM     37  N   UNL A   1      41.948  27.094  28.765  1.00  0.00    -0.354 N 
ATOM     38  C   UNL A   1      46.184  26.460  29.320  1.00  0.00     0.074 A 
ATOM     39  C   UNL A   1      46.565  25.114  28.950  1.00  0.00     0.031 C 
ATOM     40  C   UNL A   1      39.856  26.546  28.191  1.00  0.00     0.029 A 
ATOM     41  C   UNL A   1      40.676  27.616  28.745  1.00  0.00     0.049 A 
ATOM     42  H   UNL A   1      42.729  27.592  29.097  1.00  0.00     0.167 HD
ATOM     43  C   UNL A   1      47.045  27.393  29.786  1.00  0.00     0.031 A 
ATOM     44  C   UNL A   1      40.224  28.824  29.130  1.00  0.00     0.031 A 
ATOM     45  C   UNL A   1      46.666  28.731  30.156  1.00  0.00     0.049 A 
ATOM     46  C   UNL A   1      41.201  29.834  29.663  1.00  0.00     0.074 A 
ATOM     47  C   UNL A   1      47.472  29.764  30.601  1.00  0.00     0.029 A 
ATOM     48  N   UNL A   1      45.370  29.220  30.126  1.00  0.00    -0.354 N 
ATOM     49  N   UNL A   1      42.500  29.729  29.815  1.00  0.00    -0.248 NA
ATOM     50  C   UNL A   1      40.651  31.136  30.063  1.00  0.00     0.031 C 
ATOM     51  C   UNL A   1      46.656  30.862  30.891  1.00  0.00     0.029 A 
ATOM     52  C   UNL A   1      45.350  30.533  30.566  1.00  0.00     0.049 A 
ATOM     53  H   UNL A   1      44.580  28.710  29.833  1.00  0.00     0.167 HD
ATOM     54  C   UNL A   1      42.923  30.957  30.304  1.00  0.00     0.074 A 
ATOM     55  C   UNL A   1      41.749  31.801  30.391  1.00  0.00     0.031 C 
ATOM     56  C   UNL A   1      44.171  31.354  30.653  1.00  0.00     0.031 A 
BRANCH  43  57
ATOM     57  C   UNL A   1      48.492  27.003  29.917  1.00  0.00    -0.014 A 
ATOM     58  C   UNL A   1      48.973  26.392  31.086  1.00  0.00     0.009 A 
ATOM     59  C   UNL A   1      49.372  27.195  28.841  1.00  0.00     0.009 A 
ATOM     60  C   UNL A   1      50.311  26.005  31.184  1.00  0.00     0.001 A 
ATOM     61  C   UNL A   1      50.702  26.781  28.930  1.00  0.00     0.001 A 
ATOM     62  C   UNL A   1      51.172  26.193  30.104  1.00  0.00     0.000 A 
ENDBRANCH  43  57
BRANCH  44  63
ATOM     63  C   UNL A   1      38.776  29.154  29.027  1.00  0.00    -0.014 A 
ATOM     64  C   UNL A   1      38.240  29.654  27.830  1.00  0.00     0.009 A 
ATOM     65  C   UNL A   1      37.931  29.005  30.138  1.00  0.00     0.009 A 
ATOM     66  C   UNL A   1      36.898  30.038  27.761  1.00  0.00     0.001 A 
ATOM     67  C   UNL A   1      36.582  29.357  30.056  1.00  0.00     0.001 A 
ATOM     68  C   UNL A   1      36.070  29.886  28.873  1.00  0.00     0.000 A 
ENDBRANCH  44  63
BRANCH  56  69
ATOM     69  C   UNL A   1      44.326  32.770  31.134  1.00  0.00    -0.014 A 
ATOM     70  C   UNL A   1      44.221  33.095  32.496  1.00  0.00     0.009 A 
ATOM     71  C   UNL A   1      44.592  33.793  30.209  1.00  0.00     0.009 A 
ATOM     72  C   UNL A   1      44.330  34.422  32.915  1.00  0.00     0.001 A 
ATOM     73  C   UNL A   1      44.737  35.113  30.636  1.00  0.00     0.001 A 
ATOM     74  C   UNL A   1      44.592  35.429  31.987  1.00  0.00     0.000 A 
ENDBRANCH  56  69
ENDBRANCH  30  31
ENDBRANCH  22  25
ENDBRANCH  20  21
ENDBRANCH  19  20
ENDBRANCH   1  19
TORSDOF 14
ENDMDL
MODEL 2
REMARK VINA RESULT:      -9.9      4.361      9.179
REMARK SMILES CC[C@](C)(C(=O)NCCCCNC(=O)c1ccc(-c2c3nc(c(-c4ccccc4)c4ccc([nH]4)c(-c4ccccc4)c4nc(c(-c5ccccc5)c5ccc2[nH]5)C=C4)C=C3)cc1)[C@H]1CCC[C@H](OC)C1
REMARK SMILES IDX 9 1 8 2 7 3 5 4 6 5 3 7 4 8 2 9 1 10 63 11 64 12 70 13 65 14
REMARK SMILES IDX 67 15 66 16 68 17 69 18 10 19 11 20 12 21 13 22 14 24 15 25
REMARK SMILES IDX 16 26 62 27 17 28 61 29 18 30 19 31 20 32 55 33 21 34 60 35
REMARK SMILES IDX 54 36 56 37 22 38 59 39 53 40 52 41 23 43 45 44 30 45 44 46
REMARK SMILES IDX 31 47 34 48 43 49 57 50 32 51 33 52 42 54 58 55 35 56 24 57
REMARK SMILES IDX 25 58 29 59 26 60 28 61 27 62 46 63 47 64 51 65 48 66 50 67
REMARK SMILES IDX 49 68 36 69 37 70 41 71 38 72 40 73 39 74
REMARK H PARENT 7 6 12 23 56 42 34 53
REMARK Flexibility Score: inf
ROOT
ATOM      1  C   UNL A   1      31.760  30.305  25.916  1.00  0.00     0.023 C 
ENDROOT
BRANCH   1   2
ATOM      2  C   UNL A   1      33.109  29.597  26.019  1.00  0.00     0.116 C 
BRANCH   2   3
ATOM      3  N   UNL A   1      33.697  29.401  24.712  1.00  0.00    -0.356 N 
ATOM      4  C   UNL A   1      33.846  28.329  23.893  1.00  0.00     0.226 C 
ATOM      5  O   UNL A   1      34.414  28.614  22.837  1.00  0.00    -0.274 OA
ATOM      6  H   UNL A   1      34.069  30.228  24.332  1.00  0.00     0.163 HD
BRANCH   4   7
ATOM      7  C   UNL A   1      33.276  26.905  24.206  1.00  0.00     0.049 C 
ATOM      8  C   UNL A   1      33.622  25.964  23.028  1.00  0.00     0.022 C 
BRANCH   7   9
ATOM      9  C   UNL A   1      34.025  26.368  25.478  1.00  0.00     0.013 C 
ATOM     10  C   UNL A   1      34.781  25.053  25.277  1.00  0.00     0.005 C 
ENDBRANCH   7   9
BRANCH   7  11
ATOM     11  C   UNL A   1      31.684  26.854  24.539  1.00  0.00     0.007 C 
ATOM     12  C   UNL A   1      30.702  26.311  23.479  1.00  0.00     0.005 C 
ATOM     13  C   UNL A   1      31.270  26.174  25.880  1.00  0.00     0.036 C 
ATOM     14  C   UNL A   1      30.787  24.796  23.326  1.00  0.00     0.003 C 
ATOM     15  C   UNL A   1      31.210  24.632  25.815  1.00  0.00     0.118 C 
ATOM     16  C   UNL A   1      30.390  24.112  24.630  1.00  0.00     0.032 C 
BRANCH  15  17
ATOM     17  O   UNL A   1      30.842  24.038  27.064  1.00  0.00    -0.381 OA
ATOM     18  C   UNL A   1      29.923  22.960  27.016  1.00  0.00     0.195 C 
ENDBRANCH  15  17
ENDBRANCH   7  11
ENDBRANCH   4   7
ENDBRANCH   2   3
ENDBRANCH   1   2
BRANCH   1  19
ATOM     19  C   UNL A   1      31.582  31.462  26.902  1.00  0.00     0.023 C 
BRANCH  19  20
ATOM     20  C   UNL A   1      32.790  32.385  27.028  1.00  0.00     0.116 C 
BRANCH  20  21
ATOM     21  N   UNL A   1      32.432  33.726  27.463  1.00  0.00    -0.352 N 
ATOM     22  C   UNL A   1      33.035  34.519  28.407  1.00  0.00     0.251 C 
ATOM     23  H   UNL A   1      31.648  34.121  27.017  1.00  0.00     0.163 HD
ATOM     24  O   UNL A   1      32.528  35.579  28.742  1.00  0.00    -0.269 OA
BRANCH  22  25
ATOM     25  C   UNL A   1      34.284  34.054  29.043  1.00  0.00     0.039 A 
ATOM     26  C   UNL A   1      34.192  33.168  30.117  1.00  0.00     0.014 A 
ATOM     27  C   UNL A   1      35.530  34.461  28.561  1.00  0.00     0.014 A 
ATOM     28  C   UNL A   1      35.358  32.640  30.669  1.00  0.00     0.010 A 
ATOM     29  C   UNL A   1      36.688  33.874  29.060  1.00  0.00     0.010 A 
ATOM     30  C   UNL A   1      36.611  32.958  30.119  1.00  0.00    -0.014 A 
BRANCH  30  31
ATOM     31  C   UNL A   1      37.844  32.316  30.637  1.00  0.00     0.031 A 
ATOM     32  C   UNL A   1      38.540  32.867  31.850  1.00  0.00     0.074 A 
ATOM     33  C   UNL A   1      38.352  31.250  29.988  1.00  0.00     0.049 A 
ATOM     34  N   UNL A   1      39.618  32.429  32.450  1.00  0.00    -0.248 NA
ATOM     35  C   UNL A   1      37.963  34.077  32.460  1.00  0.00     0.031 C 
ATOM     36  C   UNL A   1      37.797  30.654  28.769  1.00  0.00     0.029 A 
ATOM     37  N   UNL A   1      39.446  30.472  30.267  1.00  0.00    -0.354 N 
ATOM     38  C   UNL A   1      39.847  33.306  33.502  1.00  0.00     0.074 A 
ATOM     39  C   UNL A   1      38.834  34.336  33.425  1.00  0.00     0.031 C 
ATOM     40  C   UNL A   1      38.531  29.582  28.431  1.00  0.00     0.029 A 
ATOM     41  C   UNL A   1      39.628  29.438  29.380  1.00  0.00     0.049 A 
ATOM     42  H   UNL A   1      40.045  30.638  31.031  1.00  0.00     0.167 HD
ATOM     43  C   UNL A   1      40.799  33.246  34.461  1.00  0.00     0.031 A 
ATOM     44  C   UNL A   1      40.574  28.482  29.337  1.00  0.00     0.031 A 
ATOM     45  C   UNL A   1      41.808  32.223  34.538  1.00  0.00     0.049 A 
ATOM     46  C   UNL A   1      41.631  28.453  30.405  1.00  0.00     0.074 A 
ATOM     47  C   UNL A   1      42.793  32.052  35.495  1.00  0.00     0.029 A 
ATOM     48  N   UNL A   1      41.962  31.197  33.618  1.00  0.00    -0.354 N 
ATOM     49  N   UNL A   1      41.788  29.248  31.437  1.00  0.00    -0.248 NA
ATOM     50  C   UNL A   1      42.635  27.384  30.309  1.00  0.00     0.031 C 
ATOM     51  C   UNL A   1      43.576  30.954  35.125  1.00  0.00     0.029 A 
ATOM     52  C   UNL A   1      43.040  30.403  33.973  1.00  0.00     0.049 A 
ATOM     53  H   UNL A   1      41.389  31.054  32.830  1.00  0.00     0.167 HD
ATOM     54  C   UNL A   1      42.889  28.759  32.125  1.00  0.00     0.074 A 
ATOM     55  C   UNL A   1      43.342  27.582  31.412  1.00  0.00     0.031 C 
ATOM     56  C   UNL A   1      43.479  29.240  33.247  1.00  0.00     0.031 A 
BRANCH  43  57
ATOM     57  C   UNL A   1      40.793  34.318  35.517  1.00  0.00    -0.014 A 
ATOM     58  C   UNL A   1      41.516  35.510  35.342  1.00  0.00     0.009 A 
ATOM     59  C   UNL A   1      40.014  34.161  36.673  1.00  0.00     0.009 A 
ATOM     60  C   UNL A   1      41.476  36.511  36.314  1.00  0.00     0.001 A 
ATOM     61  C   UNL A   1      39.954  35.175  37.631  1.00  0.00     0.001 A 
ATOM     62  C   UNL A   1      40.690  36.346  37.454  1.00  0.00     0.000 A 
ENDBRANCH  43  57
BRANCH  44  63
ATOM     63  C   UNL A   1      40.570  27.467  28.248  1.00  0.00    -0.014 A 
ATOM     64  C   UNL A   1      41.242  27.710  27.040  1.00  0.00     0.009 A 
ATOM     65  C   UNL A   1      39.862  26.264  28.399  1.00  0.00     0.009 A 
ATOM     66  C   UNL A   1      41.168  26.790  25.991  1.00  0.00     0.001 A 
ATOM     67  C   UNL A   1      39.820  25.330  27.362  1.00  0.00     0.001 A 
ATOM     68  C   UNL A   1      40.460  25.599  26.154  1.00  0.00     0.000 A 
ENDBRANCH  44  63
BRANCH  56  69
ATOM     69  C   UNL A   1      44.659  28.475  33.779  1.00  0.00    -0.014 A 
ATOM     70  C   UNL A   1      45.970  28.789  33.389  1.00  0.00     0.009 A 
ATOM     71  C   UNL A   1      44.453  27.430  34.694  1.00  0.00     0.009 A 
ATOM     72  C   UNL A   1      47.047  28.040  33.867  1.00  0.00     0.001 A 
ATOM     73  C   UNL A   1      45.534  26.707  35.198  1.00  0.00     0.001 A 
ATOM     74  C   UNL A   1      46.829  27.003  34.772  1.00  0.00     0.000 A 
ENDBRANCH  56  69
ENDBRANCH  30  31
ENDBRANCH  22  25
ENDBRANCH  20  21
ENDBRANCH  19  20
ENDBRANCH   1  19
TORSDOF 14
ENDMDL
MODEL 3
REMARK VINA RESULT:      -9.7      4.833      9.328
REMARK SMILES CC[C@](C)(C(=O)NCCCCNC(=O)c1ccc(-c2c3nc(c(-c4ccccc4)c4ccc([nH]4)c(-c4ccccc4)c4nc(c(-c5ccccc5)c5ccc2[nH]5)C=C4)C=C3)cc1)[C@H]1CCC[C@H](OC)C1
REMARK SMILES IDX 9 1 8 2 7 3 5 4 6 5 3 7 4 8 2 9 1 10 63 11 64 12 70 13 65 14
REMARK SMILES IDX 67 15 66 16 68 17 69 18 10 19 11 20 12 21 13 22 14 24 15 25
REMARK SMILES IDX 16 26 62 27 17 28 61 29 18 30 19 31 20 32 55 33 21 34 60 35
REMARK SMILES IDX 54 36 56 37 22 38 59 39 53 40 52 41 23 43 45 44 30 45 44 46
REMARK SMILES IDX 31 47 34 48 43 49 57 50 32 51 33 52 42 54 58 55 35 56 24 57
REMARK SMILES IDX 25 58 29 59 26 60 28 61 27 62 46 63 47 64 51 65 48 66 50 67
REMARK SMILES IDX 49 68 36 69 37 70 41 71 38 72 40 73 39 74
REMARK H PARENT 7 6 12 23 56 42 34 53
REMARK Flexibility Score: inf
ROOT
ATOM      1  C   UNL A   1      31.718  30.660  25.885  1.00  0.00     0.023 C 
ENDROOT
BRANCH   1   2
ATOM      2  C   UNL A   1      33.034  29.911  26.085  1.00  0.00     0.116 C 
BRANCH   2   3
ATOM      3  N   UNL A   1      33.661  29.610  24.817  1.00  0.00    -0.356 N 
ATOM      4  C   UNL A   1      33.809  28.480  24.079  1.00  0.00     0.226 C 
ATOM      5  O   UNL A   1      34.421  28.677  23.027  1.00  0.00    -0.274 OA
ATOM      6  H   UNL A   1      34.070  30.399  24.395  1.00  0.00     0.163 HD
BRANCH   4   7
ATOM      7  C   UNL A   1      33.188  27.096  24.468  1.00  0.00     0.049 C 
ATOM      8  C   UNL A   1      33.302  26.145  23.253  1.00  0.00     0.022 C 
BRANCH   7   9
ATOM      9  C   UNL A   1      34.065  26.496  25.624  1.00  0.00     0.013 C 
ATOM     10  C   UNL A   1      34.691  25.133  25.322  1.00  0.00     0.005 C 
ENDBRANCH   7   9
BRANCH   7  11
ATOM     11  C   UNL A   1      31.657  27.153  25.016  1.00  0.00     0.007 C 
ATOM     12  C   UNL A   1      30.489  26.902  24.039  1.00  0.00     0.005 C 
ATOM     13  C   UNL A   1      31.334  26.301  26.282  1.00  0.00     0.036 C 
ATOM     14  C   UNL A   1      30.364  25.435  23.644  1.00  0.00     0.003 C 
ATOM     15  C   UNL A   1      31.075  24.808  25.990  1.00  0.00     0.118 C 
ATOM     16  C   UNL A   1      30.052  24.584  24.870  1.00  0.00     0.032 C 
BRANCH  15  17
ATOM     17  O   UNL A   1      30.796  24.051  27.172  1.00  0.00    -0.381 OA
ATOM     18  C   UNL A   1      29.945  22.927  27.029  1.00  0.00     0.195 C 
ENDBRANCH  15  17
ENDBRANCH   7  11
ENDBRANCH   4   7
ENDBRANCH   2   3
ENDBRANCH   1   2
BRANCH   1  19
ATOM     19  C   UNL A   1      31.472  31.777  26.901  1.00  0.00     0.023 C 
BRANCH  19  20
ATOM     20  C   UNL A   1      32.703  32.607  27.249  1.00  0.00     0.116 C 
BRANCH  20  21
ATOM     21  N   UNL A   1      32.381  33.993  27.553  1.00  0.00    -0.352 N 
ATOM     22  C   UNL A   1      32.967  34.837  28.464  1.00  0.00     0.251 C 
ATOM     23  H   UNL A   1      31.641  34.380  27.032  1.00  0.00     0.163 HD
ATOM     24  O   UNL A   1      32.490  35.940  28.682  1.00  0.00    -0.269 OA
BRANCH  22  25
ATOM     25  C   UNL A   1      34.157  34.378  29.205  1.00  0.00     0.039 A 
ATOM     26  C   UNL A   1      33.971  33.743  30.433  1.00  0.00     0.014 A 
ATOM     27  C   UNL A   1      35.440  34.542  28.676  1.00  0.00     0.014 A 
ATOM     28  C   UNL A   1      35.072  33.215  31.104  1.00  0.00     0.010 A 
ATOM     29  C   UNL A   1      36.527  33.947  29.307  1.00  0.00     0.010 A 
ATOM     30  C   UNL A   1      36.353  33.277  30.527  1.00  0.00    -0.014 A 
BRANCH  30  31
ATOM     31  C   UNL A   1      37.508  32.624  31.188  1.00  0.00     0.031 A 
ATOM     32  C   UNL A   1      38.164  31.423  30.565  1.00  0.00     0.074 A 
ATOM     33  C   UNL A   1      37.945  33.099  32.370  1.00  0.00     0.049 A 
ATOM     34  N   UNL A   1      39.190  30.732  30.992  1.00  0.00    -0.248 NA
ATOM     35  C   UNL A   1      37.583  30.920  29.308  1.00  0.00     0.031 C 
ATOM     36  C   UNL A   1      37.358  34.226  33.101  1.00  0.00     0.029 A 
ATOM     37  N   UNL A   1      38.990  32.699  33.163  1.00  0.00    -0.354 N 
ATOM     38  C   UNL A   1      39.376  29.718  30.062  1.00  0.00     0.074 A 
ATOM     39  C   UNL A   1      38.323  29.844  29.079  1.00  0.00     0.031 C 
ATOM     40  C   UNL A   1      38.076  34.450  34.213  1.00  0.00     0.029 A 
ATOM     41  C   UNL A   1      39.145  33.462  34.296  1.00  0.00     0.049 A 
ATOM     42  H   UNL A   1      39.573  31.938  32.943  1.00  0.00     0.167 HD
ATOM     43  C   UNL A   1      40.352  28.781  30.016  1.00  0.00     0.031 A 
ATOM     44  C   UNL A   1      40.048  33.374  35.290  1.00  0.00     0.031 A 
ATOM     45  C   UNL A   1      41.400  28.654  30.993  1.00  0.00     0.049 A 
ATOM     46  C   UNL A   1      41.107  32.310  35.221  1.00  0.00     0.074 A 
ATOM     47  C   UNL A   1      42.458  27.762  31.013  1.00  0.00     0.029 A 
ATOM     48  N   UNL A   1      41.519  29.442  32.128  1.00  0.00    -0.354 N 
ATOM     49  N   UNL A   1      41.313  31.406  34.294  1.00  0.00    -0.248 NA
ATOM     50  C   UNL A   1      42.068  32.264  36.331  1.00  0.00     0.031 C 
ATOM     51  C   UNL A   1      43.187  27.976  32.187  1.00  0.00     0.029 A 
ATOM     52  C   UNL A   1      42.620  29.041  32.866  1.00  0.00     0.049 A 
ATOM     53  H   UNL A   1      40.911  30.177  32.372  1.00  0.00     0.167 HD
ATOM     54  C   UNL A   1      42.441  30.703  34.696  1.00  0.00     0.074 A 
ATOM     55  C   UNL A   1      42.892  31.306  35.933  1.00  0.00     0.031 C 
ATOM     56  C   UNL A   1      43.050  29.649  34.099  1.00  0.00     0.031 A 
BRANCH  43  57
ATOM     57  C   UNL A   1      40.338  27.817  28.861  1.00  0.00    -0.014 A 
ATOM     58  C   UNL A   1      39.642  26.600  28.943  1.00  0.00     0.009 A 
ATOM     59  C   UNL A   1      40.978  28.152  27.658  1.00  0.00     0.009 A 
ATOM     60  C   UNL A   1      39.609  25.728  27.852  1.00  0.00     0.001 A 
ATOM     61  C   UNL A   1      40.920  27.292  26.560  1.00  0.00     0.001 A 
ATOM     62  C   UNL A   1      40.241  26.078  26.660  1.00  0.00     0.000 A 
ENDBRANCH  43  57
BRANCH  44  63
ATOM     63  C   UNL A   1      39.999  34.319  36.439  1.00  0.00    -0.014 A 
ATOM     64  C   UNL A   1      39.281  33.997  37.601  1.00  0.00     0.009 A 
ATOM     65  C   UNL A   1      40.639  35.566  36.362  1.00  0.00     0.009 A 
ATOM     66  C   UNL A   1      39.170  34.921  38.644  1.00  0.00     0.001 A 
ATOM     67  C   UNL A   1      40.557  36.473  37.420  1.00  0.00     0.001 A 
ATOM     68  C   UNL A   1      39.811  36.156  38.554  1.00  0.00     0.000 A 
ENDBRANCH  44  63
BRANCH  56  69
ATOM     69  C   UNL A   1      44.282  29.106  34.766  1.00  0.00    -0.014 A 
ATOM     70  C   UNL A   1      45.557  29.614  34.473  1.00  0.00     0.009 A 
ATOM     71  C   UNL A   1      44.162  28.075  35.712  1.00  0.00     0.009 A 
ATOM     72  C   UNL A   1      46.691  29.067  35.077  1.00  0.00     0.001 A 
ATOM     73  C   UNL A   1      45.294  27.555  36.341  1.00  0.00     0.001 A 
ATOM     74  C   UNL A   1      46.558  28.042  36.012  1.00  0.00     0.000 A 
ENDBRANCH  56  69
ENDBRANCH  30  31
ENDBRANCH  22  25
ENDBRANCH  20  21
ENDBRANCH  19  20
ENDBRANCH   1  19
TORSDOF 14
ENDMDL
