MODEL 1
REMARK VINA RESULT:     -10.7      0.000      0.000
REMARK SMILES C[N@H+]1CCO[C@@H](C[N@H+]2CCCC[C@@H]2CCC(=O)NCCCCNC(=O)c2ccc(-c3c4nc(c(-c5ccccc5)c5ccc([nH]5)c(-c5ccccc5)c5nc(c(-c6ccccc6)c6ccc3[nH]6)C=C5)C=C4)cc2)C1
REMARK SMILES IDX 19 1 18 2 16 3 17 4 15 6 14 7 13 8 8 9 9 10 10 12 12 13
REMARK SMILES IDX 11 14 7 15 6 16 1 17 2 18 3 19 74 20 4 22 5 23 20 24 21 25
REMARK SMILES IDX 22 26 23 27 24 28 25 30 26 31 27 32 73 33 28 34 72 35 29 36
REMARK SMILES IDX 30 37 31 38 66 39 32 40 71 41 65 42 67 43 33 44 70 45 64 46
REMARK SMILES IDX 63 47 34 49 56 50 41 51 55 52 42 53 45 54 54 55 68 56 43 57
REMARK SMILES IDX 44 58 53 60 69 61 46 62 35 63 36 64 40 65 37 66 39 67 38 68
REMARK SMILES IDX 57 69 58 70 62 71 59 72 61 73 60 74 47 75 48 76 52 77 49 78
REMARK SMILES IDX 51 79 50 80
REMARK H PARENT 18 5 8 11 2 21 23 29 67 48 45 59
REMARK Flexibility Score: inf
ROOT
ATOM      1  C   UNL A   1      39.533  21.372  25.974  1.00  0.00     0.116 C 
ENDROOT
BRANCH   1   2
ATOM      2  N   UNL A   1      39.195  22.667  26.529  1.00  0.00    -0.356 N 
ATOM      3  C   UNL A   1      38.138  23.464  26.179  1.00  0.00     0.220 C 
ATOM      4  O   UNL A   1      38.124  24.631  26.571  1.00  0.00    -0.275 OA
ATOM      5  H   UNL A   1      39.790  23.012  27.234  1.00  0.00     0.163 HD
BRANCH   3   6
ATOM      6  C   UNL A   1      36.979  22.870  25.391  1.00  0.00     0.106 C 
BRANCH   6   7
ATOM      7  C   UNL A   1      35.628  22.859  26.124  1.00  0.00     0.075 C 
BRANCH   7   8
ATOM      8  C   UNL A   1      34.931  21.457  26.228  1.00  0.00     0.184 C 
ATOM      9  N   UNL A   1      34.557  20.903  24.910  1.00  0.00    -0.330 N 
ATOM     10  C   UNL A   1      33.484  21.638  24.248  1.00  0.00     0.262 C 
ATOM     11  H   UNL A   1      35.364  21.084  24.311  1.00  0.00     0.348 HD
ATOM     12  C   UNL A   1      32.234  21.826  25.110  1.00  0.00     0.062 C 
ATOM     13  C   UNL A   1      33.693  21.525  27.139  1.00  0.00     0.065 C 
ATOM     14  C   UNL A   1      32.564  22.334  26.509  1.00  0.00     0.012 C 
BRANCH   9  15
ATOM     15  C   UNL A   1      34.489  19.425  24.841  1.00  0.00     0.300 C 
BRANCH  15  16
ATOM     16  C   UNL A   1      33.438  18.604  24.047  1.00  0.00     0.228 C 
ATOM     17  C   UNL A   1      35.234  16.082  25.146  1.00  0.00     0.332 C 
ATOM     18  N   UNL A   1      34.001  16.097  24.371  1.00  0.00    -0.333 N 
ATOM     19  C   UNL A   1      32.801  16.028  25.222  1.00  0.00     0.290 C 
ATOM     20  C   UNL A   1      33.875  17.242  23.449  1.00  0.00     0.300 C 
ATOM     21  H   UNL A   1      34.062  15.253  23.802  1.00  0.00     0.348 HD
ATOM     22  C   UNL A   1      32.416  17.375  25.852  1.00  0.00     0.222 C 
ATOM     23  O   UNL A   1      32.254  18.406  24.867  1.00  0.00    -0.361 OA
ENDBRANCH  15  16
ENDBRANCH   9  15
ENDBRANCH   7   8
ENDBRANCH   6   7
ENDBRANCH   3   6
ENDBRANCH   1   2
BRANCH   1  24
ATOM     24  C   UNL A   1      40.843  20.893  26.581  1.00  0.00     0.023 C 
BRANCH  24  25
ATOM     25  C   UNL A   1      41.371  19.589  26.006  1.00  0.00     0.023 C 
BRANCH  25  26
ATOM     26  C   UNL A   1      42.843  19.383  26.294  1.00  0.00     0.116 C 
BRANCH  26  27
ATOM     27  N   UNL A   1      43.605  18.875  25.158  1.00  0.00    -0.352 N 
ATOM     28  C   UNL A   1      44.542  19.522  24.384  1.00  0.00     0.251 C 
ATOM     29  H   UNL A   1      43.424  17.939  24.909  1.00  0.00     0.163 HD
ATOM     30  O   UNL A   1      45.054  18.959  23.423  1.00  0.00    -0.269 OA
BRANCH  28  31
ATOM     31  C   UNL A   1      44.868  20.935  24.673  1.00  0.00     0.039 A 
ATOM     32  C   UNL A   1      44.328  21.936  23.862  1.00  0.00     0.014 A 
ATOM     33  C   UNL A   1      45.628  21.273  25.792  1.00  0.00     0.014 A 
ATOM     34  C   UNL A   1      44.471  23.274  24.234  1.00  0.00     0.010 A 
ATOM     35  C   UNL A   1      45.645  22.585  26.234  1.00  0.00     0.010 A 
ATOM     36  C   UNL A   1      45.085  23.605  25.452  1.00  0.00    -0.014 A 
BRANCH  36  37
ATOM     37  C   UNL A   1      45.192  25.004  25.932  1.00  0.00     0.031 A 
ATOM     38  C   UNL A   1      46.519  25.711  25.862  1.00  0.00     0.074 A 
ATOM     39  C   UNL A   1      44.140  25.598  26.529  1.00  0.00     0.049 A 
ATOM     40  N   UNL A   1      46.869  26.868  26.363  1.00  0.00    -0.248 NA
ATOM     41  C   UNL A   1      47.618  24.992  25.192  1.00  0.00     0.031 C 
ATOM     42  C   UNL A   1      42.822  24.995  26.736  1.00  0.00     0.029 A 
ATOM     43  N   UNL A   1      44.025  26.845  27.087  1.00  0.00    -0.354 N 
ATOM     44  C   UNL A   1      48.232  26.983  26.118  1.00  0.00     0.074 A 
ATOM     45  C   UNL A   1      48.657  25.755  25.488  1.00  0.00     0.031 C 
ATOM     46  C   UNL A   1      42.021  25.887  27.343  1.00  0.00     0.029 A 
ATOM     47  C   UNL A   1      42.779  27.106  27.601  1.00  0.00     0.049 A 
ATOM     48  H   UNL A   1      44.767  27.493  27.116  1.00  0.00     0.167 HD
ATOM     49  C   UNL A   1      49.055  28.030  26.363  1.00  0.00     0.031 A 
ATOM     50  C   UNL A   1      42.301  28.205  28.211  1.00  0.00     0.031 A 
ATOM     51  C   UNL A   1      48.618  29.274  26.931  1.00  0.00     0.049 A 
ATOM     52  C   UNL A   1      43.205  29.391  28.394  1.00  0.00     0.074 A 
ATOM     53  C   UNL A   1      49.346  30.431  27.142  1.00  0.00     0.029 A 
ATOM     54  N   UNL A   1      47.324  29.527  27.361  1.00  0.00    -0.354 N 
ATOM     55  N   UNL A   1      44.476  29.512  28.096  1.00  0.00    -0.248 NA
ATOM     56  C   UNL A   1      42.603  30.597  28.978  1.00  0.00     0.031 C 
ATOM     57  C   UNL A   1      48.496  31.378  27.725  1.00  0.00     0.029 A 
ATOM     58  C   UNL A   1      47.231  30.821  27.837  1.00  0.00     0.049 A 
ATOM     59  H   UNL A   1      46.583  28.880  27.331  1.00  0.00     0.167 HD
ATOM     60  C   UNL A   1      44.822  30.813  28.437  1.00  0.00     0.074 A 
ATOM     61  C   UNL A   1      43.622  31.445  28.947  1.00  0.00     0.031 C 
ATOM     62  C   UNL A   1      46.025  31.429  28.339  1.00  0.00     0.031 A 
BRANCH  49  63
ATOM     63  C   UNL A   1      50.504  27.859  25.998  1.00  0.00    -0.014 A 
ATOM     64  C   UNL A   1      50.985  28.240  24.733  1.00  0.00     0.009 A 
ATOM     65  C   UNL A   1      51.395  27.290  26.918  1.00  0.00     0.009 A 
ATOM     66  C   UNL A   1      52.314  27.997  24.378  1.00  0.00     0.001 A 
ATOM     67  C   UNL A   1      52.732  27.081  26.573  1.00  0.00     0.001 A 
ATOM     68  C   UNL A   1      53.186  27.419  25.299  1.00  0.00     0.000 A 
ENDBRANCH  49  63
BRANCH  50  69
ATOM     69  C   UNL A   1      40.883  28.249  28.648  1.00  0.00    -0.014 A 
ATOM     70  C   UNL A   1      40.520  27.778  29.920  1.00  0.00     0.009 A 
ATOM     71  C   UNL A   1      39.890  28.785  27.814  1.00  0.00     0.009 A 
ATOM     72  C   UNL A   1      39.188  27.822  30.338  1.00  0.00     0.001 A 
ATOM     73  C   UNL A   1      38.564  28.850  28.245  1.00  0.00     0.001 A 
ATOM     74  C   UNL A   1      38.212  28.363  29.503  1.00  0.00     0.000 A 
ENDBRANCH  50  69
BRANCH  62  75
ATOM     75  C   UNL A   1      46.093  32.867  28.761  1.00  0.00    -0.014 A 
ATOM     76  C   UNL A   1      46.430  33.221  30.077  1.00  0.00     0.009 A 
ATOM     77  C   UNL A   1      45.860  33.879  27.818  1.00  0.00     0.009 A 
ATOM     78  C   UNL A   1      46.501  34.566  30.446  1.00  0.00     0.001 A 
ATOM     79  C   UNL A   1      45.957  35.221  28.184  1.00  0.00     0.001 A 
ATOM     80  C   UNL A   1      46.269  35.564  29.499  1.00  0.00     0.000 A 
ENDBRANCH  62  75
ENDBRANCH  36  37
ENDBRANCH  28  31
ENDBRANCH  26  27
ENDBRANCH  25  26
ENDBRANCH  24  25
ENDBRANCH   1  24
TORSDOF 15
ENDMDL
MODEL 2
REMARK VINA RESULT:     -10.6      6.817     11.987
REMARK SMILES C[N@H+]1CCO[C@@H](C[N@H+]2CCCC[C@@H]2CCC(=O)NCCCCNC(=O)c2ccc(-c3c4nc(c(-c5ccccc5)c5ccc([nH]5)c(-c5ccccc5)c5nc(c(-c6ccccc6)c6ccc3[nH]6)C=C5)C=C4)cc2)C1
REMARK SMILES IDX 19 1 18 2 16 3 17 4 15 6 14 7 13 8 8 9 9 10 10 12 12 13
REMARK SMILES IDX 11 14 7 15 6 16 1 17 2 18 3 19 74 20 4 22 5 23 20 24 21 25
REMARK SMILES IDX 22 26 23 27 24 28 25 30 26 31 27 32 73 33 28 34 72 35 29 36
REMARK SMILES IDX 30 37 31 38 66 39 32 40 71 41 65 42 67 43 33 44 70 45 64 46
REMARK SMILES IDX 63 47 34 49 56 50 41 51 55 52 42 53 45 54 54 55 68 56 43 57
REMARK SMILES IDX 44 58 53 60 69 61 46 62 35 63 36 64 40 65 37 66 39 67 38 68
REMARK SMILES IDX 57 69 58 70 62 71 59 72 61 73 60 74 47 75 48 76 52 77 49 78
REMARK SMILES IDX 51 79 50 80
REMARK H PARENT 18 5 8 11 2 21 23 29 67 48 45 59
REMARK Flexibility Score: inf
ROOT
ATOM      1  C   UNL A   1      33.900  32.032  28.007  1.00  0.00     0.116 C 
ENDROOT
BRANCH   1   2
ATOM      2  N   UNL A   1      35.119  31.316  27.690  1.00  0.00    -0.356 N 
ATOM      3  C   UNL A   1      35.263  29.963  27.532  1.00  0.00     0.220 C 
ATOM      4  O   UNL A   1      36.400  29.491  27.501  1.00  0.00    -0.275 OA
ATOM      5  H   UNL A   1      35.931  31.860  27.576  1.00  0.00     0.163 HD
BRANCH   3   6
ATOM      6  C   UNL A   1      34.030  29.096  27.320  1.00  0.00     0.106 C 
BRANCH   6   7
ATOM      7  C   UNL A   1      34.020  28.283  26.016  1.00  0.00     0.075 C 
BRANCH   7   8
ATOM      8  C   UNL A   1      33.426  26.835  26.131  1.00  0.00     0.184 C 
ATOM      9  N   UNL A   1      33.726  25.997  24.951  1.00  0.00    -0.330 N 
ATOM     10  C   UNL A   1      33.038  26.425  23.738  1.00  0.00     0.262 C 
ATOM     11  H   UNL A   1      34.707  26.185  24.739  1.00  0.00     0.348 HD
ATOM     12  C   UNL A   1      31.525  26.576  23.900  1.00  0.00     0.062 C 
ATOM     13  C   UNL A   1      31.907  26.881  26.370  1.00  0.00     0.065 C 
ATOM     14  C   UNL A   1      31.151  27.378  25.141  1.00  0.00     0.012 C 
BRANCH   9  15
ATOM     15  C   UNL A   1      33.775  24.539  25.207  1.00  0.00     0.300 C 
BRANCH  15  16
ATOM     16  C   UNL A   1      33.617  23.858  26.594  1.00  0.00     0.228 C 
ATOM     17  C   UNL A   1      32.033  21.601  24.808  1.00  0.00     0.332 C 
ATOM     18  N   UNL A   1      32.367  21.620  26.226  1.00  0.00    -0.333 N 
ATOM     19  C   UNL A   1      33.651  20.958  26.510  1.00  0.00     0.290 C 
ATOM     20  C   UNL A   1      32.373  22.965  26.831  1.00  0.00     0.300 C 
ATOM     21  H   UNL A   1      31.610  21.093  26.660  1.00  0.00     0.348 HD
ATOM     22  C   UNL A   1      34.876  21.837  26.214  1.00  0.00     0.222 C 
ATOM     23  O   UNL A   1      34.816  23.095  26.901  1.00  0.00    -0.361 OA
ENDBRANCH  15  16
ENDBRANCH   9  15
ENDBRANCH   7   8
ENDBRANCH   6   7
ENDBRANCH   3   6
ENDBRANCH   1   2
BRANCH   1  24
ATOM     24  C   UNL A   1      34.252  33.332  28.714  1.00  0.00     0.023 C 
BRANCH  24  25
ATOM     25  C   UNL A   1      33.160  34.389  28.682  1.00  0.00     0.023 C 
BRANCH  25  26
ATOM     26  C   UNL A   1      33.556  35.652  29.418  1.00  0.00     0.116 C 
BRANCH  26  27
ATOM     27  N   UNL A   1      32.602  36.065  30.442  1.00  0.00    -0.352 N 
ATOM     28  C   UNL A   1      32.646  35.855  31.802  1.00  0.00     0.251 C 
ATOM     29  H   UNL A   1      31.817  36.563  30.116  1.00  0.00     0.163 HD
ATOM     30  O   UNL A   1      31.725  36.226  32.521  1.00  0.00    -0.269 OA
BRANCH  28  31
ATOM     31  C   UNL A   1      33.779  35.103  32.382  1.00  0.00     0.039 A 
ATOM     32  C   UNL A   1      33.600  33.758  32.718  1.00  0.00     0.014 A 
ATOM     33  C   UNL A   1      35.034  35.696  32.508  1.00  0.00     0.014 A 
ATOM     34  C   UNL A   1      34.706  32.989  33.087  1.00  0.00     0.010 A 
ATOM     35  C   UNL A   1      36.145  34.901  32.732  1.00  0.00     0.010 A 
ATOM     36  C   UNL A   1      35.994  33.542  33.043  1.00  0.00    -0.014 A 
BRANCH  36  37
ATOM     37  C   UNL A   1      37.209  32.748  33.347  1.00  0.00     0.031 A 
ATOM     38  C   UNL A   1      37.946  32.985  34.639  1.00  0.00     0.074 A 
ATOM     39  C   UNL A   1      37.714  31.903  32.428  1.00  0.00     0.049 A 
ATOM     40  N   UNL A   1      39.103  32.518  35.031  1.00  0.00    -0.248 NA
ATOM     41  C   UNL A   1      37.325  33.924  35.592  1.00  0.00     0.031 C 
ATOM     42  C   UNL A   1      37.146  31.641  31.103  1.00  0.00     0.029 A 
ATOM     43  N   UNL A   1      38.837  31.116  32.467  1.00  0.00    -0.354 N 
ATOM     44  C   UNL A   1      39.368  33.149  36.241  1.00  0.00     0.074 A 
ATOM     45  C   UNL A   1      38.290  34.078  36.483  1.00  0.00     0.031 C 
ATOM     46  C   UNL A   1      37.903  30.729  30.472  1.00  0.00     0.029 A 
ATOM     47  C   UNL A   1      39.028  30.372  31.329  1.00  0.00     0.049 A 
ATOM     48  H   UNL A   1      39.448  31.087  33.239  1.00  0.00     0.167 HD
ATOM     49  C   UNL A   1      40.400  32.951  37.095  1.00  0.00     0.031 A 
ATOM     50  C   UNL A   1      40.000  29.498  31.013  1.00  0.00     0.031 A 
ATOM     51  C   UNL A   1      41.437  31.981  36.884  1.00  0.00     0.049 A 
ATOM     52  C   UNL A   1      41.090  29.225  32.012  1.00  0.00     0.074 A 
ATOM     53  C   UNL A   1      42.482  31.634  37.722  1.00  0.00     0.029 A 
ATOM     54  N   UNL A   1      41.547  31.185  35.753  1.00  0.00    -0.354 N 
ATOM     55  N   UNL A   1      41.294  29.779  33.182  1.00  0.00    -0.248 NA
ATOM     56  C   UNL A   1      42.070  28.191  31.652  1.00  0.00     0.031 C 
ATOM     57  C   UNL A   1      43.239  30.644  37.086  1.00  0.00     0.029 A 
ATOM     58  C   UNL A   1      42.642  30.348  35.870  1.00  0.00     0.049 A 
ATOM     59  H   UNL A   1      40.937  31.212  34.981  1.00  0.00     0.167 HD
ATOM     60  C   UNL A   1      42.412  29.148  33.710  1.00  0.00     0.074 A 
ATOM     61  C   UNL A   1      42.831  28.157  32.738  1.00  0.00     0.031 C 
ATOM     62  C   UNL A   1      43.038  29.369  34.891  1.00  0.00     0.031 A 
BRANCH  49  63
ATOM     63  C   UNL A   1      40.432  33.799  38.336  1.00  0.00    -0.014 A 
ATOM     64  C   UNL A   1      39.790  33.387  39.516  1.00  0.00     0.009 A 
ATOM     65  C   UNL A   1      41.090  35.037  38.321  1.00  0.00     0.009 A 
ATOM     66  C   UNL A   1      39.756  34.223  40.634  1.00  0.00     0.001 A 
ATOM     67  C   UNL A   1      41.085  35.856  39.452  1.00  0.00     0.001 A 
ATOM     68  C   UNL A   1      40.404  35.456  40.601  1.00  0.00     0.000 A 
ENDBRANCH  49  63
BRANCH  50  69
ATOM     69  C   UNL A   1      39.958  28.785  29.711  1.00  0.00    -0.014 A 
ATOM     70  C   UNL A   1      40.539  29.361  28.570  1.00  0.00     0.009 A 
ATOM     71  C   UNL A   1      39.365  27.518  29.606  1.00  0.00     0.009 A 
ATOM     72  C   UNL A   1      40.507  28.692  27.345  1.00  0.00     0.001 A 
ATOM     73  C   UNL A   1      39.356  26.841  28.385  1.00  0.00     0.001 A 
ATOM     74  C   UNL A   1      39.921  27.431  27.254  1.00  0.00     0.000 A 
ENDBRANCH  50  69
BRANCH  62  75
ATOM     75  C   UNL A   1      44.221  28.504  35.210  1.00  0.00    -0.014 A 
ATOM     76  C   UNL A   1      44.064  27.274  35.869  1.00  0.00     0.009 A 
ATOM     77  C   UNL A   1      45.504  28.905  34.807  1.00  0.00     0.009 A 
ATOM     78  C   UNL A   1      45.177  26.477  36.144  1.00  0.00     0.001 A 
ATOM     79  C   UNL A   1      46.610  28.095  35.062  1.00  0.00     0.001 A 
ATOM     80  C   UNL A   1      46.447  26.886  35.737  1.00  0.00     0.000 A 
ENDBRANCH  62  75
ENDBRANCH  36  37
ENDBRANCH  28  31
ENDBRANCH  26  27
ENDBRANCH  25  26
ENDBRANCH  24  25
ENDBRANCH   1  24
TORSDOF 15
ENDMDL
MODEL 3
REMARK VINA RESULT:     -10.6      2.024      6.461
REMARK SMILES C[N@H+]1CCO[C@@H](C[N@H+]2CCCC[C@@H]2CCC(=O)NCCCCNC(=O)c2ccc(-c3c4nc(c(-c5ccccc5)c5ccc([nH]5)c(-c5ccccc5)c5nc(c(-c6ccccc6)c6ccc3[nH]6)C=C5)C=C4)cc2)C1
REMARK SMILES IDX 19 1 18 2 16 3 17 4 15 6 14 7 13 8 8 9 9 10 10 12 12 13
REMARK SMILES IDX 11 14 7 15 6 16 1 17 2 18 3 19 74 20 4 22 5 23 20 24 21 25
REMARK SMILES IDX 22 26 23 27 24 28 25 30 26 31 27 32 73 33 28 34 72 35 29 36
REMARK SMILES IDX 30 37 31 38 66 39 32 40 71 41 65 42 67 43 33 44 70 45 64 46
REMARK SMILES IDX 63 47 34 49 56 50 41 51 55 52 42 53 45 54 54 55 68 56 43 57
REMARK SMILES IDX 44 58 53 60 69 61 46 62 35 63 36 64 40 65 37 66 39 67 38 68
REMARK SMILES IDX 57 69 58 70 62 71 59 72 61 73 60 74 47 75 48 76 52 77 49 78
REMARK SMILES IDX 51 79 50 80
REMARK H PARENT 18 5 8 11 2 21 23 29 67 48 45 59
REMARK Flexibility Score: inf
ROOT
ATOM      1  C   UNL A   1      37.589  22.266  25.703  1.00  0.00     0.116 C 
ENDROOT
BRANCH   1   2
ATOM      2  N   UNL A   1      36.991  23.565  25.467  1.00  0.00    -0.356 N 
ATOM      3  C   UNL A   1      35.721  23.960  25.791  1.00  0.00     0.220 C 
ATOM      4  O   UNL A   1      35.289  25.009  25.314  1.00  0.00    -0.275 OA
ATOM      5  H   UNL A   1      37.560  24.237  25.027  1.00  0.00     0.163 HD
BRANCH   3   6
ATOM      6  C   UNL A   1      34.911  23.140  26.786  1.00  0.00     0.106 C 
BRANCH   6   7
ATOM      7  C   UNL A   1      33.423  22.977  26.441  1.00  0.00     0.075 C 
BRANCH   7   8
ATOM      8  C   UNL A   1      32.992  21.539  25.986  1.00  0.00     0.184 C 
ATOM      9  N   UNL A   1      33.895  20.964  24.967  1.00  0.00    -0.330 N 
ATOM     10  C   UNL A   1      33.826  21.638  23.675  1.00  0.00     0.262 C 
ATOM     11  H   UNL A   1      34.836  21.190  25.294  1.00  0.00     0.348 HD
ATOM     12  C   UNL A   1      32.409  21.757  23.109  1.00  0.00     0.062 C 
ATOM     13  C   UNL A   1      31.545  21.538  25.464  1.00  0.00     0.065 C 
ATOM     14  C   UNL A   1      31.415  22.283  24.139  1.00  0.00     0.012 C 
BRANCH   9  15
ATOM     15  C   UNL A   1      33.960  19.485  24.941  1.00  0.00     0.300 C 
BRANCH  15  16
ATOM     16  C   UNL A   1      33.076  18.555  24.067  1.00  0.00     0.228 C 
ATOM     17  C   UNL A   1      35.289  16.314  25.000  1.00  0.00     0.332 C 
ATOM     18  N   UNL A   1      34.077  16.171  24.205  1.00  0.00    -0.333 N 
ATOM     19  C   UNL A   1      32.905  15.822  25.026  1.00  0.00     0.290 C 
ATOM     20  C   UNL A   1      33.753  17.345  23.373  1.00  0.00     0.300 C 
ATOM     21  H   UNL A   1      34.291  15.399  23.573  1.00  0.00     0.348 HD
ATOM     22  C   UNL A   1      32.282  17.025  25.751  1.00  0.00     0.222 C 
ATOM     23  O   UNL A   1      31.943  18.085  24.846  1.00  0.00    -0.361 OA
ENDBRANCH  15  16
ENDBRANCH   9  15
ENDBRANCH   7   8
ENDBRANCH   6   7
ENDBRANCH   3   6
ENDBRANCH   1   2
BRANCH   1  24
ATOM     24  C   UNL A   1      37.404  21.398  24.467  1.00  0.00     0.023 C 
BRANCH  24  25
ATOM     25  C   UNL A   1      37.870  19.960  24.624  1.00  0.00     0.023 C 
BRANCH  25  26
ATOM     26  C   UNL A   1      38.623  19.734  25.918  1.00  0.00     0.116 C 
BRANCH  26  27
ATOM     27  N   UNL A   1      39.884  19.018  25.753  1.00  0.00    -0.352 N 
ATOM     28  C   UNL A   1      41.164  19.439  26.040  1.00  0.00     0.251 C 
ATOM     29  H   UNL A   1      39.810  18.107  25.385  1.00  0.00     0.163 HD
ATOM     30  O   UNL A   1      42.127  18.723  25.787  1.00  0.00    -0.269 OA
BRANCH  28  31
ATOM     31  C   UNL A   1      41.374  20.798  26.581  1.00  0.00     0.039 A 
ATOM     32  C   UNL A   1      41.606  20.955  27.950  1.00  0.00     0.014 A 
ATOM     33  C   UNL A   1      41.432  21.900  25.730  1.00  0.00     0.014 A 
ATOM     34  C   UNL A   1      41.992  22.203  28.443  1.00  0.00     0.010 A 
ATOM     35  C   UNL A   1      41.953  23.095  26.195  1.00  0.00     0.010 A 
ATOM     36  C   UNL A   1      42.220  23.269  27.560  1.00  0.00    -0.014 A 
BRANCH  36  37
ATOM     37  C   UNL A   1      42.708  24.591  28.022  1.00  0.00     0.031 A 
ATOM     38  C   UNL A   1      41.714  25.675  28.347  1.00  0.00     0.074 A 
ATOM     39  C   UNL A   1      44.028  24.858  28.041  1.00  0.00     0.049 A 
ATOM     40  N   UNL A   1      41.923  26.938  28.616  1.00  0.00    -0.248 NA
ATOM     41  C   UNL A   1      40.289  25.300  28.304  1.00  0.00     0.031 C 
ATOM     42  C   UNL A   1      45.095  23.925  27.671  1.00  0.00     0.029 A 
ATOM     43  N   UNL A   1      44.696  26.008  28.377  1.00  0.00    -0.354 N 
ATOM     44  C   UNL A   1      40.662  27.511  28.715  1.00  0.00     0.074 A 
ATOM     45  C   UNL A   1      39.699  26.479  28.411  1.00  0.00     0.031 C 
ATOM     46  C   UNL A   1      46.284  24.528  27.833  1.00  0.00     0.029 A 
ATOM     47  C   UNL A   1      46.062  25.899  28.281  1.00  0.00     0.049 A 
ATOM     48  H   UNL A   1      44.240  26.833  28.658  1.00  0.00     0.167 HD
ATOM     49  C   UNL A   1      40.328  28.777  29.061  1.00  0.00     0.031 A 
ATOM     50  C   UNL A   1      47.027  26.802  28.530  1.00  0.00     0.031 A 
ATOM     51  C   UNL A   1      41.283  29.785  29.425  1.00  0.00     0.049 A 
ATOM     52  C   UNL A   1      46.639  28.176  28.999  1.00  0.00     0.074 A 
ATOM     53  C   UNL A   1      41.054  31.072  29.876  1.00  0.00     0.029 A 
ATOM     54  N   UNL A   1      42.658  29.607  29.397  1.00  0.00    -0.354 N 
ATOM     55  N   UNL A   1      45.441  28.687  29.153  1.00  0.00    -0.248 NA
ATOM     56  C   UNL A   1      47.736  29.088  29.347  1.00  0.00     0.031 C 
ATOM     57  C   UNL A   1      42.294  31.683  30.097  1.00  0.00     0.029 A 
ATOM     58  C   UNL A   1      43.292  30.760  29.822  1.00  0.00     0.049 A 
ATOM     59  H   UNL A   1      43.115  28.781  29.116  1.00  0.00     0.167 HD
ATOM     60  C   UNL A   1      45.638  29.973  29.636  1.00  0.00     0.074 A 
ATOM     61  C   UNL A   1      47.070  30.157  29.766  1.00  0.00     0.031 C 
ATOM     62  C   UNL A   1      44.718  30.919  29.944  1.00  0.00     0.031 A 
BRANCH  49  63
ATOM     63  C   UNL A   1      38.863  29.118  29.070  1.00  0.00    -0.014 A 
ATOM     64  C   UNL A   1      38.224  29.612  27.920  1.00  0.00     0.009 A 
ATOM     65  C   UNL A   1      38.116  28.968  30.247  1.00  0.00     0.009 A 
ATOM     66  C   UNL A   1      36.885  30.005  27.966  1.00  0.00     0.001 A 
ATOM     67  C   UNL A   1      36.768  29.328  30.281  1.00  0.00     0.001 A 
ATOM     68  C   UNL A   1      36.158  29.862  29.147  1.00  0.00     0.000 A 
ENDBRANCH  49  63
BRANCH  50  69
ATOM     69  C   UNL A   1      48.454  26.417  28.383  1.00  0.00    -0.014 A 
ATOM     70  C   UNL A   1      49.117  26.612  27.161  1.00  0.00     0.009 A 
ATOM     71  C   UNL A   1      49.168  25.882  29.467  1.00  0.00     0.009 A 
ATOM     72  C   UNL A   1      50.461  26.257  27.021  1.00  0.00     0.001 A 
ATOM     73  C   UNL A   1      50.517  25.551  29.330  1.00  0.00     0.001 A 
ATOM     74  C   UNL A   1      51.161  25.732  28.106  1.00  0.00     0.000 A 
ENDBRANCH  50  69
BRANCH  62  75
ATOM     75  C   UNL A   1      45.230  32.223  30.479  1.00  0.00    -0.014 A 
ATOM     76  C   UNL A   1      45.435  32.413  31.855  1.00  0.00     0.009 A 
ATOM     77  C   UNL A   1      45.553  33.260  29.589  1.00  0.00     0.009 A 
ATOM     78  C   UNL A   1      45.927  33.630  32.330  1.00  0.00     0.001 A 
ATOM     79  C   UNL A   1      46.066  34.465  30.067  1.00  0.00     0.001 A 
ATOM     80  C   UNL A   1      46.245  34.653  31.437  1.00  0.00     0.000 A 
ENDBRANCH  62  75
ENDBRANCH  36  37
ENDBRANCH  28  31
ENDBRANCH  26  27
ENDBRANCH  25  26
ENDBRANCH  24  25
ENDBRANCH   1  24
TORSDOF 15
ENDMDL
