MODEL 1
REMARK VINA RESULT:     -10.8      0.000      0.000
REMARK SMILES C[C@@H](C(=O)[C@H](C)[C@@H](C)C(=O)NCCCCNC(=O)c1ccc(-c2c3nc(c(-c4ccccc4)c4ccc([nH]4)c(-c4ccccc4)c4nc(c(-c5ccccc5)c5ccc2[nH]5)C=C4)C=C3)cc1)c1ccccc1
REMARK SMILES IDX 12 1 11 2 9 3 10 4 7 6 8 7 5 8 6 9 3 10 4 11 2 12 1 13 67 14
REMARK SMILES IDX 68 15 72 16 69 17 71 18 70 19 13 20 14 21 15 22 16 23 17 24
REMARK SMILES IDX 18 26 19 27 20 28 66 29 21 30 65 31 22 32 23 33 24 34 59 35
REMARK SMILES IDX 25 36 64 37 58 38 60 39 26 40 63 41 57 42 56 43 27 45 49 46
REMARK SMILES IDX 34 47 48 48 35 49 38 50 47 51 61 52 36 53 37 54 46 56 62 57
REMARK SMILES IDX 39 58 28 59 29 60 33 61 30 62 32 63 31 64 50 65 51 66 55 67
REMARK SMILES IDX 52 68 54 69 53 70 40 71 41 72 45 73 42 74 44 75 43 76
REMARK H PARENT 11 5 16 25 60 44 38 55
REMARK Flexibility Score: inf
ROOT
ATOM      1  C   UNL A   1      32.521  26.382  25.007  1.00  0.00     0.116 C 
ENDROOT
BRANCH   1   2
ATOM      2  N   UNL A   1      31.858  25.725  26.120  1.00  0.00    -0.356 N 
ATOM      3  C   UNL A   1      31.640  24.412  26.387  1.00  0.00     0.223 C 
ATOM      4  O   UNL A   1      30.962  24.135  27.381  1.00  0.00    -0.275 OA
ATOM      5  H   UNL A   1      31.502  26.342  26.799  1.00  0.00     0.163 HD
BRANCH   3   6
ATOM      6  C   UNL A   1      32.203  23.288  25.518  1.00  0.00     0.085 C 
ATOM      7  C   UNL A   1      31.250  22.091  25.492  1.00  0.00     0.019 C 
BRANCH   6   8
ATOM      8  C   UNL A   1      33.667  22.964  25.859  1.00  0.00     0.066 C 
ATOM      9  C   UNL A   1      33.898  22.481  27.289  1.00  0.00     0.017 C 
BRANCH   8  10
ATOM     10  C   UNL A   1      34.341  22.024  24.845  1.00  0.00     0.143 C 
ATOM     11  O   UNL A   1      34.374  22.390  23.664  1.00  0.00    -0.299 OA
BRANCH  10  12
ATOM     12  C   UNL A   1      34.957  20.688  25.307  1.00  0.00     0.083 C 
ATOM     13  C   UNL A   1      36.476  20.655  25.129  1.00  0.00     0.021 C 
BRANCH  12  14
ATOM     14  C   UNL A   1      34.309  19.491  24.613  1.00  0.00    -0.038 A 
ATOM     15  C   UNL A   1      34.993  18.274  24.449  1.00  0.00     0.004 A 
ATOM     16  C   UNL A   1      33.010  19.605  24.095  1.00  0.00     0.004 A 
ATOM     17  C   UNL A   1      34.388  17.199  23.797  1.00  0.00     0.000 A 
ATOM     18  C   UNL A   1      32.407  18.527  23.443  1.00  0.00     0.000 A 
ATOM     19  C   UNL A   1      33.096  17.325  23.296  1.00  0.00     0.000 A 
ENDBRANCH  12  14
ENDBRANCH  10  12
ENDBRANCH   8  10
ENDBRANCH   6   8
ENDBRANCH   3   6
ENDBRANCH   1   2
BRANCH   1  20
ATOM     20  C   UNL A   1      33.852  27.003  25.428  1.00  0.00     0.023 C 
BRANCH  20  21
ATOM     21  C   UNL A   1      33.767  28.470  25.850  1.00  0.00     0.023 C 
BRANCH  21  22
ATOM     22  C   UNL A   1      33.545  28.704  27.340  1.00  0.00     0.116 C 
BRANCH  22  23
ATOM     23  N   UNL A   1      33.577  30.110  27.714  1.00  0.00    -0.352 N 
ATOM     24  C   UNL A   1      34.609  30.831  28.263  1.00  0.00     0.251 C 
ATOM     25  H   UNL A   1      32.746  30.614  27.551  1.00  0.00     0.163 HD
ATOM     26  O   UNL A   1      34.438  31.992  28.622  1.00  0.00    -0.269 OA
BRANCH  24  27
ATOM     27  C   UNL A   1      35.921  30.182  28.456  1.00  0.00     0.039 A 
ATOM     28  C   UNL A   1      36.831  30.172  27.397  1.00  0.00     0.014 A 
ATOM     29  C   UNL A   1      36.265  29.625  29.690  1.00  0.00     0.014 A 
ATOM     30  C   UNL A   1      38.115  29.666  27.597  1.00  0.00     0.010 A 
ATOM     31  C   UNL A   1      37.567  29.190  29.910  1.00  0.00     0.010 A 
ATOM     32  C   UNL A   1      38.505  29.207  28.866  1.00  0.00    -0.014 A 
BRANCH  32  33
ATOM     33  C   UNL A   1      39.892  28.748  29.126  1.00  0.00     0.031 A 
ATOM     34  C   UNL A   1      40.887  29.676  29.763  1.00  0.00     0.074 A 
ATOM     35  C   UNL A   1      40.273  27.519  28.727  1.00  0.00     0.049 A 
ATOM     36  N   UNL A   1      42.157  29.479  30.011  1.00  0.00    -0.248 NA
ATOM     37  C   UNL A   1      40.400  31.011  30.145  1.00  0.00     0.031 C 
ATOM     38  C   UNL A   1      39.414  26.538  28.058  1.00  0.00     0.029 A 
ATOM     39  N   UNL A   1      41.487  26.887  28.819  1.00  0.00    -0.354 N 
ATOM     40  C   UNL A   1      42.623  30.667  30.560  1.00  0.00     0.074 A 
ATOM     41  C   UNL A   1      41.513  31.596  30.563  1.00  0.00     0.031 C 
ATOM     42  C   UNL A   1      40.122  25.421  27.826  1.00  0.00     0.029 A 
ATOM     43  C   UNL A   1      41.491  25.619  28.290  1.00  0.00     0.049 A 
ATOM     44  H   UNL A   1      42.282  27.304  29.225  1.00  0.00     0.167 HD
ATOM     45  C   UNL A   1      43.856  30.955  31.039  1.00  0.00     0.031 A 
ATOM     46  C   UNL A   1      42.486  24.719  28.185  1.00  0.00     0.031 A 
ATOM     47  C   UNL A   1      44.956  30.029  31.048  1.00  0.00     0.049 A 
ATOM     48  C   UNL A   1      43.849  25.066  28.716  1.00  0.00     0.074 A 
ATOM     49  C   UNL A   1      46.228  30.207  31.564  1.00  0.00     0.029 A 
ATOM     50  N   UNL A   1      44.915  28.750  30.513  1.00  0.00    -0.354 N 
ATOM     51  N   UNL A   1      44.254  26.170  29.296  1.00  0.00    -0.248 NA
ATOM     52  C   UNL A   1      44.890  24.036  28.586  1.00  0.00     0.031 C 
ATOM     53  C   UNL A   1      46.972  29.052  31.297  1.00  0.00     0.029 A 
ATOM     54  C   UNL A   1      46.146  28.136  30.667  1.00  0.00     0.049 A 
ATOM     55  H   UNL A   1      44.127  28.341  30.089  1.00  0.00     0.167 HD
ATOM     56  C   UNL A   1      45.586  25.957  29.625  1.00  0.00     0.074 A 
ATOM     57  C   UNL A   1      45.916  24.614  29.194  1.00  0.00     0.031 C 
ATOM     58  C   UNL A   1      46.458  26.799  30.231  1.00  0.00     0.031 A 
BRANCH  45  59
ATOM     59  C   UNL A   1      44.077  32.336  31.590  1.00  0.00    -0.014 A 
ATOM     60  C   UNL A   1      44.487  33.393  30.762  1.00  0.00     0.009 A 
ATOM     61  C   UNL A   1      43.844  32.592  32.950  1.00  0.00     0.009 A 
ATOM     62  C   UNL A   1      44.696  34.668  31.291  1.00  0.00     0.001 A 
ATOM     63  C   UNL A   1      44.024  33.875  33.471  1.00  0.00     0.001 A 
ATOM     64  C   UNL A   1      44.461  34.908  32.644  1.00  0.00     0.000 A 
ENDBRANCH  45  59
BRANCH  46  65
ATOM     65  C   UNL A   1      42.229  23.393  27.567  1.00  0.00    -0.014 A 
ATOM     66  C   UNL A   1      42.553  23.161  26.222  1.00  0.00     0.009 A 
ATOM     67  C   UNL A   1      41.656  22.353  28.316  1.00  0.00     0.009 A 
ATOM     68  C   UNL A   1      42.282  21.925  25.630  1.00  0.00     0.001 A 
ATOM     69  C   UNL A   1      41.412  21.109  27.729  1.00  0.00     0.001 A 
ATOM     70  C   UNL A   1      41.716  20.899  26.385  1.00  0.00     0.000 A 
ENDBRANCH  46  65
BRANCH  58  71
ATOM     71  C   UNL A   1      47.843  26.280  30.497  1.00  0.00    -0.014 A 
ATOM     72  C   UNL A   1      48.835  26.306  29.504  1.00  0.00     0.009 A 
ATOM     73  C   UNL A   1      48.168  25.796  31.773  1.00  0.00     0.009 A 
ATOM     74  C   UNL A   1      50.117  25.827  29.777  1.00  0.00     0.001 A 
ATOM     75  C   UNL A   1      49.458  25.343  32.052  1.00  0.00     0.001 A 
ATOM     76  C   UNL A   1      50.430  25.351  31.051  1.00  0.00     0.000 A 
ENDBRANCH  58  71
ENDBRANCH  32  33
ENDBRANCH  24  27
ENDBRANCH  22  23
ENDBRANCH  21  22
ENDBRANCH  20  21
ENDBRANCH   1  20
TORSDOF 15
ENDMDL
MODEL 2
REMARK VINA RESULT:     -10.7      2.429      7.851
REMARK SMILES C[C@@H](C(=O)[C@H](C)[C@@H](C)C(=O)NCCCCNC(=O)c1ccc(-c2c3nc(c(-c4ccccc4)c4ccc([nH]4)c(-c4ccccc4)c4nc(c(-c5ccccc5)c5ccc2[nH]5)C=C4)C=C3)cc1)c1ccccc1
REMARK SMILES IDX 12 1 11 2 9 3 10 4 7 6 8 7 5 8 6 9 3 10 4 11 2 12 1 13 67 14
REMARK SMILES IDX 68 15 72 16 69 17 71 18 70 19 13 20 14 21 15 22 16 23 17 24
REMARK SMILES IDX 18 26 19 27 20 28 66 29 21 30 65 31 22 32 23 33 24 34 59 35
REMARK SMILES IDX 25 36 64 37 58 38 60 39 26 40 63 41 57 42 56 43 27 45 49 46
REMARK SMILES IDX 34 47 48 48 35 49 38 50 47 51 61 52 36 53 37 54 46 56 62 57
REMARK SMILES IDX 39 58 28 59 29 60 33 61 30 62 32 63 31 64 50 65 51 66 55 67
REMARK SMILES IDX 52 68 54 69 53 70 40 71 41 72 45 73 42 74 44 75 43 76
REMARK H PARENT 11 5 16 25 60 44 38 55
REMARK Flexibility Score: inf
ROOT
ATOM      1  C   UNL A   1      37.649  23.684  25.891  1.00  0.00     0.116 C 
ENDROOT
BRANCH   1   2
ATOM      2  N   UNL A   1      37.437  23.482  24.469  1.00  0.00    -0.356 N 
ATOM      3  C   UNL A   1      36.325  23.147  23.766  1.00  0.00     0.223 C 
ATOM      4  O   UNL A   1      36.450  22.957  22.553  1.00  0.00    -0.275 OA
ATOM      5  H   UNL A   1      38.242  23.611  23.918  1.00  0.00     0.163 HD
BRANCH   3   6
ATOM      6  C   UNL A   1      34.948  23.008  24.415  1.00  0.00     0.085 C 
ATOM      7  C   UNL A   1      34.733  21.585  24.934  1.00  0.00     0.019 C 
BRANCH   6   8
ATOM      8  C   UNL A   1      33.824  23.569  23.527  1.00  0.00     0.066 C 
ATOM      9  C   UNL A   1      32.880  22.515  22.952  1.00  0.00     0.017 C 
BRANCH   8  10
ATOM     10  C   UNL A   1      33.037  24.715  24.182  1.00  0.00     0.143 C 
ATOM     11  O   UNL A   1      32.419  25.482  23.433  1.00  0.00    -0.299 OA
BRANCH  10  12
ATOM     12  C   UNL A   1      33.020  24.876  25.716  1.00  0.00     0.083 C 
ATOM     13  C   UNL A   1      31.897  24.072  26.373  1.00  0.00     0.021 C 
BRANCH  12  14
ATOM     14  C   UNL A   1      32.945  26.343  26.135  1.00  0.00    -0.038 A 
ATOM     15  C   UNL A   1      34.037  27.213  25.973  1.00  0.00     0.004 A 
ATOM     16  C   UNL A   1      31.774  26.841  26.725  1.00  0.00     0.004 A 
ATOM     17  C   UNL A   1      33.953  28.546  26.378  1.00  0.00     0.000 A 
ATOM     18  C   UNL A   1      31.693  28.176  27.130  1.00  0.00     0.000 A 
ATOM     19  C   UNL A   1      32.782  29.027  26.955  1.00  0.00     0.000 A 
ENDBRANCH  12  14
ENDBRANCH  10  12
ENDBRANCH   8  10
ENDBRANCH   6   8
ENDBRANCH   3   6
ENDBRANCH   1   2
BRANCH   1  20
ATOM     20  C   UNL A   1      38.841  22.879  26.406  1.00  0.00     0.023 C 
BRANCH  20  21
ATOM     21  C   UNL A   1      39.026  21.515  25.742  1.00  0.00     0.023 C 
BRANCH  21  22
ATOM     22  C   UNL A   1      39.563  20.418  26.653  1.00  0.00     0.116 C 
BRANCH  22  23
ATOM     23  N   UNL A   1      40.611  19.618  26.037  1.00  0.00    -0.352 N 
ATOM     24  C   UNL A   1      41.925  19.948  25.811  1.00  0.00     0.251 C 
ATOM     25  H   UNL A   1      40.342  18.717  25.743  1.00  0.00     0.163 HD
ATOM     26  O   UNL A   1      42.658  19.194  25.179  1.00  0.00    -0.269 OA
BRANCH  24  27
ATOM     27  C   UNL A   1      42.440  21.241  26.302  1.00  0.00     0.039 A 
ATOM     28  C   UNL A   1      42.674  22.267  25.384  1.00  0.00     0.014 A 
ATOM     29  C   UNL A   1      42.650  21.452  27.667  1.00  0.00     0.014 A 
ATOM     30  C   UNL A   1      43.051  23.529  25.842  1.00  0.00     0.010 A 
ATOM     31  C   UNL A   1      42.953  22.728  28.128  1.00  0.00     0.010 A 
ATOM     32  C   UNL A   1      43.154  23.780  27.220  1.00  0.00    -0.014 A 
BRANCH  32  33
ATOM     33  C   UNL A   1      43.466  25.136  27.735  1.00  0.00     0.031 A 
ATOM     34  C   UNL A   1      42.355  26.092  28.064  1.00  0.00     0.074 A 
ATOM     35  C   UNL A   1      44.749  25.530  27.842  1.00  0.00     0.049 A 
ATOM     36  N   UNL A   1      42.427  27.336  28.462  1.00  0.00    -0.248 NA
ATOM     37  C   UNL A   1      40.979  25.595  27.894  1.00  0.00     0.031 C 
ATOM     38  C   UNL A   1      45.920  24.712  27.514  1.00  0.00     0.029 A 
ATOM     39  N   UNL A   1      45.285  26.725  28.250  1.00  0.00    -0.354 N 
ATOM     40  C   UNL A   1      41.114  27.774  28.575  1.00  0.00     0.074 A 
ATOM     41  C   UNL A   1      40.265  26.680  28.154  1.00  0.00     0.031 C 
ATOM     42  C   UNL A   1      47.034  25.420  27.760  1.00  0.00     0.029 A 
ATOM     43  C   UNL A   1      46.659  26.751  28.223  1.00  0.00     0.049 A 
ATOM     44  H   UNL A   1      44.738  27.492  28.536  1.00  0.00     0.167 HD
ATOM     45  C   UNL A   1      40.652  28.971  29.009  1.00  0.00     0.031 A 
ATOM     46  C   UNL A   1      47.520  27.739  28.530  1.00  0.00     0.031 A 
ATOM     47  C   UNL A   1      41.494  30.055  29.439  1.00  0.00     0.049 A 
ATOM     48  C   UNL A   1      46.983  29.063  28.999  1.00  0.00     0.074 A 
ATOM     49  C   UNL A   1      41.121  31.286  29.950  1.00  0.00     0.029 A 
ATOM     50  N   UNL A   1      42.880  30.037  29.406  1.00  0.00    -0.354 N 
ATOM     51  N   UNL A   1      45.737  29.437  29.166  1.00  0.00    -0.248 NA
ATOM     52  C   UNL A   1      47.973  30.096  29.334  1.00  0.00     0.031 C 
ATOM     53  C   UNL A   1      42.282  32.031  30.180  1.00  0.00     0.029 A 
ATOM     54  C   UNL A   1      43.377  31.244  29.866  1.00  0.00     0.049 A 
ATOM     55  H   UNL A   1      43.429  29.278  29.101  1.00  0.00     0.167 HD
ATOM     56  C   UNL A   1      45.794  30.737  29.651  1.00  0.00     0.074 A 
ATOM     57  C   UNL A   1      47.197  31.081  29.767  1.00  0.00     0.031 C 
ATOM     58  C   UNL A   1      44.776  31.570  29.973  1.00  0.00     0.031 A 
BRANCH  45  59
ATOM     59  C   UNL A   1      39.162  29.168  29.033  1.00  0.00    -0.014 A 
ATOM     60  C   UNL A   1      38.418  28.946  30.202  1.00  0.00     0.009 A 
ATOM     61  C   UNL A   1      38.497  29.611  27.879  1.00  0.00     0.009 A 
ATOM     62  C   UNL A   1      37.033  29.126  30.205  1.00  0.00     0.001 A 
ATOM     63  C   UNL A   1      37.116  29.819  27.893  1.00  0.00     0.001 A 
ATOM     64  C   UNL A   1      36.385  29.565  29.053  1.00  0.00     0.000 A 
ENDBRANCH  45  59
BRANCH  46  65
ATOM     65  C   UNL A   1      48.984  27.513  28.420  1.00  0.00    -0.014 A 
ATOM     66  C   UNL A   1      49.705  26.985  29.501  1.00  0.00     0.009 A 
ATOM     67  C   UNL A   1      49.670  27.829  27.236  1.00  0.00     0.009 A 
ATOM     68  C   UNL A   1      51.087  26.803  29.411  1.00  0.00     0.001 A 
ATOM     69  C   UNL A   1      51.048  27.618  27.139  1.00  0.00     0.001 A 
ATOM     70  C   UNL A   1      51.757  27.116  28.228  1.00  0.00     0.000 A 
ENDBRANCH  46  65
BRANCH  58  71
ATOM     71  C   UNL A   1      45.142  32.924  30.515  1.00  0.00    -0.014 A 
ATOM     72  C   UNL A   1      45.287  34.034  29.669  1.00  0.00     0.009 A 
ATOM     73  C   UNL A   1      45.300  33.096  31.899  1.00  0.00     0.009 A 
ATOM     74  C   UNL A   1      45.618  35.283  30.196  1.00  0.00     0.001 A 
ATOM     75  C   UNL A   1      45.603  34.352  32.426  1.00  0.00     0.001 A 
ATOM     76  C   UNL A   1      45.771  35.443  31.573  1.00  0.00     0.000 A 
ENDBRANCH  58  71
ENDBRANCH  32  33
ENDBRANCH  24  27
ENDBRANCH  22  23
ENDBRANCH  21  22
ENDBRANCH  20  21
ENDBRANCH   1  20
TORSDOF 15
ENDMDL
MODEL 3
REMARK VINA RESULT:     -10.7      2.804      4.430
REMARK SMILES C[C@@H](C(=O)[C@H](C)[C@@H](C)C(=O)NCCCCNC(=O)c1ccc(-c2c3nc(c(-c4ccccc4)c4ccc([nH]4)c(-c4ccccc4)c4nc(c(-c5ccccc5)c5ccc2[nH]5)C=C4)C=C3)cc1)c1ccccc1
REMARK SMILES IDX 12 1 11 2 9 3 10 4 7 6 8 7 5 8 6 9 3 10 4 11 2 12 1 13 67 14
REMARK SMILES IDX 68 15 72 16 69 17 71 18 70 19 13 20 14 21 15 22 16 23 17 24
REMARK SMILES IDX 18 26 19 27 20 28 66 29 21 30 65 31 22 32 23 33 24 34 59 35
REMARK SMILES IDX 25 36 64 37 58 38 60 39 26 40 63 41 57 42 56 43 27 45 49 46
REMARK SMILES IDX 34 47 48 48 35 49 38 50 47 51 61 52 36 53 37 54 46 56 62 57
REMARK SMILES IDX 39 58 28 59 29 60 33 61 30 62 32 63 31 64 50 65 51 66 55 67
REMARK SMILES IDX 52 68 54 69 53 70 40 71 41 72 45 73 42 74 44 75 43 76
REMARK H PARENT 11 5 16 25 60 44 38 55
REMARK Flexibility Score: inf
ROOT
ATOM      1  C   UNL A   1      34.316  29.333  27.153  1.00  0.00     0.116 C 
ENDROOT
BRANCH   1   2
ATOM      2  N   UNL A   1      33.164  28.657  27.723  1.00  0.00    -0.356 N 
ATOM      3  C   UNL A   1      32.070  28.101  27.141  1.00  0.00     0.223 C 
ATOM      4  O   UNL A   1      31.188  27.660  27.884  1.00  0.00    -0.275 OA
ATOM      5  H   UNL A   1      33.178  28.593  28.705  1.00  0.00     0.163 HD
BRANCH   3   6
ATOM      6  C   UNL A   1      31.904  27.999  25.626  1.00  0.00     0.085 C 
ATOM      7  C   UNL A   1      31.321  29.293  25.054  1.00  0.00     0.019 C 
BRANCH   6   8
ATOM      8  C   UNL A   1      31.188  26.705  25.203  1.00  0.00     0.066 C 
ATOM      9  C   UNL A   1      30.087  26.895  24.162  1.00  0.00     0.017 C 
BRANCH   8  10
ATOM     10  C   UNL A   1      32.148  25.577  24.790  1.00  0.00     0.143 C 
ATOM     11  O   UNL A   1      31.763  24.413  24.952  1.00  0.00    -0.299 OA
BRANCH  10  12
ATOM     12  C   UNL A   1      33.528  25.907  24.185  1.00  0.00     0.083 C 
ATOM     13  C   UNL A   1      33.442  26.267  22.701  1.00  0.00     0.021 C 
BRANCH  12  14
ATOM     14  C   UNL A   1      34.533  24.779  24.407  1.00  0.00    -0.038 A 
ATOM     15  C   UNL A   1      35.235  24.644  25.617  1.00  0.00     0.004 A 
ATOM     16  C   UNL A   1      34.793  23.864  23.376  1.00  0.00     0.004 A 
ATOM     17  C   UNL A   1      36.161  23.614  25.792  1.00  0.00     0.000 A 
ATOM     18  C   UNL A   1      35.721  22.836  23.554  1.00  0.00     0.000 A 
ATOM     19  C   UNL A   1      36.403  22.710  24.762  1.00  0.00     0.000 A 
ENDBRANCH  12  14
ENDBRANCH  10  12
ENDBRANCH   8  10
ENDBRANCH   6   8
ENDBRANCH   3   6
ENDBRANCH   1   2
BRANCH   1  20
ATOM     20  C   UNL A   1      34.452  30.762  27.676  1.00  0.00     0.023 C 
BRANCH  20  21
ATOM     21  C   UNL A   1      33.148  31.560  27.700  1.00  0.00     0.023 C 
BRANCH  21  22
ATOM     22  C   UNL A   1      33.219  32.936  27.047  1.00  0.00     0.116 C 
BRANCH  22  23
ATOM     23  N   UNL A   1      32.720  34.006  27.898  1.00  0.00    -0.352 N 
ATOM     24  C   UNL A   1      33.267  34.512  29.052  1.00  0.00     0.251 C 
ATOM     25  H   UNL A   1      31.877  34.424  27.607  1.00  0.00     0.163 HD
ATOM     26  O   UNL A   1      32.661  35.349  29.713  1.00  0.00    -0.269 OA
BRANCH  24  27
ATOM     27  C   UNL A   1      34.576  34.010  29.513  1.00  0.00     0.039 A 
ATOM     28  C   UNL A   1      34.626  33.197  30.646  1.00  0.00     0.014 A 
ATOM     29  C   UNL A   1      35.742  34.308  28.803  1.00  0.00     0.014 A 
ATOM     30  C   UNL A   1      35.838  32.621  31.029  1.00  0.00     0.010 A 
ATOM     31  C   UNL A   1      36.933  33.675  29.141  1.00  0.00     0.010 A 
ATOM     32  C   UNL A   1      36.992  32.824  30.255  1.00  0.00    -0.014 A 
BRANCH  32  33
ATOM     33  C   UNL A   1      38.272  32.152  30.591  1.00  0.00     0.031 A 
ATOM     34  C   UNL A   1      39.245  32.806  31.529  1.00  0.00     0.074 A 
ATOM     35  C   UNL A   1      38.587  30.985  29.996  1.00  0.00     0.049 A 
ATOM     36  N   UNL A   1      40.437  32.407  31.893  1.00  0.00    -0.248 NA
ATOM     37  C   UNL A   1      38.838  34.094  32.116  1.00  0.00     0.031 C 
ATOM     38  C   UNL A   1      37.747  30.267  29.033  1.00  0.00     0.029 A 
ATOM     39  N   UNL A   1      39.705  30.198  30.111  1.00  0.00    -0.354 N 
ATOM     40  C   UNL A   1      40.928  33.398  32.733  1.00  0.00     0.074 A 
ATOM     41  C   UNL A   1      39.927  34.442  32.786  1.00  0.00     0.031 C 
ATOM     42  C   UNL A   1      38.369  29.135  28.666  1.00  0.00     0.029 A 
ATOM     43  C   UNL A   1      39.664  29.065  29.334  1.00  0.00     0.049 A 
ATOM     44  H   UNL A   1      40.466  30.425  30.693  1.00  0.00     0.167 HD
ATOM     45  C   UNL A   1      42.096  33.429  33.416  1.00  0.00     0.031 A 
ATOM     46  C   UNL A   1      40.571  28.084  29.173  1.00  0.00     0.031 A 
ATOM     47  C   UNL A   1      43.086  32.387  33.374  1.00  0.00     0.049 A 
ATOM     48  C   UNL A   1      41.865  28.147  29.935  1.00  0.00     0.074 A 
ATOM     49  C   UNL A   1      44.277  32.300  34.074  1.00  0.00     0.029 A 
ATOM     50  N   UNL A   1      43.001  31.251  32.583  1.00  0.00    -0.354 N 
ATOM     51  N   UNL A   1      42.284  29.058  30.780  1.00  0.00    -0.248 NA
ATOM     52  C   UNL A   1      42.808  27.037  29.729  1.00  0.00     0.031 C 
ATOM     53  C   UNL A   1      44.935  31.134  33.671  1.00  0.00     0.029 A 
ATOM     54  C   UNL A   1      44.129  30.468  32.763  1.00  0.00     0.049 A 
ATOM     55  H   UNL A   1      42.251  31.034  31.985  1.00  0.00     0.167 HD
ATOM     56  C   UNL A   1      43.523  28.619  31.227  1.00  0.00     0.074 A 
ATOM     57  C   UNL A   1      43.782  27.353  30.572  1.00  0.00     0.031 C 
ATOM     58  C   UNL A   1      44.371  29.212  32.102  1.00  0.00     0.031 A 
BRANCH  45  59
ATOM     59  C   UNL A   1      42.366  34.640  34.267  1.00  0.00    -0.014 A 
ATOM     60  C   UNL A   1      42.984  35.781  33.733  1.00  0.00     0.009 A 
ATOM     61  C   UNL A   1      41.968  34.650  35.613  1.00  0.00     0.009 A 
ATOM     62  C   UNL A   1      43.234  36.893  34.538  1.00  0.00     0.001 A 
ATOM     63  C   UNL A   1      42.193  35.775  36.409  1.00  0.00     0.001 A 
ATOM     64  C   UNL A   1      42.835  36.891  35.874  1.00  0.00     0.000 A 
ENDBRANCH  45  59
BRANCH  46  65
ATOM     65  C   UNL A   1      40.283  26.944  28.264  1.00  0.00    -0.014 A 
ATOM     66  C   UNL A   1      40.812  26.920  26.965  1.00  0.00     0.009 A 
ATOM     67  C   UNL A   1      39.474  25.878  28.688  1.00  0.00     0.009 A 
ATOM     68  C   UNL A   1      40.514  25.866  26.098  1.00  0.00     0.001 A 
ATOM     69  C   UNL A   1      39.202  24.811  27.828  1.00  0.00     0.001 A 
ATOM     70  C   UNL A   1      39.713  24.810  26.532  1.00  0.00     0.000 A 
ENDBRANCH  46  65
BRANCH  58  71
ATOM     71  C   UNL A   1      45.642  28.479  32.430  1.00  0.00    -0.014 A 
ATOM     72  C   UNL A   1      45.695  27.541  33.471  1.00  0.00     0.009 A 
ATOM     73  C   UNL A   1      46.790  28.704  31.654  1.00  0.00     0.009 A 
ATOM     74  C   UNL A   1      46.884  26.866  33.751  1.00  0.00     0.001 A 
ATOM     75  C   UNL A   1      47.970  28.007  31.918  1.00  0.00     0.001 A 
ATOM     76  C   UNL A   1      48.019  27.095  32.972  1.00  0.00     0.000 A 
ENDBRANCH  58  71
ENDBRANCH  32  33
ENDBRANCH  24  27
ENDBRANCH  22  23
ENDBRANCH  21  22
ENDBRANCH  20  21
ENDBRANCH   1  20
TORSDOF 15
ENDMDL
