MODEL 1
REMARK VINA RESULT:     -12.7      0.000      0.000
REMARK SMILES COc1cccc(-c2c(C(=O)NCCCCNC(=O)c3ccc(-c4c5nc(c(-c6ccccc6)c6ccc([nH]6)c(-c6ccccc6)c6nc(c(-c7ccccc7)c7ccc4[nH]7)C=C6)C=C5)cc3)nnn2-c2ccc(OC(F)(F)F)cc2)c1
REMARK SMILES IDX 14 1 13 2 12 3 10 4 11 5 9 7 8 8 70 9 68 10 69 11 7 12 3 13
REMARK SMILES IDX 4 14 82 15 5 16 6 17 2 18 1 19 71 20 72 21 81 22 73 23 80 24
REMARK SMILES IDX 74 25 75 26 76 27 77 28 78 29 79 30 15 31 16 32 17 33 18 34
REMARK SMILES IDX 19 36 20 37 21 38 67 39 22 40 66 41 23 42 24 43 25 44 60 45
REMARK SMILES IDX 26 46 65 47 59 48 61 49 27 50 64 51 58 52 57 53 28 55 50 56
REMARK SMILES IDX 35 57 49 58 36 59 39 60 48 61 62 62 37 63 38 64 47 66 63 67
REMARK SMILES IDX 40 68 29 69 30 70 34 71 31 72 33 73 32 74 51 75 52 76 56 77
REMARK SMILES IDX 53 78 55 79 54 80 41 81 42 82 46 83 43 84 45 85 44 86
REMARK H PARENT 12 6 17 35 61 54 39 65
REMARK Flexibility Score: inf
ROOT
ATOM      1  C   UNL A   1      31.749  28.335  27.512  1.00  0.00     0.023 C 
ENDROOT
BRANCH   1   2
ATOM      2  C   UNL A   1      31.960  27.162  26.569  1.00  0.00     0.116 C 
BRANCH   2   3
ATOM      3  N   UNL A   1      32.386  27.435  25.226  1.00  0.00    -0.351 N 
ATOM      4  C   UNL A   1      32.481  26.597  24.130  1.00  0.00     0.274 C 
ATOM      5  O   UNL A   1      32.805  27.167  23.082  1.00  0.00    -0.267 OA
ATOM      6  H   UNL A   1      32.651  28.369  25.058  1.00  0.00     0.163 HD
BRANCH   4   7
ATOM      7  C   UNL A   1      32.275  25.132  24.142  1.00  0.00     0.178 A 
ATOM      8  C   UNL A   1      33.083  23.994  24.266  1.00  0.00     0.108 A 
ATOM      9  N   UNL A   1      32.177  22.932  24.202  1.00  0.00    -0.212 N 
ATOM     10  N   UNL A   1      30.970  24.697  23.961  1.00  0.00    -0.124 NA
ATOM     11  N   UNL A   1      30.951  23.378  23.886  1.00  0.00    -0.061 NA
BRANCH   8  12
ATOM     12  C   UNL A   1      34.530  23.750  24.242  1.00  0.00     0.006 A 
ATOM     13  C   UNL A   1      36.617  23.618  25.503  1.00  0.00     0.119 A 
ATOM     14  C   UNL A   1      37.240  23.091  24.370  1.00  0.00     0.046 A 
ATOM     15  C   UNL A   1      35.268  23.961  25.431  1.00  0.00     0.056 A 
ATOM     16  C   UNL A   1      36.527  22.901  23.183  1.00  0.00     0.005 A 
ATOM     17  C   UNL A   1      35.172  23.233  23.112  1.00  0.00     0.011 A 
BRANCH  13  18
ATOM     18  O   UNL A   1      37.424  23.774  26.594  1.00  0.00    -0.497 OA
ATOM     19  C   UNL A   1      38.746  24.249  26.362  1.00  0.00     0.278 C 
ENDBRANCH  13  18
ENDBRANCH   8  12
BRANCH   9  20
ATOM     20  C   UNL A   1      32.445  21.548  24.342  1.00  0.00     0.067 A 
ATOM     21  C   UNL A   1      32.719  21.014  25.602  1.00  0.00     0.032 A 
ATOM     22  C   UNL A   1      32.372  20.706  23.227  1.00  0.00     0.032 A 
ATOM     23  C   UNL A   1      32.831  19.626  25.745  1.00  0.00     0.049 A 
ATOM     24  C   UNL A   1      32.510  19.327  23.374  1.00  0.00     0.049 A 
ATOM     25  C   UNL A   1      32.719  18.775  24.637  1.00  0.00     0.129 A 
BRANCH  25  26
ATOM     26  O   UNL A   1      32.831  17.444  24.920  1.00  0.00    -0.406 OA
BRANCH  26  27
ATOM     27  C   UNL A   1      33.941  16.752  24.370  1.00  0.00     0.573 C 
ATOM     28  F   UNL A   1      33.741  16.463  23.066  1.00  0.00    -0.132 F 
ATOM     29  F   UNL A   1      35.076  17.472  24.503  1.00  0.00    -0.132 F 
ATOM     30  F   UNL A   1      34.103  15.588  25.036  1.00  0.00    -0.132 F 
ENDBRANCH  26  27
ENDBRANCH  25  26
ENDBRANCH   9  20
ENDBRANCH   4   7
ENDBRANCH   2   3
ENDBRANCH   1   2
BRANCH   1  31
ATOM     31  C   UNL A   1      32.257  29.697  27.060  1.00  0.00     0.023 C 
BRANCH  31  32
ATOM     32  C   UNL A   1      33.619  30.091  27.613  1.00  0.00     0.116 C 
BRANCH  32  33
ATOM     33  N   UNL A   1      34.049  31.445  27.266  1.00  0.00    -0.352 N 
ATOM     34  C   UNL A   1      35.209  32.074  27.699  1.00  0.00     0.251 C 
ATOM     35  H   UNL A   1      33.461  31.959  26.668  1.00  0.00     0.163 HD
ATOM     36  O   UNL A   1      35.340  33.283  27.676  1.00  0.00    -0.269 OA
BRANCH  34  37
ATOM     37  C   UNL A   1      36.308  31.208  28.163  1.00  0.00     0.039 A 
ATOM     38  C   UNL A   1      36.458  29.893  27.718  1.00  0.00     0.014 A 
ATOM     39  C   UNL A   1      37.241  31.794  29.018  1.00  0.00     0.014 A 
ATOM     40  C   UNL A   1      37.612  29.197  28.075  1.00  0.00     0.010 A 
ATOM     41  C   UNL A   1      38.433  31.161  29.254  1.00  0.00     0.010 A 
ATOM     42  C   UNL A   1      38.605  29.849  28.827  1.00  0.00    -0.014 A 
BRANCH  42  43
ATOM     43  C   UNL A   1      39.904  29.231  29.060  1.00  0.00     0.031 A 
ATOM     44  C   UNL A   1      40.192  28.932  30.490  1.00  0.00     0.074 A 
ATOM     45  C   UNL A   1      40.674  28.748  28.062  1.00  0.00     0.049 A 
ATOM     46  N   UNL A   1      41.068  29.506  31.245  1.00  0.00    -0.248 NA
ATOM     47  C   UNL A   1      39.319  27.987  31.207  1.00  0.00     0.031 C 
ATOM     48  C   UNL A   1      40.368  28.675  26.627  1.00  0.00     0.029 A 
ATOM     49  N   UNL A   1      41.867  28.098  28.136  1.00  0.00    -0.354 N 
ATOM     50  C   UNL A   1      41.008  28.854  32.472  1.00  0.00     0.074 A 
ATOM     51  C   UNL A   1      39.802  28.065  32.449  1.00  0.00     0.031 C 
ATOM     52  C   UNL A   1      41.217  27.815  26.022  1.00  0.00     0.029 A 
ATOM     53  C   UNL A   1      42.230  27.414  26.980  1.00  0.00     0.049 A 
ATOM     54  H   UNL A   1      42.428  28.111  28.945  1.00  0.00     0.167 HD
ATOM     55  C   UNL A   1      42.088  28.815  33.301  1.00  0.00     0.031 A 
ATOM     56  C   UNL A   1      43.277  26.562  26.834  1.00  0.00     0.031 A 
ATOM     57  C   UNL A   1      43.107  29.744  32.878  1.00  0.00     0.049 A 
ATOM     58  C   UNL A   1      44.225  26.841  27.935  1.00  0.00     0.074 A 
ATOM     59  C   UNL A   1      43.174  31.111  32.707  1.00  0.00     0.029 A 
ATOM     60  N   UNL A   1      44.151  29.217  32.155  1.00  0.00    -0.354 N 
ATOM     61  N   UNL A   1      44.891  27.955  28.034  1.00  0.00    -0.248 NA
ATOM     62  C   UNL A   1      44.077  26.087  29.168  1.00  0.00     0.031 C 
ATOM     63  C   UNL A   1      43.941  31.291  31.518  1.00  0.00     0.029 A 
ATOM     64  C   UNL A   1      44.372  30.037  31.082  1.00  0.00     0.049 A 
ATOM     65  H   UNL A   1      44.652  28.397  32.372  1.00  0.00     0.167 HD
ATOM     66  C   UNL A   1      44.836  28.272  29.383  1.00  0.00     0.074 A 
ATOM     67  C   UNL A   1      44.413  27.038  30.046  1.00  0.00     0.031 C 
ATOM     68  C   UNL A   1      44.853  29.574  29.799  1.00  0.00     0.031 A 
BRANCH  55  69
ATOM     69  C   UNL A   1      42.425  27.655  34.206  1.00  0.00    -0.014 A 
ATOM     70  C   UNL A   1      43.195  26.599  33.681  1.00  0.00     0.009 A 
ATOM     71  C   UNL A   1      41.778  27.414  35.432  1.00  0.00     0.009 A 
ATOM     72  C   UNL A   1      43.237  25.346  34.302  1.00  0.00     0.001 A 
ATOM     73  C   UNL A   1      41.852  26.176  36.076  1.00  0.00     0.001 A 
ATOM     74  C   UNL A   1      42.555  25.132  35.495  1.00  0.00     0.000 A 
ENDBRANCH  55  69
BRANCH  56  75
ATOM     75  C   UNL A   1      43.404  25.353  25.987  1.00  0.00    -0.014 A 
ATOM     76  C   UNL A   1      44.564  25.128  25.227  1.00  0.00     0.009 A 
ATOM     77  C   UNL A   1      42.518  24.276  26.158  1.00  0.00     0.009 A 
ATOM     78  C   UNL A   1      44.848  23.860  24.699  1.00  0.00     0.001 A 
ATOM     79  C   UNL A   1      42.800  23.010  25.631  1.00  0.00     0.001 A 
ATOM     80  C   UNL A   1      43.974  22.798  24.916  1.00  0.00     0.000 A 
ENDBRANCH  56  75
BRANCH  68  81
ATOM     81  C   UNL A   1      45.176  30.639  28.780  1.00  0.00    -0.014 A 
ATOM     82  C   UNL A   1      46.476  31.123  28.543  1.00  0.00     0.009 A 
ATOM     83  C   UNL A   1      44.148  31.056  27.923  1.00  0.00     0.009 A 
ATOM     84  C   UNL A   1      46.728  32.019  27.497  1.00  0.00     0.001 A 
ATOM     85  C   UNL A   1      44.402  31.932  26.867  1.00  0.00     0.001 A 
ATOM     86  C   UNL A   1      45.690  32.419  26.657  1.00  0.00     0.000 A 
ENDBRANCH  68  81
ENDBRANCH  42  43
ENDBRANCH  34  37
ENDBRANCH  32  33
ENDBRANCH  31  32
ENDBRANCH   1  31
TORSDOF 16
ENDMDL
MODEL 2
REMARK VINA RESULT:     -11.7      2.199      5.495
REMARK SMILES COc1cccc(-c2c(C(=O)NCCCCNC(=O)c3ccc(-c4c5nc(c(-c6ccccc6)c6ccc([nH]6)c(-c6ccccc6)c6nc(c(-c7ccccc7)c7ccc4[nH]7)C=C6)C=C5)cc3)nnn2-c2ccc(OC(F)(F)F)cc2)c1
REMARK SMILES IDX 14 1 13 2 12 3 10 4 11 5 9 7 8 8 70 9 68 10 69 11 7 12 3 13
REMARK SMILES IDX 4 14 82 15 5 16 6 17 2 18 1 19 71 20 72 21 81 22 73 23 80 24
REMARK SMILES IDX 74 25 75 26 76 27 77 28 78 29 79 30 15 31 16 32 17 33 18 34
REMARK SMILES IDX 19 36 20 37 21 38 67 39 22 40 66 41 23 42 24 43 25 44 60 45
REMARK SMILES IDX 26 46 65 47 59 48 61 49 27 50 64 51 58 52 57 53 28 55 50 56
REMARK SMILES IDX 35 57 49 58 36 59 39 60 48 61 62 62 37 63 38 64 47 66 63 67
REMARK SMILES IDX 40 68 29 69 30 70 34 71 31 72 33 73 32 74 51 75 52 76 56 77
REMARK SMILES IDX 53 78 55 79 54 80 41 81 42 82 46 83 43 84 45 85 44 86
REMARK H PARENT 12 6 17 35 61 54 39 65
REMARK Flexibility Score: inf
ROOT
ATOM      1  C   UNL A   1      31.942  28.629  26.569  1.00  0.00     0.023 C 
ENDROOT
BRANCH   1   2
ATOM      2  C   UNL A   1      31.612  27.635  25.467  1.00  0.00     0.116 C 
BRANCH   2   3
ATOM      3  N   UNL A   1      32.327  27.731  24.226  1.00  0.00    -0.351 N 
ATOM      4  C   UNL A   1      32.588  26.768  23.268  1.00  0.00     0.274 C 
ATOM      5  O   UNL A   1      33.164  27.197  22.262  1.00  0.00    -0.267 OA
ATOM      6  H   UNL A   1      32.689  28.624  24.026  1.00  0.00     0.163 HD
BRANCH   4   7
ATOM      7  C   UNL A   1      32.277  25.327  23.384  1.00  0.00     0.178 A 
ATOM      8  C   UNL A   1      32.986  24.157  23.687  1.00  0.00     0.108 A 
ATOM      9  N   UNL A   1      32.016  23.153  23.622  1.00  0.00    -0.212 N 
ATOM     10  N   UNL A   1      30.968  24.959  23.108  1.00  0.00    -0.124 NA
ATOM     11  N   UNL A   1      30.862  23.643  23.143  1.00  0.00    -0.061 NA
BRANCH   8  12
ATOM     12  C   UNL A   1      34.407  23.822  23.834  1.00  0.00     0.006 A 
ATOM     13  C   UNL A   1      36.348  23.681  25.309  1.00  0.00     0.119 A 
ATOM     14  C   UNL A   1      37.037  23.009  24.298  1.00  0.00     0.046 A 
ATOM     15  C   UNL A   1      35.040  24.099  25.069  1.00  0.00     0.056 A 
ATOM     16  C   UNL A   1      36.430  22.751  23.065  1.00  0.00     0.005 A 
ATOM     17  C   UNL A   1      35.116  23.160  22.827  1.00  0.00     0.011 A 
BRANCH  13  18
ATOM     18  O   UNL A   1      37.055  23.891  26.458  1.00  0.00    -0.497 OA
ATOM     19  C   UNL A   1      38.436  23.546  26.445  1.00  0.00     0.278 C 
ENDBRANCH  13  18
ENDBRANCH   8  12
BRANCH   9  20
ATOM     20  C   UNL A   1      32.170  21.773  23.907  1.00  0.00     0.067 A 
ATOM     21  C   UNL A   1      32.144  20.838  22.870  1.00  0.00     0.032 A 
ATOM     22  C   UNL A   1      32.412  21.354  25.220  1.00  0.00     0.032 A 
ATOM     23  C   UNL A   1      32.449  19.501  23.151  1.00  0.00     0.049 A 
ATOM     24  C   UNL A   1      32.689  20.016  25.494  1.00  0.00     0.049 A 
ATOM     25  C   UNL A   1      32.730  19.084  24.458  1.00  0.00     0.129 A 
BRANCH  25  26
ATOM     26  O   UNL A   1      33.028  17.757  24.588  1.00  0.00    -0.406 OA
BRANCH  26  27
ATOM     27  C   UNL A   1      34.346  17.350  24.256  1.00  0.00     0.573 C 
ATOM     28  F   UNL A   1      34.831  16.477  25.166  1.00  0.00    -0.132 F 
ATOM     29  F   UNL A   1      34.387  16.789  23.028  1.00  0.00    -0.132 F 
ATOM     30  F   UNL A   1      35.149  18.435  24.248  1.00  0.00    -0.132 F 
ENDBRANCH  26  27
ENDBRANCH  25  26
ENDBRANCH   9  20
ENDBRANCH   4   7
ENDBRANCH   2   3
ENDBRANCH   1   2
BRANCH   1  31
ATOM     31  C   UNL A   1      31.984  30.104  26.192  1.00  0.00     0.023 C 
BRANCH  31  32
ATOM     32  C   UNL A   1      32.615  31.016  27.234  1.00  0.00     0.116 C 
BRANCH  32  33
ATOM     33  N   UNL A   1      32.204  32.417  27.146  1.00  0.00    -0.352 N 
ATOM     34  C   UNL A   1      32.724  33.472  27.884  1.00  0.00     0.251 C 
ATOM     35  H   UNL A   1      31.492  32.632  26.502  1.00  0.00     0.163 HD
ATOM     36  O   UNL A   1      32.123  34.520  28.031  1.00  0.00    -0.269 OA
BRANCH  34  37
ATOM     37  C   UNL A   1      34.067  33.288  28.464  1.00  0.00     0.039 A 
ATOM     38  C   UNL A   1      34.267  32.634  29.682  1.00  0.00     0.014 A 
ATOM     39  C   UNL A   1      35.141  33.737  27.697  1.00  0.00     0.014 A 
ATOM     40  C   UNL A   1      35.574  32.357  30.079  1.00  0.00     0.010 A 
ATOM     41  C   UNL A   1      36.413  33.344  28.020  1.00  0.00     0.010 A 
ATOM     42  C   UNL A   1      36.641  32.697  29.229  1.00  0.00    -0.014 A 
BRANCH  42  43
ATOM     43  C   UNL A   1      38.002  32.258  29.511  1.00  0.00     0.031 A 
ATOM     44  C   UNL A   1      38.270  30.835  29.170  1.00  0.00     0.074 A 
ATOM     45  C   UNL A   1      38.997  33.117  29.820  1.00  0.00     0.049 A 
ATOM     46  N   UNL A   1      38.493  29.865  29.992  1.00  0.00    -0.248 NA
ATOM     47  C   UNL A   1      38.141  30.404  27.766  1.00  0.00     0.031 C 
ATOM     48  C   UNL A   1      38.953  34.585  29.868  1.00  0.00     0.029 A 
ATOM     49  N   UNL A   1      40.314  32.859  30.044  1.00  0.00    -0.354 N 
ATOM     50  C   UNL A   1      38.743  28.743  29.208  1.00  0.00     0.074 A 
ATOM     51  C   UNL A   1      38.334  29.088  27.870  1.00  0.00     0.031 C 
ATOM     52  C   UNL A   1      40.212  35.079  29.859  1.00  0.00     0.029 A 
ATOM     53  C   UNL A   1      41.144  33.974  29.982  1.00  0.00     0.049 A 
ATOM     54  H   UNL A   1      40.652  31.954  30.235  1.00  0.00     0.167 HD
ATOM     55  C   UNL A   1      39.507  27.716  29.675  1.00  0.00     0.031 A 
ATOM     56  C   UNL A   1      42.501  33.980  30.008  1.00  0.00     0.031 A 
ATOM     57  C   UNL A   1      39.728  27.831  31.096  1.00  0.00     0.049 A 
ATOM     58  C   UNL A   1      42.934  32.686  30.580  1.00  0.00     0.074 A 
ATOM     59  C   UNL A   1      38.919  27.856  32.213  1.00  0.00     0.029 A 
ATOM     60  N   UNL A   1      40.933  28.369  31.485  1.00  0.00    -0.354 N 
ATOM     61  N   UNL A   1      42.716  32.348  31.818  1.00  0.00    -0.248 NA
ATOM     62  C   UNL A   1      43.182  31.586  29.664  1.00  0.00     0.031 C 
ATOM     63  C   UNL A   1      39.506  28.838  33.064  1.00  0.00     0.029 A 
ATOM     64  C   UNL A   1      40.682  29.292  32.464  1.00  0.00     0.049 A 
ATOM     65  H   UNL A   1      41.818  28.131  31.124  1.00  0.00     0.167 HD
ATOM     66  C   UNL A   1      42.336  31.015  31.751  1.00  0.00     0.074 A 
ATOM     67  C   UNL A   1      42.740  30.573  30.416  1.00  0.00     0.031 C 
ATOM     68  C   UNL A   1      41.472  30.485  32.667  1.00  0.00     0.031 A 
BRANCH  55  69
ATOM     69  C   UNL A   1      40.418  26.873  28.815  1.00  0.00    -0.014 A 
ATOM     70  C   UNL A   1      40.194  25.484  28.764  1.00  0.00     0.009 A 
ATOM     71  C   UNL A   1      41.647  27.333  28.307  1.00  0.00     0.009 A 
ATOM     72  C   UNL A   1      41.180  24.600  28.315  1.00  0.00     0.001 A 
ATOM     73  C   UNL A   1      42.619  26.455  27.819  1.00  0.00     0.001 A 
ATOM     74  C   UNL A   1      42.398  25.087  27.853  1.00  0.00     0.000 A 
ENDBRANCH  55  69
BRANCH  56  75
ATOM     75  C   UNL A   1      43.458  34.891  29.338  1.00  0.00    -0.014 A 
ATOM     76  C   UNL A   1      43.820  36.113  29.930  1.00  0.00     0.009 A 
ATOM     77  C   UNL A   1      44.242  34.428  28.268  1.00  0.00     0.009 A 
ATOM     78  C   UNL A   1      44.953  36.818  29.498  1.00  0.00     0.001 A 
ATOM     79  C   UNL A   1      45.373  35.131  27.836  1.00  0.00     0.001 A 
ATOM     80  C   UNL A   1      45.738  36.319  28.462  1.00  0.00     0.000 A 
ENDBRANCH  56  75
BRANCH  68  81
ATOM     81  C   UNL A   1      41.136  31.312  33.885  1.00  0.00    -0.014 A 
ATOM     82  C   UNL A   1      41.851  31.244  35.095  1.00  0.00     0.009 A 
ATOM     83  C   UNL A   1      40.156  32.305  33.750  1.00  0.00     0.009 A 
ATOM     84  C   UNL A   1      41.570  32.127  36.145  1.00  0.00     0.001 A 
ATOM     85  C   UNL A   1      39.890  33.199  34.787  1.00  0.00     0.001 A 
ATOM     86  C   UNL A   1      40.592  33.107  35.987  1.00  0.00     0.000 A 
ENDBRANCH  68  81
ENDBRANCH  42  43
ENDBRANCH  34  37
ENDBRANCH  32  33
ENDBRANCH  31  32
ENDBRANCH   1  31
TORSDOF 16
ENDMDL
MODEL 3
REMARK VINA RESULT:     -11.7      2.853      5.125
REMARK SMILES COc1cccc(-c2c(C(=O)NCCCCNC(=O)c3ccc(-c4c5nc(c(-c6ccccc6)c6ccc([nH]6)c(-c6ccccc6)c6nc(c(-c7ccccc7)c7ccc4[nH]7)C=C6)C=C5)cc3)nnn2-c2ccc(OC(F)(F)F)cc2)c1
REMARK SMILES IDX 14 1 13 2 12 3 10 4 11 5 9 7 8 8 70 9 68 10 69 11 7 12 3 13
REMARK SMILES IDX 4 14 82 15 5 16 6 17 2 18 1 19 71 20 72 21 81 22 73 23 80 24
REMARK SMILES IDX 74 25 75 26 76 27 77 28 78 29 79 30 15 31 16 32 17 33 18 34
REMARK SMILES IDX 19 36 20 37 21 38 67 39 22 40 66 41 23 42 24 43 25 44 60 45
REMARK SMILES IDX 26 46 65 47 59 48 61 49 27 50 64 51 58 52 57 53 28 55 50 56
REMARK SMILES IDX 35 57 49 58 36 59 39 60 48 61 62 62 37 63 38 64 47 66 63 67
REMARK SMILES IDX 40 68 29 69 30 70 34 71 31 72 33 73 32 74 51 75 52 76 56 77
REMARK SMILES IDX 53 78 55 79 54 80 41 81 42 82 46 83 43 84 45 85 44 86
REMARK H PARENT 12 6 17 35 61 54 39 65
REMARK Flexibility Score: inf
ROOT
ATOM      1  C   UNL A   1      35.088  32.677  28.828  1.00  0.00     0.023 C 
ENDROOT
BRANCH   1   2
ATOM      2  C   UNL A   1      34.591  31.487  28.024  1.00  0.00     0.116 C 
BRANCH   2   3
ATOM      3  N   UNL A   1      33.301  31.575  27.402  1.00  0.00    -0.351 N 
ATOM      4  C   UNL A   1      32.588  30.632  26.684  1.00  0.00     0.274 C 
ATOM      5  O   UNL A   1      31.457  30.998  26.350  1.00  0.00    -0.267 OA
ATOM      6  H   UNL A   1      32.852  32.446  27.502  1.00  0.00     0.163 HD
BRANCH   4   7
ATOM      7  C   UNL A   1      33.085  29.300  26.275  1.00  0.00     0.178 A 
ATOM      8  C   UNL A   1      32.610  28.231  25.504  1.00  0.00     0.108 A 
ATOM      9  N   UNL A   1      33.649  27.299  25.546  1.00  0.00    -0.212 N 
ATOM     10  N   UNL A   1      34.330  28.934  26.767  1.00  0.00    -0.124 NA
ATOM     11  N   UNL A   1      34.597  27.690  26.414  1.00  0.00    -0.061 NA
BRANCH   8  12
ATOM     12  C   UNL A   1      31.310  27.882  24.918  1.00  0.00     0.006 A 
ATOM     13  C   UNL A   1      29.668  28.293  23.158  1.00  0.00     0.119 A 
ATOM     14  C   UNL A   1      28.968  27.161  23.579  1.00  0.00     0.046 A 
ATOM     15  C   UNL A   1      30.827  28.660  23.837  1.00  0.00     0.056 A 
ATOM     16  C   UNL A   1      29.423  26.399  24.660  1.00  0.00     0.005 A 
ATOM     17  C   UNL A   1      30.591  26.759  25.335  1.00  0.00     0.011 A 
BRANCH  13  18
ATOM     18  O   UNL A   1      29.113  28.965  22.106  1.00  0.00    -0.497 OA
ATOM     19  C   UNL A   1      29.627  30.260  21.816  1.00  0.00     0.278 C 
ENDBRANCH  13  18
ENDBRANCH   8  12
BRANCH   9  20
ATOM     20  C   UNL A   1      33.730  26.053  24.878  1.00  0.00     0.067 A 
ATOM     21  C   UNL A   1      33.806  24.869  25.614  1.00  0.00     0.032 A 
ATOM     22  C   UNL A   1      33.667  26.004  23.481  1.00  0.00     0.032 A 
ATOM     23  C   UNL A   1      33.731  23.643  24.943  1.00  0.00     0.049 A 
ATOM     24  C   UNL A   1      33.619  24.777  22.819  1.00  0.00     0.049 A 
ATOM     25  C   UNL A   1      33.629  23.589  23.547  1.00  0.00     0.129 A 
BRANCH  25  26
ATOM     26  O   UNL A   1      33.547  22.330  23.024  1.00  0.00    -0.406 OA
BRANCH  26  27
ATOM     27  C   UNL A   1      32.263  21.726  22.978  1.00  0.00     0.573 C 
ATOM     28  F   UNL A   1      32.136  20.929  21.895  1.00  0.00    -0.132 F 
ATOM     29  F   UNL A   1      32.024  21.008  24.097  1.00  0.00    -0.132 F 
ATOM     30  F   UNL A   1      31.327  22.697  22.895  1.00  0.00    -0.132 F 
ENDBRANCH  26  27
ENDBRANCH  25  26
ENDBRANCH   9  20
ENDBRANCH   4   7
ENDBRANCH   2   3
ENDBRANCH   1   2
BRANCH   1  31
ATOM     31  C   UNL A   1      36.302  32.462  29.722  1.00  0.00     0.023 C 
BRANCH  31  32
ATOM     32  C   UNL A   1      37.646  32.703  29.050  1.00  0.00     0.116 C 
BRANCH  32  33
ATOM     33  N   UNL A   1      38.447  33.767  29.655  1.00  0.00    -0.352 N 
ATOM     34  C   UNL A   1      39.438  33.603  30.614  1.00  0.00     0.251 C 
ATOM     35  H   UNL A   1      38.267  34.686  29.353  1.00  0.00     0.163 HD
ATOM     36  O   UNL A   1      39.812  34.518  31.324  1.00  0.00    -0.269 OA
BRANCH  34  37
ATOM     37  C   UNL A   1      40.056  32.269  30.719  1.00  0.00     0.039 A 
ATOM     38  C   UNL A   1      39.412  31.199  31.346  1.00  0.00     0.014 A 
ATOM     39  C   UNL A   1      41.291  32.106  30.094  1.00  0.00     0.014 A 
ATOM     40  C   UNL A   1      39.990  29.933  31.259  1.00  0.00     0.010 A 
ATOM     41  C   UNL A   1      41.785  30.844  29.892  1.00  0.00     0.010 A 
ATOM     42  C   UNL A   1      41.167  29.762  30.510  1.00  0.00    -0.014 A 
BRANCH  42  43
ATOM     43  C   UNL A   1      41.701  28.435  30.232  1.00  0.00     0.031 A 
ATOM     44  C   UNL A   1      42.489  27.845  31.349  1.00  0.00     0.074 A 
ATOM     45  C   UNL A   1      41.318  27.702  29.165  1.00  0.00     0.049 A 
ATOM     46  N   UNL A   1      43.760  27.627  31.376  1.00  0.00    -0.248 NA
ATOM     47  C   UNL A   1      41.817  27.593  32.636  1.00  0.00     0.031 C 
ATOM     48  C   UNL A   1      40.298  28.022  28.157  1.00  0.00     0.029 A 
ATOM     49  N   UNL A   1      41.681  26.438  28.818  1.00  0.00    -0.354 N 
ATOM     50  C   UNL A   1      44.023  27.016  32.598  1.00  0.00     0.074 A 
ATOM     51  C   UNL A   1      42.836  27.189  33.397  1.00  0.00     0.031 C 
ATOM     52  C   UNL A   1      39.959  26.902  27.479  1.00  0.00     0.029 A 
ATOM     53  C   UNL A   1      40.853  25.831  27.878  1.00  0.00     0.049 A 
ATOM     54  H   UNL A   1      42.469  25.988  29.201  1.00  0.00     0.167 HD
ATOM     55  C   UNL A   1      45.098  26.194  32.756  1.00  0.00     0.031 A 
ATOM     56  C   UNL A   1      40.890  24.535  27.478  1.00  0.00     0.031 A 
ATOM     57  C   UNL A   1      46.009  26.303  31.643  1.00  0.00     0.049 A 
ATOM     58  C   UNL A   1      42.224  24.004  27.836  1.00  0.00     0.074 A 
ATOM     59  C   UNL A   1      46.756  27.321  31.087  1.00  0.00     0.029 A 
ATOM     60  N   UNL A   1      45.916  25.328  30.679  1.00  0.00    -0.354 N 
ATOM     61  N   UNL A   1      43.325  24.413  27.276  1.00  0.00    -0.248 NA
ATOM     62  C   UNL A   1      42.378  23.371  29.135  1.00  0.00     0.031 C 
ATOM     63  C   UNL A   1      46.655  27.118  29.679  1.00  0.00     0.029 A 
ATOM     64  C   UNL A   1      45.931  25.944  29.457  1.00  0.00     0.049 A 
ATOM     65  H   UNL A   1      45.850  24.358  30.839  1.00  0.00     0.167 HD
ATOM     66  C   UNL A   1      44.228  24.520  28.324  1.00  0.00     0.074 A 
ATOM     67  C   UNL A   1      43.621  23.769  29.424  1.00  0.00     0.031 C 
ATOM     68  C   UNL A   1      45.231  25.446  28.294  1.00  0.00     0.031 A 
BRANCH  55  69
ATOM     69  C   UNL A   1      45.118  24.983  33.658  1.00  0.00    -0.014 A 
ATOM     70  C   UNL A   1      44.187  23.955  33.417  1.00  0.00     0.009 A 
ATOM     71  C   UNL A   1      45.792  24.948  34.892  1.00  0.00     0.009 A 
ATOM     72  C   UNL A   1      43.884  23.001  34.394  1.00  0.00     0.001 A 
ATOM     73  C   UNL A   1      45.521  23.972  35.855  1.00  0.00     0.001 A 
ATOM     74  C   UNL A   1      44.544  23.017  35.618  1.00  0.00     0.000 A 
ENDBRANCH  55  69
BRANCH  56  75
ATOM     75  C   UNL A   1      39.786  23.641  27.057  1.00  0.00    -0.014 A 
ATOM     76  C   UNL A   1      38.548  24.169  26.653  1.00  0.00     0.009 A 
ATOM     77  C   UNL A   1      40.045  22.291  26.764  1.00  0.00     0.009 A 
ATOM     78  C   UNL A   1      37.626  23.388  25.941  1.00  0.00     0.001 A 
ATOM     79  C   UNL A   1      39.125  21.511  26.053  1.00  0.00     0.001 A 
ATOM     80  C   UNL A   1      37.922  22.064  25.627  1.00  0.00     0.000 A 
ENDBRANCH  56  75
BRANCH  68  81
ATOM     81  C   UNL A   1      45.482  26.178  26.997  1.00  0.00    -0.014 A 
ATOM     82  C   UNL A   1      44.823  27.368  26.634  1.00  0.00     0.009 A 
ATOM     83  C   UNL A   1      46.532  25.728  26.186  1.00  0.00     0.009 A 
ATOM     84  C   UNL A   1      45.191  28.065  25.477  1.00  0.00     0.001 A 
ATOM     85  C   UNL A   1      46.914  26.434  25.045  1.00  0.00     0.001 A 
ATOM     86  C   UNL A   1      46.240  27.599  24.686  1.00  0.00     0.000 A 
ENDBRANCH  68  81
ENDBRANCH  42  43
ENDBRANCH  34  37
ENDBRANCH  32  33
ENDBRANCH  31  32
ENDBRANCH   1  31
TORSDOF 16
ENDMDL
