MODEL 1
REMARK VINA RESULT:     -11.0      0.000      0.000
REMARK SMILES COc1cc(-c2nnc(S)n2-c2ccc(C(=O)NCCCCNC(=O)c3ccc(-c4c5nc(c(-c6ccccc6)c6ccc([nH]6)c(-c6ccccc6)c6nc(c(-c7ccccc7)c7ccc4[nH]7)C=C6)C=C5)cc3)cc2)cc(OC)c1OC
REMARK SMILES IDX 20 1 19 2 18 3 16 4 17 5 15 7 12 8 13 9 75 10 14 11 74 12
REMARK SMILES IDX 11 13 6 14 7 15 8 16 9 17 5 18 3 19 4 20 80 21 77 22 76 23
REMARK SMILES IDX 2 24 1 25 81 26 82 27 78 28 79 29 10 30 21 32 22 33 23 34
REMARK SMILES IDX 24 35 25 37 26 38 27 39 73 40 28 41 72 42 29 43 30 44 31 45
REMARK SMILES IDX 66 46 32 47 71 48 65 49 67 50 33 51 70 52 64 53 63 54 34 56
REMARK SMILES IDX 56 57 41 58 55 59 42 60 45 61 54 62 68 63 43 64 44 65 53 67
REMARK SMILES IDX 69 68 46 69 35 70 36 71 40 72 37 73 39 74 38 75 57 76 58 77
REMARK SMILES IDX 62 78 59 79 61 80 60 81 47 82 48 83 52 84 49 85 51 86 50 87
REMARK H PARENT 18 6 10 31 23 36 67 55 45 66
REMARK Flexibility Score: inf
ROOT
ATOM      1  C   UNL A   1      33.912  34.095  28.386  1.00  0.00     0.023 C 
ENDROOT
BRANCH   1   2
ATOM      2  C   UNL A   1      33.421  32.709  27.951  1.00  0.00     0.116 C 
BRANCH   2   3
ATOM      3  N   UNL A   1      34.390  31.680  28.283  1.00  0.00    -0.352 N 
ATOM      4  C   UNL A   1      34.499  30.353  27.948  1.00  0.00     0.251 C 
ATOM      5  O   UNL A   1      35.484  29.746  28.372  1.00  0.00    -0.269 OA
ATOM      6  H   UNL A   1      35.116  31.999  28.867  1.00  0.00     0.163 HD
BRANCH   4   7
ATOM      7  C   UNL A   1      33.530  29.633  27.070  1.00  0.00     0.039 A 
ATOM      8  C   UNL A   1      31.754  28.425  25.271  1.00  0.00     0.050 A 
ATOM      9  C   UNL A   1      32.984  28.889  24.804  1.00  0.00     0.027 A 
ATOM     10  C   UNL A   1      31.428  28.501  26.624  1.00  0.00     0.027 A 
ATOM     11  C   UNL A   1      33.857  29.510  25.705  1.00  0.00     0.016 A 
ATOM     12  C   UNL A   1      32.338  29.059  27.520  1.00  0.00     0.016 A 
BRANCH   8  13
ATOM     13  N   UNL A   1      30.814  27.847  24.390  1.00  0.00    -0.270 N 
ATOM     14  C   UNL A   1      30.737  26.504  24.023  1.00  0.00     0.169 A 
ATOM     15  N   UNL A   1      29.875  26.387  23.030  1.00  0.00    -0.129 NA
ATOM     16  N   UNL A   1      29.350  27.632  22.761  1.00  0.00    -0.123 NA
ATOM     17  C   UNL A   1      29.920  28.496  23.571  1.00  0.00     0.193 A 
BRANCH  14  18
ATOM     18  C   UNL A   1      31.468  25.415  24.680  1.00  0.00     0.027 A 
ATOM     19  C   UNL A   1      33.532  24.198  25.114  1.00  0.00     0.165 A 
ATOM     20  C   UNL A   1      32.789  25.113  24.341  1.00  0.00     0.062 A 
ATOM     21  C   UNL A   1      32.969  23.578  26.247  1.00  0.00     0.203 A 
ATOM     22  C   UNL A   1      31.606  23.812  26.521  1.00  0.00     0.165 A 
ATOM     23  C   UNL A   1      30.874  24.710  25.731  1.00  0.00     0.062 A 
BRANCH  19  24
ATOM     24  O   UNL A   1      34.869  24.102  24.817  1.00  0.00    -0.493 OA
ATOM     25  C   UNL A   1      35.128  23.132  23.798  1.00  0.00     0.278 C 
ENDBRANCH  19  24
BRANCH  21  26
ATOM     26  O   UNL A   1      33.646  22.845  27.180  1.00  0.00    -0.490 OA
ATOM     27  C   UNL A   1      33.861  21.458  27.006  1.00  0.00     0.278 C 
ENDBRANCH  21  26
BRANCH  22  28
ATOM     28  O   UNL A   1      30.833  23.302  27.535  1.00  0.00    -0.493 OA
ATOM     29  C   UNL A   1      29.587  22.696  27.228  1.00  0.00     0.278 C 
ENDBRANCH  22  28
ENDBRANCH  14  18
BRANCH  17  30
ATOM     30  S   UNL A   1      29.709  30.215  23.486  1.00  0.00    -0.103 SA
ATOM     31  H   UNL A   1      29.081  30.652  24.611  1.00  0.00     0.111 HD
ENDBRANCH  17  30
ENDBRANCH   8  13
ENDBRANCH   4   7
ENDBRANCH   2   3
ENDBRANCH   1   2
BRANCH   1  32
ATOM     32  C   UNL A   1      32.802  35.082  28.776  1.00  0.00     0.023 C 
BRANCH  32  33
ATOM     33  C   UNL A   1      33.264  36.259  29.630  1.00  0.00     0.116 C 
BRANCH  33  34
ATOM     34  N   UNL A   1      32.578  36.327  30.918  1.00  0.00    -0.352 N 
ATOM     35  C   UNL A   1      32.737  35.502  32.014  1.00  0.00     0.251 C 
ATOM     36  H   UNL A   1      31.919  37.052  31.016  1.00  0.00     0.163 HD
ATOM     37  O   UNL A   1      31.855  35.392  32.854  1.00  0.00    -0.269 OA
BRANCH  35  38
ATOM     38  C   UNL A   1      34.002  34.764  32.167  1.00  0.00     0.039 A 
ATOM     39  C   UNL A   1      34.069  33.388  31.933  1.00  0.00     0.014 A 
ATOM     40  C   UNL A   1      35.138  35.482  32.534  1.00  0.00     0.014 A 
ATOM     41  C   UNL A   1      35.310  32.759  31.987  1.00  0.00     0.010 A 
ATOM     42  C   UNL A   1      36.376  34.889  32.465  1.00  0.00     0.010 A 
ATOM     43  C   UNL A   1      36.465  33.521  32.228  1.00  0.00    -0.014 A 
BRANCH  43  44
ATOM     44  C   UNL A   1      37.789  32.924  32.078  1.00  0.00     0.031 A 
ATOM     45  C   UNL A   1      38.545  32.787  33.354  1.00  0.00     0.074 A 
ATOM     46  C   UNL A   1      38.223  32.338  30.942  1.00  0.00     0.049 A 
ATOM     47  N   UNL A   1      39.623  33.408  33.696  1.00  0.00    -0.248 NA
ATOM     48  C   UNL A   1      37.963  31.963  34.429  1.00  0.00     0.031 C 
ATOM     49  C   UNL A   1      37.478  32.113  29.697  1.00  0.00     0.029 A 
ATOM     50  N   UNL A   1      39.401  31.699  30.700  1.00  0.00    -0.354 N 
ATOM     51  C   UNL A   1      39.979  32.903  34.943  1.00  0.00     0.074 A 
ATOM     52  C   UNL A   1      38.836  32.164  35.419  1.00  0.00     0.031 C 
ATOM     53  C   UNL A   1      38.120  31.192  28.945  1.00  0.00     0.029 A 
ATOM     54  C   UNL A   1      39.397  30.892  29.567  1.00  0.00     0.049 A 
ATOM     55  H   UNL A   1      40.191  31.800  31.280  1.00  0.00     0.167 HD
ATOM     56  C   UNL A   1      41.275  32.908  35.360  1.00  0.00     0.031 A 
ATOM     57  C   UNL A   1      40.361  30.019  29.180  1.00  0.00     0.031 A 
ATOM     58  C   UNL A   1      42.086  33.787  34.554  1.00  0.00     0.049 A 
ATOM     59  C   UNL A   1      41.608  30.403  29.877  1.00  0.00     0.074 A 
ATOM     60  C   UNL A   1      42.051  35.131  34.239  1.00  0.00     0.029 A 
ATOM     61  N   UNL A   1      42.884  33.199  33.601  1.00  0.00    -0.354 N 
ATOM     62  N   UNL A   1      42.256  31.503  29.628  1.00  0.00    -0.248 NA
ATOM     63  C   UNL A   1      41.890  29.786  31.163  1.00  0.00     0.031 C 
ATOM     64  C   UNL A   1      42.408  35.191  32.859  1.00  0.00     0.029 A 
ATOM     65  C   UNL A   1      42.725  33.899  32.436  1.00  0.00     0.049 A 
ATOM     66  H   UNL A   1      43.465  32.415  33.734  1.00  0.00     0.167 HD
ATOM     67  C   UNL A   1      42.651  31.961  30.876  1.00  0.00     0.074 A 
ATOM     68  C   UNL A   1      42.496  30.812  31.767  1.00  0.00     0.031 C 
ATOM     69  C   UNL A   1      42.783  33.299  31.122  1.00  0.00     0.031 A 
BRANCH  56  70
ATOM     70  C   UNL A   1      41.892  31.794  36.175  1.00  0.00    -0.014 A 
ATOM     71  C   UNL A   1      42.751  32.135  37.237  1.00  0.00     0.009 A 
ATOM     72  C   UNL A   1      41.911  30.449  35.760  1.00  0.00     0.009 A 
ATOM     73  C   UNL A   1      43.646  31.206  37.781  1.00  0.00     0.001 A 
ATOM     74  C   UNL A   1      42.771  29.507  36.330  1.00  0.00     0.001 A 
ATOM     75  C   UNL A   1      43.663  29.894  37.319  1.00  0.00     0.000 A 
ENDBRANCH  56  70
BRANCH  57  76
ATOM     76  C   UNL A   1      40.244  28.744  28.440  1.00  0.00    -0.014 A 
ATOM     77  C   UNL A   1      40.953  28.540  27.244  1.00  0.00     0.009 A 
ATOM     78  C   UNL A   1      39.667  27.619  29.056  1.00  0.00     0.009 A 
ATOM     79  C   UNL A   1      41.120  27.254  26.713  1.00  0.00     0.001 A 
ATOM     80  C   UNL A   1      39.831  26.335  28.524  1.00  0.00     0.001 A 
ATOM     81  C   UNL A   1      40.572  26.150  27.362  1.00  0.00     0.000 A 
ENDBRANCH  57  76
BRANCH  69  82
ATOM     82  C   UNL A   1      42.740  34.247  29.947  1.00  0.00    -0.014 A 
ATOM     83  C   UNL A   1      43.849  34.515  29.124  1.00  0.00     0.009 A 
ATOM     84  C   UNL A   1      41.494  34.771  29.573  1.00  0.00     0.009 A 
ATOM     85  C   UNL A   1      43.717  35.312  27.981  1.00  0.00     0.001 A 
ATOM     86  C   UNL A   1      41.358  35.546  28.420  1.00  0.00     0.001 A 
ATOM     87  C   UNL A   1      42.470  35.823  27.628  1.00  0.00     0.000 A 
ENDBRANCH  69  82
ENDBRANCH  43  44
ENDBRANCH  35  38
ENDBRANCH  33  34
ENDBRANCH  32  33
ENDBRANCH   1  32
TORSDOF 17
ENDMDL
MODEL 2
REMARK VINA RESULT:     -10.5      3.797      5.721
REMARK SMILES COc1cc(-c2nnc(S)n2-c2ccc(C(=O)NCCCCNC(=O)c3ccc(-c4c5nc(c(-c6ccccc6)c6ccc([nH]6)c(-c6ccccc6)c6nc(c(-c7ccccc7)c7ccc4[nH]7)C=C6)C=C5)cc3)cc2)cc(OC)c1OC
REMARK SMILES IDX 20 1 19 2 18 3 16 4 17 5 15 7 12 8 13 9 75 10 14 11 74 12
REMARK SMILES IDX 11 13 6 14 7 15 8 16 9 17 5 18 3 19 4 20 80 21 77 22 76 23
REMARK SMILES IDX 2 24 1 25 81 26 82 27 78 28 79 29 10 30 21 32 22 33 23 34
REMARK SMILES IDX 24 35 25 37 26 38 27 39 73 40 28 41 72 42 29 43 30 44 31 45
REMARK SMILES IDX 66 46 32 47 71 48 65 49 67 50 33 51 70 52 64 53 63 54 34 56
REMARK SMILES IDX 56 57 41 58 55 59 42 60 45 61 54 62 68 63 43 64 44 65 53 67
REMARK SMILES IDX 69 68 46 69 35 70 36 71 40 72 37 73 39 74 38 75 57 76 58 77
REMARK SMILES IDX 62 78 59 79 61 80 60 81 47 82 48 83 52 84 49 85 51 86 50 87
REMARK H PARENT 18 6 10 31 23 36 67 55 45 66
REMARK Flexibility Score: inf
ROOT
ATOM      1  C   UNL A   1      32.441  29.029  27.158  1.00  0.00     0.023 C 
ENDROOT
BRANCH   1   2
ATOM      2  C   UNL A   1      32.961  27.624  26.827  1.00  0.00     0.116 C 
BRANCH   2   3
ATOM      3  N   UNL A   1      31.884  26.650  26.830  1.00  0.00    -0.352 N 
ATOM      4  C   UNL A   1      31.843  25.299  26.592  1.00  0.00     0.251 C 
ATOM      5  O   UNL A   1      30.751  24.741  26.712  1.00  0.00    -0.269 OA
ATOM      6  H   UNL A   1      31.006  27.038  27.048  1.00  0.00     0.163 HD
BRANCH   4   7
ATOM      7  C   UNL A   1      33.040  24.476  26.248  1.00  0.00     0.039 A 
ATOM      8  C   UNL A   1      35.348  22.949  25.809  1.00  0.00     0.050 A 
ATOM      9  C   UNL A   1      34.614  22.750  26.979  1.00  0.00     0.027 A 
ATOM     10  C   UNL A   1      34.915  23.850  24.837  1.00  0.00     0.027 A 
ATOM     11  C   UNL A   1      33.474  23.533  27.201  1.00  0.00     0.016 A 
ATOM     12  C   UNL A   1      33.738  24.569  25.042  1.00  0.00     0.016 A 
BRANCH   8  13
ATOM     13  N   UNL A   1      36.538  22.229  25.568  1.00  0.00    -0.270 N 
ATOM     14  C   UNL A   1      36.642  20.872  25.268  1.00  0.00     0.169 A 
ATOM     15  N   UNL A   1      37.914  20.524  25.321  1.00  0.00    -0.129 NA
ATOM     16  N   UNL A   1      38.660  21.645  25.615  1.00  0.00    -0.123 NA
ATOM     17  C   UNL A   1      37.832  22.654  25.766  1.00  0.00     0.193 A 
BRANCH  14  18
ATOM     18  C   UNL A   1      35.512  20.007  24.911  1.00  0.00     0.027 A 
ATOM     19  C   UNL A   1      34.595  17.814  24.388  1.00  0.00     0.165 A 
ATOM     20  C   UNL A   1      35.700  18.675  24.537  1.00  0.00     0.062 A 
ATOM     21  C   UNL A   1      33.281  18.269  24.620  1.00  0.00     0.203 A 
ATOM     22  C   UNL A   1      33.095  19.638  24.897  1.00  0.00     0.165 A 
ATOM     23  C   UNL A   1      34.204  20.487  25.024  1.00  0.00     0.062 A 
BRANCH  19  24
ATOM     24  O   UNL A   1      34.884  16.485  24.200  1.00  0.00    -0.493 OA
ATOM     25  C   UNL A   1      35.487  15.894  25.355  1.00  0.00     0.278 C 
ENDBRANCH  19  24
BRANCH  21  26
ATOM     26  O   UNL A   1      32.164  17.486  24.709  1.00  0.00    -0.490 OA
ATOM     27  C   UNL A   1      32.006  16.553  25.760  1.00  0.00     0.278 C 
ENDBRANCH  21  26
BRANCH  22  28
ATOM     28  O   UNL A   1      31.923  20.318  25.123  1.00  0.00    -0.493 OA
ATOM     29  C   UNL A   1      31.710  21.574  24.497  1.00  0.00     0.278 C 
ENDBRANCH  22  28
ENDBRANCH  14  18
BRANCH  17  30
ATOM     30  S   UNL A   1      38.292  24.233  26.315  1.00  0.00    -0.103 SA
ATOM     31  H   UNL A   1      37.248  25.091  26.160  1.00  0.00     0.111 HD
ENDBRANCH  17  30
ENDBRANCH   8  13
ENDBRANCH   4   7
ENDBRANCH   2   3
ENDBRANCH   1   2
BRANCH   1  32
ATOM     32  C   UNL A   1      33.245  30.180  26.534  1.00  0.00     0.023 C 
BRANCH  32  33
ATOM     33  C   UNL A   1      34.539  30.526  27.265  1.00  0.00     0.116 C 
BRANCH  33  34
ATOM     34  N   UNL A   1      34.415  31.716  28.101  1.00  0.00    -0.352 N 
ATOM     35  C   UNL A   1      35.026  31.974  29.314  1.00  0.00     0.251 C 
ATOM     36  H   UNL A   1      33.822  32.423  27.759  1.00  0.00     0.163 HD
ATOM     37  O   UNL A   1      34.553  32.782  30.099  1.00  0.00    -0.269 OA
BRANCH  35  38
ATOM     38  C   UNL A   1      36.275  31.266  29.642  1.00  0.00     0.039 A 
ATOM     39  C   UNL A   1      36.275  29.903  29.947  1.00  0.00     0.014 A 
ATOM     40  C   UNL A   1      37.464  31.993  29.621  1.00  0.00     0.014 A 
ATOM     41  C   UNL A   1      37.495  29.260  30.144  1.00  0.00     0.010 A 
ATOM     42  C   UNL A   1      38.669  31.337  29.690  1.00  0.00     0.010 A 
ATOM     43  C   UNL A   1      38.692  29.979  29.989  1.00  0.00    -0.014 A 
BRANCH  43  44
ATOM     44  C   UNL A   1      39.976  29.284  29.980  1.00  0.00     0.031 A 
ATOM     45  C   UNL A   1      40.545  29.035  31.333  1.00  0.00     0.074 A 
ATOM     46  C   UNL A   1      40.510  28.712  28.880  1.00  0.00     0.049 A 
ATOM     47  N   UNL A   1      41.612  29.552  31.841  1.00  0.00    -0.248 NA
ATOM     48  C   UNL A   1      39.767  28.218  32.282  1.00  0.00     0.031 C 
ATOM     49  C   UNL A   1      39.921  28.598  27.540  1.00  0.00     0.029 A 
ATOM     50  N   UNL A   1      41.659  27.989  28.758  1.00  0.00    -0.354 N 
ATOM     51  C   UNL A   1      41.762  28.970  33.097  1.00  0.00     0.074 A 
ATOM     52  C   UNL A   1      40.514  28.307  33.384  1.00  0.00     0.031 C 
ATOM     53  C   UNL A   1      40.586  27.660  26.830  1.00  0.00     0.029 A 
ATOM     54  C   UNL A   1      41.743  27.232  27.595  1.00  0.00     0.049 A 
ATOM     55  H   UNL A   1      42.371  28.004  29.439  1.00  0.00     0.167 HD
ATOM     56  C   UNL A   1      42.989  28.853  33.676  1.00  0.00     0.031 A 
ATOM     57  C   UNL A   1      42.682  26.301  27.291  1.00  0.00     0.031 A 
ATOM     58  C   UNL A   1      43.962  29.696  33.025  1.00  0.00     0.049 A 
ATOM     59  C   UNL A   1      43.852  26.554  28.160  1.00  0.00     0.074 A 
ATOM     60  C   UNL A   1      44.069  31.051  32.777  1.00  0.00     0.029 A 
ATOM     61  N   UNL A   1      44.832  29.085  32.154  1.00  0.00    -0.354 N 
ATOM     62  N   UNL A   1      44.608  27.608  28.053  1.00  0.00    -0.248 NA
ATOM     63  C   UNL A   1      43.915  25.865  29.439  1.00  0.00     0.031 C 
ATOM     64  C   UNL A   1      44.609  31.137  31.459  1.00  0.00     0.029 A 
ATOM     65  C   UNL A   1      44.881  29.843  31.015  1.00  0.00     0.049 A 
ATOM     66  H   UNL A   1      45.331  28.252  32.320  1.00  0.00     0.167 HD
ATOM     67  C   UNL A   1      44.868  27.982  29.362  1.00  0.00     0.074 A 
ATOM     68  C   UNL A   1      44.511  26.813  30.167  1.00  0.00     0.031 C 
ATOM     69  C   UNL A   1      45.066  29.293  29.691  1.00  0.00     0.031 A 
BRANCH  56  70
ATOM     70  C   UNL A   1      43.408  27.661  34.505  1.00  0.00    -0.014 A 
ATOM     71  C   UNL A   1      43.511  26.407  33.875  1.00  0.00     0.009 A 
ATOM     72  C   UNL A   1      43.408  27.658  35.913  1.00  0.00     0.009 A 
ATOM     73  C   UNL A   1      43.511  25.216  34.611  1.00  0.00     0.001 A 
ATOM     74  C   UNL A   1      43.452  26.474  36.653  1.00  0.00     0.001 A 
ATOM     75  C   UNL A   1      43.470  25.251  36.001  1.00  0.00     0.000 A 
ENDBRANCH  56  70
BRANCH  57  76
ATOM     76  C   UNL A   1      42.569  25.070  26.478  1.00  0.00    -0.014 A 
ATOM     77  C   UNL A   1      43.341  24.903  25.317  1.00  0.00     0.009 A 
ATOM     78  C   UNL A   1      41.919  23.937  26.999  1.00  0.00     0.009 A 
ATOM     79  C   UNL A   1      43.498  23.641  24.728  1.00  0.00     0.001 A 
ATOM     80  C   UNL A   1      42.073  22.676  26.409  1.00  0.00     0.001 A 
ATOM     81  C   UNL A   1      42.877  22.525  25.284  1.00  0.00     0.000 A 
ENDBRANCH  57  76
BRANCH  69  82
ATOM     82  C   UNL A   1      45.248  30.288  28.569  1.00  0.00    -0.014 A 
ATOM     83  C   UNL A   1      46.504  30.652  28.050  1.00  0.00     0.009 A 
ATOM     84  C   UNL A   1      44.100  30.761  27.918  1.00  0.00     0.009 A 
ATOM     85  C   UNL A   1      46.603  31.490  26.934  1.00  0.00     0.001 A 
ATOM     86  C   UNL A   1      44.198  31.578  26.791  1.00  0.00     0.001 A 
ATOM     87  C   UNL A   1      45.449  31.948  26.303  1.00  0.00     0.000 A 
ENDBRANCH  69  82
ENDBRANCH  43  44
ENDBRANCH  35  38
ENDBRANCH  33  34
ENDBRANCH  32  33
ENDBRANCH   1  32
TORSDOF 17
ENDMDL
MODEL 3
REMARK VINA RESULT:     -10.5      3.242      5.024
REMARK SMILES COc1cc(-c2nnc(S)n2-c2ccc(C(=O)NCCCCNC(=O)c3ccc(-c4c5nc(c(-c6ccccc6)c6ccc([nH]6)c(-c6ccccc6)c6nc(c(-c7ccccc7)c7ccc4[nH]7)C=C6)C=C5)cc3)cc2)cc(OC)c1OC
REMARK SMILES IDX 20 1 19 2 18 3 16 4 17 5 15 7 12 8 13 9 75 10 14 11 74 12
REMARK SMILES IDX 11 13 6 14 7 15 8 16 9 17 5 18 3 19 4 20 80 21 77 22 76 23
REMARK SMILES IDX 2 24 1 25 81 26 82 27 78 28 79 29 10 30 21 32 22 33 23 34
REMARK SMILES IDX 24 35 25 37 26 38 27 39 73 40 28 41 72 42 29 43 30 44 31 45
REMARK SMILES IDX 66 46 32 47 71 48 65 49 67 50 33 51 70 52 64 53 63 54 34 56
REMARK SMILES IDX 56 57 41 58 55 59 42 60 45 61 54 62 68 63 43 64 44 65 53 67
REMARK SMILES IDX 69 68 46 69 35 70 36 71 40 72 37 73 39 74 38 75 57 76 58 77
REMARK SMILES IDX 62 78 59 79 61 80 60 81 47 82 48 83 52 84 49 85 51 86 50 87
REMARK H PARENT 18 6 10 31 23 36 67 55 45 66
REMARK Flexibility Score: inf
ROOT
ATOM      1  C   UNL A   1      34.912  33.203  29.348  1.00  0.00     0.023 C 
ENDROOT
BRANCH   1   2
ATOM      2  C   UNL A   1      34.274  31.970  28.696  1.00  0.00     0.116 C 
BRANCH   2   3
ATOM      3  N   UNL A   1      35.240  30.896  28.545  1.00  0.00    -0.352 N 
ATOM      4  C   UNL A   1      35.245  29.738  27.808  1.00  0.00     0.251 C 
ATOM      5  O   UNL A   1      36.256  29.038  27.869  1.00  0.00    -0.269 OA
ATOM      6  H   UNL A   1      36.057  31.026  29.078  1.00  0.00     0.163 HD
BRANCH   4   7
ATOM      7  C   UNL A   1      34.127  29.314  26.914  1.00  0.00     0.039 A 
ATOM      8  C   UNL A   1      31.976  28.374  25.384  1.00  0.00     0.050 A 
ATOM      9  C   UNL A   1      31.816  28.524  26.762  1.00  0.00     0.027 A 
ATOM     10  C   UNL A   1      33.166  28.742  24.758  1.00  0.00     0.027 A 
ATOM     11  C   UNL A   1      32.902  28.974  27.522  1.00  0.00     0.016 A 
ATOM     12  C   UNL A   1      34.214  29.256  25.521  1.00  0.00     0.016 A 
BRANCH   8  13
ATOM     13  N   UNL A   1      30.931  27.866  24.583  1.00  0.00    -0.270 N 
ATOM     14  C   UNL A   1      30.721  26.531  24.241  1.00  0.00     0.169 A 
ATOM     15  N   UNL A   1      29.781  26.475  23.316  1.00  0.00    -0.129 NA
ATOM     16  N   UNL A   1      29.338  27.756  23.068  1.00  0.00    -0.123 NA
ATOM     17  C   UNL A   1      30.032  28.578  23.823  1.00  0.00     0.193 A 
BRANCH  14  18
ATOM     18  C   UNL A   1      31.411  25.393  24.857  1.00  0.00     0.027 A 
ATOM     19  C   UNL A   1      33.433  24.099  25.265  1.00  0.00     0.165 A 
ATOM     20  C   UNL A   1      32.728  25.069  24.524  1.00  0.00     0.062 A 
ATOM     21  C   UNL A   1      32.834  23.442  26.359  1.00  0.00     0.203 A 
ATOM     22  C   UNL A   1      31.473  23.702  26.623  1.00  0.00     0.165 A 
ATOM     23  C   UNL A   1      30.780  24.657  25.864  1.00  0.00     0.062 A 
BRANCH  19  24
ATOM     24  O   UNL A   1      34.771  23.979  24.986  1.00  0.00    -0.493 OA
ATOM     25  C   UNL A   1      35.011  23.176  23.826  1.00  0.00     0.278 C 
ENDBRANCH  19  24
BRANCH  21  26
ATOM     26  O   UNL A   1      33.475  22.648  27.267  1.00  0.00    -0.490 OA
ATOM     27  C   UNL A   1      33.835  21.317  26.950  1.00  0.00     0.278 C 
ENDBRANCH  21  26
BRANCH  22  28
ATOM     28  O   UNL A   1      30.669  23.168  27.599  1.00  0.00    -0.493 OA
ATOM     29  C   UNL A   1      29.375  22.696  27.260  1.00  0.00     0.278 C 
ENDBRANCH  22  28
ENDBRANCH  14  18
BRANCH  17  30
ATOM     30  S   UNL A   1      29.951  30.308  23.730  1.00  0.00    -0.103 SA
ATOM     31  H   UNL A   1      31.051  30.846  24.324  1.00  0.00     0.111 HD
ENDBRANCH  17  30
ENDBRANCH   8  13
ENDBRANCH   4   7
ENDBRANCH   2   3
ENDBRANCH   1   2
BRANCH   1  32
ATOM     32  C   UNL A   1      36.027  33.867  28.525  1.00  0.00     0.023 C 
BRANCH  32  33
ATOM     33  C   UNL A   1      37.436  33.653  29.068  1.00  0.00     0.116 C 
BRANCH  33  34
ATOM     34  N   UNL A   1      37.665  34.345  30.334  1.00  0.00    -0.352 N 
ATOM     35  C   UNL A   1      38.076  33.807  31.538  1.00  0.00     0.251 C 
ATOM     36  H   UNL A   1      37.507  35.316  30.328  1.00  0.00     0.163 HD
ATOM     37  O   UNL A   1      37.845  34.376  32.595  1.00  0.00    -0.269 OA
BRANCH  35  38
ATOM     38  C   UNL A   1      38.817  32.535  31.529  1.00  0.00     0.039 A 
ATOM     39  C   UNL A   1      38.151  31.309  31.608  1.00  0.00     0.014 A 
ATOM     40  C   UNL A   1      40.206  32.588  31.420  1.00  0.00     0.014 A 
ATOM     41  C   UNL A   1      38.892  30.136  31.487  1.00  0.00     0.010 A 
ATOM     42  C   UNL A   1      40.918  31.438  31.176  1.00  0.00     0.010 A 
ATOM     43  C   UNL A   1      40.274  30.207  31.245  1.00  0.00    -0.014 A 
BRANCH  43  44
ATOM     44  C   UNL A   1      41.028  29.005  30.904  1.00  0.00     0.031 A 
ATOM     45  C   UNL A   1      41.725  28.374  32.059  1.00  0.00     0.074 A 
ATOM     46  C   UNL A   1      40.937  28.376  29.713  1.00  0.00     0.049 A 
ATOM     47  N   UNL A   1      42.998  28.282  32.250  1.00  0.00    -0.248 NA
ATOM     48  C   UNL A   1      40.915  27.909  33.199  1.00  0.00     0.031 C 
ATOM     49  C   UNL A   1      40.055  28.695  28.584  1.00  0.00     0.029 A 
ATOM     50  N   UNL A   1      41.537  27.224  29.301  1.00  0.00    -0.354 N 
ATOM     51  C   UNL A   1      43.160  27.562  33.430  1.00  0.00     0.074 A 
ATOM     52  C   UNL A   1      41.862  27.521  34.057  1.00  0.00     0.031 C 
ATOM     53  C   UNL A   1      39.998  27.641  27.741  1.00  0.00     0.029 A 
ATOM     54  C   UNL A   1      40.963  26.647  28.173  1.00  0.00     0.049 A 
ATOM     55  H   UNL A   1      42.314  26.834  29.764  1.00  0.00     0.167 HD
ATOM     56  C   UNL A   1      44.285  26.830  33.659  1.00  0.00     0.031 A 
ATOM     57  C   UNL A   1      41.241  25.428  27.647  1.00  0.00     0.031 A 
ATOM     58  C   UNL A   1      45.346  27.195  32.753  1.00  0.00     0.049 A 
ATOM     59  C   UNL A   1      42.564  25.016  28.164  1.00  0.00     0.074 A 
ATOM     60  C   UNL A   1      46.016  28.367  32.458  1.00  0.00     0.029 A 
ATOM     61  N   UNL A   1      45.577  26.353  31.692  1.00  0.00    -0.354 N 
ATOM     62  N   UNL A   1      43.676  25.608  27.835  1.00  0.00    -0.248 NA
ATOM     63  C   UNL A   1      42.607  24.239  29.392  1.00  0.00     0.031 C 
ATOM     64  C   UNL A   1      46.188  28.340  31.041  1.00  0.00     0.029 A 
ATOM     65  C   UNL A   1      45.696  27.123  30.567  1.00  0.00     0.049 A 
ATOM     66  H   UNL A   1      45.646  25.371  31.735  1.00  0.00     0.167 HD
ATOM     67  C   UNL A   1      44.396  25.673  29.017  1.00  0.00     0.074 A 
ATOM     68  C   UNL A   1      43.740  24.719  29.912  1.00  0.00     0.031 C 
ATOM     69  C   UNL A   1      45.265  26.700  29.253  1.00  0.00     0.031 A 
BRANCH  56  70
ATOM     70  C   UNL A   1      44.280  25.496  34.369  1.00  0.00    -0.014 A 
ATOM     71  C   UNL A   1      45.247  25.261  35.364  1.00  0.00     0.009 A 
ATOM     72  C   UNL A   1      43.578  24.370  33.898  1.00  0.00     0.009 A 
ATOM     73  C   UNL A   1      45.561  23.964  35.788  1.00  0.00     0.001 A 
ATOM     74  C   UNL A   1      43.858  23.078  34.350  1.00  0.00     0.001 A 
ATOM     75  C   UNL A   1      44.873  22.871  35.272  1.00  0.00     0.000 A 
ENDBRANCH  56  70
BRANCH  57  76
ATOM     76  C   UNL A   1      40.362  24.486  26.921  1.00  0.00    -0.014 A 
ATOM     77  C   UNL A   1      40.751  23.151  26.720  1.00  0.00     0.009 A 
ATOM     78  C   UNL A   1      39.017  24.817  26.679  1.00  0.00     0.009 A 
ATOM     79  C   UNL A   1      39.818  22.175  26.340  1.00  0.00     0.001 A 
ATOM     80  C   UNL A   1      38.086  23.844  26.296  1.00  0.00     0.001 A 
ATOM     81  C   UNL A   1      38.483  22.520  26.144  1.00  0.00     0.000 A 
ENDBRANCH  57  76
BRANCH  69  82
ATOM     82  C   UNL A   1      45.614  27.616  28.104  1.00  0.00    -0.014 A 
ATOM     83  C   UNL A   1      44.865  28.758  27.765  1.00  0.00     0.009 A 
ATOM     84  C   UNL A   1      46.825  27.395  27.434  1.00  0.00     0.009 A 
ATOM     85  C   UNL A   1      45.303  29.632  26.764  1.00  0.00     0.001 A 
ATOM     86  C   UNL A   1      47.275  28.279  26.451  1.00  0.00     0.001 A 
ATOM     87  C   UNL A   1      46.511  29.393  26.111  1.00  0.00     0.000 A 
ENDBRANCH  69  82
ENDBRANCH  43  44
ENDBRANCH  35  38
ENDBRANCH  33  34
ENDBRANCH  32  33
ENDBRANCH   1  32
TORSDOF 17
ENDMDL
