MODEL 1
REMARK VINA RESULT:     -10.3      0.000      0.000
REMARK SMILES Cc1cscc1CNC(=O)CC(C)(C)C(=O)NCCCCNC(=O)c1ccc(-c2c3nc(c(-c4ccccc4)c4ccc([nH]4)c(-c4ccccc4)c4nc(c(-c5ccccc5)c5ccc2[nH]5)C=C4)C=C3)cc1
REMARK SMILES IDX 18 1 17 2 15 3 16 4 12 6 13 7 14 8 11 9 9 10 8 11 10 13 7 14
REMARK SMILES IDX 6 15 1 16 2 17 3 18 4 19 5 20 19 21 20 22 21 23 22 24 23 25
REMARK SMILES IDX 24 27 25 28 26 29 72 30 27 31 71 32 28 33 29 34 30 35 65 36
REMARK SMILES IDX 31 37 70 38 64 39 66 40 32 41 69 42 63 43 62 44 33 46 55 47
REMARK SMILES IDX 40 48 54 49 41 50 44 51 53 52 67 53 42 54 43 55 52 57 68 58
REMARK SMILES IDX 45 59 34 60 35 61 39 62 36 63 38 64 37 65 56 66 57 67 61 68
REMARK SMILES IDX 58 69 60 70 59 71 46 72 47 73 51 74 48 75 50 76 49 77
REMARK H PARENT 17 5 8 12 22 26 66 45 44 56
REMARK Flexibility Score: inf
ROOT
ATOM      1  C   UNL A   1      36.283  21.832  25.633  1.00  0.00     0.116 C 
ENDROOT
BRANCH   1   2
ATOM      2  N   UNL A   1      35.354  21.920  26.738  1.00  0.00    -0.356 N 
ATOM      3  C   UNL A   1      34.220  22.639  26.941  1.00  0.00     0.226 C 
ATOM      4  O   UNL A   1      33.697  22.462  28.043  1.00  0.00    -0.274 OA
ATOM      5  H   UNL A   1      35.593  21.342  27.498  1.00  0.00     0.163 HD
BRANCH   3   6
ATOM      6  C   UNL A   1      33.669  23.666  25.928  1.00  0.00     0.052 C 
ATOM      7  C   UNL A   1      33.067  23.019  24.668  1.00  0.00     0.022 C 
ATOM      8  C   UNL A   1      34.852  24.561  25.491  1.00  0.00     0.022 C 
BRANCH   6   9
ATOM      9  C   UNL A   1      32.598  24.602  26.584  1.00  0.00     0.116 C 
BRANCH   9  10
ATOM     10  C   UNL A   1      31.111  24.295  26.432  1.00  0.00     0.221 C 
ATOM     11  N   UNL A   1      30.292  25.045  25.656  1.00  0.00    -0.352 N 
ATOM     12  H   UNL A   1      29.404  24.647  25.502  1.00  0.00     0.163 HD
ATOM     13  O   UNL A   1      30.587  23.391  27.088  1.00  0.00    -0.275 OA
BRANCH  11  14
ATOM     14  C   UNL A   1      30.488  26.321  25.015  1.00  0.00     0.152 C 
BRANCH  14  15
ATOM     15  C   UNL A   1      31.393  26.194  23.821  1.00  0.00    -0.015 A 
ATOM     16  C   UNL A   1      33.234  27.822  24.709  1.00  0.00     0.045 C 
ATOM     17  C   UNL A   1      32.667  26.879  23.697  1.00  0.00    -0.035 A 
ATOM     18  C   UNL A   1      33.308  26.547  22.516  1.00  0.00     0.068 A 
ATOM     19  S   UNL A   1      32.419  25.453  21.562  1.00  0.00    -0.152 S 
ATOM     20  C   UNL A   1      31.154  25.409  22.704  1.00  0.00     0.070 A 
ENDBRANCH  14  15
ENDBRANCH  11  14
ENDBRANCH   9  10
ENDBRANCH   6   9
ENDBRANCH   3   6
ENDBRANCH   1   2
BRANCH   1  21
ATOM     21  C   UNL A   1      36.414  20.411  25.094  1.00  0.00     0.023 C 
BRANCH  21  22
ATOM     22  C   UNL A   1      37.827  19.992  24.689  1.00  0.00     0.023 C 
BRANCH  22  23
ATOM     23  C   UNL A   1      38.924  20.322  25.695  1.00  0.00     0.116 C 
BRANCH  23  24
ATOM     24  N   UNL A   1      39.989  19.329  25.733  1.00  0.00    -0.352 N 
ATOM     25  C   UNL A   1      41.305  19.471  26.096  1.00  0.00     0.251 C 
ATOM     26  H   UNL A   1      39.726  18.421  25.457  1.00  0.00     0.163 HD
ATOM     27  O   UNL A   1      42.090  18.538  25.959  1.00  0.00    -0.269 OA
BRANCH  25  28
ATOM     28  C   UNL A   1      41.785  20.768  26.616  1.00  0.00     0.039 A 
ATOM     29  C   UNL A   1      42.321  21.697  25.722  1.00  0.00     0.014 A 
ATOM     30  C   UNL A   1      41.676  21.077  27.974  1.00  0.00     0.014 A 
ATOM     31  C   UNL A   1      42.671  22.969  26.176  1.00  0.00     0.010 A 
ATOM     32  C   UNL A   1      41.954  22.368  28.411  1.00  0.00     0.010 A 
ATOM     33  C   UNL A   1      42.448  23.329  27.515  1.00  0.00    -0.014 A 
BRANCH  33  34
ATOM     34  C   UNL A   1      42.722  24.704  28.000  1.00  0.00     0.031 A 
ATOM     35  C   UNL A   1      44.114  25.095  28.411  1.00  0.00     0.074 A 
ATOM     36  C   UNL A   1      41.706  25.580  28.136  1.00  0.00     0.049 A 
ATOM     37  N   UNL A   1      44.536  26.218  28.934  1.00  0.00    -0.248 NA
ATOM     38  C   UNL A   1      45.167  24.081  28.232  1.00  0.00     0.031 C 
ATOM     39  C   UNL A   1      40.303  25.315  27.811  1.00  0.00     0.029 A 
ATOM     40  N   UNL A   1      41.701  26.874  28.594  1.00  0.00    -0.354 N 
ATOM     41  C   UNL A   1      45.895  26.041  29.157  1.00  0.00     0.074 A 
ATOM     42  C   UNL A   1      46.218  24.687  28.765  1.00  0.00     0.031 C 
ATOM     43  C   UNL A   1      39.578  26.418  28.056  1.00  0.00     0.029 A 
ATOM     44  C   UNL A   1      40.454  27.454  28.593  1.00  0.00     0.049 A 
ATOM     45  H   UNL A   1      42.512  27.343  28.895  1.00  0.00     0.167 HD
ATOM     46  C   UNL A   1      46.802  26.932  29.625  1.00  0.00     0.031 A 
ATOM     47  C   UNL A   1      40.061  28.679  28.988  1.00  0.00     0.031 A 
ATOM     48  C   UNL A   1      46.488  28.281  30.008  1.00  0.00     0.049 A 
ATOM     49  C   UNL A   1      41.084  29.643  29.522  1.00  0.00     0.074 A 
ATOM     50  C   UNL A   1      47.342  29.271  30.464  1.00  0.00     0.029 A 
ATOM     51  N   UNL A   1      45.216  28.833  29.978  1.00  0.00    -0.354 N 
ATOM     52  N   UNL A   1      42.375  29.476  29.676  1.00  0.00    -0.248 NA
ATOM     53  C   UNL A   1      40.596  30.969  29.926  1.00  0.00     0.031 C 
ATOM     54  C   UNL A   1      46.581  30.410  30.744  1.00  0.00     0.029 A 
ATOM     55  C   UNL A   1      45.261  30.144  30.417  1.00  0.00     0.049 A 
ATOM     56  H   UNL A   1      44.402  28.360  29.689  1.00  0.00     0.167 HD
ATOM     57  C   UNL A   1      42.856  30.684  30.166  1.00  0.00     0.074 A 
ATOM     58  C   UNL A   1      41.722  31.578  30.266  1.00  0.00     0.031 C 
ATOM     59  C   UNL A   1      44.125  31.022  30.502  1.00  0.00     0.031 A 
BRANCH  46  60
ATOM     60  C   UNL A   1      48.227  26.469  29.736  1.00  0.00    -0.014 A 
ATOM     61  C   UNL A   1      49.128  26.647  28.674  1.00  0.00     0.009 A 
ATOM     62  C   UNL A   1      48.684  25.878  30.923  1.00  0.00     0.009 A 
ATOM     63  C   UNL A   1      50.449  26.210  28.785  1.00  0.00     0.001 A 
ATOM     64  C   UNL A   1      50.013  25.467  31.042  1.00  0.00     0.001 A 
ATOM     65  C   UNL A   1      50.892  25.625  29.970  1.00  0.00     0.000 A 
ENDBRANCH  46  60
BRANCH  47  66
ATOM     66  C   UNL A   1      38.632  29.079  28.887  1.00  0.00    -0.014 A 
ATOM     67  C   UNL A   1      38.126  29.613  27.692  1.00  0.00     0.009 A 
ATOM     68  C   UNL A   1      37.776  28.955  29.992  1.00  0.00     0.009 A 
ATOM     69  C   UNL A   1      36.801  30.048  27.617  1.00  0.00     0.001 A 
ATOM     70  C   UNL A   1      36.443  29.364  29.903  1.00  0.00     0.001 A 
ATOM     71  C   UNL A   1      35.960  29.921  28.721  1.00  0.00     0.000 A 
ENDBRANCH  47  66
BRANCH  59  72
ATOM     72  C   UNL A   1      44.356  32.430  30.968  1.00  0.00    -0.014 A 
ATOM     73  C   UNL A   1      44.665  33.456  30.061  1.00  0.00     0.009 A 
ATOM     74  C   UNL A   1      44.226  32.739  32.331  1.00  0.00     0.009 A 
ATOM     75  C   UNL A   1      44.872  34.759  30.518  1.00  0.00     0.001 A 
ATOM     76  C   UNL A   1      44.406  34.048  32.780  1.00  0.00     0.001 A 
ATOM     77  C   UNL A   1      44.737  35.056  31.875  1.00  0.00     0.000 A 
ENDBRANCH  59  72
ENDBRANCH  33  34
ENDBRANCH  25  28
ENDBRANCH  23  24
ENDBRANCH  22  23
ENDBRANCH  21  22
ENDBRANCH   1  21
TORSDOF 15
ENDMDL
MODEL 2
REMARK VINA RESULT:     -10.2      2.258      7.630
REMARK SMILES Cc1cscc1CNC(=O)CC(C)(C)C(=O)NCCCCNC(=O)c1ccc(-c2c3nc(c(-c4ccccc4)c4ccc([nH]4)c(-c4ccccc4)c4nc(c(-c5ccccc5)c5ccc2[nH]5)C=C4)C=C3)cc1
REMARK SMILES IDX 18 1 17 2 15 3 16 4 12 6 13 7 14 8 11 9 9 10 8 11 10 13 7 14
REMARK SMILES IDX 6 15 1 16 2 17 3 18 4 19 5 20 19 21 20 22 21 23 22 24 23 25
REMARK SMILES IDX 24 27 25 28 26 29 72 30 27 31 71 32 28 33 29 34 30 35 65 36
REMARK SMILES IDX 31 37 70 38 64 39 66 40 32 41 69 42 63 43 62 44 33 46 55 47
REMARK SMILES IDX 40 48 54 49 41 50 44 51 53 52 67 53 42 54 43 55 52 57 68 58
REMARK SMILES IDX 45 59 34 60 35 61 39 62 36 63 38 64 37 65 56 66 57 67 61 68
REMARK SMILES IDX 58 69 60 70 59 71 46 72 47 73 51 74 48 75 50 76 49 77
REMARK H PARENT 17 5 8 12 22 26 66 45 44 56
REMARK Flexibility Score: inf
ROOT
ATOM      1  C   UNL A   1      31.909  28.132  24.079  1.00  0.00     0.116 C 
ENDROOT
BRANCH   1   2
ATOM      2  N   UNL A   1      32.767  27.625  23.031  1.00  0.00    -0.356 N 
ATOM      3  C   UNL A   1      33.315  26.405  22.789  1.00  0.00     0.226 C 
ATOM      4  O   UNL A   1      34.026  26.358  21.784  1.00  0.00    -0.274 OA
ATOM      5  H   UNL A   1      33.004  28.301  22.356  1.00  0.00     0.163 HD
BRANCH   3   6
ATOM      6  C   UNL A   1      33.149  25.194  23.733  1.00  0.00     0.052 C 
ATOM      7  C   UNL A   1      31.679  24.846  24.027  1.00  0.00     0.022 C 
ATOM      8  C   UNL A   1      33.835  25.556  25.071  1.00  0.00     0.022 C 
BRANCH   6   9
ATOM      9  C   UNL A   1      33.873  23.924  23.170  1.00  0.00     0.116 C 
BRANCH   9  10
ATOM     10  C   UNL A   1      33.283  22.536  23.401  1.00  0.00     0.221 C 
ATOM     11  N   UNL A   1      33.460  21.857  24.560  1.00  0.00    -0.352 N 
ATOM     12  H   UNL A   1      32.891  21.059  24.653  1.00  0.00     0.163 HD
ATOM     13  O   UNL A   1      32.688  21.948  22.494  1.00  0.00    -0.275 OA
BRANCH  11  14
ATOM     14  C   UNL A   1      34.333  22.095  25.682  1.00  0.00     0.152 C 
BRANCH  14  15
ATOM     15  C   UNL A   1      35.715  21.566  25.414  1.00  0.00    -0.015 A 
ATOM     16  C   UNL A   1      36.969  23.770  26.049  1.00  0.00     0.045 C 
ATOM     17  C   UNL A   1      36.927  22.343  25.602  1.00  0.00    -0.035 A 
ATOM     18  C   UNL A   1      38.057  21.596  25.322  1.00  0.00     0.068 A 
ATOM     19  S   UNL A   1      37.697  20.004  24.834  1.00  0.00    -0.152 S 
ATOM     20  C   UNL A   1      36.022  20.287  24.978  1.00  0.00     0.070 A 
ENDBRANCH  14  15
ENDBRANCH  11  14
ENDBRANCH   9  10
ENDBRANCH   6   9
ENDBRANCH   3   6
ENDBRANCH   1   2
BRANCH   1  21
ATOM     21  C   UNL A   1      32.542  29.290  24.841  1.00  0.00     0.023 C 
BRANCH  21  22
ATOM     22  C   UNL A   1      33.749  28.925  25.705  1.00  0.00     0.023 C 
BRANCH  22  23
ATOM     23  C   UNL A   1      33.514  28.961  27.211  1.00  0.00     0.116 C 
BRANCH  23  24
ATOM     24  N   UNL A   1      33.568  30.305  27.770  1.00  0.00    -0.352 N 
ATOM     25  C   UNL A   1      34.593  30.939  28.428  1.00  0.00     0.251 C 
ATOM     26  H   UNL A   1      32.747  30.838  27.660  1.00  0.00     0.163 HD
ATOM     27  O   UNL A   1      34.417  32.045  28.930  1.00  0.00    -0.269 OA
BRANCH  25  28
ATOM     28  C   UNL A   1      35.901  30.267  28.564  1.00  0.00     0.039 A 
ATOM     29  C   UNL A   1      36.772  30.258  27.472  1.00  0.00     0.014 A 
ATOM     30  C   UNL A   1      36.278  29.676  29.772  1.00  0.00     0.014 A 
ATOM     31  C   UNL A   1      38.056  29.732  27.618  1.00  0.00     0.010 A 
ATOM     32  C   UNL A   1      37.582  29.221  29.939  1.00  0.00     0.010 A 
ATOM     33  C   UNL A   1      38.486  29.250  28.865  1.00  0.00    -0.014 A 
BRANCH  33  34
ATOM     34  C   UNL A   1      39.876  28.774  29.070  1.00  0.00     0.031 A 
ATOM     35  C   UNL A   1      40.919  29.706  29.620  1.00  0.00     0.074 A 
ATOM     36  C   UNL A   1      40.217  27.523  28.698  1.00  0.00     0.049 A 
ATOM     37  N   UNL A   1      42.200  29.502  29.795  1.00  0.00    -0.248 NA
ATOM     38  C   UNL A   1      40.467  31.054  30.003  1.00  0.00     0.031 C 
ATOM     39  C   UNL A   1      39.310  26.532  28.115  1.00  0.00     0.029 A 
ATOM     40  N   UNL A   1      41.426  26.877  28.748  1.00  0.00    -0.354 N 
ATOM     41  C   UNL A   1      42.706  30.696  30.293  1.00  0.00     0.074 A 
ATOM     42  C   UNL A   1      41.608  31.635  30.342  1.00  0.00     0.031 C 
ATOM     43  C   UNL A   1      39.989  25.396  27.885  1.00  0.00     0.029 A 
ATOM     44  C   UNL A   1      41.384  25.591  28.264  1.00  0.00     0.049 A 
ATOM     45  H   UNL A   1      42.246  27.294  29.097  1.00  0.00     0.167 HD
ATOM     46  C   UNL A   1      43.967  30.979  30.697  1.00  0.00     0.031 A 
ATOM     47  C   UNL A   1      42.362  24.675  28.134  1.00  0.00     0.031 A 
ATOM     48  C   UNL A   1      45.060  30.046  30.657  1.00  0.00     0.049 A 
ATOM     49  C   UNL A   1      43.758  25.022  28.571  1.00  0.00     0.074 A 
ATOM     50  C   UNL A   1      46.367  30.229  31.074  1.00  0.00     0.029 A 
ATOM     51  N   UNL A   1      44.971  28.750  30.174  1.00  0.00    -0.354 N 
ATOM     52  N   UNL A   1      44.207  26.139  29.090  1.00  0.00    -0.248 NA
ATOM     53  C   UNL A   1      44.779  23.977  28.415  1.00  0.00     0.031 C 
ATOM     54  C   UNL A   1      47.079  29.055  30.809  1.00  0.00     0.029 A 
ATOM     55  C   UNL A   1      46.203  28.126  30.272  1.00  0.00     0.049 A 
ATOM     56  H   UNL A   1      44.154  28.336  29.813  1.00  0.00     0.167 HD
ATOM     57  C   UNL A   1      45.554  25.920  29.349  1.00  0.00     0.074 A 
ATOM     58  C   UNL A   1      45.843  24.559  28.947  1.00  0.00     0.031 C 
ATOM     59  C   UNL A   1      46.470  26.769  29.874  1.00  0.00     0.031 A 
BRANCH  46  60
ATOM     60  C   UNL A   1      44.224  32.361  31.228  1.00  0.00    -0.014 A 
ATOM     61  C   UNL A   1      44.123  32.637  32.600  1.00  0.00     0.009 A 
ATOM     62  C   UNL A   1      44.602  33.391  30.353  1.00  0.00     0.009 A 
ATOM     63  C   UNL A   1      44.360  33.925  33.083  1.00  0.00     0.001 A 
ATOM     64  C   UNL A   1      44.866  34.672  30.842  1.00  0.00     0.001 A 
ATOM     65  C   UNL A   1      44.736  34.941  32.205  1.00  0.00     0.000 A 
ENDBRANCH  46  60
BRANCH  47  66
ATOM     66  C   UNL A   1      42.062  23.330  27.573  1.00  0.00    -0.014 A 
ATOM     67  C   UNL A   1      42.270  23.066  26.211  1.00  0.00     0.009 A 
ATOM     68  C   UNL A   1      41.543  22.315  28.390  1.00  0.00     0.009 A 
ATOM     69  C   UNL A   1      41.929  21.824  25.671  1.00  0.00     0.001 A 
ATOM     70  C   UNL A   1      41.231  21.064  27.852  1.00  0.00     0.001 A 
ATOM     71  C   UNL A   1      41.412  20.823  26.492  1.00  0.00     0.000 A 
ENDBRANCH  47  66
BRANCH  59  72
ATOM     72  C   UNL A   1      47.858  26.236  30.082  1.00  0.00    -0.014 A 
ATOM     73  C   UNL A   1      48.790  26.201  29.033  1.00  0.00     0.009 A 
ATOM     74  C   UNL A   1      48.247  25.798  31.358  1.00  0.00     0.009 A 
ATOM     75  C   UNL A   1      50.076  25.704  29.252  1.00  0.00     0.001 A 
ATOM     76  C   UNL A   1      49.543  25.328  31.579  1.00  0.00     0.001 A 
ATOM     77  C   UNL A   1      50.454  25.274  30.525  1.00  0.00     0.000 A 
ENDBRANCH  59  72
ENDBRANCH  33  34
ENDBRANCH  25  28
ENDBRANCH  23  24
ENDBRANCH  22  23
ENDBRANCH  21  22
ENDBRANCH   1  21
TORSDOF 15
ENDMDL
MODEL 3
REMARK VINA RESULT:     -10.0      2.426      7.559
REMARK SMILES Cc1cscc1CNC(=O)CC(C)(C)C(=O)NCCCCNC(=O)c1ccc(-c2c3nc(c(-c4ccccc4)c4ccc([nH]4)c(-c4ccccc4)c4nc(c(-c5ccccc5)c5ccc2[nH]5)C=C4)C=C3)cc1
REMARK SMILES IDX 18 1 17 2 15 3 16 4 12 6 13 7 14 8 11 9 9 10 8 11 10 13 7 14
REMARK SMILES IDX 6 15 1 16 2 17 3 18 4 19 5 20 19 21 20 22 21 23 22 24 23 25
REMARK SMILES IDX 24 27 25 28 26 29 72 30 27 31 71 32 28 33 29 34 30 35 65 36
REMARK SMILES IDX 31 37 70 38 64 39 66 40 32 41 69 42 63 43 62 44 33 46 55 47
REMARK SMILES IDX 40 48 54 49 41 50 44 51 53 52 67 53 42 54 43 55 52 57 68 58
REMARK SMILES IDX 45 59 34 60 35 61 39 62 36 63 38 64 37 65 56 66 57 67 61 68
REMARK SMILES IDX 58 69 60 70 59 71 46 72 47 73 51 74 48 75 50 76 49 77
REMARK H PARENT 17 5 8 12 22 26 66 45 44 56
REMARK Flexibility Score: inf
ROOT
ATOM      1  C   UNL A   1      32.011  28.378  23.836  1.00  0.00     0.116 C 
ENDROOT
BRANCH   1   2
ATOM      2  N   UNL A   1      30.741  27.690  23.925  1.00  0.00    -0.356 N 
ATOM      3  C   UNL A   1      30.369  26.496  24.455  1.00  0.00     0.226 C 
ATOM      4  O   UNL A   1      29.173  26.231  24.319  1.00  0.00    -0.274 OA
ATOM      5  H   UNL A   1      29.996  28.188  23.518  1.00  0.00     0.163 HD
BRANCH   3   6
ATOM      6  C   UNL A   1      31.363  25.500  25.092  1.00  0.00     0.052 C 
ATOM      7  C   UNL A   1      31.860  25.938  26.481  1.00  0.00     0.022 C 
ATOM      8  C   UNL A   1      32.585  25.403  24.150  1.00  0.00     0.022 C 
BRANCH   6   9
ATOM      9  C   UNL A   1      30.746  24.063  25.199  1.00  0.00     0.116 C 
BRANCH   9  10
ATOM     10  C   UNL A   1      30.964  23.224  26.454  1.00  0.00     0.221 C 
ATOM     11  N   UNL A   1      32.077  22.472  26.638  1.00  0.00    -0.352 N 
ATOM     12  H   UNL A   1      32.180  22.120  27.552  1.00  0.00     0.163 HD
ATOM     13  O   UNL A   1      30.083  23.138  27.313  1.00  0.00    -0.275 OA
BRANCH  11  14
ATOM     14  C   UNL A   1      33.136  22.097  25.736  1.00  0.00     0.152 C 
BRANCH  14  15
ATOM     15  C   UNL A   1      32.835  20.785  25.065  1.00  0.00    -0.015 A 
ATOM     16  C   UNL A   1      32.258  21.808  22.730  1.00  0.00     0.045 C 
ATOM     17  C   UNL A   1      32.447  20.661  23.671  1.00  0.00    -0.035 A 
ATOM     18  C   UNL A   1      32.275  19.337  23.309  1.00  0.00     0.068 A 
ATOM     19  S   UNL A   1      32.556  18.254  24.593  1.00  0.00    -0.152 S 
ATOM     20  C   UNL A   1      32.904  19.536  25.662  1.00  0.00     0.070 A 
ENDBRANCH  14  15
ENDBRANCH  11  14
ENDBRANCH   9  10
ENDBRANCH   6   9
ENDBRANCH   3   6
ENDBRANCH   1   2
BRANCH   1  21
ATOM     21  C   UNL A   1      32.268  29.282  25.037  1.00  0.00     0.023 C 
BRANCH  21  22
ATOM     22  C   UNL A   1      33.617  29.087  25.727  1.00  0.00     0.023 C 
BRANCH  22  23
ATOM     23  C   UNL A   1      33.577  29.048  27.250  1.00  0.00     0.116 C 
BRANCH  23  24
ATOM     24  N   UNL A   1      33.621  30.369  27.862  1.00  0.00    -0.352 N 
ATOM     25  C   UNL A   1      34.639  30.981  28.550  1.00  0.00     0.251 C 
ATOM     26  H   UNL A   1      32.799  30.902  27.768  1.00  0.00     0.163 HD
ATOM     27  O   UNL A   1      34.455  32.066  29.094  1.00  0.00    -0.269 OA
BRANCH  25  28
ATOM     28  C   UNL A   1      35.949  30.309  28.668  1.00  0.00     0.039 A 
ATOM     29  C   UNL A   1      36.817  30.325  27.573  1.00  0.00     0.014 A 
ATOM     30  C   UNL A   1      36.333  29.696  29.863  1.00  0.00     0.014 A 
ATOM     31  C   UNL A   1      38.102  29.798  27.704  1.00  0.00     0.010 A 
ATOM     32  C   UNL A   1      37.638  29.241  30.016  1.00  0.00     0.010 A 
ATOM     33  C   UNL A   1      38.538  29.293  28.940  1.00  0.00    -0.014 A 
BRANCH  33  34
ATOM     34  C   UNL A   1      39.930  28.816  29.131  1.00  0.00     0.031 A 
ATOM     35  C   UNL A   1      40.978  29.746  29.677  1.00  0.00     0.074 A 
ATOM     36  C   UNL A   1      40.268  27.568  28.749  1.00  0.00     0.049 A 
ATOM     37  N   UNL A   1      42.259  29.542  29.839  1.00  0.00    -0.248 NA
ATOM     38  C   UNL A   1      40.528  31.092  30.071  1.00  0.00     0.031 C 
ATOM     39  C   UNL A   1      39.356  26.579  28.168  1.00  0.00     0.029 A 
ATOM     40  N   UNL A   1      41.478  26.922  28.785  1.00  0.00    -0.354 N 
ATOM     41  C   UNL A   1      42.770  30.732  30.339  1.00  0.00     0.074 A 
ATOM     42  C   UNL A   1      41.672  31.671  30.403  1.00  0.00     0.031 C 
ATOM     43  C   UNL A   1      40.033  25.445  27.926  1.00  0.00     0.029 A 
ATOM     44  C   UNL A   1      41.432  25.638  28.294  1.00  0.00     0.049 A 
ATOM     45  H   UNL A   1      42.301  27.337  29.129  1.00  0.00     0.167 HD
ATOM     46  C   UNL A   1      44.034  31.015  30.734  1.00  0.00     0.031 A 
ATOM     47  C   UNL A   1      42.409  24.724  28.151  1.00  0.00     0.031 A 
ATOM     48  C   UNL A   1      45.127  30.082  30.680  1.00  0.00     0.049 A 
ATOM     49  C   UNL A   1      43.809  25.069  28.578  1.00  0.00     0.074 A 
ATOM     50  C   UNL A   1      46.438  30.264  31.087  1.00  0.00     0.029 A 
ATOM     51  N   UNL A   1      45.034  28.789  30.191  1.00  0.00    -0.354 N 
ATOM     52  N   UNL A   1      44.262  26.183  29.099  1.00  0.00    -0.248 NA
ATOM     53  C   UNL A   1      44.828  24.025  28.408  1.00  0.00     0.031 C 
ATOM     54  C   UNL A   1      47.147  29.091  30.809  1.00  0.00     0.029 A 
ATOM     55  C   UNL A   1      46.267  28.164  30.275  1.00  0.00     0.049 A 
ATOM     56  H   UNL A   1      44.214  28.376  29.835  1.00  0.00     0.167 HD
ATOM     57  C   UNL A   1      45.611  25.963  29.346  1.00  0.00     0.074 A 
ATOM     58  C   UNL A   1      45.898  24.605  28.933  1.00  0.00     0.031 C 
ATOM     59  C   UNL A   1      46.531  26.810  29.867  1.00  0.00     0.031 A 
BRANCH  46  60
ATOM     60  C   UNL A   1      44.295  32.394  31.270  1.00  0.00    -0.014 A 
ATOM     61  C   UNL A   1      44.669  33.442  30.414  1.00  0.00     0.009 A 
ATOM     62  C   UNL A   1      44.135  32.658  32.639  1.00  0.00     0.009 A 
ATOM     63  C   UNL A   1      44.912  34.719  30.923  1.00  0.00     0.001 A 
ATOM     64  C   UNL A   1      44.352  33.942  33.141  1.00  0.00     0.001 A 
ATOM     65  C   UNL A   1      44.749  34.970  32.285  1.00  0.00     0.000 A 
ENDBRANCH  46  60
BRANCH  47  66
ATOM     66  C   UNL A   1      42.105  23.382  27.586  1.00  0.00    -0.014 A 
ATOM     67  C   UNL A   1      42.183  23.160  26.202  1.00  0.00     0.009 A 
ATOM     68  C   UNL A   1      41.710  22.327  28.422  1.00  0.00     0.009 A 
ATOM     69  C   UNL A   1      41.835  21.918  25.665  1.00  0.00     0.001 A 
ATOM     70  C   UNL A   1      41.393  21.078  27.883  1.00  0.00     0.001 A 
ATOM     71  C   UNL A   1      41.444  20.877  26.505  1.00  0.00     0.000 A 
ENDBRANCH  47  66
BRANCH  59  72
ATOM     72  C   UNL A   1      47.921  26.276  30.061  1.00  0.00    -0.014 A 
ATOM     73  C   UNL A   1      48.848  26.258  29.007  1.00  0.00     0.009 A 
ATOM     74  C   UNL A   1      48.317  25.820  31.328  1.00  0.00     0.009 A 
ATOM     75  C   UNL A   1      50.136  25.761  29.212  1.00  0.00     0.001 A 
ATOM     76  C   UNL A   1      49.615  25.349  31.535  1.00  0.00     0.001 A 
ATOM     77  C   UNL A   1      50.520  25.312  30.476  1.00  0.00     0.000 A 
ENDBRANCH  59  72
ENDBRANCH  33  34
ENDBRANCH  25  28
ENDBRANCH  23  24
ENDBRANCH  22  23
ENDBRANCH  21  22
ENDBRANCH   1  21
TORSDOF 15
ENDMDL
