MODEL 1
REMARK VINA RESULT:     -12.1      0.000      0.000
REMARK SMILES O=C(NCCCCNC(=O)[C@@H]1CCCC[C@@H]1C(=O)Nc1cccc(C(F)(F)F)c1)c1ccc(-c2c3nc(c(-c4ccccc4)c4ccc([nH]4)c(-c4ccccc4)c4nc(c(-c5ccccc5)c5ccc2[nH]5)C=C4)C=C3)cc1
REMARK SMILES IDX 6 1 5 2 4 3 3 4 1 5 2 6 30 8 31 9 77 10 32 11 76 12 33 13
REMARK SMILES IDX 34 14 35 15 70 16 36 17 75 18 69 19 71 20 37 21 74 22 68 23
REMARK SMILES IDX 67 24 38 26 60 27 45 28 59 29 46 30 49 31 58 32 72 33 47 34
REMARK SMILES IDX 48 35 57 37 73 38 50 39 39 40 40 41 44 42 41 43 43 44 42 45
REMARK SMILES IDX 61 46 62 47 66 48 63 49 65 50 64 51 51 52 52 53 56 54 53 55
REMARK SMILES IDX 55 56 54 57 7 58 8 59 9 60 10 62 11 63 12 64 16 65 13 66
REMARK SMILES IDX 15 67 14 68 17 69 18 70 19 71 20 73 21 74 29 75 22 76 24 77
REMARK SMILES IDX 23 78 25 79 26 80 27 81 28 82
REMARK H PARENT 3 7 71 25 49 36 8 61 19 72
REMARK Flexibility Score: inf
ROOT
ATOM      1  C   UNL A   1      37.017  20.206  24.741  1.00  0.00     0.023 C 
ENDROOT
BRANCH   1   2
ATOM      2  C   UNL A   1      38.158  19.217  25.005  1.00  0.00     0.023 C 
BRANCH   2   3
ATOM      3  C   UNL A   1      39.343  19.785  25.778  1.00  0.00     0.116 C 
BRANCH   3   4
ATOM      4  N   UNL A   1      40.461  18.859  25.850  1.00  0.00    -0.352 N 
ATOM      5  O   UNL A   1      42.627  18.237  25.963  1.00  0.00    -0.269 OA
ATOM      6  C   UNL A   1      41.788  19.124  26.085  1.00  0.00     0.251 C 
ATOM      7  H   UNL A   1      40.236  17.910  25.712  1.00  0.00     0.163 HD
BRANCH   6   8
ATOM      8  C   UNL A   1      42.206  20.489  26.466  1.00  0.00     0.039 A 
ATOM      9  C   UNL A   1      42.642  21.399  25.498  1.00  0.00     0.014 A 
ATOM     10  C   UNL A   1      42.144  20.866  27.810  1.00  0.00     0.014 A 
ATOM     11  C   UNL A   1      43.120  22.645  25.887  1.00  0.00     0.010 A 
ATOM     12  C   UNL A   1      42.556  22.146  28.190  1.00  0.00     0.010 A 
ATOM     13  C   UNL A   1      43.063  23.039  27.233  1.00  0.00    -0.014 A 
BRANCH  13  14
ATOM     14  C   UNL A   1      43.450  24.420  27.610  1.00  0.00     0.031 A 
ATOM     15  C   UNL A   1      42.418  25.446  27.984  1.00  0.00     0.074 A 
ATOM     16  C   UNL A   1      44.758  24.744  27.603  1.00  0.00     0.049 A 
ATOM     17  N   UNL A   1      42.594  26.700  28.319  1.00  0.00    -0.248 NA
ATOM     18  C   UNL A   1      41.011  25.017  27.975  1.00  0.00     0.031 C 
ATOM     19  C   UNL A   1      45.850  23.833  27.247  1.00  0.00     0.029 A 
ATOM     20  N   UNL A   1      45.392  25.922  27.906  1.00  0.00    -0.354 N 
ATOM     21  C   UNL A   1      41.322  27.215  28.539  1.00  0.00     0.074 A 
ATOM     22  C   UNL A   1      40.383  26.143  28.285  1.00  0.00     0.031 C 
ATOM     23  C   UNL A   1      47.019  24.476  27.380  1.00  0.00     0.029 A 
ATOM     24  C   UNL A   1      46.757  25.857  27.767  1.00  0.00     0.049 A 
ATOM     25  H   UNL A   1      44.916  26.733  28.194  1.00  0.00     0.167 HD
ATOM     26  C   UNL A   1      40.975  28.469  28.919  1.00  0.00     0.031 A 
ATOM     27  C   UNL A   1      47.696  26.810  27.907  1.00  0.00     0.031 A 
ATOM     28  C   UNL A   1      41.915  29.530  29.175  1.00  0.00     0.049 A 
ATOM     29  C   UNL A   1      47.276  28.198  28.288  1.00  0.00     0.074 A 
ATOM     30  C   UNL A   1      41.661  30.815  29.623  1.00  0.00     0.029 A 
ATOM     31  N   UNL A   1      43.285  29.434  28.993  1.00  0.00    -0.354 N 
ATOM     32  N   UNL A   1      46.075  28.652  28.551  1.00  0.00    -0.248 NA
ATOM     33  C   UNL A   1      48.340  29.206  28.385  1.00  0.00     0.031 C 
ATOM     34  C   UNL A   1      42.872  31.514  29.656  1.00  0.00     0.029 A 
ATOM     35  C   UNL A   1      43.885  30.649  29.281  1.00  0.00     0.049 A 
ATOM     36  H   UNL A   1      43.762  28.622  28.703  1.00  0.00     0.167 HD
ATOM     37  C   UNL A   1      46.239  29.995  28.857  1.00  0.00     0.074 A 
ATOM     38  C   UNL A   1      47.657  30.277  28.770  1.00  0.00     0.031 C 
ATOM     39  C   UNL A   1      45.296  30.915  29.178  1.00  0.00     0.031 A 
BRANCH  26  40
ATOM     40  C   UNL A   1      39.511  28.781  29.054  1.00  0.00    -0.014 A 
ATOM     41  C   UNL A   1      38.837  28.618  30.275  1.00  0.00     0.009 A 
ATOM     42  C   UNL A   1      38.813  29.316  27.960  1.00  0.00     0.009 A 
ATOM     43  C   UNL A   1      37.488  28.962  30.388  1.00  0.00     0.001 A 
ATOM     44  C   UNL A   1      37.471  29.681  28.082  1.00  0.00     0.001 A 
ATOM     45  C   UNL A   1      36.808  29.498  29.294  1.00  0.00     0.000 A 
ENDBRANCH  26  40
BRANCH  27  46
ATOM     46  C   UNL A   1      49.121  26.484  27.647  1.00  0.00    -0.014 A 
ATOM     47  C   UNL A   1      49.977  26.119  28.697  1.00  0.00     0.009 A 
ATOM     48  C   UNL A   1      49.631  26.530  26.339  1.00  0.00     0.009 A 
ATOM     49  C   UNL A   1      51.318  25.826  28.443  1.00  0.00     0.001 A 
ATOM     50  C   UNL A   1      50.965  26.207  26.086  1.00  0.00     0.001 A 
ATOM     51  C   UNL A   1      51.810  25.864  27.139  1.00  0.00     0.000 A 
ENDBRANCH  27  46
BRANCH  39  52
ATOM     52  C   UNL A   1      45.776  32.306  29.471  1.00  0.00    -0.014 A 
ATOM     53  C   UNL A   1      46.180  32.675  30.763  1.00  0.00     0.009 A 
ATOM     54  C   UNL A   1      45.858  33.248  28.434  1.00  0.00     0.009 A 
ATOM     55  C   UNL A   1      46.631  33.972  31.018  1.00  0.00     0.001 A 
ATOM     56  C   UNL A   1      46.336  34.535  28.686  1.00  0.00     0.001 A 
ATOM     57  C   UNL A   1      46.714  34.897  29.978  1.00  0.00     0.000 A 
ENDBRANCH  39  52
ENDBRANCH  13  14
ENDBRANCH   6   8
ENDBRANCH   3   4
ENDBRANCH   2   3
ENDBRANCH   1   2
BRANCH   1  58
ATOM     58  C   UNL A   1      37.309  21.640  25.180  1.00  0.00     0.116 C 
BRANCH  58  59
ATOM     59  N   UNL A   1      36.357  22.091  26.181  1.00  0.00    -0.356 N 
ATOM     60  C   UNL A   1      35.325  22.974  26.102  1.00  0.00     0.223 C 
ATOM     61  H   UNL A   1      36.481  21.687  27.070  1.00  0.00     0.163 HD
ATOM     62  O   UNL A   1      34.754  23.269  27.150  1.00  0.00    -0.275 OA
BRANCH  60  63
ATOM     63  C   UNL A   1      34.864  23.488  24.747  1.00  0.00     0.091 C 
ATOM     64  C   UNL A   1      34.279  24.898  24.849  1.00  0.00     0.014 C 
ATOM     65  C   UNL A   1      33.918  22.477  24.075  1.00  0.00     0.091 C 
ATOM     66  C   UNL A   1      33.864  25.402  23.469  1.00  0.00     0.001 C 
ATOM     67  C   UNL A   1      33.413  23.015  22.722  1.00  0.00     0.014 C 
ATOM     68  C   UNL A   1      32.888  24.450  22.783  1.00  0.00     0.001 C 
BRANCH  65  69
ATOM     69  C   UNL A   1      32.708  22.076  24.932  1.00  0.00     0.228 C 
ATOM     70  O   UNL A   1      32.123  22.901  25.641  1.00  0.00    -0.274 OA
ATOM     71  N   UNL A   1      32.111  20.855  24.779  1.00  0.00    -0.326 N 
ATOM     72  H   UNL A   1      31.202  20.807  25.153  1.00  0.00     0.169 HD
BRANCH  71  73
ATOM     73  C   UNL A   1      32.542  19.657  24.193  1.00  0.00     0.041 A 
ATOM     74  C   UNL A   1      32.103  19.384  22.895  1.00  0.00     0.026 A 
ATOM     75  C   UNL A   1      33.324  18.710  24.855  1.00  0.00     0.039 A 
ATOM     76  C   UNL A   1      32.523  18.229  22.232  1.00  0.00     0.003 A 
ATOM     77  C   UNL A   1      33.752  17.540  24.205  1.00  0.00     0.058 A 
ATOM     78  C   UNL A   1      33.357  17.318  22.879  1.00  0.00     0.013 A 
BRANCH  77  79
ATOM     79  C   UNL A   1      34.628  16.538  24.912  1.00  0.00     0.416 C 
ATOM     80  F   UNL A   1      35.865  17.029  25.201  1.00  0.00    -0.166 F 
ATOM     81  F   UNL A   1      34.097  16.132  26.098  1.00  0.00    -0.166 F 
ATOM     82  F   UNL A   1      34.842  15.397  24.195  1.00  0.00    -0.166 F 
ENDBRANCH  77  79
ENDBRANCH  71  73
ENDBRANCH  65  69
ENDBRANCH  60  63
ENDBRANCH  58  59
ENDBRANCH   1  58
TORSDOF 14
ENDMDL
MODEL 2
REMARK VINA RESULT:     -12.0      6.747     11.191
REMARK SMILES O=C(NCCCCNC(=O)[C@@H]1CCCC[C@@H]1C(=O)Nc1cccc(C(F)(F)F)c1)c1ccc(-c2c3nc(c(-c4ccccc4)c4ccc([nH]4)c(-c4ccccc4)c4nc(c(-c5ccccc5)c5ccc2[nH]5)C=C4)C=C3)cc1
REMARK SMILES IDX 6 1 5 2 4 3 3 4 1 5 2 6 30 8 31 9 77 10 32 11 76 12 33 13
REMARK SMILES IDX 34 14 35 15 70 16 36 17 75 18 69 19 71 20 37 21 74 22 68 23
REMARK SMILES IDX 67 24 38 26 60 27 45 28 59 29 46 30 49 31 58 32 72 33 47 34
REMARK SMILES IDX 48 35 57 37 73 38 50 39 39 40 40 41 44 42 41 43 43 44 42 45
REMARK SMILES IDX 61 46 62 47 66 48 63 49 65 50 64 51 51 52 52 53 56 54 53 55
REMARK SMILES IDX 55 56 54 57 7 58 8 59 9 60 10 62 11 63 12 64 16 65 13 66
REMARK SMILES IDX 15 67 14 68 17 69 18 70 19 71 20 73 21 74 29 75 22 76 24 77
REMARK SMILES IDX 23 78 25 79 26 80 27 81 28 82
REMARK H PARENT 3 7 71 25 49 36 8 61 19 72
REMARK Flexibility Score: inf
ROOT
ATOM      1  C   UNL A   1      31.411  30.825  26.097  1.00  0.00     0.023 C 
ENDROOT
BRANCH   1   2
ATOM      2  C   UNL A   1      31.296  32.296  26.513  1.00  0.00     0.023 C 
BRANCH   2   3
ATOM      3  C   UNL A   1      32.530  32.875  27.197  1.00  0.00     0.116 C 
BRANCH   3   4
ATOM      4  N   UNL A   1      32.337  34.249  27.631  1.00  0.00    -0.352 N 
ATOM      5  O   UNL A   1      32.598  36.053  28.960  1.00  0.00    -0.269 OA
ATOM      6  C   UNL A   1      32.989  34.941  28.621  1.00  0.00     0.251 C 
ATOM      7  H   UNL A   1      31.642  34.754  27.147  1.00  0.00     0.163 HD
BRANCH   6   8
ATOM      8  C   UNL A   1      34.155  34.332  29.295  1.00  0.00     0.039 A 
ATOM      9  C   UNL A   1      33.989  33.549  30.441  1.00  0.00     0.014 A 
ATOM     10  C   UNL A   1      35.430  34.535  28.759  1.00  0.00     0.014 A 
ATOM     11  C   UNL A   1      35.105  33.063  31.113  1.00  0.00     0.010 A 
ATOM     12  C   UNL A   1      36.545  33.984  29.395  1.00  0.00     0.010 A 
ATOM     13  C   UNL A   1      36.392  33.258  30.587  1.00  0.00    -0.014 A 
BRANCH  13  14
ATOM     14  C   UNL A   1      37.557  32.618  31.243  1.00  0.00     0.031 A 
ATOM     15  C   UNL A   1      38.247  31.433  30.629  1.00  0.00     0.074 A 
ATOM     16  C   UNL A   1      37.986  33.118  32.419  1.00  0.00     0.049 A 
ATOM     17  N   UNL A   1      39.266  30.749  31.087  1.00  0.00    -0.248 NA
ATOM     18  C   UNL A   1      37.726  30.947  29.341  1.00  0.00     0.031 C 
ATOM     19  C   UNL A   1      37.388  34.260  33.117  1.00  0.00     0.029 A 
ATOM     20  N   UNL A   1      39.023  32.737  33.231  1.00  0.00    -0.354 N 
ATOM     21  C   UNL A   1      39.495  29.742  30.158  1.00  0.00     0.074 A 
ATOM     22  C   UNL A   1      38.499  29.893  29.118  1.00  0.00     0.031 C 
ATOM     23  C   UNL A   1      38.085  34.504  34.236  1.00  0.00     0.029 A 
ATOM     24  C   UNL A   1      39.134  33.501  34.367  1.00  0.00     0.049 A 
ATOM     25  H   UNL A   1      39.627  31.989  33.021  1.00  0.00     0.167 HD
ATOM     26  C   UNL A   1      40.450  28.781  30.176  1.00  0.00     0.031 A 
ATOM     27  C   UNL A   1      39.971  33.393  35.415  1.00  0.00     0.031 A 
ATOM     28  C   UNL A   1      41.440  28.639  31.212  1.00  0.00     0.049 A 
ATOM     29  C   UNL A   1      40.990  32.292  35.425  1.00  0.00     0.074 A 
ATOM     30  C   UNL A   1      42.486  27.734  31.284  1.00  0.00     0.029 A 
ATOM     31  N   UNL A   1      41.501  29.412  32.359  1.00  0.00    -0.354 N 
ATOM     32  N   UNL A   1      41.232  31.386  34.509  1.00  0.00    -0.248 NA
ATOM     33  C   UNL A   1      41.848  32.197  36.613  1.00  0.00     0.031 C 
ATOM     34  C   UNL A   1      43.143  27.921  32.504  1.00  0.00     0.029 A 
ATOM     35  C   UNL A   1      42.541  28.979  33.166  1.00  0.00     0.049 A 
ATOM     36  H   UNL A   1      40.896  30.159  32.570  1.00  0.00     0.167 HD
ATOM     37  C   UNL A   1      42.277  30.620  35.005  1.00  0.00     0.074 A 
ATOM     38  C   UNL A   1      42.638  31.182  36.290  1.00  0.00     0.031 C 
ATOM     39  C   UNL A   1      42.880  29.543  34.446  1.00  0.00     0.031 A 
BRANCH  26  40
ATOM     40  C   UNL A   1      40.458  27.778  29.055  1.00  0.00    -0.014 A 
ATOM     41  C   UNL A   1      39.710  26.593  29.127  1.00  0.00     0.009 A 
ATOM     42  C   UNL A   1      41.172  28.061  27.879  1.00  0.00     0.009 A 
ATOM     43  C   UNL A   1      39.695  25.701  28.052  1.00  0.00     0.001 A 
ATOM     44  C   UNL A   1      41.137  27.178  26.798  1.00  0.00     0.001 A 
ATOM     45  C   UNL A   1      40.404  25.997  26.887  1.00  0.00     0.000 A 
ENDBRANCH  26  40
BRANCH  27  46
ATOM     46  C   UNL A   1      39.849  34.334  36.557  1.00  0.00    -0.014 A 
ATOM     47  C   UNL A   1      40.530  35.560  36.552  1.00  0.00     0.009 A 
ATOM     48  C   UNL A   1      39.037  34.010  37.657  1.00  0.00     0.009 A 
ATOM     49  C   UNL A   1      40.417  36.433  37.636  1.00  0.00     0.001 A 
ATOM     50  C   UNL A   1      38.903  34.899  38.725  1.00  0.00     0.001 A 
ATOM     51  C   UNL A   1      39.600  36.105  38.718  1.00  0.00     0.000 A 
ENDBRANCH  27  46
BRANCH  39  52
ATOM     52  C   UNL A   1      44.002  28.914  35.220  1.00  0.00    -0.014 A 
ATOM     53  C   UNL A   1      45.325  29.354  35.061  1.00  0.00     0.009 A 
ATOM     54  C   UNL A   1      43.727  27.895  36.144  1.00  0.00     0.009 A 
ATOM     55  C   UNL A   1      46.357  28.765  35.794  1.00  0.00     0.001 A 
ATOM     56  C   UNL A   1      44.757  27.327  36.896  1.00  0.00     0.001 A 
ATOM     57  C   UNL A   1      46.070  27.756  36.714  1.00  0.00     0.000 A 
ENDBRANCH  39  52
ENDBRANCH  13  14
ENDBRANCH   6   8
ENDBRANCH   3   4
ENDBRANCH   2   3
ENDBRANCH   1   2
BRANCH   1  58
ATOM     58  C   UNL A   1      32.729  30.159  26.486  1.00  0.00     0.116 C 
BRANCH  58  59
ATOM     59  N   UNL A   1      33.438  29.667  25.317  1.00  0.00    -0.356 N 
ATOM     60  C   UNL A   1      33.646  28.400  24.864  1.00  0.00     0.223 C 
ATOM     61  H   UNL A   1      33.837  30.371  24.757  1.00  0.00     0.163 HD
ATOM     62  O   UNL A   1      34.401  28.263  23.903  1.00  0.00    -0.275 OA
BRANCH  60  63
ATOM     63  C   UNL A   1      32.892  27.235  25.484  1.00  0.00     0.091 C 
ATOM     64  C   UNL A   1      33.723  25.951  25.462  1.00  0.00     0.014 C 
ATOM     65  C   UNL A   1      31.504  27.080  24.839  1.00  0.00     0.091 C 
ATOM     66  C   UNL A   1      32.956  24.811  26.128  1.00  0.00     0.001 C 
ATOM     67  C   UNL A   1      30.754  25.872  25.433  1.00  0.00     0.014 C 
ATOM     68  C   UNL A   1      31.588  24.592  25.488  1.00  0.00     0.001 C 
BRANCH  65  69
ATOM     69  C   UNL A   1      31.529  26.944  23.308  1.00  0.00     0.228 C 
ATOM     70  O   UNL A   1      32.383  26.257  22.740  1.00  0.00    -0.274 OA
ATOM     71  N   UNL A   1      30.491  27.401  22.544  1.00  0.00    -0.326 N 
ATOM     72  H   UNL A   1      30.469  27.021  21.637  1.00  0.00     0.169 HD
BRANCH  71  73
ATOM     73  C   UNL A   1      29.451  28.306  22.801  1.00  0.00     0.041 A 
ATOM     74  C   UNL A   1      28.202  27.772  23.126  1.00  0.00     0.026 A 
ATOM     75  C   UNL A   1      29.587  29.690  22.690  1.00  0.00     0.039 A 
ATOM     76  C   UNL A   1      27.130  28.611  23.433  1.00  0.00     0.003 A 
ATOM     77  C   UNL A   1      28.517  30.549  22.991  1.00  0.00     0.058 A 
ATOM     78  C   UNL A   1      27.291  29.995  23.381  1.00  0.00     0.013 A 
BRANCH  77  79
ATOM     79  C   UNL A   1      28.679  32.046  22.905  1.00  0.00     0.416 C 
ATOM     80  F   UNL A   1      29.118  32.461  21.685  1.00  0.00    -0.166 F 
ATOM     81  F   UNL A   1      27.509  32.706  23.129  1.00  0.00    -0.166 F 
ATOM     82  F   UNL A   1      29.565  32.552  23.809  1.00  0.00    -0.166 F 
ENDBRANCH  77  79
ENDBRANCH  71  73
ENDBRANCH  65  69
ENDBRANCH  60  63
ENDBRANCH  58  59
ENDBRANCH   1  58
TORSDOF 14
ENDMDL
MODEL 3
REMARK VINA RESULT:     -12.0      0.293      5.828
REMARK SMILES O=C(NCCCCNC(=O)[C@@H]1CCCC[C@@H]1C(=O)Nc1cccc(C(F)(F)F)c1)c1ccc(-c2c3nc(c(-c4ccccc4)c4ccc([nH]4)c(-c4ccccc4)c4nc(c(-c5ccccc5)c5ccc2[nH]5)C=C4)C=C3)cc1
REMARK SMILES IDX 6 1 5 2 4 3 3 4 1 5 2 6 30 8 31 9 77 10 32 11 76 12 33 13
REMARK SMILES IDX 34 14 35 15 70 16 36 17 75 18 69 19 71 20 37 21 74 22 68 23
REMARK SMILES IDX 67 24 38 26 60 27 45 28 59 29 46 30 49 31 58 32 72 33 47 34
REMARK SMILES IDX 48 35 57 37 73 38 50 39 39 40 40 41 44 42 41 43 43 44 42 45
REMARK SMILES IDX 61 46 62 47 66 48 63 49 65 50 64 51 51 52 52 53 56 54 53 55
REMARK SMILES IDX 55 56 54 57 7 58 8 59 9 60 10 62 11 63 12 64 16 65 13 66
REMARK SMILES IDX 15 67 14 68 17 69 18 70 19 71 20 73 21 74 29 75 22 76 24 77
REMARK SMILES IDX 23 78 25 79 26 80 27 81 28 82
REMARK H PARENT 3 7 71 25 49 36 8 61 19 72
REMARK Flexibility Score: inf
ROOT
ATOM      1  C   UNL A   1      36.934  20.068  24.822  1.00  0.00     0.023 C 
ENDROOT
BRANCH   1   2
ATOM      2  C   UNL A   1      38.153  19.156  25.001  1.00  0.00     0.023 C 
BRANCH   2   3
ATOM      3  C   UNL A   1      39.312  19.766  25.781  1.00  0.00     0.116 C 
BRANCH   3   4
ATOM      4  N   UNL A   1      40.454  18.872  25.881  1.00  0.00    -0.352 N 
ATOM      5  O   UNL A   1      42.636  18.310  26.001  1.00  0.00    -0.269 OA
ATOM      6  C   UNL A   1      41.775  19.179  26.095  1.00  0.00     0.251 C 
ATOM      7  H   UNL A   1      40.252  17.913  25.781  1.00  0.00     0.163 HD
BRANCH   6   8
ATOM      8  C   UNL A   1      42.161  20.568  26.419  1.00  0.00     0.039 A 
ATOM      9  C   UNL A   1      42.251  20.993  27.748  1.00  0.00     0.014 A 
ATOM     10  C   UNL A   1      42.453  21.452  25.376  1.00  0.00     0.014 A 
ATOM     11  C   UNL A   1      42.525  22.326  28.030  1.00  0.00     0.010 A 
ATOM     12  C   UNL A   1      42.800  22.774  25.665  1.00  0.00     0.010 A 
ATOM     13  C   UNL A   1      42.821  23.226  26.993  1.00  0.00    -0.014 A 
BRANCH  13  14
ATOM     14  C   UNL A   1      43.242  24.609  27.321  1.00  0.00     0.031 A 
ATOM     15  C   UNL A   1      44.687  25.019  27.268  1.00  0.00     0.074 A 
ATOM     16  C   UNL A   1      42.297  25.499  27.680  1.00  0.00     0.049 A 
ATOM     17  N   UNL A   1      45.218  26.184  27.543  1.00  0.00    -0.248 NA
ATOM     18  C   UNL A   1      45.660  23.994  26.862  1.00  0.00     0.031 C 
ATOM     19  C   UNL A   1      40.863  25.213  27.777  1.00  0.00     0.029 A 
ATOM     20  N   UNL A   1      42.396  26.823  28.024  1.00  0.00    -0.354 N 
ATOM     21  C   UNL A   1      46.587  26.028  27.366  1.00  0.00     0.074 A 
ATOM     22  C   UNL A   1      46.807  24.652  26.974  1.00  0.00     0.031 C 
ATOM     23  C   UNL A   1      40.213  26.332  28.127  1.00  0.00     0.029 A 
ATOM     24  C   UNL A   1      41.188  27.395  28.341  1.00  0.00     0.049 A 
ATOM     25  H   UNL A   1      43.248  27.314  28.044  1.00  0.00     0.167 HD
ATOM     26  C   UNL A   1      47.567  26.951  27.516  1.00  0.00     0.031 A 
ATOM     27  C   UNL A   1      40.895  28.632  28.781  1.00  0.00     0.031 A 
ATOM     28  C   UNL A   1      47.341  28.320  27.902  1.00  0.00     0.049 A 
ATOM     29  C   UNL A   1      42.007  29.619  28.979  1.00  0.00     0.074 A 
ATOM     30  C   UNL A   1      48.266  29.345  28.020  1.00  0.00     0.029 A 
ATOM     31  N   UNL A   1      46.109  28.853  28.242  1.00  0.00    -0.354 N 
ATOM     32  N   UNL A   1      43.289  29.472  28.747  1.00  0.00    -0.248 NA
ATOM     33  C   UNL A   1      41.633  30.939  29.502  1.00  0.00     0.031 C 
ATOM     34  C   UNL A   1      47.600  30.482  28.491  1.00  0.00     0.029 A 
ATOM     35  C   UNL A   1      46.254  30.180  28.612  1.00  0.00     0.049 A 
ATOM     36  H   UNL A   1      45.256  28.361  28.225  1.00  0.00     0.167 HD
ATOM     37  C   UNL A   1      43.873  30.684  29.085  1.00  0.00     0.074 A 
ATOM     38  C   UNL A   1      42.804  31.562  29.514  1.00  0.00     0.031 C 
ATOM     39  C   UNL A   1      45.181  31.037  29.046  1.00  0.00     0.031 A 
BRANCH  26  40
ATOM     40  C   UNL A   1      48.988  26.511  27.295  1.00  0.00    -0.014 A 
ATOM     41  C   UNL A   1      49.781  26.038  28.351  1.00  0.00     0.009 A 
ATOM     42  C   UNL A   1      49.515  26.503  25.993  1.00  0.00     0.009 A 
ATOM     43  C   UNL A   1      51.082  25.587  28.112  1.00  0.00     0.001 A 
ATOM     44  C   UNL A   1      50.807  26.031  25.753  1.00  0.00     0.001 A 
ATOM     45  C   UNL A   1      51.591  25.579  26.813  1.00  0.00     0.000 A 
ENDBRANCH  26  40
BRANCH  27  46
ATOM     46  C   UNL A   1      39.489  28.987  29.101  1.00  0.00    -0.014 A 
ATOM     47  C   UNL A   1      38.963  28.752  30.380  1.00  0.00     0.009 A 
ATOM     48  C   UNL A   1      38.667  29.574  28.126  1.00  0.00     0.009 A 
ATOM     49  C   UNL A   1      37.637  29.079  30.668  1.00  0.00     0.001 A 
ATOM     50  C   UNL A   1      37.351  29.927  28.425  1.00  0.00     0.001 A 
ATOM     51  C   UNL A   1      36.833  29.671  29.693  1.00  0.00     0.000 A 
ENDBRANCH  27  46
BRANCH  39  52
ATOM     52  C   UNL A   1      45.521  32.436  29.468  1.00  0.00    -0.014 A 
ATOM     53  C   UNL A   1      45.873  32.727  30.794  1.00  0.00     0.009 A 
ATOM     54  C   UNL A   1      45.524  33.469  28.518  1.00  0.00     0.009 A 
ATOM     55  C   UNL A   1      46.195  34.033  31.169  1.00  0.00     0.001 A 
ATOM     56  C   UNL A   1      45.873  34.769  28.889  1.00  0.00     0.001 A 
ATOM     57  C   UNL A   1      46.200  35.050  30.214  1.00  0.00     0.000 A 
ENDBRANCH  39  52
ENDBRANCH  13  14
ENDBRANCH   6   8
ENDBRANCH   3   4
ENDBRANCH   2   3
ENDBRANCH   1   2
BRANCH   1  58
ATOM     58  C   UNL A   1      37.201  21.544  25.111  1.00  0.00     0.116 C 
BRANCH  58  59
ATOM     59  N   UNL A   1      36.298  22.056  26.128  1.00  0.00    -0.356 N 
ATOM     60  C   UNL A   1      35.311  22.991  26.059  1.00  0.00     0.223 C 
ATOM     61  H   UNL A   1      36.422  21.659  27.019  1.00  0.00     0.163 HD
ATOM     62  O   UNL A   1      34.781  23.328  27.116  1.00  0.00    -0.275 OA
BRANCH  60  63
ATOM     63  C   UNL A   1      34.845  23.510  24.708  1.00  0.00     0.091 C 
ATOM     64  C   UNL A   1      34.263  24.920  24.817  1.00  0.00     0.014 C 
ATOM     65  C   UNL A   1      33.894  22.503  24.037  1.00  0.00     0.091 C 
ATOM     66  C   UNL A   1      33.843  25.429  23.440  1.00  0.00     0.001 C 
ATOM     67  C   UNL A   1      33.384  23.045  22.688  1.00  0.00     0.014 C 
ATOM     68  C   UNL A   1      32.862  24.481  22.756  1.00  0.00     0.001 C 
BRANCH  65  69
ATOM     69  C   UNL A   1      32.686  22.101  24.899  1.00  0.00     0.228 C 
ATOM     70  O   UNL A   1      32.095  22.929  25.598  1.00  0.00    -0.274 OA
ATOM     71  N   UNL A   1      32.101  20.873  24.760  1.00  0.00    -0.326 N 
ATOM     72  H   UNL A   1      31.192  20.822  25.134  1.00  0.00     0.169 HD
BRANCH  71  73
ATOM     73  C   UNL A   1      32.542  19.672  24.188  1.00  0.00     0.041 A 
ATOM     74  C   UNL A   1      32.153  19.406  22.873  1.00  0.00     0.026 A 
ATOM     75  C   UNL A   1      33.287  18.716  24.879  1.00  0.00     0.039 A 
ATOM     76  C   UNL A   1      32.586  18.249  22.225  1.00  0.00     0.003 A 
ATOM     77  C   UNL A   1      33.729  17.543  24.243  1.00  0.00     0.058 A 
ATOM     78  C   UNL A   1      33.385  17.328  22.902  1.00  0.00     0.013 A 
BRANCH  77  79
ATOM     79  C   UNL A   1      34.566  16.530  24.982  1.00  0.00     0.416 C 
ATOM     80  F   UNL A   1      35.781  17.019  25.354  1.00  0.00    -0.166 F 
ATOM     81  F   UNL A   1      33.967  16.100  26.126  1.00  0.00    -0.166 F 
ATOM     82  F   UNL A   1      34.826  15.404  24.258  1.00  0.00    -0.166 F 
ENDBRANCH  77  79
ENDBRANCH  71  73
ENDBRANCH  65  69
ENDBRANCH  60  63
ENDBRANCH  58  59
ENDBRANCH   1  58
TORSDOF 14
ENDMDL
