MODEL 1
REMARK VINA RESULT:      -9.9      0.000      0.000
REMARK SMILES CCCC[C@H](C(=O)NCCCCNC(=O)c1ccc(-c2c3nc(c(-c4ccccc4)c4ccc([nH]4)c(-c4ccccc4)c4nc(c(-c5ccccc5)c5ccc2[nH]5)C=C4)C=C3)cc1)c1ccnn1C
REMARK SMILES IDX 10 1 9 2 8 3 6 4 7 5 5 7 4 8 3 9 2 10 1 11 64 12 65 13 68 14
REMARK SMILES IDX 66 15 67 16 69 17 11 18 12 19 13 20 14 21 15 23 16 24 17 25
REMARK SMILES IDX 63 26 18 27 62 28 19 29 20 30 21 31 56 32 22 33 61 34 55 35
REMARK SMILES IDX 57 36 23 37 60 38 54 39 53 40 24 42 46 43 31 44 45 45 32 46
REMARK SMILES IDX 35 47 44 48 58 49 33 50 34 51 43 53 59 54 36 55 25 56 26 57
REMARK SMILES IDX 30 58 27 59 29 60 28 61 47 62 48 63 52 64 49 65 51 66 50 67
REMARK SMILES IDX 37 68 38 69 42 70 39 71 41 72 40 73
REMARK H PARENT 8 6 13 22 57 41 35 52
REMARK Flexibility Score: inf
ROOT
ATOM      1  C   UNL A   1      37.023  21.666  24.370  1.00  0.00     0.023 C 
ENDROOT
BRANCH   1   2
ATOM      2  C   UNL A   1      36.565  22.714  25.389  1.00  0.00     0.116 C 
BRANCH   2   3
ATOM      3  N   UNL A   1      35.802  22.083  26.449  1.00  0.00    -0.356 N 
ATOM      4  C   UNL A   1      34.501  21.665  26.483  1.00  0.00     0.229 C 
ATOM      5  O   UNL A   1      34.059  21.400  27.605  1.00  0.00    -0.274 OA
ATOM      6  H   UNL A   1      36.305  21.929  27.282  1.00  0.00     0.163 HD
BRANCH   4   7
ATOM      7  C   UNL A   1      33.698  21.373  25.192  1.00  0.00     0.127 C 
BRANCH   7   8
ATOM      8  C   UNL A   1      33.118  19.932  25.184  1.00  0.00     0.020 C 
BRANCH   8   9
ATOM      9  C   UNL A   1      33.968  18.805  24.571  1.00  0.00     0.001 C 
BRANCH   9  10
ATOM     10  C   UNL A   1      33.243  17.845  23.614  1.00  0.00    -0.003 C 
ATOM     11  C   UNL A   1      34.120  16.735  23.055  1.00  0.00     0.004 C 
ENDBRANCH   9  10
ENDBRANCH   8   9
ENDBRANCH   7   8
BRANCH   7  12
ATOM     12  C   UNL A   1      32.678  22.423  24.855  1.00  0.00     0.050 A 
ATOM     13  C   UNL A   1      31.417  22.672  25.367  1.00  0.00     0.046 A 
ATOM     14  N   UNL A   1      32.841  23.364  23.862  1.00  0.00    -0.272 N 
ATOM     15  C   UNL A   1      31.003  23.872  24.769  1.00  0.00     0.135 A 
ATOM     16  N   UNL A   1      31.885  24.312  23.871  1.00  0.00    -0.182 NA
ATOM     17  C   UNL A   1      33.819  23.405  22.799  1.00  0.00     0.174 C 
ENDBRANCH   7  12
ENDBRANCH   4   7
ENDBRANCH   2   3
ENDBRANCH   1   2
BRANCH   1  18
ATOM     18  C   UNL A   1      37.704  20.441  24.972  1.00  0.00     0.023 C 
BRANCH  18  19
ATOM     19  C   UNL A   1      38.974  20.742  25.748  1.00  0.00     0.116 C 
BRANCH  19  20
ATOM     20  N   UNL A   1      39.900  19.616  25.791  1.00  0.00    -0.352 N 
ATOM     21  C   UNL A   1      41.232  19.608  26.129  1.00  0.00     0.251 C 
ATOM     22  H   UNL A   1      39.519  18.743  25.544  1.00  0.00     0.163 HD
ATOM     23  O   UNL A   1      41.909  18.594  26.002  1.00  0.00    -0.269 OA
BRANCH  21  24
ATOM     24  C   UNL A   1      41.846  20.860  26.607  1.00  0.00     0.039 A 
ATOM     25  C   UNL A   1      42.369  21.759  25.676  1.00  0.00     0.014 A 
ATOM     26  C   UNL A   1      41.806  21.178  27.967  1.00  0.00     0.014 A 
ATOM     27  C   UNL A   1      42.760  23.029  26.100  1.00  0.00     0.010 A 
ATOM     28  C   UNL A   1      42.114  22.470  28.370  1.00  0.00     0.010 A 
ATOM     29  C   UNL A   1      42.580  23.411  27.438  1.00  0.00    -0.014 A 
BRANCH  29  30
ATOM     30  C   UNL A   1      42.848  24.794  27.898  1.00  0.00     0.031 A 
ATOM     31  C   UNL A   1      44.242  25.194  28.284  1.00  0.00     0.074 A 
ATOM     32  C   UNL A   1      41.822  25.652  28.070  1.00  0.00     0.049 A 
ATOM     33  N   UNL A   1      44.660  26.304  28.837  1.00  0.00    -0.248 NA
ATOM     34  C   UNL A   1      45.302  24.201  28.045  1.00  0.00     0.031 C 
ATOM     35  C   UNL A   1      40.417  25.372  27.766  1.00  0.00     0.029 A 
ATOM     36  N   UNL A   1      41.807  26.935  28.555  1.00  0.00    -0.354 N 
ATOM     37  C   UNL A   1      46.023  26.131  29.036  1.00  0.00     0.074 A 
ATOM     38  C   UNL A   1      46.353  24.795  28.590  1.00  0.00     0.031 C 
ATOM     39  C   UNL A   1      39.682  26.461  28.046  1.00  0.00     0.029 A 
ATOM     40  C   UNL A   1      40.553  27.495  28.592  1.00  0.00     0.049 A 
ATOM     41  H   UNL A   1      42.617  27.409  28.850  1.00  0.00     0.167 HD
ATOM     42  C   UNL A   1      46.925  27.012  29.528  1.00  0.00     0.031 A 
ATOM     43  C   UNL A   1      40.149  28.702  29.030  1.00  0.00     0.031 A 
ATOM     44  C   UNL A   1      46.599  28.346  29.954  1.00  0.00     0.049 A 
ATOM     45  C   UNL A   1      41.164  29.652  29.599  1.00  0.00     0.074 A 
ATOM     46  C   UNL A   1      47.449  29.338  30.407  1.00  0.00     0.029 A 
ATOM     47  N   UNL A   1      45.317  28.872  29.979  1.00  0.00    -0.354 N 
ATOM     48  N   UNL A   1      42.458  29.496  29.730  1.00  0.00    -0.248 NA
ATOM     49  C   UNL A   1      40.659  30.945  30.084  1.00  0.00     0.031 C 
ATOM     50  C   UNL A   1      46.674  30.451  30.749  1.00  0.00     0.029 A 
ATOM     51  C   UNL A   1      45.348  30.167  30.465  1.00  0.00     0.049 A 
ATOM     52  H   UNL A   1      44.505  28.394  29.692  1.00  0.00     0.167 HD
ATOM     53  C   UNL A   1      42.927  30.675  30.292  1.00  0.00     0.074 A 
ATOM     54  C   UNL A   1      41.779  31.543  30.466  1.00  0.00     0.031 C 
ATOM     55  C   UNL A   1      44.195  31.011  30.633  1.00  0.00     0.031 A 
BRANCH  42  56
ATOM     56  C   UNL A   1      48.349  26.548  29.631  1.00  0.00    -0.014 A 
ATOM     57  C   UNL A   1      48.825  25.916  30.791  1.00  0.00     0.009 A 
ATOM     58  C   UNL A   1      49.227  26.742  28.554  1.00  0.00     0.009 A 
ATOM     59  C   UNL A   1      50.162  25.527  30.887  1.00  0.00     0.001 A 
ATOM     60  C   UNL A   1      50.557  26.325  28.642  1.00  0.00     0.001 A 
ATOM     61  C   UNL A   1      51.026  25.729  29.812  1.00  0.00     0.000 A 
ENDBRANCH  42  56
BRANCH  43  62
ATOM     62  C   UNL A   1      38.718  29.087  28.935  1.00  0.00    -0.014 A 
ATOM     63  C   UNL A   1      38.209  29.620  27.741  1.00  0.00     0.009 A 
ATOM     64  C   UNL A   1      37.853  28.923  30.028  1.00  0.00     0.009 A 
ATOM     65  C   UNL A   1      36.868  29.998  27.649  1.00  0.00     0.001 A 
ATOM     66  C   UNL A   1      36.506  29.279  29.925  1.00  0.00     0.001 A 
ATOM     67  C   UNL A   1      36.017  29.823  28.739  1.00  0.00     0.000 A 
ENDBRANCH  43  62
BRANCH  55  68
ATOM     68  C   UNL A   1      44.410  32.380  31.207  1.00  0.00    -0.014 A 
ATOM     69  C   UNL A   1      44.554  33.500  30.373  1.00  0.00     0.009 A 
ATOM     70  C   UNL A   1      44.414  32.559  32.599  1.00  0.00     0.009 A 
ATOM     71  C   UNL A   1      44.720  34.771  30.925  1.00  0.00     0.001 A 
ATOM     72  C   UNL A   1      44.556  33.834  33.147  1.00  0.00     0.001 A 
ATOM     73  C   UNL A   1      44.715  34.938  32.310  1.00  0.00     0.000 A 
ENDBRANCH  55  68
ENDBRANCH  29  30
ENDBRANCH  21  24
ENDBRANCH  19  20
ENDBRANCH  18  19
ENDBRANCH   1  18
TORSDOF 15
ENDMDL
MODEL 2
REMARK VINA RESULT:      -9.9      4.359      9.432
REMARK SMILES CCCC[C@H](C(=O)NCCCCNC(=O)c1ccc(-c2c3nc(c(-c4ccccc4)c4ccc([nH]4)c(-c4ccccc4)c4nc(c(-c5ccccc5)c5ccc2[nH]5)C=C4)C=C3)cc1)c1ccnn1C
REMARK SMILES IDX 10 1 9 2 8 3 6 4 7 5 5 7 4 8 3 9 2 10 1 11 64 12 65 13 68 14
REMARK SMILES IDX 66 15 67 16 69 17 11 18 12 19 13 20 14 21 15 23 16 24 17 25
REMARK SMILES IDX 63 26 18 27 62 28 19 29 20 30 21 31 56 32 22 33 61 34 55 35
REMARK SMILES IDX 57 36 23 37 60 38 54 39 53 40 24 42 46 43 31 44 45 45 32 46
REMARK SMILES IDX 35 47 44 48 58 49 33 50 34 51 43 53 59 54 36 55 25 56 26 57
REMARK SMILES IDX 30 58 27 59 29 60 28 61 47 62 48 63 52 64 49 65 51 66 50 67
REMARK SMILES IDX 37 68 38 69 42 70 39 71 41 72 40 73
REMARK H PARENT 8 6 13 22 57 41 35 52
REMARK Flexibility Score: inf
ROOT
ATOM      1  C   UNL A   1      32.095  29.913  26.966  1.00  0.00     0.023 C 
ENDROOT
BRANCH   1   2
ATOM      2  C   UNL A   1      33.454  29.467  26.418  1.00  0.00     0.116 C 
BRANCH   2   3
ATOM      3  N   UNL A   1      33.513  29.685  24.985  1.00  0.00    -0.356 N 
ATOM      4  C   UNL A   1      33.239  28.844  23.944  1.00  0.00     0.229 C 
ATOM      5  O   UNL A   1      33.626  29.229  22.835  1.00  0.00    -0.274 OA
ATOM      6  H   UNL A   1      33.796  30.591  24.719  1.00  0.00     0.163 HD
BRANCH   4   7
ATOM      7  C   UNL A   1      32.352  27.587  24.114  1.00  0.00     0.127 C 
BRANCH   7   8
ATOM      8  C   UNL A   1      30.856  27.956  24.311  1.00  0.00     0.020 C 
BRANCH   8   9
ATOM      9  C   UNL A   1      30.323  29.233  23.637  1.00  0.00     0.001 C 
BRANCH   9  10
ATOM     10  C   UNL A   1      29.333  29.032  22.478  1.00  0.00    -0.003 C 
ATOM     11  C   UNL A   1      27.925  29.533  22.762  1.00  0.00     0.004 C 
ENDBRANCH   9  10
ENDBRANCH   8   9
ENDBRANCH   7   8
BRANCH   7  12
ATOM     12  C   UNL A   1      32.569  26.537  23.061  1.00  0.00     0.050 A 
ATOM     13  C   UNL A   1      31.919  26.293  21.864  1.00  0.00     0.046 A 
ATOM     14  N   UNL A   1      33.511  25.536  23.154  1.00  0.00    -0.272 N 
ATOM     15  C   UNL A   1      32.658  25.277  21.240  1.00  0.00     0.135 A 
ATOM     16  N   UNL A   1      33.648  24.834  22.014  1.00  0.00    -0.182 NA
ATOM     17  C   UNL A   1      34.271  25.106  24.306  1.00  0.00     0.174 C 
ENDBRANCH   7  12
ENDBRANCH   4   7
ENDBRANCH   2   3
ENDBRANCH   1   2
BRANCH   1  18
ATOM     18  C   UNL A   1      31.837  31.415  26.895  1.00  0.00     0.023 C 
BRANCH  18  19
ATOM     19  C   UNL A   1      33.009  32.278  27.324  1.00  0.00     0.116 C 
BRANCH  19  20
ATOM     20  N   UNL A   1      32.624  33.646  27.651  1.00  0.00    -0.352 N 
ATOM     21  C   UNL A   1      33.192  34.507  28.559  1.00  0.00     0.251 C 
ATOM     22  H   UNL A   1      31.852  34.000  27.154  1.00  0.00     0.163 HD
ATOM     23  O   UNL A   1      32.678  35.592  28.807  1.00  0.00    -0.269 OA
BRANCH  21  24
ATOM     24  C   UNL A   1      34.412  34.082  29.267  1.00  0.00     0.039 A 
ATOM     25  C   UNL A   1      34.292  33.348  30.449  1.00  0.00     0.014 A 
ATOM     26  C   UNL A   1      35.666  34.326  28.700  1.00  0.00     0.014 A 
ATOM     27  C   UNL A   1      35.429  32.767  31.010  1.00  0.00     0.010 A 
ATOM     28  C   UNL A   1      36.780  33.675  29.211  1.00  0.00     0.010 A 
ATOM     29  C   UNL A   1      36.669  32.879  30.362  1.00  0.00    -0.014 A 
BRANCH  29  30
ATOM     30  C   UNL A   1      37.870  32.158  30.846  1.00  0.00     0.031 A 
ATOM     31  C   UNL A   1      38.686  32.738  31.965  1.00  0.00     0.074 A 
ATOM     32  C   UNL A   1      38.283  31.044  30.210  1.00  0.00     0.049 A 
ATOM     33  N   UNL A   1      39.839  32.340  32.439  1.00  0.00    -0.248 NA
ATOM     34  C   UNL A   1      38.150  33.946  32.614  1.00  0.00     0.031 C 
ATOM     35  C   UNL A   1      37.598  30.400  29.087  1.00  0.00     0.029 A 
ATOM     36  N   UNL A   1      39.391  30.261  30.414  1.00  0.00    -0.354 N 
ATOM     37  C   UNL A   1      40.176  33.262  33.421  1.00  0.00     0.074 A 
ATOM     38  C   UNL A   1      39.133  34.264  33.442  1.00  0.00     0.031 C 
ATOM     39  C   UNL A   1      38.287  29.307  28.721  1.00  0.00     0.029 A 
ATOM     40  C   UNL A   1      39.482  29.199  29.548  1.00  0.00     0.049 A 
ATOM     41  H   UNL A   1      40.058  30.444  31.115  1.00  0.00     0.167 HD
ATOM     42  C   UNL A   1      41.248  33.263  34.247  1.00  0.00     0.031 A 
ATOM     43  C   UNL A   1      40.431  28.252  29.426  1.00  0.00     0.031 A 
ATOM     44  C   UNL A   1      42.275  32.257  34.237  1.00  0.00     0.049 A 
ATOM     45  C   UNL A   1      41.627  28.292  30.335  1.00  0.00     0.074 A 
ATOM     46  C   UNL A   1      43.368  32.133  35.075  1.00  0.00     0.029 A 
ATOM     47  N   UNL A   1      42.332  31.200  33.342  1.00  0.00    -0.354 N 
ATOM     48  N   UNL A   1      41.906  29.138  31.295  1.00  0.00    -0.248 NA
ATOM     49  C   UNL A   1      42.642  27.246  30.138  1.00  0.00     0.031 C 
ATOM     50  C   UNL A   1      44.112  31.025  34.657  1.00  0.00     0.029 A 
ATOM     51  C   UNL A   1      43.456  30.433  33.589  1.00  0.00     0.049 A 
ATOM     52  H   UNL A   1      41.669  31.023  32.635  1.00  0.00     0.167 HD
ATOM     53  C   UNL A   1      43.115  28.717  31.832  1.00  0.00     0.074 A 
ATOM     54  C   UNL A   1      43.510  27.532  31.097  1.00  0.00     0.031 C 
ATOM     55  C   UNL A   1      43.833  29.261  32.844  1.00  0.00     0.031 A 
BRANCH  42  56
ATOM     56  C   UNL A   1      41.358  34.398  35.224  1.00  0.00    -0.014 A 
ATOM     57  C   UNL A   1      40.761  34.324  36.494  1.00  0.00     0.009 A 
ATOM     58  C   UNL A   1      42.068  35.556  34.875  1.00  0.00     0.009 A 
ATOM     59  C   UNL A   1      40.838  35.402  37.376  1.00  0.00     0.001 A 
ATOM     60  C   UNL A   1      42.167  36.622  35.771  1.00  0.00     0.001 A 
ATOM     61  C   UNL A   1      41.542  36.550  37.015  1.00  0.00     0.000 A 
ENDBRANCH  42  56
BRANCH  43  62
ATOM     62  C   UNL A   1      40.282  27.176  28.413  1.00  0.00    -0.014 A 
ATOM     63  C   UNL A   1      39.555  26.016  28.719  1.00  0.00     0.009 A 
ATOM     64  C   UNL A   1      40.859  27.301  27.140  1.00  0.00     0.009 A 
ATOM     65  C   UNL A   1      39.423  24.994  27.777  1.00  0.00     0.001 A 
ATOM     66  C   UNL A   1      40.706  26.287  26.191  1.00  0.00     0.001 A 
ATOM     67  C   UNL A   1      39.994  25.133  26.513  1.00  0.00     0.000 A 
ENDBRANCH  43  62
BRANCH  55  68
ATOM     68  C   UNL A   1      45.107  28.569  33.229  1.00  0.00    -0.014 A 
ATOM     69  C   UNL A   1      46.334  28.938  32.655  1.00  0.00     0.009 A 
ATOM     70  C   UNL A   1      45.087  27.573  34.217  1.00  0.00     0.009 A 
ATOM     71  C   UNL A   1      47.514  28.305  33.050  1.00  0.00     0.001 A 
ATOM     72  C   UNL A   1      46.271  26.960  34.627  1.00  0.00     0.001 A 
ATOM     73  C   UNL A   1      47.483  27.322  34.039  1.00  0.00     0.000 A 
ENDBRANCH  55  68
ENDBRANCH  29  30
ENDBRANCH  21  24
ENDBRANCH  19  20
ENDBRANCH  18  19
ENDBRANCH   1  18
TORSDOF 15
ENDMDL
MODEL 3
REMARK VINA RESULT:      -9.8      5.212      9.607
REMARK SMILES CCCC[C@H](C(=O)NCCCCNC(=O)c1ccc(-c2c3nc(c(-c4ccccc4)c4ccc([nH]4)c(-c4ccccc4)c4nc(c(-c5ccccc5)c5ccc2[nH]5)C=C4)C=C3)cc1)c1ccnn1C
REMARK SMILES IDX 10 1 9 2 8 3 6 4 7 5 5 7 4 8 3 9 2 10 1 11 64 12 65 13 68 14
REMARK SMILES IDX 66 15 67 16 69 17 11 18 12 19 13 20 14 21 15 23 16 24 17 25
REMARK SMILES IDX 63 26 18 27 62 28 19 29 20 30 21 31 56 32 22 33 61 34 55 35
REMARK SMILES IDX 57 36 23 37 60 38 54 39 53 40 24 42 46 43 31 44 45 45 32 46
REMARK SMILES IDX 35 47 44 48 58 49 33 50 34 51 43 53 59 54 36 55 25 56 26 57
REMARK SMILES IDX 30 58 27 59 29 60 28 61 47 62 48 63 52 64 49 65 51 66 50 67
REMARK SMILES IDX 37 68 38 69 42 70 39 71 41 72 40 73
REMARK H PARENT 8 6 13 22 57 41 35 52
REMARK Flexibility Score: inf
ROOT
ATOM      1  C   UNL A   1      32.379  30.156  26.756  1.00  0.00     0.023 C 
ENDROOT
BRANCH   1   2
ATOM      2  C   UNL A   1      32.662  29.675  25.329  1.00  0.00     0.116 C 
BRANCH   2   3
ATOM      3  N   UNL A   1      31.441  29.683  24.546  1.00  0.00    -0.356 N 
ATOM      4  C   UNL A   1      30.846  28.695  23.813  1.00  0.00     0.229 C 
ATOM      5  O   UNL A   1      29.953  29.068  23.046  1.00  0.00    -0.274 OA
ATOM      6  H   UNL A   1      30.961  30.543  24.543  1.00  0.00     0.163 HD
BRANCH   4   7
ATOM      7  C   UNL A   1      31.147  27.196  24.056  1.00  0.00     0.127 C 
BRANCH   7   8
ATOM      8  C   UNL A   1      29.874  26.409  24.473  1.00  0.00     0.020 C 
BRANCH   8   9
ATOM      9  C   UNL A   1      29.857  25.724  25.851  1.00  0.00     0.001 C 
BRANCH   9  10
ATOM     10  C   UNL A   1      30.863  24.580  26.057  1.00  0.00    -0.003 C 
ATOM     11  C   UNL A   1      30.909  23.573  24.918  1.00  0.00     0.004 C 
ENDBRANCH   9  10
ENDBRANCH   8   9
ENDBRANCH   7   8
BRANCH   7  12
ATOM     12  C   UNL A   1      31.913  26.536  22.945  1.00  0.00     0.050 A 
ATOM     13  C   UNL A   1      31.546  26.200  21.654  1.00  0.00     0.046 A 
ATOM     14  N   UNL A   1      33.210  26.087  23.065  1.00  0.00    -0.272 N 
ATOM     15  C   UNL A   1      32.723  25.749  21.038  1.00  0.00     0.135 A 
ATOM     16  N   UNL A   1      33.747  25.706  21.890  1.00  0.00    -0.182 NA
ATOM     17  C   UNL A   1      33.998  25.892  24.260  1.00  0.00     0.174 C 
ENDBRANCH   7  12
ENDBRANCH   4   7
ENDBRANCH   2   3
ENDBRANCH   1   2
BRANCH   1  18
ATOM     18  C   UNL A   1      31.964  31.620  26.868  1.00  0.00     0.023 C 
BRANCH  18  19
ATOM     19  C   UNL A   1      33.006  32.525  27.501  1.00  0.00     0.116 C 
BRANCH  19  20
ATOM     20  N   UNL A   1      32.544  33.896  27.676  1.00  0.00    -0.352 N 
ATOM     21  C   UNL A   1      33.016  34.862  28.531  1.00  0.00     0.251 C 
ATOM     22  H   UNL A   1      31.790  34.167  27.104  1.00  0.00     0.163 HD
ATOM     23  O   UNL A   1      32.442  35.939  28.647  1.00  0.00    -0.269 OA
BRANCH  21  24
ATOM     24  C   UNL A   1      34.208  34.562  29.345  1.00  0.00     0.039 A 
ATOM     25  C   UNL A   1      34.039  34.063  30.638  1.00  0.00     0.014 A 
ATOM     26  C   UNL A   1      35.481  34.681  28.785  1.00  0.00     0.014 A 
ATOM     27  C   UNL A   1      35.148  33.583  31.335  1.00  0.00     0.010 A 
ATOM     28  C   UNL A   1      36.568  34.124  29.444  1.00  0.00     0.010 A 
ATOM     29  C   UNL A   1      36.408  33.557  30.719  1.00  0.00    -0.014 A 
BRANCH  29  30
ATOM     30  C   UNL A   1      37.582  32.926  31.367  1.00  0.00     0.031 A 
ATOM     31  C   UNL A   1      38.233  31.733  30.729  1.00  0.00     0.074 A 
ATOM     32  C   UNL A   1      37.991  33.358  32.576  1.00  0.00     0.049 A 
ATOM     33  N   UNL A   1      39.175  30.957  31.198  1.00  0.00    -0.248 NA
ATOM     34  C   UNL A   1      37.735  31.343  29.400  1.00  0.00     0.031 C 
ATOM     35  C   UNL A   1      37.418  34.483  33.318  1.00  0.00     0.029 A 
ATOM     36  N   UNL A   1      38.982  32.888  33.401  1.00  0.00    -0.354 N 
ATOM     37  C   UNL A   1      39.363  29.974  30.236  1.00  0.00     0.074 A 
ATOM     38  C   UNL A   1      38.406  30.222  29.180  1.00  0.00     0.031 C 
ATOM     39  C   UNL A   1      38.085  34.634  34.474  1.00  0.00     0.029 A 
ATOM     40  C   UNL A   1      39.098  33.589  34.576  1.00  0.00     0.049 A 
ATOM     41  H   UNL A   1      39.555  32.121  33.172  1.00  0.00     0.167 HD
ATOM     42  C   UNL A   1      40.265  28.965  30.222  1.00  0.00     0.031 A 
ATOM     43  C   UNL A   1      39.920  33.403  35.626  1.00  0.00     0.031 A 
ATOM     44  C   UNL A   1      41.228  28.729  31.263  1.00  0.00     0.049 A 
ATOM     45  C   UNL A   1      40.893  32.258  35.600  1.00  0.00     0.074 A 
ATOM     46  C   UNL A   1      42.226  27.774  31.314  1.00  0.00     0.029 A 
ATOM     47  N   UNL A   1      41.309  29.460  32.438  1.00  0.00    -0.354 N 
ATOM     48  N   UNL A   1      41.096  31.369  34.659  1.00  0.00    -0.248 NA
ATOM     49  C   UNL A   1      41.747  32.090  36.785  1.00  0.00     0.031 C 
ATOM     50  C   UNL A   1      42.885  27.898  32.541  1.00  0.00     0.029 A 
ATOM     51  C   UNL A   1      42.325  28.961  33.234  1.00  0.00     0.049 A 
ATOM     52  H   UNL A   1      40.730  30.222  32.671  1.00  0.00     0.167 HD
ATOM     53  C   UNL A   1      42.115  30.549  35.126  1.00  0.00     0.074 A 
ATOM     54  C   UNL A   1      42.495  31.054  36.430  1.00  0.00     0.031 C 
ATOM     55  C   UNL A   1      42.684  29.475  34.529  1.00  0.00     0.031 A 
BRANCH  42  56
ATOM     56  C   UNL A   1      40.241  28.042  29.038  1.00  0.00    -0.014 A 
ATOM     57  C   UNL A   1      39.519  26.837  29.071  1.00  0.00     0.009 A 
ATOM     58  C   UNL A   1      40.944  28.380  27.872  1.00  0.00     0.009 A 
ATOM     59  C   UNL A   1      39.539  25.970  27.977  1.00  0.00     0.001 A 
ATOM     60  C   UNL A   1      40.938  27.524  26.769  1.00  0.00     0.001 A 
ATOM     61  C   UNL A   1      40.246  26.315  26.826  1.00  0.00     0.000 A 
ENDBRANCH  42  56
BRANCH  43  62
ATOM     62  C   UNL A   1      39.869  34.330  36.785  1.00  0.00    -0.014 A 
ATOM     63  C   UNL A   1      40.617  35.516  36.771  1.00  0.00     0.009 A 
ATOM     64  C   UNL A   1      39.075  34.040  37.905  1.00  0.00     0.009 A 
ATOM     65  C   UNL A   1      40.586  36.386  37.864  1.00  0.00     0.001 A 
ATOM     66  C   UNL A   1      39.027  34.924  38.986  1.00  0.00     0.001 A 
ATOM     67  C   UNL A   1      39.788  36.092  38.967  1.00  0.00     0.000 A 
ENDBRANCH  43  62
BRANCH  55  68
ATOM     68  C   UNL A   1      43.793  28.788  35.270  1.00  0.00    -0.014 A 
ATOM     69  C   UNL A   1      45.127  29.199  35.121  1.00  0.00     0.009 A 
ATOM     70  C   UNL A   1      43.493  27.752  36.168  1.00  0.00     0.009 A 
ATOM     71  C   UNL A   1      46.142  28.569  35.844  1.00  0.00     0.001 A 
ATOM     72  C   UNL A   1      44.507  27.141  36.907  1.00  0.00     0.001 A 
ATOM     73  C   UNL A   1      45.831  27.546  36.739  1.00  0.00     0.000 A 
ENDBRANCH  55  68
ENDBRANCH  29  30
ENDBRANCH  21  24
ENDBRANCH  19  20
ENDBRANCH  18  19
ENDBRANCH   1  18
TORSDOF 15
ENDMDL
