MODEL 1
REMARK VINA RESULT:     -10.5      0.000      0.000
REMARK SMILES C[C@H]([C@@H]1CCCO1)n1c(SCC(=O)NCCCCNC(=O)c2ccc(-c3c4nc(c(-c5ccccc5)c5ccc([nH]5)c(-c5ccccc5)c5nc(c(-c6ccccc6)c6ccc3[nH]6)C=C5)C=C4)cc2)nc2cnccc21
REMARK SMILES IDX 15 1 14 2 12 3 13 4 11 6 10 7 9 8 8 9 76 10 70 11 71 12
REMARK SMILES IDX 75 13 72 14 74 15 73 16 2 17 1 18 3 19 4 20 7 21 5 22 6 23
REMARK SMILES IDX 16 24 17 25 18 26 19 27 20 28 21 30 22 31 23 32 69 33 24 34
REMARK SMILES IDX 68 35 25 36 26 37 27 38 62 39 28 40 67 41 61 42 63 43 29 44
REMARK SMILES IDX 66 45 60 46 59 47 30 49 52 50 37 51 51 52 38 53 41 54 50 55
REMARK SMILES IDX 64 56 39 57 40 58 49 60 65 61 42 62 31 63 32 64 36 65 33 66
REMARK SMILES IDX 35 67 34 68 53 69 54 70 58 71 55 72 57 73 56 74 43 75 44 76
REMARK SMILES IDX 48 77 45 78 47 79 46 80
REMARK H PARENT 14 5 19 29 63 48 41 59
REMARK Flexibility Score: inf
ROOT
ATOM      1  C   UNL A   1      40.261  31.212  34.325  1.00  0.00     0.116 C 
ENDROOT
BRANCH   1   2
ATOM      2  N   UNL A   1      39.480  31.401  35.525  1.00  0.00    -0.355 N 
ATOM      3  C   UNL A   1      38.138  31.597  35.598  1.00  0.00     0.230 C 
ATOM      4  O   UNL A   1      37.592  31.451  36.695  1.00  0.00    -0.274 OA
ATOM      5  H   UNL A   1      39.971  31.388  36.378  1.00  0.00     0.163 HD
BRANCH   3   6
ATOM      6  C   UNL A   1      37.354  31.893  34.348  1.00  0.00     0.178 C 
BRANCH   6   7
ATOM      7  S   UNL A   1      36.672  33.514  34.141  1.00  0.00    -0.078 SA
BRANCH   7   8
ATOM      8  C   UNL A   1      35.659  34.044  32.847  1.00  0.00     0.169 A 
ATOM      9  N   UNL A   1      35.560  33.855  31.475  1.00  0.00    -0.313 N 
ATOM     10  C   UNL A   1      34.499  34.668  31.029  1.00  0.00     0.072 A 
ATOM     11  N   UNL A   1      34.810  34.984  33.232  1.00  0.00    -0.221 NA
ATOM     12  C   UNL A   1      34.107  35.391  32.142  1.00  0.00     0.108 A 
ATOM     13  C   UNL A   1      33.871  34.861  29.790  1.00  0.00     0.049 A 
ATOM     14  C   UNL A   1      33.109  36.365  32.017  1.00  0.00     0.141 A 
ATOM     15  C   UNL A   1      32.879  35.833  29.763  1.00  0.00     0.113 A 
ATOM     16  N   UNL A   1      32.500  36.580  30.822  1.00  0.00    -0.262 NA
BRANCH   9  17
ATOM     17  C   UNL A   1      36.262  33.022  30.502  1.00  0.00     0.116 C 
ATOM     18  C   UNL A   1      36.973  33.863  29.448  1.00  0.00     0.034 C 
BRANCH  17  19
ATOM     19  C   UNL A   1      35.631  31.670  30.081  1.00  0.00     0.141 C 
ATOM     20  C   UNL A   1      36.452  30.424  30.248  1.00  0.00     0.036 C 
ATOM     21  O   UNL A   1      35.206  31.706  28.708  1.00  0.00    -0.376 OA
ATOM     22  C   UNL A   1      36.726  29.908  28.856  1.00  0.00     0.031 C 
ATOM     23  C   UNL A   1      36.130  30.940  27.931  1.00  0.00     0.160 C 
ENDBRANCH  17  19
ENDBRANCH   9  17
ENDBRANCH   7   8
ENDBRANCH   6   7
ENDBRANCH   3   6
ENDBRANCH   1   2
BRANCH   1  24
ATOM     24  C   UNL A   1      41.310  32.291  34.143  1.00  0.00     0.023 C 
BRANCH  24  25
ATOM     25  C   UNL A   1      40.762  33.689  33.860  1.00  0.00     0.023 C 
BRANCH  25  26
ATOM     26  C   UNL A   1      41.637  34.589  32.980  1.00  0.00     0.116 C 
BRANCH  26  27
ATOM     27  N   UNL A   1      41.156  34.794  31.626  1.00  0.00    -0.352 N 
ATOM     28  C   UNL A   1      40.927  34.003  30.543  1.00  0.00     0.251 C 
ATOM     29  H   UNL A   1      40.942  35.738  31.447  1.00  0.00     0.163 HD
ATOM     30  O   UNL A   1      40.446  34.566  29.550  1.00  0.00    -0.269 OA
BRANCH  28  31
ATOM     31  C   UNL A   1      41.256  32.563  30.456  1.00  0.00     0.039 A 
ATOM     32  C   UNL A   1      42.534  32.050  30.251  1.00  0.00     0.014 A 
ATOM     33  C   UNL A   1      40.171  31.670  30.550  1.00  0.00     0.014 A 
ATOM     34  C   UNL A   1      42.710  30.696  30.018  1.00  0.00     0.010 A 
ATOM     35  C   UNL A   1      40.348  30.307  30.360  1.00  0.00     0.010 A 
ATOM     36  C   UNL A   1      41.613  29.832  30.046  1.00  0.00    -0.014 A 
BRANCH  36  37
ATOM     37  C   UNL A   1      41.894  28.414  29.884  1.00  0.00     0.031 A 
ATOM     38  C   UNL A   1      42.605  27.805  31.042  1.00  0.00     0.074 A 
ATOM     39  C   UNL A   1      41.516  27.684  28.819  1.00  0.00     0.049 A 
ATOM     40  N   UNL A   1      43.792  27.297  31.057  1.00  0.00    -0.248 NA
ATOM     41  C   UNL A   1      41.973  27.904  32.368  1.00  0.00     0.031 C 
ATOM     42  C   UNL A   1      40.602  28.051  27.738  1.00  0.00     0.029 A 
ATOM     43  N   UNL A   1      41.819  26.386  28.538  1.00  0.00    -0.354 N 
ATOM     44  C   UNL A   1      44.014  26.874  32.364  1.00  0.00     0.074 A 
ATOM     45  C   UNL A   1      42.918  27.379  33.150  1.00  0.00     0.031 C 
ATOM     46  C   UNL A   1      40.240  26.934  27.064  1.00  0.00     0.029 A 
ATOM     47  C   UNL A   1      41.015  25.812  27.565  1.00  0.00     0.049 A 
ATOM     48  H   UNL A   1      42.547  25.898  28.987  1.00  0.00     0.167 HD
ATOM     49  C   UNL A   1      44.999  25.988  32.673  1.00  0.00     0.031 A 
ATOM     50  C   UNL A   1      40.957  24.495  27.249  1.00  0.00     0.031 A 
ATOM     51  C   UNL A   1      45.976  25.887  31.624  1.00  0.00     0.049 A 
ATOM     52  C   UNL A   1      42.205  23.860  27.728  1.00  0.00     0.074 A 
ATOM     53  C   UNL A   1      46.887  26.762  31.067  1.00  0.00     0.029 A 
ATOM     54  N   UNL A   1      45.842  24.852  30.732  1.00  0.00    -0.354 N 
ATOM     55  N   UNL A   1      43.377  24.092  27.213  1.00  0.00    -0.248 NA
ATOM     56  C   UNL A   1      42.211  23.277  29.059  1.00  0.00     0.031 C 
ATOM     57  C   UNL A   1      46.890  26.451  29.678  1.00  0.00     0.029 A 
ATOM     58  C   UNL A   1      46.044  25.359  29.474  1.00  0.00     0.049 A 
ATOM     59  H   UNL A   1      45.639  23.916  30.955  1.00  0.00     0.167 HD
ATOM     60  C   UNL A   1      44.237  24.115  28.300  1.00  0.00     0.074 A 
ATOM     61  C   UNL A   1      43.485  23.500  29.391  1.00  0.00     0.031 C 
ATOM     62  C   UNL A   1      45.370  24.879  28.285  1.00  0.00     0.031 A 
BRANCH  49  63
ATOM     63  C   UNL A   1      44.885  24.964  33.771  1.00  0.00    -0.014 A 
ATOM     64  C   UNL A   1      43.766  24.126  33.926  1.00  0.00     0.009 A 
ATOM     65  C   UNL A   1      46.031  24.632  34.517  1.00  0.00     0.009 A 
ATOM     66  C   UNL A   1      43.784  23.010  34.768  1.00  0.00     0.001 A 
ATOM     67  C   UNL A   1      46.066  23.493  35.331  1.00  0.00     0.001 A 
ATOM     68  C   UNL A   1      44.943  22.681  35.452  1.00  0.00     0.000 A 
ENDBRANCH  49  63
BRANCH  50  69
ATOM     69  C   UNL A   1      39.766  23.683  26.915  1.00  0.00    -0.014 A 
ATOM     70  C   UNL A   1      39.916  22.340  26.526  1.00  0.00     0.009 A 
ATOM     71  C   UNL A   1      38.533  24.307  26.660  1.00  0.00     0.009 A 
ATOM     72  C   UNL A   1      38.893  21.664  25.853  1.00  0.00     0.001 A 
ATOM     73  C   UNL A   1      37.511  23.630  25.983  1.00  0.00     0.001 A 
ATOM     74  C   UNL A   1      37.699  22.316  25.563  1.00  0.00     0.000 A 
ENDBRANCH  50  69
BRANCH  62  75
ATOM     75  C   UNL A   1      45.812  25.492  26.974  1.00  0.00    -0.014 A 
ATOM     76  C   UNL A   1      46.833  24.844  26.259  1.00  0.00     0.009 A 
ATOM     77  C   UNL A   1      45.386  26.754  26.521  1.00  0.00     0.009 A 
ATOM     78  C   UNL A   1      47.422  25.441  25.142  1.00  0.00     0.001 A 
ATOM     79  C   UNL A   1      45.955  27.337  25.381  1.00  0.00     0.001 A 
ATOM     80  C   UNL A   1      46.981  26.684  24.701  1.00  0.00     0.000 A 
ENDBRANCH  62  75
ENDBRANCH  36  37
ENDBRANCH  28  31
ENDBRANCH  26  27
ENDBRANCH  25  26
ENDBRANCH  24  25
ENDBRANCH   1  24
TORSDOF 15
ENDMDL
MODEL 2
REMARK VINA RESULT:     -10.4      4.791      9.609
REMARK SMILES C[C@H]([C@@H]1CCCO1)n1c(SCC(=O)NCCCCNC(=O)c2ccc(-c3c4nc(c(-c5ccccc5)c5ccc([nH]5)c(-c5ccccc5)c5nc(c(-c6ccccc6)c6ccc3[nH]6)C=C5)C=C4)cc2)nc2cnccc21
REMARK SMILES IDX 15 1 14 2 12 3 13 4 11 6 10 7 9 8 8 9 76 10 70 11 71 12
REMARK SMILES IDX 75 13 72 14 74 15 73 16 2 17 1 18 3 19 4 20 7 21 5 22 6 23
REMARK SMILES IDX 16 24 17 25 18 26 19 27 20 28 21 30 22 31 23 32 69 33 24 34
REMARK SMILES IDX 68 35 25 36 26 37 27 38 62 39 28 40 67 41 61 42 63 43 29 44
REMARK SMILES IDX 66 45 60 46 59 47 30 49 52 50 37 51 51 52 38 53 41 54 50 55
REMARK SMILES IDX 64 56 39 57 40 58 49 60 65 61 42 62 31 63 32 64 36 65 33 66
REMARK SMILES IDX 35 67 34 68 53 69 54 70 58 71 55 72 57 73 56 74 43 75 44 76
REMARK SMILES IDX 48 77 45 78 47 79 46 80
REMARK H PARENT 14 5 19 29 63 48 41 59
REMARK Flexibility Score: inf
ROOT
ATOM      1  C   UNL A   1      34.063  22.766  26.818  1.00  0.00     0.116 C 
ENDROOT
BRANCH   1   2
ATOM      2  N   UNL A   1      33.099  21.729  26.537  1.00  0.00    -0.355 N 
ATOM      3  C   UNL A   1      32.108  21.772  25.608  1.00  0.00     0.230 C 
ATOM      4  O   UNL A   1      31.564  20.709  25.297  1.00  0.00    -0.274 OA
ATOM      5  H   UNL A   1      33.165  20.907  27.073  1.00  0.00     0.163 HD
BRANCH   3   6
ATOM      6  C   UNL A   1      31.767  23.073  24.934  1.00  0.00     0.178 C 
BRANCH   6   7
ATOM      7  S   UNL A   1      30.841  24.279  25.841  1.00  0.00    -0.078 SA
BRANCH   7   8
ATOM      8  C   UNL A   1      31.090  25.988  25.827  1.00  0.00     0.169 A 
ATOM      9  N   UNL A   1      30.888  27.049  24.955  1.00  0.00    -0.313 N 
ATOM     10  C   UNL A   1      31.392  28.199  25.593  1.00  0.00     0.072 A 
ATOM     11  N   UNL A   1      31.769  26.401  26.886  1.00  0.00    -0.221 NA
ATOM     12  C   UNL A   1      31.980  27.738  26.757  1.00  0.00     0.108 A 
ATOM     13  C   UNL A   1      31.417  29.564  25.269  1.00  0.00     0.049 A 
ATOM     14  C   UNL A   1      32.655  28.635  27.593  1.00  0.00     0.141 A 
ATOM     15  C   UNL A   1      32.092  30.383  26.165  1.00  0.00     0.113 A 
ATOM     16  N   UNL A   1      32.707  29.957  27.289  1.00  0.00    -0.262 NA
BRANCH   9  17
ATOM     17  C   UNL A   1      30.275  27.190  23.637  1.00  0.00     0.116 C 
ATOM     18  C   UNL A   1      28.814  26.754  23.645  1.00  0.00     0.034 C 
BRANCH  17  19
ATOM     19  C   UNL A   1      31.135  26.905  22.379  1.00  0.00     0.141 C 
ATOM     20  C   UNL A   1      31.736  25.537  22.228  1.00  0.00     0.036 C 
ATOM     21  O   UNL A   1      32.215  27.847  22.270  1.00  0.00    -0.376 OA
ATOM     22  C   UNL A   1      33.231  25.718  22.327  1.00  0.00     0.031 C 
ATOM     23  C   UNL A   1      33.430  27.183  22.631  1.00  0.00     0.160 C 
ENDBRANCH  17  19
ENDBRANCH   9  17
ENDBRANCH   7   8
ENDBRANCH   6   7
ENDBRANCH   3   6
ENDBRANCH   1   2
BRANCH   1  24
ATOM     24  C   UNL A   1      35.425  22.466  26.220  1.00  0.00     0.023 C 
BRANCH  24  25
ATOM     25  C   UNL A   1      35.550  21.103  25.542  1.00  0.00     0.023 C 
BRANCH  25  26
ATOM     26  C   UNL A   1      36.634  20.987  24.464  1.00  0.00     0.116 C 
BRANCH  26  27
ATOM     27  N   UNL A   1      37.653  19.983  24.712  1.00  0.00    -0.352 N 
ATOM     28  C   UNL A   1      38.790  19.912  25.455  1.00  0.00     0.251 C 
ATOM     29  H   UNL A   1      37.478  19.147  24.221  1.00  0.00     0.163 HD
ATOM     30  O   UNL A   1      39.379  18.821  25.445  1.00  0.00    -0.269 OA
BRANCH  28  31
ATOM     31  C   UNL A   1      39.384  21.035  26.212  1.00  0.00     0.039 A 
ATOM     32  C   UNL A   1      39.009  22.370  26.079  1.00  0.00     0.014 A 
ATOM     33  C   UNL A   1      40.431  20.707  27.094  1.00  0.00     0.014 A 
ATOM     34  C   UNL A   1      39.740  23.363  26.709  1.00  0.00     0.010 A 
ATOM     35  C   UNL A   1      41.140  21.695  27.763  1.00  0.00     0.010 A 
ATOM     36  C   UNL A   1      40.820  23.025  27.528  1.00  0.00    -0.014 A 
BRANCH  36  37
ATOM     37  C   UNL A   1      41.477  24.118  28.227  1.00  0.00     0.031 A 
ATOM     38  C   UNL A   1      40.708  25.392  28.211  1.00  0.00     0.074 A 
ATOM     39  C   UNL A   1      42.650  24.004  28.878  1.00  0.00     0.049 A 
ATOM     40  N   UNL A   1      41.045  26.507  27.654  1.00  0.00    -0.248 NA
ATOM     41  C   UNL A   1      39.341  25.379  28.757  1.00  0.00     0.031 C 
ATOM     42  C   UNL A   1      43.395  22.790  29.212  1.00  0.00     0.029 A 
ATOM     43  N   UNL A   1      43.383  24.988  29.469  1.00  0.00    -0.354 N 
ATOM     44  C   UNL A   1      40.000  27.393  27.899  1.00  0.00     0.074 A 
ATOM     45  C   UNL A   1      38.931  26.616  28.472  1.00  0.00     0.031 C 
ATOM     46  C   UNL A   1      44.331  23.087  30.143  1.00  0.00     0.029 A 
ATOM     47  C   UNL A   1      44.352  24.526  30.347  1.00  0.00     0.049 A 
ATOM     48  H   UNL A   1      43.237  25.945  29.288  1.00  0.00     0.167 HD
ATOM     49  C   UNL A   1      40.155  28.738  27.771  1.00  0.00     0.031 A 
ATOM     50  C   UNL A   1      45.067  25.279  31.218  1.00  0.00     0.031 A 
ATOM     51  C   UNL A   1      41.319  29.071  26.995  1.00  0.00     0.049 A 
ATOM     52  C   UNL A   1      45.023  26.681  30.746  1.00  0.00     0.074 A 
ATOM     53  C   UNL A   1      41.695  28.866  25.683  1.00  0.00     0.029 A 
ATOM     54  N   UNL A   1      42.467  29.383  27.680  1.00  0.00    -0.354 N 
ATOM     55  N   UNL A   1      45.610  27.097  29.663  1.00  0.00    -0.248 NA
ATOM     56  C   UNL A   1      43.973  27.544  31.260  1.00  0.00     0.031 C 
ATOM     57  C   UNL A   1      43.092  28.598  25.741  1.00  0.00     0.029 A 
ATOM     58  C   UNL A   1      43.506  28.730  27.068  1.00  0.00     0.049 A 
ATOM     59  H   UNL A   1      42.533  29.969  28.468  1.00  0.00     0.167 HD
ATOM     60  C   UNL A   1      44.724  28.011  29.115  1.00  0.00     0.074 A 
ATOM     61  C   UNL A   1      43.790  28.326  30.193  1.00  0.00     0.031 C 
ATOM     62  C   UNL A   1      44.665  28.212  27.765  1.00  0.00     0.031 A 
BRANCH  49  63
ATOM     63  C   UNL A   1      39.447  29.746  28.638  1.00  0.00    -0.014 A 
ATOM     64  C   UNL A   1      40.077  30.418  29.702  1.00  0.00     0.009 A 
ATOM     65  C   UNL A   1      38.197  30.242  28.228  1.00  0.00     0.009 A 
ATOM     66  C   UNL A   1      39.502  31.532  30.320  1.00  0.00     0.001 A 
ATOM     67  C   UNL A   1      37.636  31.382  28.818  1.00  0.00     0.001 A 
ATOM     68  C   UNL A   1      38.292  32.029  29.860  1.00  0.00     0.000 A 
ENDBRANCH  49  63
BRANCH  50  69
ATOM     69  C   UNL A   1      45.458  24.952  32.607  1.00  0.00    -0.014 A 
ATOM     70  C   UNL A   1      44.536  24.337  33.473  1.00  0.00     0.009 A 
ATOM     71  C   UNL A   1      46.604  25.534  33.175  1.00  0.00     0.009 A 
ATOM     72  C   UNL A   1      44.721  24.356  34.859  1.00  0.00     0.001 A 
ATOM     73  C   UNL A   1      46.787  25.556  34.564  1.00  0.00     0.001 A 
ATOM     74  C   UNL A   1      45.836  24.984  35.405  1.00  0.00     0.000 A 
ENDBRANCH  50  69
BRANCH  62  75
ATOM     75  C   UNL A   1      45.757  27.622  26.897  1.00  0.00    -0.014 A 
ATOM     76  C   UNL A   1      46.639  28.510  26.261  1.00  0.00     0.009 A 
ATOM     77  C   UNL A   1      45.829  26.260  26.555  1.00  0.00     0.009 A 
ATOM     78  C   UNL A   1      47.551  28.060  25.304  1.00  0.00     0.001 A 
ATOM     79  C   UNL A   1      46.766  25.804  25.619  1.00  0.00     0.001 A 
ATOM     80  C   UNL A   1      47.617  26.707  24.985  1.00  0.00     0.000 A 
ENDBRANCH  62  75
ENDBRANCH  36  37
ENDBRANCH  28  31
ENDBRANCH  26  27
ENDBRANCH  25  26
ENDBRANCH  24  25
ENDBRANCH   1  24
TORSDOF 15
ENDMDL
MODEL 3
REMARK VINA RESULT:     -10.4      5.190     10.155
REMARK SMILES C[C@H]([C@@H]1CCCO1)n1c(SCC(=O)NCCCCNC(=O)c2ccc(-c3c4nc(c(-c5ccccc5)c5ccc([nH]5)c(-c5ccccc5)c5nc(c(-c6ccccc6)c6ccc3[nH]6)C=C5)C=C4)cc2)nc2cnccc21
REMARK SMILES IDX 15 1 14 2 12 3 13 4 11 6 10 7 9 8 8 9 76 10 70 11 71 12
REMARK SMILES IDX 75 13 72 14 74 15 73 16 2 17 1 18 3 19 4 20 7 21 5 22 6 23
REMARK SMILES IDX 16 24 17 25 18 26 19 27 20 28 21 30 22 31 23 32 69 33 24 34
REMARK SMILES IDX 68 35 25 36 26 37 27 38 62 39 28 40 67 41 61 42 63 43 29 44
REMARK SMILES IDX 66 45 60 46 59 47 30 49 52 50 37 51 51 52 38 53 41 54 50 55
REMARK SMILES IDX 64 56 39 57 40 58 49 60 65 61 42 62 31 63 32 64 36 65 33 66
REMARK SMILES IDX 35 67 34 68 53 69 54 70 58 71 55 72 57 73 56 74 43 75 44 76
REMARK SMILES IDX 48 77 45 78 47 79 46 80
REMARK H PARENT 14 5 19 29 63 48 41 59
REMARK Flexibility Score: inf
ROOT
ATOM      1  C   UNL A   1      35.536  23.071  24.386  1.00  0.00     0.116 C 
ENDROOT
BRANCH   1   2
ATOM      2  N   UNL A   1      34.562  22.005  24.416  1.00  0.00    -0.355 N 
ATOM      3  C   UNL A   1      33.226  22.132  24.629  1.00  0.00     0.230 C 
ATOM      4  O   UNL A   1      32.503  21.176  24.338  1.00  0.00    -0.274 OA
ATOM      5  H   UNL A   1      34.901  21.094  24.269  1.00  0.00     0.163 HD
BRANCH   3   6
ATOM      6  C   UNL A   1      32.665  23.438  25.122  1.00  0.00     0.178 C 
BRANCH   6   7
ATOM      7  S   UNL A   1      31.124  24.003  24.458  1.00  0.00    -0.078 SA
BRANCH   7   8
ATOM      8  C   UNL A   1      30.797  25.571  23.815  1.00  0.00     0.169 A 
ATOM      9  N   UNL A   1      31.517  26.672  23.370  1.00  0.00    -0.313 N 
ATOM     10  C   UNL A   1      30.575  27.661  23.028  1.00  0.00     0.072 A 
ATOM     11  N   UNL A   1      29.507  25.869  23.863  1.00  0.00    -0.221 NA
ATOM     12  C   UNL A   1      29.350  27.141  23.406  1.00  0.00     0.108 A 
ATOM     13  C   UNL A   1      30.665  28.941  22.461  1.00  0.00     0.049 A 
ATOM     14  C   UNL A   1      28.196  27.921  23.274  1.00  0.00     0.141 A 
ATOM     15  C   UNL A   1      29.468  29.636  22.349  1.00  0.00     0.113 A 
ATOM     16  N   UNL A   1      28.264  29.169  22.744  1.00  0.00    -0.262 NA
BRANCH   9  17
ATOM     17  C   UNL A   1      32.936  26.957  23.175  1.00  0.00     0.116 C 
ATOM     18  C   UNL A   1      33.588  25.952  22.232  1.00  0.00     0.034 C 
BRANCH  17  19
ATOM     19  C   UNL A   1      33.759  27.507  24.368  1.00  0.00     0.141 C 
ATOM     20  C   UNL A   1      33.379  27.064  25.752  1.00  0.00     0.036 C 
ATOM     21  O   UNL A   1      33.753  28.945  24.376  1.00  0.00    -0.376 OA
ATOM     22  C   UNL A   1      32.871  28.294  26.466  1.00  0.00     0.031 C 
ATOM     23  C   UNL A   1      32.886  29.386  25.424  1.00  0.00     0.160 C 
ENDBRANCH  17  19
ENDBRANCH   9  17
ENDBRANCH   7   8
ENDBRANCH   6   7
ENDBRANCH   3   6
ENDBRANCH   1   2
BRANCH   1  24
ATOM     24  C   UNL A   1      36.912  22.585  23.972  1.00  0.00     0.023 C 
BRANCH  24  25
ATOM     25  C   UNL A   1      37.551  21.567  24.915  1.00  0.00     0.023 C 
BRANCH  25  26
ATOM     26  C   UNL A   1      38.436  22.144  26.027  1.00  0.00     0.116 C 
BRANCH  26  27
ATOM     27  N   UNL A   1      39.860  21.912  25.872  1.00  0.00    -0.352 N 
ATOM     28  C   UNL A   1      40.998  22.561  26.236  1.00  0.00     0.251 C 
ATOM     29  H   UNL A   1      40.049  21.078  25.384  1.00  0.00     0.163 HD
ATOM     30  O   UNL A   1      42.063  21.993  25.956  1.00  0.00    -0.269 OA
BRANCH  28  31
ATOM     31  C   UNL A   1      41.050  23.892  26.880  1.00  0.00     0.039 A 
ATOM     32  C   UNL A   1      41.715  24.174  28.071  1.00  0.00     0.014 A 
ATOM     33  C   UNL A   1      40.330  24.921  26.244  1.00  0.00     0.014 A 
ATOM     34  C   UNL A   1      41.563  25.410  28.676  1.00  0.00     0.010 A 
ATOM     35  C   UNL A   1      40.209  26.176  26.824  1.00  0.00     0.010 A 
ATOM     36  C   UNL A   1      40.788  26.398  28.065  1.00  0.00    -0.014 A 
BRANCH  36  37
ATOM     37  C   UNL A   1      40.754  27.698  28.717  1.00  0.00     0.031 A 
ATOM     38  C   UNL A   1      41.713  28.684  28.146  1.00  0.00     0.074 A 
ATOM     39  C   UNL A   1      39.911  28.024  29.714  1.00  0.00     0.049 A 
ATOM     40  N   UNL A   1      42.728  29.224  28.733  1.00  0.00    -0.248 NA
ATOM     41  C   UNL A   1      41.611  28.992  26.710  1.00  0.00     0.031 C 
ATOM     42  C   UNL A   1      38.752  27.281  30.208  1.00  0.00     0.029 A 
ATOM     43  N   UNL A   1      39.877  29.172  30.445  1.00  0.00    -0.354 N 
ATOM     44  C   UNL A   1      43.320  30.060  27.791  1.00  0.00     0.074 A 
ATOM     45  C   UNL A   1      42.668  29.786  26.535  1.00  0.00     0.031 C 
ATOM     46  C   UNL A   1      37.996  28.100  30.978  1.00  0.00     0.029 A 
ATOM     47  C   UNL A   1      38.699  29.360  31.154  1.00  0.00     0.049 A 
ATOM     48  H   UNL A   1      40.624  29.813  30.469  1.00  0.00     0.167 HD
ATOM     49  C   UNL A   1      44.188  31.044  28.149  1.00  0.00     0.031 A 
ATOM     50  C   UNL A   1      38.316  30.498  31.782  1.00  0.00     0.031 A 
ATOM     51  C   UNL A   1      44.705  30.843  29.475  1.00  0.00     0.049 A 
ATOM     52  C   UNL A   1      39.528  31.312  32.022  1.00  0.00     0.074 A 
ATOM     53  C   UNL A   1      45.496  29.879  30.067  1.00  0.00     0.029 A 
ATOM     54  N   UNL A   1      44.097  31.524  30.501  1.00  0.00    -0.354 N 
ATOM     55  N   UNL A   1      40.466  30.981  32.859  1.00  0.00    -0.248 NA
ATOM     56  C   UNL A   1      39.902  32.296  31.019  1.00  0.00     0.031 C 
ATOM     57  C   UNL A   1      44.961  29.721  31.377  1.00  0.00     0.029 A 
ATOM     58  C   UNL A   1      43.927  30.646  31.540  1.00  0.00     0.049 A 
ATOM     59  H   UNL A   1      43.832  32.472  30.491  1.00  0.00     0.167 HD
ATOM     60  C   UNL A   1      41.644  31.354  32.229  1.00  0.00     0.074 A 
ATOM     61  C   UNL A   1      41.230  32.254  31.155  1.00  0.00     0.031 C 
ATOM     62  C   UNL A   1      42.810  30.681  32.460  1.00  0.00     0.031 A 
BRANCH  49  63
ATOM     63  C   UNL A   1      44.297  32.363  27.431  1.00  0.00    -0.014 A 
ATOM     64  C   UNL A   1      44.573  32.466  26.055  1.00  0.00     0.009 A 
ATOM     65  C   UNL A   1      43.851  33.531  28.076  1.00  0.00     0.009 A 
ATOM     66  C   UNL A   1      44.405  33.663  25.352  1.00  0.00     0.001 A 
ATOM     67  C   UNL A   1      43.645  34.721  27.367  1.00  0.00     0.001 A 
ATOM     68  C   UNL A   1      43.917  34.784  26.005  1.00  0.00     0.000 A 
ENDBRANCH  49  63
BRANCH  50  69
ATOM     69  C   UNL A   1      36.966  31.100  31.848  1.00  0.00    -0.014 A 
ATOM     70  C   UNL A   1      36.252  31.360  30.665  1.00  0.00     0.009 A 
ATOM     71  C   UNL A   1      36.523  31.715  33.031  1.00  0.00     0.009 A 
ATOM     72  C   UNL A   1      35.172  32.250  30.653  1.00  0.00     0.001 A 
ATOM     73  C   UNL A   1      35.443  32.607  33.018  1.00  0.00     0.001 A 
ATOM     74  C   UNL A   1      34.781  32.889  31.824  1.00  0.00     0.000 A 
ENDBRANCH  50  69
BRANCH  62  75
ATOM     75  C   UNL A   1      42.861  29.696  33.609  1.00  0.00    -0.014 A 
ATOM     76  C   UNL A   1      42.436  28.380  33.363  1.00  0.00     0.009 A 
ATOM     77  C   UNL A   1      43.140  30.063  34.938  1.00  0.00     0.009 A 
ATOM     78  C   UNL A   1      42.277  27.466  34.407  1.00  0.00     0.001 A 
ATOM     79  C   UNL A   1      43.013  29.136  35.980  1.00  0.00     0.001 A 
ATOM     80  C   UNL A   1      42.569  27.842  35.714  1.00  0.00     0.000 A 
ENDBRANCH  62  75
ENDBRANCH  36  37
ENDBRANCH  28  31
ENDBRANCH  26  27
ENDBRANCH  25  26
ENDBRANCH  24  25
ENDBRANCH   1  24
TORSDOF 15
ENDMDL
