MODEL 1
REMARK VINA RESULT:     -12.5      0.000      0.000
REMARK SMILES C[C@@H]1[C@H](C(=O)NCCCCNC(=O)c2ccc(-c3c4nc(c(-c5ccccc5)c5ccc([nH]5)c(-c5ccccc5)c5nc(c(-c6ccccc6)c6ccc3[nH]6)C=C5)C=C4)cc2)CC[N@H+]1Cc1cnn(-c2ccccc2)c1
REMARK SMILES IDX 8 1 7 2 6 3 4 4 5 5 3 7 1 8 2 9 64 10 62 11 63 12 65 14
REMARK SMILES IDX 66 15 67 16 76 17 68 18 69 19 70 20 71 21 75 22 72 23 74 24
REMARK SMILES IDX 73 25 9 26 10 27 11 28 12 29 13 31 14 32 15 33 61 34 16 35
REMARK SMILES IDX 60 36 17 37 18 38 19 39 54 40 20 41 59 42 53 43 55 44 21 45
REMARK SMILES IDX 58 46 52 47 51 48 22 50 44 51 29 52 43 53 30 54 33 55 42 56
REMARK SMILES IDX 56 57 31 58 32 59 41 61 57 62 34 63 23 64 24 65 28 66 25 67
REMARK SMILES IDX 27 68 26 69 45 70 46 71 50 72 47 73 49 74 48 75 35 76 36 77
REMARK SMILES IDX 40 78 37 79 39 80 38 81
REMARK H PARENT 6 6 64 13 11 30 55 49 33 60
REMARK Flexibility Score: inf
ROOT
ATOM      1  C   UNL A   1      31.743  27.457  26.962  1.00  0.00     0.023 C 
ENDROOT
BRANCH   1   2
ATOM      2  C   UNL A   1      31.053  26.363  26.154  1.00  0.00     0.116 C 
BRANCH   2   3
ATOM      3  N   UNL A   1      31.046  25.105  26.864  1.00  0.00    -0.356 N 
ATOM      4  C   UNL A   1      31.694  23.942  26.603  1.00  0.00     0.229 C 
ATOM      5  O   UNL A   1      31.428  22.984  27.338  1.00  0.00    -0.275 OA
ATOM      6  H   UNL A   1      30.477  25.089  27.667  1.00  0.00     0.163 HD
BRANCH   4   7
ATOM      7  C   UNL A   1      32.723  23.774  25.490  1.00  0.00     0.142 C 
ATOM      8  C   UNL A   1      30.775  23.766  23.714  1.00  0.00     0.076 C 
ATOM      9  C   UNL A   1      32.260  23.679  24.020  1.00  0.00     0.193 C 
ATOM     10  N   UNL A   1      33.100  24.666  23.365  1.00  0.00    -0.328 N 
ATOM     11  C   UNL A   1      33.874  24.790  25.512  1.00  0.00     0.081 C 
ATOM     12  C   UNL A   1      34.344  24.851  24.069  1.00  0.00     0.263 C 
ATOM     13  H   UNL A   1      32.460  25.316  22.911  1.00  0.00     0.348 HD
BRANCH  10  14
ATOM     14  C   UNL A   1      32.830  25.316  22.113  1.00  0.00     0.302 C 
BRANCH  14  15
ATOM     15  C   UNL A   1      32.306  26.693  22.371  1.00  0.00     0.045 A 
ATOM     16  C   UNL A   1      33.042  27.889  22.514  1.00  0.00     0.145 A 
ATOM     17  C   UNL A   1      30.996  27.111  22.510  1.00  0.00     0.124 A 
ATOM     18  N   UNL A   1      32.273  28.960  22.705  1.00  0.00    -0.176 NA
ATOM     19  N   UNL A   1      31.008  28.474  22.728  1.00  0.00    -0.240 N 
BRANCH  19  20
ATOM     20  C   UNL A   1      29.907  29.324  23.021  1.00  0.00     0.065 A 
ATOM     21  C   UNL A   1      28.665  29.067  22.425  1.00  0.00     0.028 A 
ATOM     22  C   UNL A   1      30.057  30.443  23.853  1.00  0.00     0.028 A 
ATOM     23  C   UNL A   1      27.583  29.914  22.669  1.00  0.00     0.002 A 
ATOM     24  C   UNL A   1      28.982  31.315  24.050  1.00  0.00     0.002 A 
ATOM     25  C   UNL A   1      27.745  31.044  23.468  1.00  0.00     0.000 A 
ENDBRANCH  19  20
ENDBRANCH  14  15
ENDBRANCH  10  14
ENDBRANCH   4   7
ENDBRANCH   2   3
ENDBRANCH   1   2
BRANCH   1  26
ATOM     26  C   UNL A   1      32.826  28.246  26.253  1.00  0.00     0.023 C 
BRANCH  26  27
ATOM     27  C   UNL A   1      33.946  28.746  27.144  1.00  0.00     0.116 C 
BRANCH  27  28
ATOM     28  N   UNL A   1      33.719  30.057  27.738  1.00  0.00    -0.352 N 
ATOM     29  C   UNL A   1      34.635  30.864  28.374  1.00  0.00     0.251 C 
ATOM     30  H   UNL A   1      32.801  30.407  27.677  1.00  0.00     0.163 HD
ATOM     31  O   UNL A   1      34.383  32.006  28.723  1.00  0.00    -0.269 OA
BRANCH  29  32
ATOM     32  C   UNL A   1      35.972  30.317  28.624  1.00  0.00     0.039 A 
ATOM     33  C   UNL A   1      36.245  29.679  29.837  1.00  0.00     0.014 A 
ATOM     34  C   UNL A   1      36.925  30.394  27.609  1.00  0.00     0.014 A 
ATOM     35  C   UNL A   1      37.491  29.083  30.023  1.00  0.00     0.010 A 
ATOM     36  C   UNL A   1      38.117  29.714  27.756  1.00  0.00     0.010 A 
ATOM     37  C   UNL A   1      38.426  29.089  28.977  1.00  0.00    -0.014 A 
BRANCH  37  38
ATOM     38  C   UNL A   1      39.802  28.576  29.141  1.00  0.00     0.031 A 
ATOM     39  C   UNL A   1      40.858  29.540  29.605  1.00  0.00     0.074 A 
ATOM     40  C   UNL A   1      40.116  27.321  28.775  1.00  0.00     0.049 A 
ATOM     41  N   UNL A   1      42.158  29.411  29.605  1.00  0.00    -0.248 NA
ATOM     42  C   UNL A   1      40.382  30.852  30.080  1.00  0.00     0.031 C 
ATOM     43  C   UNL A   1      39.175  26.307  28.300  1.00  0.00     0.029 A 
ATOM     44  N   UNL A   1      41.335  26.697  28.727  1.00  0.00    -0.354 N 
ATOM     45  C   UNL A   1      42.650  30.640  30.025  1.00  0.00     0.074 A 
ATOM     46  C   UNL A   1      41.517  31.516  30.216  1.00  0.00     0.031 C 
ATOM     47  C   UNL A   1      39.851  25.181  28.017  1.00  0.00     0.029 A 
ATOM     48  C   UNL A   1      41.274  25.412  28.245  1.00  0.00     0.049 A 
ATOM     49  H   UNL A   1      42.174  27.128  29.009  1.00  0.00     0.167 HD
ATOM     50  C   UNL A   1      43.934  31.002  30.250  1.00  0.00     0.031 A 
ATOM     51  C   UNL A   1      42.264  24.534  28.003  1.00  0.00     0.031 A 
ATOM     52  C   UNL A   1      45.046  30.106  30.090  1.00  0.00     0.049 A 
ATOM     53  C   UNL A   1      43.684  24.950  28.273  1.00  0.00     0.074 A 
ATOM     54  C   UNL A   1      46.385  30.337  30.344  1.00  0.00     0.029 A 
ATOM     55  N   UNL A   1      44.938  28.797  29.646  1.00  0.00    -0.354 N 
ATOM     56  N   UNL A   1      44.141  26.104  28.702  1.00  0.00    -0.248 NA
ATOM     57  C   UNL A   1      44.724  23.940  28.037  1.00  0.00     0.031 C 
ATOM     58  C   UNL A   1      47.093  29.177  30.012  1.00  0.00     0.029 A 
ATOM     59  C   UNL A   1      46.188  28.208  29.609  1.00  0.00     0.049 A 
ATOM     60  H   UNL A   1      44.096  28.353  29.394  1.00  0.00     0.167 HD
ATOM     61  C   UNL A   1      45.515  25.947  28.822  1.00  0.00     0.074 A 
ATOM     62  C   UNL A   1      45.814  24.584  28.430  1.00  0.00     0.031 C 
ATOM     63  C   UNL A   1      46.449  26.845  29.222  1.00  0.00     0.031 A 
BRANCH  50  64
ATOM     64  C   UNL A   1      44.186  32.420  30.681  1.00  0.00    -0.014 A 
ATOM     65  C   UNL A   1      44.292  32.766  32.038  1.00  0.00     0.009 A 
ATOM     66  C   UNL A   1      44.314  33.429  29.714  1.00  0.00     0.009 A 
ATOM     67  C   UNL A   1      44.469  34.098  32.420  1.00  0.00     0.001 A 
ATOM     68  C   UNL A   1      44.529  34.755  30.097  1.00  0.00     0.001 A 
ATOM     69  C   UNL A   1      44.592  35.090  31.449  1.00  0.00     0.000 A 
ENDBRANCH  50  64
BRANCH  51  70
ATOM     70  C   UNL A   1      41.947  23.171  27.503  1.00  0.00    -0.014 A 
ATOM     71  C   UNL A   1      41.506  22.177  28.392  1.00  0.00     0.009 A 
ATOM     72  C   UNL A   1      42.073  22.853  26.143  1.00  0.00     0.009 A 
ATOM     73  C   UNL A   1      41.224  20.888  27.934  1.00  0.00     0.001 A 
ATOM     74  C   UNL A   1      41.761  21.570  25.682  1.00  0.00     0.001 A 
ATOM     75  C   UNL A   1      41.346  20.588  26.578  1.00  0.00     0.000 A 
ENDBRANCH  51  70
BRANCH  63  76
ATOM     76  C   UNL A   1      47.869  26.362  29.310  1.00  0.00    -0.014 A 
ATOM     77  C   UNL A   1      48.408  25.890  30.516  1.00  0.00     0.009 A 
ATOM     78  C   UNL A   1      48.662  26.340  28.151  1.00  0.00     0.009 A 
ATOM     79  C   UNL A   1      49.727  25.436  30.566  1.00  0.00     0.001 A 
ATOM     80  C   UNL A   1      49.968  25.856  28.198  1.00  0.00     0.001 A 
ATOM     81  C   UNL A   1      50.504  25.415  29.407  1.00  0.00     0.000 A 
ENDBRANCH  63  76
ENDBRANCH  37  38
ENDBRANCH  29  32
ENDBRANCH  27  28
ENDBRANCH  26  27
ENDBRANCH   1  26
TORSDOF 14
ENDMDL
MODEL 2
REMARK VINA RESULT:     -12.2      3.780      8.341
REMARK SMILES C[C@@H]1[C@H](C(=O)NCCCCNC(=O)c2ccc(-c3c4nc(c(-c5ccccc5)c5ccc([nH]5)c(-c5ccccc5)c5nc(c(-c6ccccc6)c6ccc3[nH]6)C=C5)C=C4)cc2)CC[N@H+]1Cc1cnn(-c2ccccc2)c1
REMARK SMILES IDX 8 1 7 2 6 3 4 4 5 5 3 7 1 8 2 9 64 10 62 11 63 12 65 14
REMARK SMILES IDX 66 15 67 16 76 17 68 18 69 19 70 20 71 21 75 22 72 23 74 24
REMARK SMILES IDX 73 25 9 26 10 27 11 28 12 29 13 31 14 32 15 33 61 34 16 35
REMARK SMILES IDX 60 36 17 37 18 38 19 39 54 40 20 41 59 42 53 43 55 44 21 45
REMARK SMILES IDX 58 46 52 47 51 48 22 50 44 51 29 52 43 53 30 54 33 55 42 56
REMARK SMILES IDX 56 57 31 58 32 59 41 61 57 62 34 63 23 64 24 65 28 66 25 67
REMARK SMILES IDX 27 68 26 69 45 70 46 71 50 72 47 73 49 74 48 75 35 76 36 77
REMARK SMILES IDX 40 78 37 79 39 80 38 81
REMARK H PARENT 6 6 64 13 11 30 55 49 33 60
REMARK Flexibility Score: inf
ROOT
ATOM      1  C   UNL A   1      31.961  30.169  26.423  1.00  0.00     0.023 C 
ENDROOT
BRANCH   1   2
ATOM      2  C   UNL A   1      33.406  29.803  26.102  1.00  0.00     0.116 C 
BRANCH   2   3
ATOM      3  N   UNL A   1      33.504  29.083  24.853  1.00  0.00    -0.356 N 
ATOM      4  C   UNL A   1      33.594  27.751  24.609  1.00  0.00     0.229 C 
ATOM      5  O   UNL A   1      33.761  27.415  23.431  1.00  0.00    -0.275 OA
ATOM      6  H   UNL A   1      33.506  29.650  24.049  1.00  0.00     0.163 HD
BRANCH   4   7
ATOM      7  C   UNL A   1      33.481  26.679  25.688  1.00  0.00     0.142 C 
ATOM      8  C   UNL A   1      30.859  26.710  25.421  1.00  0.00     0.076 C 
ATOM      9  C   UNL A   1      32.092  26.150  26.108  1.00  0.00     0.193 C 
ATOM     10  N   UNL A   1      32.268  24.712  26.020  1.00  0.00    -0.328 N 
ATOM     11  C   UNL A   1      34.363  25.442  25.467  1.00  0.00     0.081 C 
ATOM     12  C   UNL A   1      33.645  24.334  26.220  1.00  0.00     0.263 C 
ATOM     13  H   UNL A   1      31.549  24.384  25.376  1.00  0.00     0.348 HD
BRANCH  10  14
ATOM     14  C   UNL A   1      31.225  23.734  25.874  1.00  0.00     0.302 C 
BRANCH  14  15
ATOM     15  C   UNL A   1      31.676  22.663  24.932  1.00  0.00     0.045 A 
ATOM     16  C   UNL A   1      31.654  22.682  23.521  1.00  0.00     0.145 A 
ATOM     17  C   UNL A   1      32.229  21.429  25.222  1.00  0.00     0.124 A 
ATOM     18  N   UNL A   1      32.160  21.578  22.973  1.00  0.00    -0.176 NA
ATOM     19  N   UNL A   1      32.492  20.793  24.026  1.00  0.00    -0.240 N 
BRANCH  19  20
ATOM     20  C   UNL A   1      32.973  19.470  23.824  1.00  0.00     0.065 A 
ATOM     21  C   UNL A   1      34.082  19.026  24.555  1.00  0.00     0.028 A 
ATOM     22  C   UNL A   1      32.388  18.625  22.871  1.00  0.00     0.028 A 
ATOM     23  C   UNL A   1      34.593  17.744  24.342  1.00  0.00     0.002 A 
ATOM     24  C   UNL A   1      32.938  17.362  22.628  1.00  0.00     0.002 A 
ATOM     25  C   UNL A   1      34.032  16.920  23.369  1.00  0.00     0.000 A 
ENDBRANCH  19  20
ENDBRANCH  14  15
ENDBRANCH  10  14
ENDBRANCH   4   7
ENDBRANCH   2   3
ENDBRANCH   1   2
BRANCH   1  26
ATOM     26  C   UNL A   1      31.653  31.645  26.581  1.00  0.00     0.023 C 
BRANCH  26  27
ATOM     27  C   UNL A   1      32.780  32.480  27.154  1.00  0.00     0.116 C 
BRANCH  27  28
ATOM     28  N   UNL A   1      32.384  33.797  27.637  1.00  0.00    -0.352 N 
ATOM     29  C   UNL A   1      33.080  34.627  28.487  1.00  0.00     0.251 C 
ATOM     30  H   UNL A   1      31.516  34.132  27.318  1.00  0.00     0.163 HD
ATOM     31  O   UNL A   1      32.730  35.770  28.731  1.00  0.00    -0.269 OA
BRANCH  29  32
ATOM     32  C   UNL A   1      34.301  34.104  29.108  1.00  0.00     0.039 A 
ATOM     33  C   UNL A   1      34.208  33.251  30.211  1.00  0.00     0.014 A 
ATOM     34  C   UNL A   1      35.531  34.425  28.535  1.00  0.00     0.014 A 
ATOM     35  C   UNL A   1      35.372  32.689  30.731  1.00  0.00     0.010 A 
ATOM     36  C   UNL A   1      36.668  33.785  28.985  1.00  0.00     0.010 A 
ATOM     37  C   UNL A   1      36.604  32.945  30.111  1.00  0.00    -0.014 A 
BRANCH  37  38
ATOM     38  C   UNL A   1      37.887  32.474  30.673  1.00  0.00     0.031 A 
ATOM     39  C   UNL A   1      38.513  31.252  30.062  1.00  0.00     0.074 A 
ATOM     40  C   UNL A   1      38.412  33.052  31.768  1.00  0.00     0.049 A 
ATOM     41  N   UNL A   1      39.492  30.509  30.506  1.00  0.00    -0.248 NA
ATOM     42  C   UNL A   1      37.912  30.769  28.805  1.00  0.00     0.031 C 
ATOM     43  C   UNL A   1      37.880  34.233  32.450  1.00  0.00     0.029 A 
ATOM     44  N   UNL A   1      39.506  32.698  32.513  1.00  0.00    -0.354 N 
ATOM     45  C   UNL A   1      39.583  29.448  29.615  1.00  0.00     0.074 A 
ATOM     46  C   UNL A   1      38.529  29.612  28.640  1.00  0.00     0.031 C 
ATOM     47  C   UNL A   1      38.659  34.512  33.509  1.00  0.00     0.029 A 
ATOM     48  C   UNL A   1      39.709  33.503  33.606  1.00  0.00     0.049 A 
ATOM     49  H   UNL A   1      40.090  31.938  32.286  1.00  0.00     0.167 HD
ATOM     50  C   UNL A   1      40.480  28.435  29.599  1.00  0.00     0.031 A 
ATOM     51  C   UNL A   1      40.633  33.418  34.581  1.00  0.00     0.031 A 
ATOM     52  C   UNL A   1      41.544  28.308  30.555  1.00  0.00     0.049 A 
ATOM     53  C   UNL A   1      41.629  32.292  34.538  1.00  0.00     0.074 A 
ATOM     54  C   UNL A   1      42.549  27.361  30.608  1.00  0.00     0.029 A 
ATOM     55  N   UNL A   1      41.745  29.173  31.621  1.00  0.00    -0.354 N 
ATOM     56  N   UNL A   1      41.731  31.309  33.672  1.00  0.00    -0.248 NA
ATOM     57  C   UNL A   1      42.646  32.270  35.597  1.00  0.00     0.031 C 
ATOM     58  C   UNL A   1      43.335  27.629  31.734  1.00  0.00     0.029 A 
ATOM     59  C   UNL A   1      42.853  28.776  32.345  1.00  0.00     0.049 A 
ATOM     60  H   UNL A   1      41.181  29.952  31.831  1.00  0.00     0.167 HD
ATOM     61  C   UNL A   1      42.843  30.575  34.062  1.00  0.00     0.074 A 
ATOM     62  C   UNL A   1      43.386  31.232  35.235  1.00  0.00     0.031 C 
ATOM     63  C   UNL A   1      43.372  29.458  33.503  1.00  0.00     0.031 A 
BRANCH  50  64
ATOM     64  C   UNL A   1      40.329  27.397  28.521  1.00  0.00    -0.014 A 
ATOM     65  C   UNL A   1      39.574  26.231  28.726  1.00  0.00     0.009 A 
ATOM     66  C   UNL A   1      40.958  27.586  27.281  1.00  0.00     0.009 A 
ATOM     67  C   UNL A   1      39.494  25.253  27.733  1.00  0.00     0.001 A 
ATOM     68  C   UNL A   1      40.846  26.623  26.275  1.00  0.00     0.001 A 
ATOM     69  C   UNL A   1      40.126  25.452  26.507  1.00  0.00     0.000 A 
ENDBRANCH  50  64
BRANCH  51  70
ATOM     70  C   UNL A   1      40.674  34.438  35.660  1.00  0.00    -0.014 A 
ATOM     71  C   UNL A   1      39.876  34.289  36.806  1.00  0.00     0.009 A 
ATOM     72  C   UNL A   1      41.511  35.560  35.562  1.00  0.00     0.009 A 
ATOM     73  C   UNL A   1      39.895  35.253  37.817  1.00  0.00     0.001 A 
ATOM     74  C   UNL A   1      41.551  36.508  36.588  1.00  0.00     0.001 A 
ATOM     75  C   UNL A   1      40.736  36.358  37.709  1.00  0.00     0.000 A 
ENDBRANCH  51  70
BRANCH  63  76
ATOM     76  C   UNL A   1      44.631  28.915  34.119  1.00  0.00    -0.014 A 
ATOM     77  C   UNL A   1      44.591  27.938  35.124  1.00  0.00     0.009 A 
ATOM     78  C   UNL A   1      45.875  29.360  33.645  1.00  0.00     0.009 A 
ATOM     79  C   UNL A   1      45.777  27.443  35.669  1.00  0.00     0.001 A 
ATOM     80  C   UNL A   1      47.058  28.841  34.170  1.00  0.00     0.001 A 
ATOM     81  C   UNL A   1      47.009  27.891  35.188  1.00  0.00     0.000 A 
ENDBRANCH  63  76
ENDBRANCH  37  38
ENDBRANCH  29  32
ENDBRANCH  27  28
ENDBRANCH  26  27
ENDBRANCH   1  26
TORSDOF 14
ENDMDL
MODEL 3
REMARK VINA RESULT:     -12.0      2.733      7.321
REMARK SMILES C[C@@H]1[C@H](C(=O)NCCCCNC(=O)c2ccc(-c3c4nc(c(-c5ccccc5)c5ccc([nH]5)c(-c5ccccc5)c5nc(c(-c6ccccc6)c6ccc3[nH]6)C=C5)C=C4)cc2)CC[N@H+]1Cc1cnn(-c2ccccc2)c1
REMARK SMILES IDX 8 1 7 2 6 3 4 4 5 5 3 7 1 8 2 9 64 10 62 11 63 12 65 14
REMARK SMILES IDX 66 15 67 16 76 17 68 18 69 19 70 20 71 21 75 22 72 23 74 24
REMARK SMILES IDX 73 25 9 26 10 27 11 28 12 29 13 31 14 32 15 33 61 34 16 35
REMARK SMILES IDX 60 36 17 37 18 38 19 39 54 40 20 41 59 42 53 43 55 44 21 45
REMARK SMILES IDX 58 46 52 47 51 48 22 50 44 51 29 52 43 53 30 54 33 55 42 56
REMARK SMILES IDX 56 57 31 58 32 59 41 61 57 62 34 63 23 64 24 65 28 66 25 67
REMARK SMILES IDX 27 68 26 69 45 70 46 71 50 72 47 73 49 74 48 75 35 76 36 77
REMARK SMILES IDX 40 78 37 79 39 80 38 81
REMARK H PARENT 6 6 64 13 11 30 55 49 33 60
REMARK Flexibility Score: inf
ROOT
ATOM      1  C   UNL A   1      35.022  24.855  25.662  1.00  0.00     0.023 C 
ENDROOT
BRANCH   1   2
ATOM      2  C   UNL A   1      33.566  24.475  25.908  1.00  0.00     0.116 C 
BRANCH   2   3
ATOM      3  N   UNL A   1      33.416  23.050  26.092  1.00  0.00    -0.356 N 
ATOM      4  C   UNL A   1      32.985  22.091  25.234  1.00  0.00     0.229 C 
ATOM      5  O   UNL A   1      32.869  20.949  25.693  1.00  0.00    -0.275 OA
ATOM      6  H   UNL A   1      33.666  22.720  26.985  1.00  0.00     0.163 HD
BRANCH   4   7
ATOM      7  C   UNL A   1      32.667  22.347  23.764  1.00  0.00     0.142 C 
ATOM      8  C   UNL A   1      30.632  23.859  24.485  1.00  0.00     0.076 C 
ATOM      9  C   UNL A   1      31.469  23.241  23.379  1.00  0.00     0.193 C 
ATOM     10  N   UNL A   1      32.067  24.175  22.440  1.00  0.00    -0.328 N 
ATOM     11  C   UNL A   1      33.854  22.833  22.920  1.00  0.00     0.081 C 
ATOM     12  C   UNL A   1      33.208  23.598  21.776  1.00  0.00     0.263 C 
ATOM     13  H   UNL A   1      31.885  25.103  22.820  1.00  0.00     0.348 HD
BRANCH  10  14
ATOM     14  C   UNL A   1      31.558  25.472  22.091  1.00  0.00     0.302 C 
BRANCH  14  15
ATOM     15  C   UNL A   1      32.300  26.520  22.860  1.00  0.00     0.045 A 
ATOM     16  C   UNL A   1      33.636  26.943  22.685  1.00  0.00     0.145 A 
ATOM     17  C   UNL A   1      31.850  27.318  23.895  1.00  0.00     0.124 A 
ATOM     18  N   UNL A   1      33.989  27.924  23.514  1.00  0.00    -0.176 NA
ATOM     19  N   UNL A   1      32.892  28.138  24.280  1.00  0.00    -0.240 N 
BRANCH  19  20
ATOM     20  C   UNL A   1      32.929  29.057  25.364  1.00  0.00     0.065 A 
ATOM     21  C   UNL A   1      31.840  29.914  25.573  1.00  0.00     0.028 A 
ATOM     22  C   UNL A   1      34.056  29.156  26.191  1.00  0.00     0.028 A 
ATOM     23  C   UNL A   1      31.875  30.851  26.608  1.00  0.00     0.002 A 
ATOM     24  C   UNL A   1      34.104  30.131  27.192  1.00  0.00     0.002 A 
ATOM     25  C   UNL A   1      33.011  30.970  27.406  1.00  0.00     0.000 A 
ENDBRANCH  19  20
ENDBRANCH  14  15
ENDBRANCH  10  14
ENDBRANCH   4   7
ENDBRANCH   2   3
ENDBRANCH   1   2
BRANCH   1  26
ATOM     26  C   UNL A   1      36.069  23.838  26.071  1.00  0.00     0.023 C 
BRANCH  26  27
ATOM     27  C   UNL A   1      37.280  23.759  25.162  1.00  0.00     0.116 C 
BRANCH  27  28
ATOM     28  N   UNL A   1      38.227  22.702  25.491  1.00  0.00    -0.352 N 
ATOM     29  C   UNL A   1      39.312  22.776  26.334  1.00  0.00     0.251 C 
ATOM     30  H   UNL A   1      38.071  21.832  25.060  1.00  0.00     0.163 HD
ATOM     31  O   UNL A   1      39.973  21.801  26.653  1.00  0.00    -0.269 OA
BRANCH  29  32
ATOM     32  C   UNL A   1      39.671  24.091  26.875  1.00  0.00     0.039 A 
ATOM     33  C   UNL A   1      40.313  25.026  26.058  1.00  0.00     0.014 A 
ATOM     34  C   UNL A   1      39.301  24.398  28.184  1.00  0.00     0.014 A 
ATOM     35  C   UNL A   1      40.562  26.303  26.557  1.00  0.00     0.010 A 
ATOM     36  C   UNL A   1      39.456  25.693  28.639  1.00  0.00     0.010 A 
ATOM     37  C   UNL A   1      40.123  26.642  27.846  1.00  0.00    -0.014 A 
BRANCH  37  38
ATOM     38  C   UNL A   1      40.451  27.936  28.479  1.00  0.00     0.031 A 
ATOM     39  C   UNL A   1      41.804  28.080  29.119  1.00  0.00     0.074 A 
ATOM     40  C   UNL A   1      39.526  28.907  28.581  1.00  0.00     0.049 A 
ATOM     41  N   UNL A   1      42.246  29.006  29.929  1.00  0.00    -0.248 NA
ATOM     42  C   UNL A   1      42.771  26.999  28.853  1.00  0.00     0.031 C 
ATOM     43  C   UNL A   1      38.180  28.867  28.010  1.00  0.00     0.029 A 
ATOM     44  N   UNL A   1      39.581  30.112  29.229  1.00  0.00    -0.354 N 
ATOM     45  C   UNL A   1      43.515  28.588  30.308  1.00  0.00     0.074 A 
ATOM     46  C   UNL A   1      43.750  27.305  29.687  1.00  0.00     0.031 C 
ATOM     47  C   UNL A   1      37.538  30.006  28.325  1.00  0.00     0.029 A 
ATOM     48  C   UNL A   1      38.410  30.827  29.158  1.00  0.00     0.049 A 
ATOM     49  H   UNL A   1      40.383  30.435  29.702  1.00  0.00     0.167 HD
ATOM     50  C   UNL A   1      44.415  29.227  31.090  1.00  0.00     0.031 A 
ATOM     51  C   UNL A   1      38.083  32.004  29.721  1.00  0.00     0.031 A 
ATOM     52  C   UNL A   1      44.178  30.520  31.670  1.00  0.00     0.049 A 
ATOM     53  C   UNL A   1      39.102  32.707  30.576  1.00  0.00     0.074 A 
ATOM     54  C   UNL A   1      45.033  31.296  32.431  1.00  0.00     0.029 A 
ATOM     55  N   UNL A   1      42.996  31.234  31.535  1.00  0.00    -0.354 N 
ATOM     56  N   UNL A   1      40.314  32.322  30.904  1.00  0.00    -0.248 NA
ATOM     57  C   UNL A   1      38.713  34.011  31.129  1.00  0.00     0.031 C 
ATOM     58  C   UNL A   1      44.351  32.463  32.791  1.00  0.00     0.029 A 
ATOM     59  C   UNL A   1      43.095  32.438  32.206  1.00  0.00     0.049 A 
ATOM     60  H   UNL A   1      42.205  30.927  31.036  1.00  0.00     0.167 HD
ATOM     61  C   UNL A   1      40.844  33.351  31.670  1.00  0.00     0.074 A 
ATOM     62  C   UNL A   1      39.825  34.380  31.748  1.00  0.00     0.031 C 
ATOM     63  C   UNL A   1      42.064  33.443  32.256  1.00  0.00     0.031 A 
BRANCH  50  64
ATOM     64  C   UNL A   1      45.717  28.526  31.360  1.00  0.00    -0.014 A 
ATOM     65  C   UNL A   1      45.873  27.666  32.459  1.00  0.00     0.009 A 
ATOM     66  C   UNL A   1      46.809  28.734  30.504  1.00  0.00     0.009 A 
ATOM     67  C   UNL A   1      47.107  27.068  32.724  1.00  0.00     0.001 A 
ATOM     68  C   UNL A   1      48.033  28.106  30.750  1.00  0.00     0.001 A 
ATOM     69  C   UNL A   1      48.184  27.286  31.867  1.00  0.00     0.000 A 
ENDBRANCH  50  64
BRANCH  51  70
ATOM     70  C   UNL A   1      36.746  32.604  29.473  1.00  0.00    -0.014 A 
ATOM     71  C   UNL A   1      35.724  32.472  30.428  1.00  0.00     0.009 A 
ATOM     72  C   UNL A   1      36.480  33.313  28.292  1.00  0.00     0.009 A 
ATOM     73  C   UNL A   1      34.459  33.016  30.194  1.00  0.00     0.001 A 
ATOM     74  C   UNL A   1      35.222  33.882  28.074  1.00  0.00     0.001 A 
ATOM     75  C   UNL A   1      34.211  33.725  29.020  1.00  0.00     0.000 A 
ENDBRANCH  51  70
BRANCH  63  76
ATOM     76  C   UNL A   1      42.380  34.721  32.980  1.00  0.00    -0.014 A 
ATOM     77  C   UNL A   1      43.119  35.745  32.369  1.00  0.00     0.009 A 
ATOM     78  C   UNL A   1      41.887  34.915  34.281  1.00  0.00     0.009 A 
ATOM     79  C   UNL A   1      43.388  36.926  33.063  1.00  0.00     0.001 A 
ATOM     80  C   UNL A   1      42.131  36.109  34.958  1.00  0.00     0.001 A 
ATOM     81  C   UNL A   1      42.890  37.110  34.353  1.00  0.00     0.000 A 
ENDBRANCH  63  76
ENDBRANCH  37  38
ENDBRANCH  29  32
ENDBRANCH  27  28
ENDBRANCH  26  27
ENDBRANCH   1  26
TORSDOF 14
ENDMDL
