MODEL 1
REMARK VINA RESULT:     -12.7      0.000      0.000
REMARK SMILES O=C(NCCCCNC(=O)[C@H]1[C@H]2CC[C@H](C2)[C@@H]1C(=O)N[C@H]1CCCc2ccccc21)c1ccc(-c2c3nc(c(-c4ccccc4)c4ccc([nH]4)c(-c4ccccc4)c4nc(c(-c5ccccc5)c5ccc2[nH]5)C=C4)C=C3)cc1
REMARK SMILES IDX 5 1 4 2 3 3 1 4 2 5 31 7 32 8 78 9 33 10 77 11 34 12 35 13
REMARK SMILES IDX 36 14 71 15 37 16 76 17 70 18 72 19 38 20 75 21 69 22 68 23
REMARK SMILES IDX 39 25 61 26 46 27 60 28 47 29 50 30 59 31 73 32 48 33 49 34
REMARK SMILES IDX 58 36 74 37 51 38 40 39 41 40 45 41 42 42 44 43 43 44 62 45
REMARK SMILES IDX 63 46 67 47 64 48 66 49 65 50 52 51 53 52 57 53 54 54 56 55
REMARK SMILES IDX 55 56 6 57 7 58 8 59 9 60 10 62 11 63 12 64 17 65 13 66
REMARK SMILES IDX 16 67 15 68 14 69 18 70 19 71 20 72 21 74 22 75 30 76 23 77
REMARK SMILES IDX 25 78 29 79 24 80 26 81 28 82 27 83
REMARK H PARENT 3 6 72 24 50 35 8 61 20 73
REMARK Flexibility Score: inf
ROOT
ATOM      1  C   UNL A   1      38.019  19.964  24.878  1.00  0.00     0.023 C 
ENDROOT
BRANCH   1   2
ATOM      2  C   UNL A   1      39.124  20.212  25.886  1.00  0.00     0.116 C 
BRANCH   2   3
ATOM      3  N   UNL A   1      40.220  19.265  25.788  1.00  0.00    -0.352 N 
ATOM      4  O   UNL A   1      42.380  18.607  25.926  1.00  0.00    -0.269 OA
ATOM      5  C   UNL A   1      41.545  19.476  26.093  1.00  0.00     0.251 C 
ATOM      6  H   UNL A   1      39.987  18.364  25.467  1.00  0.00     0.163 HD
BRANCH   5   7
ATOM      7  C   UNL A   1      41.937  20.809  26.592  1.00  0.00     0.039 A 
ATOM      8  C   UNL A   1      41.895  21.088  27.959  1.00  0.00     0.014 A 
ATOM      9  C   UNL A   1      42.307  21.790  25.669  1.00  0.00     0.014 A 
ATOM     10  C   UNL A   1      42.135  22.383  28.398  1.00  0.00     0.010 A 
ATOM     11  C   UNL A   1      42.596  23.078  26.118  1.00  0.00     0.010 A 
ATOM     12  C   UNL A   1      42.491  23.388  27.481  1.00  0.00    -0.014 A 
BRANCH  12  13
ATOM     13  C   UNL A   1      42.816  24.743  27.983  1.00  0.00     0.031 A 
ATOM     14  C   UNL A   1      41.739  25.758  28.234  1.00  0.00     0.074 A 
ATOM     15  C   UNL A   1      44.105  25.029  28.244  1.00  0.00     0.049 A 
ATOM     16  N   UNL A   1      41.853  26.980  28.688  1.00  0.00    -0.248 NA
ATOM     17  C   UNL A   1      40.356  25.357  27.931  1.00  0.00     0.031 C 
ATOM     18  C   UNL A   1      45.229  24.114  28.029  1.00  0.00     0.029 A 
ATOM     19  N   UNL A   1      44.684  26.152  28.771  1.00  0.00    -0.354 N 
ATOM     20  C   UNL A   1      40.567  27.504  28.698  1.00  0.00     0.074 A 
ATOM     21  C   UNL A   1      39.684  26.469  28.205  1.00  0.00     0.031 C 
ATOM     22  C   UNL A   1      46.354  24.690  28.475  1.00  0.00     0.029 A 
ATOM     23  C   UNL A   1      46.040  26.031  28.954  1.00  0.00     0.049 A 
ATOM     24  H   UNL A   1      44.180  26.967  28.996  1.00  0.00     0.167 HD
ATOM     25  C   UNL A   1      40.164  28.739  29.084  1.00  0.00     0.031 A 
ATOM     26  C   UNL A   1      46.935  26.904  29.447  1.00  0.00     0.031 A 
ATOM     27  C   UNL A   1      41.048  29.755  29.595  1.00  0.00     0.049 A 
ATOM     28  C   UNL A   1      46.459  28.256  29.880  1.00  0.00     0.074 A 
ATOM     29  C   UNL A   1      40.738  31.028  30.038  1.00  0.00     0.029 A 
ATOM     30  N   UNL A   1      42.420  29.605  29.735  1.00  0.00    -0.354 N 
ATOM     31  N   UNL A   1      45.238  28.734  29.884  1.00  0.00    -0.248 NA
ATOM     32  C   UNL A   1      47.481  29.193  30.361  1.00  0.00     0.031 C 
ATOM     33  C   UNL A   1      41.927  31.657  30.428  1.00  0.00     0.029 A 
ATOM     34  C   UNL A   1      42.973  30.766  30.247  1.00  0.00     0.049 A 
ATOM     35  H   UNL A   1      42.926  28.792  29.505  1.00  0.00     0.167 HD
ATOM     36  C   UNL A   1      45.344  30.033  30.356  1.00  0.00     0.074 A 
ATOM     37  C   UNL A   1      46.746  30.256  30.658  1.00  0.00     0.031 C 
ATOM     38  C   UNL A   1      44.372  30.962  30.519  1.00  0.00     0.031 A 
BRANCH  25  39
ATOM     39  C   UNL A   1      38.705  29.072  28.950  1.00  0.00    -0.014 A 
ATOM     40  C   UNL A   1      37.829  28.960  30.040  1.00  0.00     0.009 A 
ATOM     41  C   UNL A   1      38.211  29.559  27.729  1.00  0.00     0.009 A 
ATOM     42  C   UNL A   1      36.484  29.313  29.905  1.00  0.00     0.001 A 
ATOM     43  C   UNL A   1      36.870  29.926  27.601  1.00  0.00     0.001 A 
ATOM     44  C   UNL A   1      36.006  29.799  28.688  1.00  0.00     0.000 A 
ENDBRANCH  25  39
BRANCH  26  45
ATOM     45  C   UNL A   1      48.362  26.511  29.541  1.00  0.00    -0.014 A 
ATOM     46  C   UNL A   1      49.256  26.822  28.506  1.00  0.00     0.009 A 
ATOM     47  C   UNL A   1      48.850  25.885  30.699  1.00  0.00     0.009 A 
ATOM     48  C   UNL A   1      50.613  26.516  28.632  1.00  0.00     0.001 A 
ATOM     49  C   UNL A   1      50.210  25.602  30.830  1.00  0.00     0.001 A 
ATOM     50  C   UNL A   1      51.091  25.917  29.797  1.00  0.00     0.000 A 
ENDBRANCH  26  45
BRANCH  38  51
ATOM     51  C   UNL A   1      44.811  32.297  31.037  1.00  0.00    -0.014 A 
ATOM     52  C   UNL A   1      44.849  32.550  32.417  1.00  0.00     0.009 A 
ATOM     53  C   UNL A   1      45.187  33.308  30.142  1.00  0.00     0.009 A 
ATOM     54  C   UNL A   1      45.227  33.807  32.890  1.00  0.00     0.001 A 
ATOM     55  C   UNL A   1      45.580  34.559  30.619  1.00  0.00     0.001 A 
ATOM     56  C   UNL A   1      45.591  34.809  31.992  1.00  0.00     0.000 A 
ENDBRANCH  38  51
ENDBRANCH  12  13
ENDBRANCH   5   7
ENDBRANCH   2   3
ENDBRANCH   1   2
BRANCH   1  57
ATOM     57  C   UNL A   1      37.050  21.122  24.671  1.00  0.00     0.023 C 
BRANCH  57  58
ATOM     58  C   UNL A   1      36.142  21.468  25.856  1.00  0.00     0.116 C 
BRANCH  58  59
ATOM     59  N   UNL A   1      34.786  20.974  25.725  1.00  0.00    -0.356 N 
ATOM     60  C   UNL A   1      33.605  21.598  25.471  1.00  0.00     0.224 C 
ATOM     61  H   UNL A   1      34.704  19.999  25.842  1.00  0.00     0.163 HD
ATOM     62  O   UNL A   1      32.690  20.865  25.077  1.00  0.00    -0.275 OA
BRANCH  60  63
ATOM     63  C   UNL A   1      33.387  23.117  25.531  1.00  0.00     0.094 C 
ATOM     64  C   UNL A   1      34.257  23.950  24.562  1.00  0.00     0.002 C 
ATOM     65  C   UNL A   1      32.053  23.714  25.192  1.00  0.00     0.094 C 
ATOM     66  C   UNL A   1      34.238  23.298  23.186  1.00  0.00     0.005 C 
ATOM     67  C   UNL A   1      33.478  25.261  24.157  1.00  0.00     0.009 C 
ATOM     68  C   UNL A   1      32.234  24.520  23.845  1.00  0.00     0.002 C 
ATOM     69  C   UNL A   1      32.875  23.773  22.649  1.00  0.00     0.005 C 
BRANCH  65  70
ATOM     70  C   UNL A   1      31.440  24.325  26.492  1.00  0.00     0.224 C 
ATOM     71  O   UNL A   1      31.021  23.514  27.336  1.00  0.00    -0.275 OA
ATOM     72  N   UNL A   1      31.565  25.620  26.955  1.00  0.00    -0.349 N 
ATOM     73  H   UNL A   1      31.909  25.574  27.875  1.00  0.00     0.164 HD
BRANCH  72  74
ATOM     74  C   UNL A   1      31.379  27.119  26.597  1.00  0.00     0.112 C 
ATOM     75  C   UNL A   1      32.586  27.952  27.084  1.00  0.00     0.030 C 
ATOM     76  C   UNL A   1      30.986  27.645  25.224  1.00  0.00    -0.022 A 
ATOM     77  C   UNL A   1      32.271  29.451  26.927  1.00  0.00     0.007 C 
ATOM     78  C   UNL A   1      31.340  28.875  24.659  1.00  0.00    -0.043 A 
ATOM     79  C   UNL A   1      30.000  27.003  24.544  1.00  0.00     0.006 A 
ATOM     80  C   UNL A   1      32.084  29.886  25.472  1.00  0.00     0.036 C 
ATOM     81  C   UNL A   1      30.945  29.229  23.339  1.00  0.00     0.004 A 
ATOM     82  C   UNL A   1      29.678  27.259  23.200  1.00  0.00     0.000 A 
ATOM     83  C   UNL A   1      30.199  28.359  22.566  1.00  0.00     0.000 A 
ENDBRANCH  72  74
ENDBRANCH  65  70
ENDBRANCH  60  63
ENDBRANCH  58  59
ENDBRANCH  57  58
ENDBRANCH   1  57
TORSDOF 13
ENDMDL
MODEL 2
REMARK VINA RESULT:     -12.7      0.231      5.854
REMARK SMILES O=C(NCCCCNC(=O)[C@H]1[C@H]2CC[C@H](C2)[C@@H]1C(=O)N[C@H]1CCCc2ccccc21)c1ccc(-c2c3nc(c(-c4ccccc4)c4ccc([nH]4)c(-c4ccccc4)c4nc(c(-c5ccccc5)c5ccc2[nH]5)C=C4)C=C3)cc1
REMARK SMILES IDX 5 1 4 2 3 3 1 4 2 5 31 7 32 8 78 9 33 10 77 11 34 12 35 13
REMARK SMILES IDX 36 14 71 15 37 16 76 17 70 18 72 19 38 20 75 21 69 22 68 23
REMARK SMILES IDX 39 25 61 26 46 27 60 28 47 29 50 30 59 31 73 32 48 33 49 34
REMARK SMILES IDX 58 36 74 37 51 38 40 39 41 40 45 41 42 42 44 43 43 44 62 45
REMARK SMILES IDX 63 46 67 47 64 48 66 49 65 50 52 51 53 52 57 53 54 54 56 55
REMARK SMILES IDX 55 56 6 57 7 58 8 59 9 60 10 62 11 63 12 64 17 65 13 66
REMARK SMILES IDX 16 67 15 68 14 69 18 70 19 71 20 72 21 74 22 75 30 76 23 77
REMARK SMILES IDX 25 78 29 79 24 80 26 81 28 82 27 83
REMARK H PARENT 3 6 72 24 50 35 8 61 20 73
REMARK Flexibility Score: inf
ROOT
ATOM      1  C   UNL A   1      37.986  19.871  24.987  1.00  0.00     0.023 C 
ENDROOT
BRANCH   1   2
ATOM      2  C   UNL A   1      39.169  20.212  25.872  1.00  0.00     0.116 C 
BRANCH   2   3
ATOM      3  N   UNL A   1      40.281  19.288  25.732  1.00  0.00    -0.352 N 
ATOM      4  O   UNL A   1      42.453  18.664  25.838  1.00  0.00    -0.269 OA
ATOM      5  C   UNL A   1      41.603  19.510  26.042  1.00  0.00     0.251 C 
ATOM      6  H   UNL A   1      40.063  18.398  25.373  1.00  0.00     0.163 HD
BRANCH   5   7
ATOM      7  C   UNL A   1      41.973  20.828  26.596  1.00  0.00     0.039 A 
ATOM      8  C   UNL A   1      41.919  21.051  27.974  1.00  0.00     0.014 A 
ATOM      9  C   UNL A   1      42.334  21.849  25.716  1.00  0.00     0.014 A 
ATOM     10  C   UNL A   1      42.138  22.331  28.465  1.00  0.00     0.010 A 
ATOM     11  C   UNL A   1      42.603  23.123  26.217  1.00  0.00     0.010 A 
ATOM     12  C   UNL A   1      42.485  23.377  27.591  1.00  0.00    -0.014 A 
BRANCH  12  13
ATOM     13  C   UNL A   1      42.788  24.715  28.148  1.00  0.00     0.031 A 
ATOM     14  C   UNL A   1      44.195  25.122  28.472  1.00  0.00     0.074 A 
ATOM     15  C   UNL A   1      41.765  25.573  28.324  1.00  0.00     0.049 A 
ATOM     16  N   UNL A   1      44.630  26.261  28.949  1.00  0.00    -0.248 NA
ATOM     17  C   UNL A   1      45.252  24.125  28.240  1.00  0.00     0.031 C 
ATOM     18  C   UNL A   1      40.359  25.272  28.045  1.00  0.00     0.029 A 
ATOM     19  N   UNL A   1      41.751  26.875  28.748  1.00  0.00    -0.354 N 
ATOM     20  C   UNL A   1      46.003  26.109  29.101  1.00  0.00     0.074 A 
ATOM     21  C   UNL A   1      46.332  24.769  28.667  1.00  0.00     0.031 C 
ATOM     22  C   UNL A   1      39.626  26.376  28.250  1.00  0.00     0.029 A 
ATOM     23  C   UNL A   1      40.501  27.442  28.724  1.00  0.00     0.049 A 
ATOM     24  H   UNL A   1      42.558  27.358  29.041  1.00  0.00     0.167 HD
ATOM     25  C   UNL A   1      46.903  27.011  29.564  1.00  0.00     0.031 A 
ATOM     26  C   UNL A   1      40.099  28.681  29.055  1.00  0.00     0.031 A 
ATOM     27  C   UNL A   1      46.568  28.351  29.973  1.00  0.00     0.049 A 
ATOM     28  C   UNL A   1      41.118  29.661  29.549  1.00  0.00     0.074 A 
ATOM     29  C   UNL A   1      47.407  29.350  30.431  1.00  0.00     0.029 A 
ATOM     30  N   UNL A   1      45.285  28.877  29.965  1.00  0.00    -0.354 N 
ATOM     31  N   UNL A   1      42.411  29.501  29.685  1.00  0.00    -0.248 NA
ATOM     32  C   UNL A   1      40.622  30.983  29.948  1.00  0.00     0.031 C 
ATOM     33  C   UNL A   1      46.628  30.478  30.721  1.00  0.00     0.029 A 
ATOM     34  C   UNL A   1      45.307  30.184  30.421  1.00  0.00     0.049 A 
ATOM     35  H   UNL A   1      44.477  28.393  29.678  1.00  0.00     0.167 HD
ATOM     36  C   UNL A   1      42.887  30.698  30.197  1.00  0.00     0.074 A 
ATOM     37  C   UNL A   1      41.744  31.585  30.317  1.00  0.00     0.031 C 
ATOM     38  C   UNL A   1      44.152  31.034  30.545  1.00  0.00     0.031 A 
BRANCH  25  39
ATOM     39  C   UNL A   1      48.336  26.573  29.675  1.00  0.00    -0.014 A 
ATOM     40  C   UNL A   1      49.252  26.811  28.639  1.00  0.00     0.009 A 
ATOM     41  C   UNL A   1      48.790  25.966  30.857  1.00  0.00     0.009 A 
ATOM     42  C   UNL A   1      50.590  26.433  28.778  1.00  0.00     0.001 A 
ATOM     43  C   UNL A   1      50.131  25.604  30.999  1.00  0.00     0.001 A 
ATOM     44  C   UNL A   1      51.029  25.834  29.958  1.00  0.00     0.000 A 
ENDBRANCH  25  39
BRANCH  26  45
ATOM     45  C   UNL A   1      38.665  29.041  28.931  1.00  0.00    -0.014 A 
ATOM     46  C   UNL A   1      37.810  28.952  30.039  1.00  0.00     0.009 A 
ATOM     47  C   UNL A   1      38.162  29.540  27.719  1.00  0.00     0.009 A 
ATOM     48  C   UNL A   1      36.479  29.362  29.936  1.00  0.00     0.001 A 
ATOM     49  C   UNL A   1      36.837  29.970  27.626  1.00  0.00     0.001 A 
ATOM     50  C   UNL A   1      35.997  29.880  28.734  1.00  0.00     0.000 A 
ENDBRANCH  26  45
BRANCH  38  51
ATOM     51  C   UNL A   1      44.345  32.413  31.094  1.00  0.00    -0.014 A 
ATOM     52  C   UNL A   1      44.619  33.491  30.237  1.00  0.00     0.009 A 
ATOM     53  C   UNL A   1      44.254  32.639  32.474  1.00  0.00     0.009 A 
ATOM     54  C   UNL A   1      44.831  34.767  30.759  1.00  0.00     0.001 A 
ATOM     55  C   UNL A   1      44.451  33.919  32.992  1.00  0.00     0.001 A 
ATOM     56  C   UNL A   1      44.748  34.979  32.135  1.00  0.00     0.000 A 
ENDBRANCH  38  51
ENDBRANCH  12  13
ENDBRANCH   5   7
ENDBRANCH   2   3
ENDBRANCH   1   2
BRANCH   1  57
ATOM     57  C   UNL A   1      37.000  21.008  24.746  1.00  0.00     0.023 C 
BRANCH  57  58
ATOM     58  C   UNL A   1      36.070  21.359  25.913  1.00  0.00     0.116 C 
BRANCH  58  59
ATOM     59  N   UNL A   1      34.704  20.906  25.736  1.00  0.00    -0.356 N 
ATOM     60  C   UNL A   1      33.549  21.568  25.461  1.00  0.00     0.224 C 
ATOM     61  H   UNL A   1      34.591  19.933  25.835  1.00  0.00     0.163 HD
ATOM     62  O   UNL A   1      32.626  20.868  25.030  1.00  0.00    -0.275 OA
BRANCH  60  63
ATOM     63  C   UNL A   1      33.373  23.092  25.540  1.00  0.00     0.094 C 
ATOM     64  C   UNL A   1      34.290  23.914  24.605  1.00  0.00     0.002 C 
ATOM     65  C   UNL A   1      32.065  23.732  25.178  1.00  0.00     0.094 C 
ATOM     66  C   UNL A   1      34.286  23.284  23.219  1.00  0.00     0.005 C 
ATOM     67  C   UNL A   1      33.558  25.253  24.203  1.00  0.00     0.009 C 
ATOM     68  C   UNL A   1      32.302  24.553  23.849  1.00  0.00     0.002 C 
ATOM     69  C   UNL A   1      32.951  23.807  22.658  1.00  0.00     0.005 C 
BRANCH  65  70
ATOM     70  C   UNL A   1      31.438  24.341  26.473  1.00  0.00     0.224 C 
ATOM     71  O   UNL A   1      31.013  23.528  27.312  1.00  0.00    -0.275 OA
ATOM     72  N   UNL A   1      31.556  25.636  26.938  1.00  0.00    -0.349 N 
ATOM     73  H   UNL A   1      31.891  25.590  27.862  1.00  0.00     0.164 HD
BRANCH  72  74
ATOM     74  C   UNL A   1      31.371  27.134  26.581  1.00  0.00     0.112 C 
ATOM     75  C   UNL A   1      32.559  27.973  27.101  1.00  0.00     0.030 C 
ATOM     76  C   UNL A   1      31.010  27.663  25.199  1.00  0.00    -0.022 A 
ATOM     77  C   UNL A   1      32.240  29.471  26.941  1.00  0.00     0.007 C 
ATOM     78  C   UNL A   1      31.371  28.896  24.647  1.00  0.00    -0.043 A 
ATOM     79  C   UNL A   1      30.046  27.016  24.492  1.00  0.00     0.006 A 
ATOM     80  C   UNL A   1      32.088  29.909  25.482  1.00  0.00     0.036 C 
ATOM     81  C   UNL A   1      31.009  29.251  23.318  1.00  0.00     0.004 A 
ATOM     82  C   UNL A   1      29.758  27.275  23.140  1.00  0.00     0.000 A 
ATOM     83  C   UNL A   1      30.289  28.380  22.523  1.00  0.00     0.000 A 
ENDBRANCH  72  74
ENDBRANCH  65  70
ENDBRANCH  60  63
ENDBRANCH  58  59
ENDBRANCH  57  58
ENDBRANCH   1  57
TORSDOF 13
ENDMDL
MODEL 3
REMARK VINA RESULT:     -12.4      3.841      8.909
REMARK SMILES O=C(NCCCCNC(=O)[C@H]1[C@H]2CC[C@H](C2)[C@@H]1C(=O)N[C@H]1CCCc2ccccc21)c1ccc(-c2c3nc(c(-c4ccccc4)c4ccc([nH]4)c(-c4ccccc4)c4nc(c(-c5ccccc5)c5ccc2[nH]5)C=C4)C=C3)cc1
REMARK SMILES IDX 5 1 4 2 3 3 1 4 2 5 31 7 32 8 78 9 33 10 77 11 34 12 35 13
REMARK SMILES IDX 36 14 71 15 37 16 76 17 70 18 72 19 38 20 75 21 69 22 68 23
REMARK SMILES IDX 39 25 61 26 46 27 60 28 47 29 50 30 59 31 73 32 48 33 49 34
REMARK SMILES IDX 58 36 74 37 51 38 40 39 41 40 45 41 42 42 44 43 43 44 62 45
REMARK SMILES IDX 63 46 67 47 64 48 66 49 65 50 52 51 53 52 57 53 54 54 56 55
REMARK SMILES IDX 55 56 6 57 7 58 8 59 9 60 10 62 11 63 12 64 17 65 13 66
REMARK SMILES IDX 16 67 15 68 14 69 18 70 19 71 20 72 21 74 22 75 30 76 23 77
REMARK SMILES IDX 25 78 29 79 24 80 26 81 28 82 27 83
REMARK H PARENT 3 6 72 24 50 35 8 61 20 73
REMARK Flexibility Score: inf
ROOT
ATOM      1  C   UNL A   1      31.549  31.640  26.611  1.00  0.00     0.023 C 
ENDROOT
BRANCH   1   2
ATOM      2  C   UNL A   1      32.749  32.450  27.061  1.00  0.00     0.116 C 
BRANCH   2   3
ATOM      3  N   UNL A   1      32.407  33.782  27.527  1.00  0.00    -0.352 N 
ATOM      4  O   UNL A   1      32.673  35.647  28.779  1.00  0.00    -0.269 OA
ATOM      5  C   UNL A   1      33.088  34.556  28.438  1.00  0.00     0.251 C 
ATOM      6  H   UNL A   1      31.591  34.178  27.144  1.00  0.00     0.163 HD
BRANCH   5   7
ATOM      7  C   UNL A   1      34.325  34.005  29.026  1.00  0.00     0.039 A 
ATOM      8  C   UNL A   1      35.569  34.342  28.490  1.00  0.00     0.014 A 
ATOM      9  C   UNL A   1      34.221  33.114  30.096  1.00  0.00     0.014 A 
ATOM     10  C   UNL A   1      36.710  33.711  28.967  1.00  0.00     0.010 A 
ATOM     11  C   UNL A   1      35.375  32.518  30.607  1.00  0.00     0.010 A 
ATOM     12  C   UNL A   1      36.623  32.797  30.031  1.00  0.00    -0.014 A 
BRANCH  12  13
ATOM     13  C   UNL A   1      37.863  32.195  30.571  1.00  0.00     0.031 A 
ATOM     14  C   UNL A   1      38.535  32.759  31.789  1.00  0.00     0.074 A 
ATOM     15  C   UNL A   1      38.354  31.101  29.959  1.00  0.00     0.049 A 
ATOM     16  N   UNL A   1      39.615  32.340  32.398  1.00  0.00    -0.248 NA
ATOM     17  C   UNL A   1      37.924  33.950  32.401  1.00  0.00     0.031 C 
ATOM     18  C   UNL A   1      37.779  30.478  28.764  1.00  0.00     0.029 A 
ATOM     19  N   UNL A   1      39.425  30.306  30.269  1.00  0.00    -0.354 N 
ATOM     20  C   UNL A   1      39.831  33.228  33.444  1.00  0.00     0.074 A 
ATOM     21  C   UNL A   1      38.771  34.211  33.390  1.00  0.00     0.031 C 
ATOM     22  C   UNL A   1      38.468  29.364  28.477  1.00  0.00     0.029 A 
ATOM     23  C   UNL A   1      39.562  29.226  29.431  1.00  0.00     0.049 A 
ATOM     24  H   UNL A   1      40.037  30.489  31.018  1.00  0.00     0.167 HD
ATOM     25  C   UNL A   1      40.827  33.221  34.363  1.00  0.00     0.031 A 
ATOM     26  C   UNL A   1      40.471  28.237  29.426  1.00  0.00     0.031 A 
ATOM     27  C   UNL A   1      41.865  32.224  34.422  1.00  0.00     0.049 A 
ATOM     28  C   UNL A   1      41.552  28.246  30.463  1.00  0.00     0.074 A 
ATOM     29  C   UNL A   1      42.904  32.110  35.328  1.00  0.00     0.029 A 
ATOM     30  N   UNL A   1      41.988  31.164  33.535  1.00  0.00    -0.354 N 
ATOM     31  N   UNL A   1      41.740  29.093  31.445  1.00  0.00    -0.248 NA
ATOM     32  C   UNL A   1      42.552  27.174  30.382  1.00  0.00     0.031 C 
ATOM     33  C   UNL A   1      43.670  30.991  34.978  1.00  0.00     0.029 A 
ATOM     34  C   UNL A   1      43.092  30.397  33.866  1.00  0.00     0.049 A 
ATOM     35  H   UNL A   1      41.380  30.984  32.783  1.00  0.00     0.167 HD
ATOM     36  C   UNL A   1      42.886  28.666  32.096  1.00  0.00     0.074 A 
ATOM     37  C   UNL A   1      43.332  27.466  31.414  1.00  0.00     0.031 C 
ATOM     38  C   UNL A   1      43.520  29.220  33.158  1.00  0.00     0.031 A 
BRANCH  25  39
ATOM     39  C   UNL A   1      40.857  34.336  35.370  1.00  0.00    -0.014 A 
ATOM     40  C   UNL A   1      41.551  35.528  35.116  1.00  0.00     0.009 A 
ATOM     41  C   UNL A   1      40.132  34.213  36.567  1.00  0.00     0.009 A 
ATOM     42  C   UNL A   1      41.533  36.569  36.049  1.00  0.00     0.001 A 
ATOM     43  C   UNL A   1      40.103  35.260  37.490  1.00  0.00     0.001 A 
ATOM     44  C   UNL A   1      40.807  36.436  37.232  1.00  0.00     0.000 A 
ENDBRANCH  25  39
BRANCH  26  45
ATOM     45  C   UNL A   1      40.387  27.174  28.395  1.00  0.00    -0.014 A 
ATOM     46  C   UNL A   1      39.644  26.009  28.632  1.00  0.00     0.009 A 
ATOM     47  C   UNL A   1      40.994  27.353  27.142  1.00  0.00     0.009 A 
ATOM     48  C   UNL A   1      39.506  25.045  27.630  1.00  0.00     0.001 A 
ATOM     49  C   UNL A   1      40.836  26.398  26.136  1.00  0.00     0.001 A 
ATOM     50  C   UNL A   1      40.093  25.245  26.380  1.00  0.00     0.000 A 
ENDBRANCH  26  45
BRANCH  38  51
ATOM     51  C   UNL A   1      44.762  28.527  33.624  1.00  0.00    -0.014 A 
ATOM     52  C   UNL A   1      44.692  27.506  34.584  1.00  0.00     0.009 A 
ATOM     53  C   UNL A   1      46.010  28.896  33.103  1.00  0.00     0.009 A 
ATOM     54  C   UNL A   1      45.858  26.888  35.038  1.00  0.00     0.001 A 
ATOM     55  C   UNL A   1      47.172  28.265  33.547  1.00  0.00     0.001 A 
ATOM     56  C   UNL A   1      47.096  27.269  34.520  1.00  0.00     0.000 A 
ENDBRANCH  38  51
ENDBRANCH  12  13
ENDBRANCH   5   7
ENDBRANCH   2   3
ENDBRANCH   1   2
BRANCH   1  57
ATOM     57  C   UNL A   1      31.775  30.137  26.506  1.00  0.00     0.023 C 
BRANCH  57  58
ATOM     58  C   UNL A   1      32.768  29.673  25.435  1.00  0.00     0.116 C 
BRANCH  58  59
ATOM     59  N   UNL A   1      32.207  29.604  24.100  1.00  0.00    -0.356 N 
ATOM     60  C   UNL A   1      31.811  28.558  23.326  1.00  0.00     0.224 C 
ATOM     61  H   UNL A   1      32.092  30.483  23.670  1.00  0.00     0.163 HD
ATOM     62  O   UNL A   1      31.059  28.846  22.388  1.00  0.00    -0.275 OA
BRANCH  60  63
ATOM     63  C   UNL A   1      32.136  27.085  23.613  1.00  0.00     0.094 C 
ATOM     64  C   UNL A   1      31.484  26.498  24.886  1.00  0.00     0.002 C 
ATOM     65  C   UNL A   1      31.733  26.009  22.648  1.00  0.00     0.094 C 
ATOM     66  C   UNL A   1      30.018  26.909  24.933  1.00  0.00     0.005 C 
ATOM     67  C   UNL A   1      31.237  24.953  24.681  1.00  0.00     0.009 C 
ATOM     68  C   UNL A   1      30.610  25.149  23.354  1.00  0.00     0.002 C 
ATOM     69  C   UNL A   1      29.396  25.909  23.942  1.00  0.00     0.005 C 
BRANCH  65  70
ATOM     70  C   UNL A   1      33.026  25.399  22.020  1.00  0.00     0.224 C 
ATOM     71  O   UNL A   1      33.211  25.627  20.812  1.00  0.00    -0.275 OA
ATOM     72  N   UNL A   1      34.127  24.893  22.683  1.00  0.00    -0.349 N 
ATOM     73  H   UNL A   1      34.921  25.361  22.338  1.00  0.00     0.164 HD
BRANCH  72  74
ATOM     74  C   UNL A   1      34.608  23.881  23.757  1.00  0.00     0.112 C 
ATOM     75  C   UNL A   1      35.079  24.616  25.030  1.00  0.00     0.030 C 
ATOM     76  C   UNL A   1      33.833  22.648  24.201  1.00  0.00    -0.022 A 
ATOM     77  C   UNL A   1      35.762  23.614  25.979  1.00  0.00     0.007 C 
ATOM     78  C   UNL A   1      33.861  22.045  25.462  1.00  0.00    -0.043 A 
ATOM     79  C   UNL A   1      33.232  21.885  23.251  1.00  0.00     0.006 A 
ATOM     80  C   UNL A   1      34.817  22.531  26.504  1.00  0.00     0.036 C 
ATOM     81  C   UNL A   1      33.047  20.918  25.767  1.00  0.00     0.004 A 
ATOM     82  C   UNL A   1      32.331  20.844  23.534  1.00  0.00     0.000 A 
ATOM     83  C   UNL A   1      32.192  20.386  24.820  1.00  0.00     0.000 A 
ENDBRANCH  72  74
ENDBRANCH  65  70
ENDBRANCH  60  63
ENDBRANCH  58  59
ENDBRANCH  57  58
ENDBRANCH   1  57
TORSDOF 13
ENDMDL
