MODEL 1
REMARK VINA RESULT:     -12.4      0.000      0.000
REMARK SMILES CCOC(=O)c1c(NC(=O)[C@@H]2[C@@H](C(=O)NCCCCNC(=O)c3ccc(-c4c5nc(c(-c6ccccc6)c6ccc([nH]6)c(-c6ccccc6)c6nc(c(-c7ccccc7)c7ccc4[nH]7)C=C6)C=C5)cc3)[C@@H]3C=C[C@H]2CC3)sc2c1CCC2
REMARK SMILES IDX 16 1 15 2 13 3 14 4 12 6 11 7 74 8 71 9 73 10 75 11 72 12
REMARK SMILES IDX 76 13 9 14 8 15 10 17 7 18 6 19 79 20 77 21 78 22 80 23
REMARK SMILES IDX 82 24 81 25 4 26 5 27 3 28 2 29 1 30 17 31 18 32 19 33 20 34
REMARK SMILES IDX 21 35 22 37 23 38 24 39 70 40 25 41 69 42 26 43 27 44 28 45
REMARK SMILES IDX 63 46 29 47 68 48 62 49 64 50 30 51 67 52 61 53 60 54 31 56
REMARK SMILES IDX 53 57 38 58 52 59 39 60 42 61 51 62 65 63 40 64 41 65 50 67
REMARK SMILES IDX 66 68 43 69 32 70 33 71 37 72 34 73 36 74 35 75 54 76 55 77
REMARK SMILES IDX 59 78 56 79 58 80 57 81 44 82 45 83 49 84 46 85 48 86 47 87
REMARK H PARENT 15 5 8 16 20 36 64 55 42 66
REMARK Flexibility Score: inf
ROOT
ATOM      1  C   UNL A   1      36.693  23.550  25.984  1.00  0.00     0.116 C 
ENDROOT
BRANCH   1   2
ATOM      2  N   UNL A   1      35.618  22.946  26.760  1.00  0.00    -0.356 N 
ATOM      3  C   UNL A   1      34.275  22.785  26.593  1.00  0.00     0.224 C 
ATOM      4  O   UNL A   1      33.765  21.950  27.354  1.00  0.00    -0.275 OA
ATOM      5  H   UNL A   1      35.938  22.564  27.609  1.00  0.00     0.163 HD
BRANCH   3   6
ATOM      6  C   UNL A   1      33.333  23.605  25.677  1.00  0.00     0.098 C 
ATOM      7  C   UNL A   1      31.850  23.210  25.629  1.00  0.00     0.099 C 
ATOM      8  C   UNL A   1      31.446  22.854  24.167  1.00  0.00     0.025 C 
ATOM      9  C   UNL A   1      33.916  23.683  24.229  1.00  0.00     0.025 C 
ATOM     10  C   UNL A   1      31.721  24.017  23.259  1.00  0.00    -0.027 C 
ATOM     11  C   UNL A   1      32.422  21.787  23.551  1.00  0.00     0.009 C 
ATOM     12  C   UNL A   1      33.010  24.407  23.268  1.00  0.00    -0.027 C 
ATOM     13  C   UNL A   1      33.898  22.309  23.580  1.00  0.00     0.009 C 
BRANCH   7  14
ATOM     14  C   UNL A   1      30.886  24.103  26.467  1.00  0.00     0.229 C 
ATOM     15  N   UNL A   1      30.687  25.449  26.482  1.00  0.00    -0.317 N 
ATOM     16  H   UNL A   1      29.994  25.726  27.124  1.00  0.00     0.170 HD
ATOM     17  O   UNL A   1      30.107  23.485  27.223  1.00  0.00    -0.274 OA
BRANCH  15  18
ATOM     18  C   UNL A   1      31.238  26.508  25.800  1.00  0.00     0.110 A 
ATOM     19  C   UNL A   1      30.830  27.086  24.590  1.00  0.00     0.098 A 
ATOM     20  C   UNL A   1      31.959  27.776  24.055  1.00  0.00    -0.017 A 
ATOM     21  S   UNL A   1      32.330  27.593  26.547  1.00  0.00    -0.122 S 
ATOM     22  C   UNL A   1      32.909  27.977  25.019  1.00  0.00     0.011 A 
ATOM     23  C   UNL A   1      32.407  28.378  22.773  1.00  0.00     0.038 C 
ATOM     24  C   UNL A   1      34.185  28.549  24.537  1.00  0.00     0.047 C 
ATOM     25  C   UNL A   1      33.949  28.538  23.000  1.00  0.00     0.010 C 
BRANCH  19  26
ATOM     26  C   UNL A   1      29.505  26.881  24.037  1.00  0.00     0.341 C 
ATOM     27  O   UNL A   1      28.687  26.157  24.596  1.00  0.00    -0.246 OA
BRANCH  26  28
ATOM     28  O   UNL A   1      29.247  27.619  22.923  1.00  0.00    -0.462 OA
BRANCH  28  29
ATOM     29  C   UNL A   1      28.362  28.738  23.106  1.00  0.00     0.230 C 
ATOM     30  C   UNL A   1      29.045  30.096  23.040  1.00  0.00     0.049 C 
ENDBRANCH  28  29
ENDBRANCH  26  28
ENDBRANCH  19  26
ENDBRANCH  15  18
ENDBRANCH   7  14
ENDBRANCH   3   6
ENDBRANCH   1   2
BRANCH   1  31
ATOM     31  C   UNL A   1      37.331  22.676  24.886  1.00  0.00     0.023 C 
BRANCH  31  32
ATOM     32  C   UNL A   1      38.190  21.502  25.335  1.00  0.00     0.023 C 
BRANCH  32  33
ATOM     33  C   UNL A   1      39.172  21.880  26.423  1.00  0.00     0.116 C 
BRANCH  33  34
ATOM     34  N   UNL A   1      40.563  21.792  25.972  1.00  0.00    -0.352 N 
ATOM     35  C   UNL A   1      41.529  22.771  26.028  1.00  0.00     0.251 C 
ATOM     36  H   UNL A   1      40.838  20.931  25.583  1.00  0.00     0.163 HD
ATOM     37  O   UNL A   1      42.552  22.716  25.360  1.00  0.00    -0.269 OA
BRANCH  35  38
ATOM     38  C   UNL A   1      41.287  23.892  26.942  1.00  0.00     0.039 A 
ATOM     39  C   UNL A   1      42.164  24.171  27.988  1.00  0.00     0.014 A 
ATOM     40  C   UNL A   1      40.231  24.744  26.622  1.00  0.00     0.014 A 
ATOM     41  C   UNL A   1      42.018  25.378  28.659  1.00  0.00     0.010 A 
ATOM     42  C   UNL A   1      40.190  25.996  27.176  1.00  0.00     0.010 A 
ATOM     43  C   UNL A   1      41.049  26.301  28.224  1.00  0.00    -0.014 A 
BRANCH  43  44
ATOM     44  C   UNL A   1      41.005  27.641  28.786  1.00  0.00     0.031 A 
ATOM     45  C   UNL A   1      41.922  28.615  28.142  1.00  0.00     0.074 A 
ATOM     46  C   UNL A   1      40.097  28.034  29.703  1.00  0.00     0.049 A 
ATOM     47  N   UNL A   1      43.039  29.055  28.614  1.00  0.00    -0.248 NA
ATOM     48  C   UNL A   1      41.654  29.036  26.757  1.00  0.00     0.031 C 
ATOM     49  C   UNL A   1      38.926  27.311  30.213  1.00  0.00     0.029 A 
ATOM     50  N   UNL A   1      39.991  29.241  30.319  1.00  0.00    -0.354 N 
ATOM     51  C   UNL A   1      43.518  29.974  27.688  1.00  0.00     0.074 A 
ATOM     52  C   UNL A   1      42.730  29.784  26.496  1.00  0.00     0.031 C 
ATOM     53  C   UNL A   1      38.117  28.168  30.876  1.00  0.00     0.029 A 
ATOM     54  C   UNL A   1      38.799  29.441  31.001  1.00  0.00     0.049 A 
ATOM     55  H   UNL A   1      40.704  29.918  30.283  1.00  0.00     0.167 HD
ATOM     56  C   UNL A   1      44.355  30.980  28.072  1.00  0.00     0.031 A 
ATOM     57  C   UNL A   1      38.406  30.581  31.620  1.00  0.00     0.031 A 
ATOM     58  C   UNL A   1      44.868  30.752  29.402  1.00  0.00     0.049 A 
ATOM     59  C   UNL A   1      39.627  31.377  31.884  1.00  0.00     0.074 A 
ATOM     60  C   UNL A   1      45.622  29.762  30.001  1.00  0.00     0.029 A 
ATOM     61  N   UNL A   1      44.246  31.426  30.427  1.00  0.00    -0.354 N 
ATOM     62  N   UNL A   1      40.548  31.009  32.726  1.00  0.00    -0.248 NA
ATOM     63  C   UNL A   1      40.045  32.341  30.880  1.00  0.00     0.031 C 
ATOM     64  C   UNL A   1      45.033  29.586  31.289  1.00  0.00     0.029 A 
ATOM     65  C   UNL A   1      44.016  30.531  31.439  1.00  0.00     0.049 A 
ATOM     66  H   UNL A   1      44.008  32.382  30.433  1.00  0.00     0.167 HD
ATOM     67  C   UNL A   1      41.745  31.323  32.096  1.00  0.00     0.074 A 
ATOM     68  C   UNL A   1      41.371  32.238  31.016  1.00  0.00     0.031 C 
ATOM     69  C   UNL A   1      42.875  30.591  32.327  1.00  0.00     0.031 A 
BRANCH  56  70
ATOM     70  C   UNL A   1      44.360  32.361  27.456  1.00  0.00    -0.014 A 
ATOM     71  C   UNL A   1      43.714  33.402  28.150  1.00  0.00     0.009 A 
ATOM     72  C   UNL A   1      44.708  32.618  26.119  1.00  0.00     0.009 A 
ATOM     73  C   UNL A   1      43.344  34.590  27.508  1.00  0.00     0.001 A 
ATOM     74  C   UNL A   1      44.378  33.820  25.485  1.00  0.00     0.001 A 
ATOM     75  C   UNL A   1      43.664  34.792  26.171  1.00  0.00     0.000 A 
ENDBRANCH  56  70
BRANCH  57  76
ATOM     76  C   UNL A   1      37.051  31.145  31.777  1.00  0.00    -0.014 A 
ATOM     77  C   UNL A   1      36.638  31.678  33.009  1.00  0.00     0.009 A 
ATOM     78  C   UNL A   1      36.273  31.434  30.642  1.00  0.00     0.009 A 
ATOM     79  C   UNL A   1      35.515  32.513  33.091  1.00  0.00     0.001 A 
ATOM     80  C   UNL A   1      35.153  32.267  30.725  1.00  0.00     0.001 A 
ATOM     81  C   UNL A   1      34.785  32.822  31.946  1.00  0.00     0.000 A 
ENDBRANCH  57  76
BRANCH  69  82
ATOM     82  C   UNL A   1      42.852  29.590  33.458  1.00  0.00    -0.014 A 
ATOM     83  C   UNL A   1      42.380  28.272  33.319  1.00  0.00     0.009 A 
ATOM     84  C   UNL A   1      43.468  29.947  34.665  1.00  0.00     0.009 A 
ATOM     85  C   UNL A   1      42.498  27.352  34.368  1.00  0.00     0.001 A 
ATOM     86  C   UNL A   1      43.606  29.025  35.704  1.00  0.00     0.001 A 
ATOM     87  C   UNL A   1      43.116  27.729  35.559  1.00  0.00     0.000 A 
ENDBRANCH  69  82
ENDBRANCH  43  44
ENDBRANCH  35  38
ENDBRANCH  33  34
ENDBRANCH  32  33
ENDBRANCH  31  32
ENDBRANCH   1  31
TORSDOF 16
ENDMDL
MODEL 2
REMARK VINA RESULT:     -12.2      2.267      5.337
REMARK SMILES CCOC(=O)c1c(NC(=O)[C@@H]2[C@@H](C(=O)NCCCCNC(=O)c3ccc(-c4c5nc(c(-c6ccccc6)c6ccc([nH]6)c(-c6ccccc6)c6nc(c(-c7ccccc7)c7ccc4[nH]7)C=C6)C=C5)cc3)[C@@H]3C=C[C@H]2CC3)sc2c1CCC2
REMARK SMILES IDX 16 1 15 2 13 3 14 4 12 6 11 7 74 8 71 9 73 10 75 11 72 12
REMARK SMILES IDX 76 13 9 14 8 15 10 17 7 18 6 19 79 20 77 21 78 22 80 23
REMARK SMILES IDX 82 24 81 25 4 26 5 27 3 28 2 29 1 30 17 31 18 32 19 33 20 34
REMARK SMILES IDX 21 35 22 37 23 38 24 39 70 40 25 41 69 42 26 43 27 44 28 45
REMARK SMILES IDX 63 46 29 47 68 48 62 49 64 50 30 51 67 52 61 53 60 54 31 56
REMARK SMILES IDX 53 57 38 58 52 59 39 60 42 61 51 62 65 63 40 64 41 65 50 67
REMARK SMILES IDX 66 68 43 69 32 70 33 71 37 72 34 73 36 74 35 75 54 76 55 77
REMARK SMILES IDX 59 78 56 79 58 80 57 81 44 82 45 83 49 84 46 85 48 86 47 87
REMARK H PARENT 15 5 8 16 20 36 64 55 42 66
REMARK Flexibility Score: inf
ROOT
ATOM      1  C   UNL A   1      36.543  23.421  25.010  1.00  0.00     0.116 C 
ENDROOT
BRANCH   1   2
ATOM      2  N   UNL A   1      35.612  23.030  26.059  1.00  0.00    -0.356 N 
ATOM      3  C   UNL A   1      34.255  22.968  26.176  1.00  0.00     0.224 C 
ATOM      4  O   UNL A   1      33.858  22.296  27.140  1.00  0.00    -0.275 OA
ATOM      5  H   UNL A   1      36.072  22.743  26.881  1.00  0.00     0.163 HD
BRANCH   3   6
ATOM      6  C   UNL A   1      33.199  23.733  25.341  1.00  0.00     0.098 C 
ATOM      7  C   UNL A   1      31.728  23.317  25.482  1.00  0.00     0.099 C 
ATOM      8  C   UNL A   1      31.166  22.889  24.092  1.00  0.00     0.025 C 
ATOM      9  C   UNL A   1      33.611  23.753  23.833  1.00  0.00     0.025 C 
ATOM     10  C   UNL A   1      31.313  24.013  23.110  1.00  0.00    -0.027 C 
ATOM     11  C   UNL A   1      32.084  21.809  23.415  1.00  0.00     0.009 C 
ATOM     12  C   UNL A   1      32.587  24.420  22.952  1.00  0.00    -0.027 C 
ATOM     13  C   UNL A   1      33.544  22.351  23.251  1.00  0.00     0.009 C 
BRANCH   7  14
ATOM     14  C   UNL A   1      30.850  24.234  26.385  1.00  0.00     0.229 C 
ATOM     15  N   UNL A   1      30.713  25.586  26.435  1.00  0.00    -0.317 N 
ATOM     16  H   UNL A   1      30.067  25.881  27.118  1.00  0.00     0.170 HD
ATOM     17  O   UNL A   1      30.085  23.635  27.170  1.00  0.00    -0.274 OA
BRANCH  15  18
ATOM     18  C   UNL A   1      31.275  26.635  25.743  1.00  0.00     0.110 A 
ATOM     19  C   UNL A   1      30.877  27.201  24.525  1.00  0.00     0.098 A 
ATOM     20  C   UNL A   1      32.012  27.877  23.989  1.00  0.00    -0.017 A 
ATOM     21  S   UNL A   1      32.370  27.720  26.484  1.00  0.00    -0.122 S 
ATOM     22  C   UNL A   1      32.960  28.083  24.955  1.00  0.00     0.011 A 
ATOM     23  C   UNL A   1      32.471  28.462  22.702  1.00  0.00     0.038 C 
ATOM     24  C   UNL A   1      34.241  28.641  24.473  1.00  0.00     0.047 C 
ATOM     25  C   UNL A   1      34.013  28.614  22.935  1.00  0.00     0.010 C 
BRANCH  19  26
ATOM     26  C   UNL A   1      29.553  26.999  23.968  1.00  0.00     0.341 C 
ATOM     27  O   UNL A   1      28.733  26.272  24.522  1.00  0.00    -0.246 OA
BRANCH  26  28
ATOM     28  O   UNL A   1      29.298  27.741  22.856  1.00  0.00    -0.462 OA
BRANCH  28  29
ATOM     29  C   UNL A   1      28.423  28.867  23.044  1.00  0.00     0.230 C 
ATOM     30  C   UNL A   1      29.140  30.191  23.262  1.00  0.00     0.049 C 
ENDBRANCH  28  29
ENDBRANCH  26  28
ENDBRANCH  19  26
ENDBRANCH  15  18
ENDBRANCH   7  14
ENDBRANCH   3   6
ENDBRANCH   1   2
BRANCH   1  31
ATOM     31  C   UNL A   1      36.991  22.316  24.033  1.00  0.00     0.023 C 
BRANCH  31  32
ATOM     32  C   UNL A   1      37.408  20.979  24.631  1.00  0.00     0.023 C 
BRANCH  32  33
ATOM     33  C   UNL A   1      38.592  21.100  25.566  1.00  0.00     0.116 C 
BRANCH  33  34
ATOM     34  N   UNL A   1      39.383  19.869  25.622  1.00  0.00    -0.352 N 
ATOM     35  C   UNL A   1      40.725  19.744  25.908  1.00  0.00     0.251 C 
ATOM     36  H   UNL A   1      38.899  19.033  25.433  1.00  0.00     0.163 HD
ATOM     37  O   UNL A   1      41.357  18.734  25.634  1.00  0.00    -0.269 OA
BRANCH  35  38
ATOM     38  C   UNL A   1      41.371  20.879  26.575  1.00  0.00     0.039 A 
ATOM     39  C   UNL A   1      42.021  21.870  25.842  1.00  0.00     0.014 A 
ATOM     40  C   UNL A   1      41.172  20.994  27.949  1.00  0.00     0.014 A 
ATOM     41  C   UNL A   1      42.393  23.034  26.503  1.00  0.00     0.010 A 
ATOM     42  C   UNL A   1      41.395  22.200  28.560  1.00  0.00     0.010 A 
ATOM     43  C   UNL A   1      42.045  23.204  27.856  1.00  0.00    -0.014 A 
BRANCH  43  44
ATOM     44  C   UNL A   1      42.255  24.484  28.513  1.00  0.00     0.031 A 
ATOM     45  C   UNL A   1      41.229  25.514  28.208  1.00  0.00     0.074 A 
ATOM     46  C   UNL A   1      43.198  24.691  29.455  1.00  0.00     0.049 A 
ATOM     47  N   UNL A   1      41.361  26.526  27.420  1.00  0.00    -0.248 NA
ATOM     48  C   UNL A   1      39.859  25.323  28.709  1.00  0.00     0.031 C 
ATOM     49  C   UNL A   1      44.081  23.718  30.109  1.00  0.00     0.029 A 
ATOM     50  N   UNL A   1      43.504  25.848  30.099  1.00  0.00    -0.354 N 
ATOM     51  C   UNL A   1      40.163  27.229  27.486  1.00  0.00     0.074 A 
ATOM     52  C   UNL A   1      39.224  26.351  28.140  1.00  0.00     0.031 C 
ATOM     53  C   UNL A   1      44.650  24.282  31.199  1.00  0.00     0.029 A 
ATOM     54  C   UNL A   1      44.325  25.694  31.208  1.00  0.00     0.049 A 
ATOM     55  H   UNL A   1      43.169  26.724  29.802  1.00  0.00     0.167 HD
ATOM     56  C   UNL A   1      40.122  28.566  27.220  1.00  0.00     0.031 A 
ATOM     57  C   UNL A   1      44.704  26.668  32.071  1.00  0.00     0.031 A 
ATOM     58  C   UNL A   1      41.347  29.011  26.599  1.00  0.00     0.049 A 
ATOM     59  C   UNL A   1      44.530  27.962  31.374  1.00  0.00     0.074 A 
ATOM     60  C   UNL A   1      42.021  28.699  25.436  1.00  0.00     0.029 A 
ATOM     61  N   UNL A   1      42.270  29.615  27.421  1.00  0.00    -0.354 N 
ATOM     62  N   UNL A   1      45.249  28.322  30.350  1.00  0.00    -0.248 NA
ATOM     63  C   UNL A   1      43.258  28.651  31.518  1.00  0.00     0.031 C 
ATOM     64  C   UNL A   1      43.400  28.684  25.807  1.00  0.00     0.029 A 
ATOM     65  C   UNL A   1      43.497  29.071  27.144  1.00  0.00     0.049 A 
ATOM     66  H   UNL A   1      42.083  30.315  28.088  1.00  0.00     0.167 HD
ATOM     67  C   UNL A   1      44.349  28.926  29.484  1.00  0.00     0.074 A 
ATOM     68  C   UNL A   1      43.165  29.197  30.301  1.00  0.00     0.031 C 
ATOM     69  C   UNL A   1      44.539  28.886  28.132  1.00  0.00     0.031 A 
BRANCH  56  70
ATOM     70  C   UNL A   1      39.193  29.540  27.908  1.00  0.00    -0.014 A 
ATOM     71  C   UNL A   1      39.486  29.918  29.232  1.00  0.00     0.009 A 
ATOM     72  C   UNL A   1      37.912  29.868  27.429  1.00  0.00     0.009 A 
ATOM     73  C   UNL A   1      38.516  30.495  30.061  1.00  0.00     0.001 A 
ATOM     74  C   UNL A   1      36.954  30.482  28.241  1.00  0.00     0.001 A 
ATOM     75  C   UNL A   1      37.245  30.764  29.567  1.00  0.00     0.000 A 
ENDBRANCH  56  70
BRANCH  57  76
ATOM     76  C   UNL A   1      44.966  26.586  33.522  1.00  0.00    -0.014 A 
ATOM     77  C   UNL A   1      43.947  26.208  34.411  1.00  0.00     0.009 A 
ATOM     78  C   UNL A   1      46.288  26.586  34.000  1.00  0.00     0.009 A 
ATOM     79  C   UNL A   1      44.248  25.794  35.716  1.00  0.00     0.001 A 
ATOM     80  C   UNL A   1      46.588  26.174  35.302  1.00  0.00     0.001 A 
ATOM     81  C   UNL A   1      45.570  25.760  36.154  1.00  0.00     0.000 A 
ENDBRANCH  57  76
BRANCH  69  82
ATOM     82  C   UNL A   1      45.867  28.381  27.618  1.00  0.00    -0.014 A 
ATOM     83  C   UNL A   1      46.136  27.024  27.361  1.00  0.00     0.009 A 
ATOM     84  C   UNL A   1      46.828  29.328  27.238  1.00  0.00     0.009 A 
ATOM     85  C   UNL A   1      47.342  26.630  26.769  1.00  0.00     0.001 A 
ATOM     86  C   UNL A   1      48.022  28.938  26.627  1.00  0.00     0.001 A 
ATOM     87  C   UNL A   1      48.282  27.589  26.398  1.00  0.00     0.000 A 
ENDBRANCH  69  82
ENDBRANCH  43  44
ENDBRANCH  35  38
ENDBRANCH  33  34
ENDBRANCH  32  33
ENDBRANCH  31  32
ENDBRANCH   1  31
TORSDOF 16
ENDMDL
MODEL 3
REMARK VINA RESULT:     -11.9      2.716      7.914
REMARK SMILES CCOC(=O)c1c(NC(=O)[C@@H]2[C@@H](C(=O)NCCCCNC(=O)c3ccc(-c4c5nc(c(-c6ccccc6)c6ccc([nH]6)c(-c6ccccc6)c6nc(c(-c7ccccc7)c7ccc4[nH]7)C=C6)C=C5)cc3)[C@@H]3C=C[C@H]2CC3)sc2c1CCC2
REMARK SMILES IDX 16 1 15 2 13 3 14 4 12 6 11 7 74 8 71 9 73 10 75 11 72 12
REMARK SMILES IDX 76 13 9 14 8 15 10 17 7 18 6 19 79 20 77 21 78 22 80 23
REMARK SMILES IDX 82 24 81 25 4 26 5 27 3 28 2 29 1 30 17 31 18 32 19 33 20 34
REMARK SMILES IDX 21 35 22 37 23 38 24 39 70 40 25 41 69 42 26 43 27 44 28 45
REMARK SMILES IDX 63 46 29 47 68 48 62 49 64 50 30 51 67 52 61 53 60 54 31 56
REMARK SMILES IDX 53 57 38 58 52 59 39 60 42 61 51 62 65 63 40 64 41 65 50 67
REMARK SMILES IDX 66 68 43 69 32 70 33 71 37 72 34 73 36 74 35 75 54 76 55 77
REMARK SMILES IDX 59 78 56 79 58 80 57 81 44 82 45 83 49 84 46 85 48 86 47 87
REMARK H PARENT 15 5 8 16 20 36 64 55 42 66
REMARK Flexibility Score: inf
ROOT
ATOM      1  C   UNL A   1      33.940  28.903  25.650  1.00  0.00     0.116 C 
ENDROOT
BRANCH   1   2
ATOM      2  N   UNL A   1      33.887  28.695  24.210  1.00  0.00    -0.356 N 
ATOM      3  C   UNL A   1      33.324  27.766  23.386  1.00  0.00     0.224 C 
ATOM      4  O   UNL A   1      33.261  28.113  22.197  1.00  0.00    -0.275 OA
ATOM      5  H   UNL A   1      34.374  29.390  23.712  1.00  0.00     0.163 HD
BRANCH   3   6
ATOM      6  C   UNL A   1      32.896  26.321  23.744  1.00  0.00     0.098 C 
ATOM      7  C   UNL A   1      32.111  25.520  22.696  1.00  0.00     0.099 C 
ATOM      8  C   UNL A   1      30.734  25.087  23.286  1.00  0.00     0.025 C 
ATOM      9  C   UNL A   1      32.139  26.304  25.113  1.00  0.00     0.025 C 
ATOM     10  C   UNL A   1      30.941  24.280  24.534  1.00  0.00    -0.027 C 
ATOM     11  C   UNL A   1      29.957  26.317  23.879  1.00  0.00     0.009 C 
ATOM     12  C   UNL A   1      31.630  24.936  25.486  1.00  0.00    -0.027 C 
ATOM     13  C   UNL A   1      30.808  27.025  24.986  1.00  0.00     0.009 C 
BRANCH   7  14
ATOM     14  C   UNL A   1      32.935  24.471  21.892  1.00  0.00     0.229 C 
ATOM     15  N   UNL A   1      33.644  23.382  22.292  1.00  0.00    -0.317 N 
ATOM     16  H   UNL A   1      34.061  22.899  21.542  1.00  0.00     0.170 HD
ATOM     17  O   UNL A   1      32.901  24.604  20.650  1.00  0.00    -0.274 OA
BRANCH  15  18
ATOM     18  C   UNL A   1      33.910  22.804  23.512  1.00  0.00     0.110 A 
ATOM     19  C   UNL A   1      33.310  21.687  24.107  1.00  0.00     0.098 A 
ATOM     20  C   UNL A   1      33.545  21.785  25.511  1.00  0.00    -0.017 A 
ATOM     21  S   UNL A   1      35.350  23.138  24.374  1.00  0.00    -0.122 S 
ATOM     22  C   UNL A   1      34.553  22.671  25.776  1.00  0.00     0.011 A 
ATOM     23  C   UNL A   1      33.051  21.190  26.780  1.00  0.00     0.038 C 
ATOM     24  C   UNL A   1      34.776  22.962  27.209  1.00  0.00     0.047 C 
ATOM     25  C   UNL A   1      33.582  22.201  27.852  1.00  0.00     0.010 C 
BRANCH  19  26
ATOM     26  C   UNL A   1      32.543  20.717  23.348  1.00  0.00     0.341 C 
ATOM     27  O   UNL A   1      31.957  21.036  22.317  1.00  0.00    -0.246 OA
BRANCH  26  28
ATOM     28  O   UNL A   1      32.613  19.449  23.834  1.00  0.00    -0.462 OA
BRANCH  28  29
ATOM     29  C   UNL A   1      32.522  18.398  22.855  1.00  0.00     0.230 C 
ATOM     30  C   UNL A   1      33.395  17.188  23.150  1.00  0.00     0.049 C 
ENDBRANCH  28  29
ENDBRANCH  26  28
ENDBRANCH  19  26
ENDBRANCH  15  18
ENDBRANCH   7  14
ENDBRANCH   3   6
ENDBRANCH   1   2
BRANCH   1  31
ATOM     31  C   UNL A   1      33.183  30.126  26.203  1.00  0.00     0.023 C 
BRANCH  31  32
ATOM     32  C   UNL A   1      33.499  30.561  27.628  1.00  0.00     0.023 C 
BRANCH  32  33
ATOM     33  C   UNL A   1      34.378  31.793  27.681  1.00  0.00     0.116 C 
BRANCH  33  34
ATOM     34  N   UNL A   1      34.432  32.378  29.023  1.00  0.00    -0.352 N 
ATOM     35  C   UNL A   1      35.240  32.000  30.073  1.00  0.00     0.251 C 
ATOM     36  H   UNL A   1      33.820  33.130  29.193  1.00  0.00     0.163 HD
ATOM     37  O   UNL A   1      35.006  32.333  31.226  1.00  0.00    -0.269 OA
BRANCH  35  38
ATOM     38  C   UNL A   1      36.414  31.185  29.748  1.00  0.00     0.039 A 
ATOM     39  C   UNL A   1      37.645  31.775  29.465  1.00  0.00     0.014 A 
ATOM     40  C   UNL A   1      36.276  29.805  29.884  1.00  0.00     0.014 A 
ATOM     41  C   UNL A   1      38.765  30.955  29.411  1.00  0.00     0.010 A 
ATOM     42  C   UNL A   1      37.398  29.025  29.986  1.00  0.00     0.010 A 
ATOM     43  C   UNL A   1      38.637  29.585  29.706  1.00  0.00    -0.014 A 
BRANCH  43  44
ATOM     44  C   UNL A   1      39.819  28.749  29.840  1.00  0.00     0.031 A 
ATOM     45  C   UNL A   1      40.303  28.577  31.234  1.00  0.00     0.074 A 
ATOM     46  C   UNL A   1      40.350  28.042  28.821  1.00  0.00     0.049 A 
ATOM     47  N   UNL A   1      41.326  29.147  31.773  1.00  0.00    -0.248 NA
ATOM     48  C   UNL A   1      39.480  27.809  32.182  1.00  0.00     0.031 C 
ATOM     49  C   UNL A   1      39.826  27.837  27.466  1.00  0.00     0.029 A 
ATOM     50  N   UNL A   1      41.466  27.267  28.828  1.00  0.00    -0.354 N 
ATOM     51  C   UNL A   1      41.412  28.649  33.068  1.00  0.00     0.074 A 
ATOM     52  C   UNL A   1      40.158  27.983  33.321  1.00  0.00     0.031 C 
ATOM     53  C   UNL A   1      40.495  26.825  26.868  1.00  0.00     0.029 A 
ATOM     54  C   UNL A   1      41.608  26.446  27.716  1.00  0.00     0.049 A 
ATOM     55  H   UNL A   1      42.121  27.286  29.562  1.00  0.00     0.167 HD
ATOM     56  C   UNL A   1      42.606  28.615  33.725  1.00  0.00     0.031 A 
ATOM     57  C   UNL A   1      42.575  25.519  27.517  1.00  0.00     0.031 A 
ATOM     58  C   UNL A   1      43.600  29.409  33.042  1.00  0.00     0.049 A 
ATOM     59  C   UNL A   1      43.706  25.871  28.406  1.00  0.00     0.074 A 
ATOM     60  C   UNL A   1      43.715  30.740  32.694  1.00  0.00     0.029 A 
ATOM     61  N   UNL A   1      44.485  28.729  32.238  1.00  0.00    -0.354 N 
ATOM     62  N   UNL A   1      44.430  26.940  28.247  1.00  0.00    -0.248 NA
ATOM     63  C   UNL A   1      43.741  25.283  29.735  1.00  0.00     0.031 C 
ATOM     64  C   UNL A   1      44.288  30.725  31.387  1.00  0.00     0.029 A 
ATOM     65  C   UNL A   1      44.570  29.400  31.047  1.00  0.00     0.049 A 
ATOM     66  H   UNL A   1      44.971  27.906  32.477  1.00  0.00     0.167 HD
ATOM     67  C   UNL A   1      44.635  27.419  29.534  1.00  0.00     0.074 A 
ATOM     68  C   UNL A   1      44.283  26.302  30.411  1.00  0.00     0.031 C 
ATOM     69  C   UNL A   1      44.792  28.755  29.771  1.00  0.00     0.031 A 
BRANCH  56  70
ATOM     70  C   UNL A   1      43.004  27.537  34.708  1.00  0.00    -0.014 A 
ATOM     71  C   UNL A   1      43.083  26.210  34.243  1.00  0.00     0.009 A 
ATOM     72  C   UNL A   1      43.018  27.717  36.102  1.00  0.00     0.009 A 
ATOM     73  C   UNL A   1      43.070  25.123  35.126  1.00  0.00     0.001 A 
ATOM     74  C   UNL A   1      43.046  26.636  36.988  1.00  0.00     0.001 A 
ATOM     75  C   UNL A   1      43.037  25.338  36.499  1.00  0.00     0.000 A 
ENDBRANCH  56  70
BRANCH  57  76
ATOM     76  C   UNL A   1      42.504  24.224  26.812  1.00  0.00    -0.014 A 
ATOM     77  C   UNL A   1      43.111  24.060  25.556  1.00  0.00     0.009 A 
ATOM     78  C   UNL A   1      42.102  23.067  27.503  1.00  0.00     0.009 A 
ATOM     79  C   UNL A   1      43.354  22.782  25.035  1.00  0.00     0.001 A 
ATOM     80  C   UNL A   1      42.344  21.792  26.982  1.00  0.00     0.001 A 
ATOM     81  C   UNL A   1      42.987  21.649  25.757  1.00  0.00     0.000 A 
ENDBRANCH  57  76
BRANCH  69  82
ATOM     82  C   UNL A   1      44.977  29.669  28.581  1.00  0.00    -0.014 A 
ATOM     83  C   UNL A   1      43.909  30.275  27.894  1.00  0.00     0.009 A 
ATOM     84  C   UNL A   1      46.283  30.047  28.239  1.00  0.00     0.009 A 
ATOM     85  C   UNL A   1      44.147  31.209  26.878  1.00  0.00     0.001 A 
ATOM     86  C   UNL A   1      46.520  30.995  27.241  1.00  0.00     0.001 A 
ATOM     87  C   UNL A   1      45.453  31.572  26.557  1.00  0.00     0.000 A 
ENDBRANCH  69  82
ENDBRANCH  43  44
ENDBRANCH  35  38
ENDBRANCH  33  34
ENDBRANCH  32  33
ENDBRANCH  31  32
ENDBRANCH   1  31
TORSDOF 16
ENDMDL
