MODEL 1
REMARK VINA RESULT:     -10.2      0.000      0.000
REMARK SMILES C[C@H](C(=O)NCCCCNC(=O)c1ccc(-c2c3nc(c(-c4ccccc4)c4ccc([nH]4)c(-c4ccccc4)c4nc(c(-c5ccccc5)c5ccc2[nH]5)C=C4)C=C3)cc1)[C@H](C)[NH+]1CCN(S(C)(=O)=O)CC1
REMARK SMILES IDX 7 1 6 2 5 3 3 4 4 5 2 7 1 8 61 9 62 10 63 11 64 12 72 13
REMARK SMILES IDX 65 15 71 16 66 17 67 18 68 19 69 20 70 21 8 22 9 23 10 24
REMARK SMILES IDX 11 25 12 27 13 28 14 29 60 30 15 31 59 32 16 33 17 34 18 35
REMARK SMILES IDX 53 36 19 37 58 38 52 39 54 40 20 41 57 42 51 43 50 44 21 46
REMARK SMILES IDX 43 47 28 48 42 49 29 50 32 51 41 52 55 53 30 54 31 55 40 57
REMARK SMILES IDX 56 58 33 59 22 60 23 61 27 62 24 63 26 64 25 65 44 66 45 67
REMARK SMILES IDX 49 68 46 69 48 70 47 71 34 72 35 73 39 74 36 75 38 76 37 77
REMARK H PARENT 5 6 63 14 10 26 54 45 32 56
REMARK Flexibility Score: inf
ROOT
ATOM      1  C   UNL A   1      38.601  22.232  25.984  1.00  0.00     0.023 C 
ENDROOT
BRANCH   1   2
ATOM      2  C   UNL A   1      37.274  22.880  25.597  1.00  0.00     0.116 C 
BRANCH   2   3
ATOM      3  N   UNL A   1      36.204  22.488  26.487  1.00  0.00    -0.356 N 
ATOM      4  C   UNL A   1      35.130  21.689  26.260  1.00  0.00     0.228 C 
ATOM      5  O   UNL A   1      34.350  21.510  27.197  1.00  0.00    -0.275 OA
ATOM      6  H   UNL A   1      36.264  22.855  27.399  1.00  0.00     0.163 HD
BRANCH   4   7
ATOM      7  C   UNL A   1      34.891  21.097  24.872  1.00  0.00     0.133 C 
ATOM      8  C   UNL A   1      35.444  19.671  24.904  1.00  0.00     0.024 C 
BRANCH   7   9
ATOM      9  C   UNL A   1      33.395  21.309  24.427  1.00  0.00     0.193 C 
ATOM     10  C   UNL A   1      32.581  20.009  24.397  1.00  0.00     0.076 C 
BRANCH   9  11
ATOM     11  N   UNL A   1      33.203  22.209  23.263  1.00  0.00    -0.330 N 
ATOM     12  C   UNL A   1      31.955  22.985  23.202  1.00  0.00     0.279 C 
ATOM     13  C   UNL A   1      34.357  23.097  22.968  1.00  0.00     0.279 C 
ATOM     14  H   UNL A   1      33.125  21.508  22.526  1.00  0.00     0.348 HD
ATOM     15  C   UNL A   1      31.932  24.317  23.959  1.00  0.00     0.163 C 
ATOM     16  C   UNL A   1      34.367  24.529  23.566  1.00  0.00     0.163 C 
ATOM     17  N   UNL A   1      33.040  25.184  23.524  1.00  0.00    -0.191 NA
BRANCH  17  18
ATOM     18  S   UNL A   1      32.739  26.430  22.445  1.00  0.00     0.211 S 
ATOM     19  C   UNL A   1      33.350  27.871  23.294  1.00  0.00     0.176 C 
ATOM     20  O   UNL A   1      33.578  26.226  21.279  1.00  0.00    -0.212 OA
ATOM     21  O   UNL A   1      31.307  26.572  22.316  1.00  0.00    -0.212 OA
ENDBRANCH  17  18
ENDBRANCH   9  11
ENDBRANCH   7   9
ENDBRANCH   4   7
ENDBRANCH   2   3
ENDBRANCH   1   2
BRANCH   1  22
ATOM     22  C   UNL A   1      38.900  20.905  25.284  1.00  0.00     0.023 C 
BRANCH  22  23
ATOM     23  C   UNL A   1      39.269  19.755  26.209  1.00  0.00     0.116 C 
BRANCH  23  24
ATOM     24  N   UNL A   1      40.516  19.110  25.836  1.00  0.00    -0.352 N 
ATOM     25  C   UNL A   1      41.791  19.615  25.874  1.00  0.00     0.251 C 
ATOM     26  H   UNL A   1      40.437  18.185  25.509  1.00  0.00     0.163 HD
ATOM     27  O   UNL A   1      42.721  18.975  25.392  1.00  0.00    -0.269 OA
BRANCH  25  28
ATOM     28  C   UNL A   1      42.039  20.944  26.473  1.00  0.00     0.039 A 
ATOM     29  C   UNL A   1      42.373  22.007  25.632  1.00  0.00     0.014 A 
ATOM     30  C   UNL A   1      41.954  21.141  27.854  1.00  0.00     0.014 A 
ATOM     31  C   UNL A   1      42.591  23.274  26.173  1.00  0.00     0.010 A 
ATOM     32  C   UNL A   1      42.078  22.421  28.381  1.00  0.00     0.010 A 
ATOM     33  C   UNL A   1      42.430  23.496  27.551  1.00  0.00    -0.014 A 
BRANCH  33  34
ATOM     34  C   UNL A   1      42.687  24.831  28.145  1.00  0.00     0.031 A 
ATOM     35  C   UNL A   1      44.083  25.209  28.565  1.00  0.00     0.074 A 
ATOM     36  C   UNL A   1      41.669  25.693  28.330  1.00  0.00     0.049 A 
ATOM     37  N   UNL A   1      44.513  26.329  29.091  1.00  0.00    -0.248 NA
ATOM     38  C   UNL A   1      45.129  24.188  28.397  1.00  0.00     0.031 C 
ATOM     39  C   UNL A   1      40.265  25.434  28.001  1.00  0.00     0.029 A 
ATOM     40  N   UNL A   1      41.662  26.969  28.835  1.00  0.00    -0.354 N 
ATOM     41  C   UNL A   1      45.868  26.135  29.335  1.00  0.00     0.074 A 
ATOM     42  C   UNL A   1      46.175  24.773  28.958  1.00  0.00     0.031 C 
ATOM     43  C   UNL A   1      39.542  26.534  28.268  1.00  0.00     0.029 A 
ATOM     44  C   UNL A   1      40.422  27.559  28.823  1.00  0.00     0.049 A 
ATOM     45  H   UNL A   1      42.470  27.419  29.174  1.00  0.00     0.167 HD
ATOM     46  C   UNL A   1      46.783  27.015  29.805  1.00  0.00     0.031 A 
ATOM     47  C   UNL A   1      40.038  28.790  29.208  1.00  0.00     0.031 A 
ATOM     48  C   UNL A   1      46.479  28.374  30.166  1.00  0.00     0.049 A 
ATOM     49  C   UNL A   1      41.071  29.748  29.736  1.00  0.00     0.074 A 
ATOM     50  C   UNL A   1      47.343  29.365  30.597  1.00  0.00     0.029 A 
ATOM     51  N   UNL A   1      45.210  28.929  30.144  1.00  0.00    -0.354 N 
ATOM     52  N   UNL A   1      42.362  29.575  29.888  1.00  0.00    -0.248 NA
ATOM     53  C   UNL A   1      40.592  31.081  30.127  1.00  0.00     0.031 C 
ATOM     54  C   UNL A   1      46.587  30.503  30.894  1.00  0.00     0.029 A 
ATOM     55  C   UNL A   1      45.263  30.244  30.576  1.00  0.00     0.049 A 
ATOM     56  H   UNL A   1      44.391  28.460  29.861  1.00  0.00     0.167 HD
ATOM     57  C   UNL A   1      42.856  30.790  30.346  1.00  0.00     0.074 A 
ATOM     58  C   UNL A   1      41.726  31.692  30.439  1.00  0.00     0.031 C 
ATOM     59  C   UNL A   1      44.131  31.131  30.657  1.00  0.00     0.031 A 
BRANCH  46  60
ATOM     60  C   UNL A   1      48.196  26.523  29.971  1.00  0.00    -0.014 A 
ATOM     61  C   UNL A   1      49.154  26.683  28.955  1.00  0.00     0.009 A 
ATOM     62  C   UNL A   1      48.580  25.904  31.170  1.00  0.00     0.009 A 
ATOM     63  C   UNL A   1      50.450  26.192  29.120  1.00  0.00     0.001 A 
ATOM     64  C   UNL A   1      49.887  25.445  31.346  1.00  0.00     0.001 A 
ATOM     65  C   UNL A   1      50.817  25.579  30.317  1.00  0.00     0.000 A 
ENDBRANCH  46  60
BRANCH  47  66
ATOM     66  C   UNL A   1      38.617  29.209  29.071  1.00  0.00    -0.014 A 
ATOM     67  C   UNL A   1      38.135  29.698  27.847  1.00  0.00     0.009 A 
ATOM     68  C   UNL A   1      37.741  29.142  30.166  1.00  0.00     0.009 A 
ATOM     69  C   UNL A   1      36.816  30.141  27.730  1.00  0.00     0.001 A 
ATOM     70  C   UNL A   1      36.414  29.555  30.036  1.00  0.00     0.001 A 
ATOM     71  C   UNL A   1      35.956  30.066  28.823  1.00  0.00     0.000 A 
ENDBRANCH  47  66
BRANCH  59  72
ATOM     72  C   UNL A   1      44.383  32.558  31.062  1.00  0.00    -0.014 A 
ATOM     73  C   UNL A   1      44.349  32.965  32.404  1.00  0.00     0.009 A 
ATOM     74  C   UNL A   1      44.682  33.509  30.073  1.00  0.00     0.009 A 
ATOM     75  C   UNL A   1      44.562  34.303  32.743  1.00  0.00     0.001 A 
ATOM     76  C   UNL A   1      44.932  34.838  30.417  1.00  0.00     0.001 A 
ATOM     77  C   UNL A   1      44.858  35.237  31.749  1.00  0.00     0.000 A 
ENDBRANCH  59  72
ENDBRANCH  33  34
ENDBRANCH  25  28
ENDBRANCH  23  24
ENDBRANCH  22  23
ENDBRANCH   1  22
TORSDOF 14
ENDMDL
MODEL 2
REMARK VINA RESULT:      -9.9      1.492      2.005
REMARK SMILES C[C@H](C(=O)NCCCCNC(=O)c1ccc(-c2c3nc(c(-c4ccccc4)c4ccc([nH]4)c(-c4ccccc4)c4nc(c(-c5ccccc5)c5ccc2[nH]5)C=C4)C=C3)cc1)[C@H](C)[NH+]1CCN(S(C)(=O)=O)CC1
REMARK SMILES IDX 7 1 6 2 5 3 3 4 4 5 2 7 1 8 61 9 62 10 63 11 64 12 72 13
REMARK SMILES IDX 65 15 71 16 66 17 67 18 68 19 69 20 70 21 8 22 9 23 10 24
REMARK SMILES IDX 11 25 12 27 13 28 14 29 60 30 15 31 59 32 16 33 17 34 18 35
REMARK SMILES IDX 53 36 19 37 58 38 52 39 54 40 20 41 57 42 51 43 50 44 21 46
REMARK SMILES IDX 43 47 28 48 42 49 29 50 32 51 41 52 55 53 30 54 31 55 40 57
REMARK SMILES IDX 56 58 33 59 22 60 23 61 27 62 24 63 26 64 25 65 44 66 45 67
REMARK SMILES IDX 49 68 46 69 48 70 47 71 34 72 35 73 39 74 36 75 38 76 37 77
REMARK H PARENT 5 6 63 14 10 26 54 45 32 56
REMARK Flexibility Score: inf
ROOT
ATOM      1  C   UNL A   1      36.830  20.524  24.568  1.00  0.00     0.023 C 
ENDROOT
BRANCH   1   2
ATOM      2  C   UNL A   1      36.662  21.674  25.557  1.00  0.00     0.116 C 
BRANCH   2   3
ATOM      3  N   UNL A   1      35.566  21.443  26.471  1.00  0.00    -0.356 N 
ATOM      4  C   UNL A   1      34.231  21.383  26.234  1.00  0.00     0.228 C 
ATOM      5  O   UNL A   1      33.494  21.172  27.198  1.00  0.00    -0.275 OA
ATOM      6  H   UNL A   1      35.828  21.306  27.410  1.00  0.00     0.163 HD
BRANCH   4   7
ATOM      7  C   UNL A   1      33.687  21.629  24.828  1.00  0.00     0.133 C 
ATOM      8  C   UNL A   1      33.052  20.316  24.368  1.00  0.00     0.024 C 
BRANCH   7   9
ATOM      9  C   UNL A   1      32.810  22.936  24.792  1.00  0.00     0.193 C 
ATOM     10  C   UNL A   1      32.732  23.577  23.399  1.00  0.00     0.076 C 
BRANCH   9  11
ATOM     11  N   UNL A   1      33.033  23.880  25.915  1.00  0.00    -0.330 N 
ATOM     12  C   UNL A   1      33.913  25.033  25.671  1.00  0.00     0.279 C 
ATOM     13  C   UNL A   1      31.795  24.333  26.600  1.00  0.00     0.279 C 
ATOM     14  H   UNL A   1      33.555  23.266  26.542  1.00  0.00     0.348 HD
ATOM     15  C   UNL A   1      33.267  26.273  25.044  1.00  0.00     0.163 C 
ATOM     16  C   UNL A   1      31.135  25.661  26.142  1.00  0.00     0.163 C 
ATOM     17  N   UNL A   1      32.119  26.726  25.847  1.00  0.00    -0.191 NA
BRANCH  17  18
ATOM     18  S   UNL A   1      32.300  28.030  26.885  1.00  0.00     0.211 S 
ATOM     19  C   UNL A   1      31.735  29.413  25.917  1.00  0.00     0.176 C 
ATOM     20  O   UNL A   1      31.368  27.861  27.983  1.00  0.00    -0.212 OA
ATOM     21  O   UNL A   1      33.712  28.212  27.128  1.00  0.00    -0.212 OA
ENDBRANCH  17  18
ENDBRANCH   9  11
ENDBRANCH   7   9
ENDBRANCH   4   7
ENDBRANCH   2   3
ENDBRANCH   1   2
BRANCH   1  22
ATOM     22  C   UNL A   1      37.905  19.503  24.943  1.00  0.00     0.023 C 
BRANCH  22  23
ATOM     23  C   UNL A   1      39.019  20.034  25.833  1.00  0.00     0.116 C 
BRANCH  23  24
ATOM     24  N   UNL A   1      40.228  19.231  25.763  1.00  0.00    -0.352 N 
ATOM     25  C   UNL A   1      41.525  19.603  26.010  1.00  0.00     0.251 C 
ATOM     26  H   UNL A   1      40.100  18.291  25.500  1.00  0.00     0.163 HD
ATOM     27  O   UNL A   1      42.444  18.826  25.772  1.00  0.00    -0.269 OA
BRANCH  25  28
ATOM     28  C   UNL A   1      41.814  20.952  26.541  1.00  0.00     0.039 A 
ATOM     29  C   UNL A   1      41.614  21.195  27.901  1.00  0.00     0.014 A 
ATOM     30  C   UNL A   1      42.270  21.975  25.705  1.00  0.00     0.014 A 
ATOM     31  C   UNL A   1      41.899  22.455  28.428  1.00  0.00     0.010 A 
ATOM     32  C   UNL A   1      42.644  23.200  26.247  1.00  0.00     0.010 A 
ATOM     33  C   UNL A   1      42.432  23.463  27.608  1.00  0.00    -0.014 A 
BRANCH  33  34
ATOM     34  C   UNL A   1      42.714  24.817  28.148  1.00  0.00     0.031 A 
ATOM     35  C   UNL A   1      44.126  25.208  28.494  1.00  0.00     0.074 A 
ATOM     36  C   UNL A   1      41.703  25.684  28.353  1.00  0.00     0.049 A 
ATOM     37  N   UNL A   1      44.577  26.343  28.966  1.00  0.00    -0.248 NA
ATOM     38  C   UNL A   1      45.166  24.182  28.312  1.00  0.00     0.031 C 
ATOM     39  C   UNL A   1      40.287  25.414  28.094  1.00  0.00     0.029 A 
ATOM     40  N   UNL A   1      41.716  26.974  28.818  1.00  0.00    -0.354 N 
ATOM     41  C   UNL A   1      45.942  26.157  29.155  1.00  0.00     0.074 A 
ATOM     42  C   UNL A   1      46.235  24.785  28.807  1.00  0.00     0.031 C 
ATOM     43  C   UNL A   1      39.575  26.521  28.359  1.00  0.00     0.029 A 
ATOM     44  C   UNL A   1      40.476  27.563  28.843  1.00  0.00     0.049 A 
ATOM     45  H   UNL A   1      42.538  27.434  29.107  1.00  0.00     0.167 HD
ATOM     46  C   UNL A   1      46.875  27.051  29.558  1.00  0.00     0.031 A 
ATOM     47  C   UNL A   1      40.108  28.805  29.207  1.00  0.00     0.031 A 
ATOM     48  C   UNL A   1      46.586  28.420  29.890  1.00  0.00     0.049 A 
ATOM     49  C   UNL A   1      41.162  29.779  29.660  1.00  0.00     0.074 A 
ATOM     50  C   UNL A   1      47.467  29.425  30.252  1.00  0.00     0.029 A 
ATOM     51  N   UNL A   1      45.316  28.975  29.908  1.00  0.00    -0.354 N 
ATOM     52  N   UNL A   1      42.458  29.611  29.759  1.00  0.00    -0.248 NA
ATOM     53  C   UNL A   1      40.698  31.123  30.031  1.00  0.00     0.031 C 
ATOM     54  C   UNL A   1      46.722  30.571  30.548  1.00  0.00     0.029 A 
ATOM     55  C   UNL A   1      45.386  30.302  30.297  1.00  0.00     0.049 A 
ATOM     56  H   UNL A   1      44.487  28.497  29.676  1.00  0.00     0.167 HD
ATOM     57  C   UNL A   1      42.970  30.840  30.158  1.00  0.00     0.074 A 
ATOM     58  C   UNL A   1      41.844  31.744  30.273  1.00  0.00     0.031 C 
ATOM     59  C   UNL A   1      44.257  31.190  30.402  1.00  0.00     0.031 A 
BRANCH  46  60
ATOM     60  C   UNL A   1      48.296  26.565  29.675  1.00  0.00    -0.014 A 
ATOM     61  C   UNL A   1      48.798  26.050  30.882  1.00  0.00     0.009 A 
ATOM     62  C   UNL A   1      49.139  26.608  28.555  1.00  0.00     0.009 A 
ATOM     63  C   UNL A   1      50.127  25.633  30.976  1.00  0.00     0.001 A 
ATOM     64  C   UNL A   1      50.458  26.157  28.641  1.00  0.00     0.001 A 
ATOM     65  C   UNL A   1      50.954  25.682  29.854  1.00  0.00     0.000 A 
ENDBRANCH  46  60
BRANCH  47  66
ATOM     66  C   UNL A   1      38.682  29.220  29.121  1.00  0.00    -0.014 A 
ATOM     67  C   UNL A   1      38.169  29.758  27.931  1.00  0.00     0.009 A 
ATOM     68  C   UNL A   1      37.831  29.097  30.231  1.00  0.00     0.009 A 
ATOM     69  C   UNL A   1      36.845  30.196  27.864  1.00  0.00     0.001 A 
ATOM     70  C   UNL A   1      36.499  29.506  30.150  1.00  0.00     0.001 A 
ATOM     71  C   UNL A   1      36.010  30.067  28.971  1.00  0.00     0.000 A 
ENDBRANCH  47  66
BRANCH  59  72
ATOM     72  C   UNL A   1      44.524  32.630  30.751  1.00  0.00    -0.014 A 
ATOM     73  C   UNL A   1      44.546  33.078  32.080  1.00  0.00     0.009 A 
ATOM     74  C   UNL A   1      44.781  33.549  29.721  1.00  0.00     0.009 A 
ATOM     75  C   UNL A   1      44.772  34.425  32.368  1.00  0.00     0.001 A 
ATOM     76  C   UNL A   1      45.044  34.888  30.013  1.00  0.00     0.001 A 
ATOM     77  C   UNL A   1      45.025  35.328  31.335  1.00  0.00     0.000 A 
ENDBRANCH  59  72
ENDBRANCH  33  34
ENDBRANCH  25  28
ENDBRANCH  23  24
ENDBRANCH  22  23
ENDBRANCH   1  22
TORSDOF 14
ENDMDL
MODEL 3
REMARK VINA RESULT:      -9.9      1.618      6.346
REMARK SMILES C[C@H](C(=O)NCCCCNC(=O)c1ccc(-c2c3nc(c(-c4ccccc4)c4ccc([nH]4)c(-c4ccccc4)c4nc(c(-c5ccccc5)c5ccc2[nH]5)C=C4)C=C3)cc1)[C@H](C)[NH+]1CCN(S(C)(=O)=O)CC1
REMARK SMILES IDX 7 1 6 2 5 3 3 4 4 5 2 7 1 8 61 9 62 10 63 11 64 12 72 13
REMARK SMILES IDX 65 15 71 16 66 17 67 18 68 19 69 20 70 21 8 22 9 23 10 24
REMARK SMILES IDX 11 25 12 27 13 28 14 29 60 30 15 31 59 32 16 33 17 34 18 35
REMARK SMILES IDX 53 36 19 37 58 38 52 39 54 40 20 41 57 42 51 43 50 44 21 46
REMARK SMILES IDX 43 47 28 48 42 49 29 50 32 51 41 52 55 53 30 54 31 55 40 57
REMARK SMILES IDX 56 58 33 59 22 60 23 61 27 62 24 63 26 64 25 65 44 66 45 67
REMARK SMILES IDX 49 68 46 69 48 70 47 71 34 72 35 73 39 74 36 75 38 76 37 77
REMARK H PARENT 5 6 63 14 10 26 54 45 32 56
REMARK Flexibility Score: inf
ROOT
ATOM      1  C   UNL A   1      36.812  20.666  24.619  1.00  0.00     0.023 C 
ENDROOT
BRANCH   1   2
ATOM      2  C   UNL A   1      36.596  21.775  25.646  1.00  0.00     0.116 C 
BRANCH   2   3
ATOM      3  N   UNL A   1      35.463  21.502  26.503  1.00  0.00    -0.356 N 
ATOM      4  C   UNL A   1      34.140  21.443  26.205  1.00  0.00     0.228 C 
ATOM      5  O   UNL A   1      33.364  21.191  27.128  1.00  0.00    -0.275 OA
ATOM      6  H   UNL A   1      35.685  21.331  27.446  1.00  0.00     0.163 HD
BRANCH   4   7
ATOM      7  C   UNL A   1      33.656  21.739  24.787  1.00  0.00     0.133 C 
ATOM      8  C   UNL A   1      33.066  20.437  24.244  1.00  0.00     0.024 C 
BRANCH   7   9
ATOM      9  C   UNL A   1      32.757  23.033  24.766  1.00  0.00     0.193 C 
ATOM     10  C   UNL A   1      32.679  23.695  23.383  1.00  0.00     0.076 C 
BRANCH   9  11
ATOM     11  N   UNL A   1      32.957  23.962  25.906  1.00  0.00    -0.330 N 
ATOM     12  C   UNL A   1      33.838  25.121  25.694  1.00  0.00     0.279 C 
ATOM     13  C   UNL A   1      31.705  24.402  26.573  1.00  0.00     0.279 C 
ATOM     14  H   UNL A   1      33.469  23.341  26.533  1.00  0.00     0.348 HD
ATOM     15  C   UNL A   1      33.200  26.367  25.072  1.00  0.00     0.163 C 
ATOM     16  C   UNL A   1      31.050  25.734  26.121  1.00  0.00     0.163 C 
ATOM     17  N   UNL A   1      32.036  26.807  25.859  1.00  0.00    -0.191 NA
BRANCH  17  18
ATOM     18  S   UNL A   1      32.194  28.096  26.918  1.00  0.00     0.211 S 
ATOM     19  C   UNL A   1      31.775  29.508  25.917  1.00  0.00     0.176 C 
ATOM     20  O   UNL A   1      31.169  27.968  27.936  1.00  0.00    -0.212 OA
ATOM     21  O   UNL A   1      33.589  28.211  27.275  1.00  0.00    -0.212 OA
ENDBRANCH  17  18
ENDBRANCH   9  11
ENDBRANCH   7   9
ENDBRANCH   4   7
ENDBRANCH   2   3
ENDBRANCH   1   2
BRANCH   1  22
ATOM     22  C   UNL A   1      37.875  19.634  24.998  1.00  0.00     0.023 C 
BRANCH  22  23
ATOM     23  C   UNL A   1      39.061  20.182  25.778  1.00  0.00     0.116 C 
BRANCH  23  24
ATOM     24  N   UNL A   1      40.172  19.250  25.843  1.00  0.00    -0.352 N 
ATOM     25  C   UNL A   1      41.486  19.496  26.151  1.00  0.00     0.251 C 
ATOM     26  H   UNL A   1      39.954  18.312  25.637  1.00  0.00     0.163 HD
ATOM     27  O   UNL A   1      42.324  18.608  26.027  1.00  0.00    -0.269 OA
BRANCH  25  28
ATOM     28  C   UNL A   1      41.895  20.842  26.607  1.00  0.00     0.039 A 
ATOM     29  C   UNL A   1      42.206  21.809  25.650  1.00  0.00     0.014 A 
ATOM     30  C   UNL A   1      41.982  21.148  27.968  1.00  0.00     0.014 A 
ATOM     31  C   UNL A   1      42.575  23.091  26.057  1.00  0.00     0.010 A 
ATOM     32  C   UNL A   1      42.256  22.450  28.371  1.00  0.00     0.010 A 
ATOM     33  C   UNL A   1      42.588  23.427  27.421  1.00  0.00    -0.014 A 
BRANCH  33  34
ATOM     34  C   UNL A   1      43.006  24.778  27.870  1.00  0.00     0.031 A 
ATOM     35  C   UNL A   1      41.966  25.827  28.165  1.00  0.00     0.074 A 
ATOM     36  C   UNL A   1      44.315  25.073  27.988  1.00  0.00     0.049 A 
ATOM     37  N   UNL A   1      42.128  27.059  28.578  1.00  0.00    -0.248 NA
ATOM     38  C   UNL A   1      40.560  25.451  27.943  1.00  0.00     0.031 C 
ATOM     39  C   UNL A   1      45.422  24.160  27.697  1.00  0.00     0.029 A 
ATOM     40  N   UNL A   1      44.935  26.227  28.394  1.00  0.00    -0.354 N 
ATOM     41  C   UNL A   1      40.852  27.606  28.641  1.00  0.00     0.074 A 
ATOM     42  C   UNL A   1      39.933  26.595  28.167  1.00  0.00     0.031 C 
ATOM     43  C   UNL A   1      46.582  24.773  27.979  1.00  0.00     0.029 A 
ATOM     44  C   UNL A   1      46.304  26.132  28.433  1.00  0.00     0.049 A 
ATOM     45  H   UNL A   1      44.444  27.047  28.636  1.00  0.00     0.167 HD
ATOM     46  C   UNL A   1      40.471  28.830  29.078  1.00  0.00     0.031 A 
ATOM     47  C   UNL A   1      47.231  27.037  28.800  1.00  0.00     0.031 A 
ATOM     48  C   UNL A   1      41.383  29.830  29.562  1.00  0.00     0.049 A 
ATOM     49  C   UNL A   1      46.785  28.393  29.274  1.00  0.00     0.074 A 
ATOM     50  C   UNL A   1      41.097  31.080  30.083  1.00  0.00     0.029 A 
ATOM     51  N   UNL A   1      42.763  29.695  29.579  1.00  0.00    -0.354 N 
ATOM     52  N   UNL A   1      45.569  28.868  29.401  1.00  0.00    -0.248 NA
ATOM     53  C   UNL A   1      47.843  29.331  29.674  1.00  0.00     0.031 C 
ATOM     54  C   UNL A   1      42.306  31.725  30.359  1.00  0.00     0.029 A 
ATOM     55  C   UNL A   1      43.344  30.849  30.080  1.00  0.00     0.049 A 
ATOM     56  H   UNL A   1      43.257  28.897  29.282  1.00  0.00     0.167 HD
ATOM     57  C   UNL A   1      45.715  30.141  29.939  1.00  0.00     0.074 A 
ATOM     58  C   UNL A   1      47.136  30.358  30.122  1.00  0.00     0.031 C 
ATOM     59  C   UNL A   1      44.759  31.047  30.260  1.00  0.00     0.031 A 
BRANCH  46  60
ATOM     60  C   UNL A   1      39.001  29.155  29.032  1.00  0.00    -0.014 A 
ATOM     61  C   UNL A   1      38.391  29.632  27.860  1.00  0.00     0.009 A 
ATOM     62  C   UNL A   1      38.212  28.966  30.176  1.00  0.00     0.009 A 
ATOM     63  C   UNL A   1      37.033  29.956  27.850  1.00  0.00     0.001 A 
ATOM     64  C   UNL A   1      36.847  29.257  30.154  1.00  0.00     0.001 A 
ATOM     65  C   UNL A   1      36.261  29.763  28.995  1.00  0.00     0.000 A 
ENDBRANCH  46  60
BRANCH  47  66
ATOM     66  C   UNL A   1      48.676  26.681  28.778  1.00  0.00    -0.014 A 
ATOM     67  C   UNL A   1      49.289  26.127  29.912  1.00  0.00     0.009 A 
ATOM     68  C   UNL A   1      49.453  26.910  27.631  1.00  0.00     0.009 A 
ATOM     69  C   UNL A   1      50.655  25.840  29.911  1.00  0.00     0.001 A 
ATOM     70  C   UNL A   1      50.812  26.592  27.623  1.00  0.00     0.001 A 
ATOM     71  C   UNL A   1      51.415  26.070  28.766  1.00  0.00     0.000 A 
ENDBRANCH  47  66
BRANCH  59  72
ATOM     72  C   UNL A   1      45.213  32.329  30.904  1.00  0.00    -0.014 A 
ATOM     73  C   UNL A   1      45.522  33.470  30.147  1.00  0.00     0.009 A 
ATOM     74  C   UNL A   1      45.310  32.398  32.303  1.00  0.00     0.009 A 
ATOM     75  C   UNL A   1      45.965  34.635  30.775  1.00  0.00     0.001 A 
ATOM     76  C   UNL A   1      45.716  33.575  32.931  1.00  0.00     0.001 A 
ATOM     77  C   UNL A   1      46.058  34.689  32.166  1.00  0.00     0.000 A 
ENDBRANCH  59  72
ENDBRANCH  33  34
ENDBRANCH  25  28
ENDBRANCH  23  24
ENDBRANCH  22  23
ENDBRANCH   1  22
TORSDOF 14
ENDMDL
