MODEL 1
REMARK VINA RESULT:     -12.2      0.000      0.000
REMARK SMILES COC(=O)C1=C(C)N(c2ccc(Br)cc2)C(=O)/C1=C\c1ccc(C(=O)NCCCCNC(=O)c2ccc(-c3c4nc(c(-c5ccccc5)c5ccc([nH]5)c(-c5ccccc5)c5nc(c(-c6ccccc6)c6ccc3[nH]6)C=C5)C=C4)cc2)cc1
REMARK SMILES IDX 28 1 27 2 26 3 24 4 25 5 23 7 20 8 21 9 83 10 22 11 82 12
REMARK SMILES IDX 19 13 5 14 6 15 18 16 7 17 8 18 16 19 17 20 3 21 4 22 2 23
REMARK SMILES IDX 1 24 9 25 10 26 15 27 11 28 14 29 12 30 13 31 29 32 30 33
REMARK SMILES IDX 31 34 32 35 33 37 34 38 35 39 81 40 36 41 80 42 37 43 38 44
REMARK SMILES IDX 39 45 74 46 40 47 79 48 73 49 75 50 41 51 78 52 72 53 71 54
REMARK SMILES IDX 42 56 64 57 49 58 63 59 50 60 53 61 62 62 76 63 51 64 52 65
REMARK SMILES IDX 61 67 77 68 54 69 43 70 44 71 48 72 45 73 47 74 46 75 65 76
REMARK SMILES IDX 66 77 70 78 67 79 69 80 68 81 55 82 56 83 60 84 57 85 59 86
REMARK SMILES IDX 58 87
REMARK H PARENT 26 6 31 36 75 55 53 66
REMARK Flexibility Score: inf
ROOT
ATOM      1  C   UNL A   1      36.995  21.281  24.644  1.00  0.00     0.023 C 
ENDROOT
BRANCH   1   2
ATOM      2  C   UNL A   1      35.492  21.022  24.781  1.00  0.00     0.116 C 
BRANCH   2   3
ATOM      3  N   UNL A   1      35.087  21.132  26.168  1.00  0.00    -0.352 N 
ATOM      4  C   UNL A   1      34.279  22.035  26.816  1.00  0.00     0.251 C 
ATOM      5  O   UNL A   1      34.092  21.867  28.022  1.00  0.00    -0.269 OA
ATOM      6  H   UNL A   1      35.459  20.433  26.753  1.00  0.00     0.163 HD
BRANCH   4   7
ATOM      7  C   UNL A   1      33.594  23.162  26.124  1.00  0.00     0.039 A 
ATOM      8  C   UNL A   1      32.139  25.202  24.841  1.00  0.00    -0.025 A 
ATOM      9  C   UNL A   1      31.523  24.417  25.817  1.00  0.00     0.009 A 
ATOM     10  C   UNL A   1      33.487  25.000  24.544  1.00  0.00     0.009 A 
ATOM     11  C   UNL A   1      32.248  23.399  26.449  1.00  0.00     0.014 A 
ATOM     12  C   UNL A   1      34.215  24.010  25.204  1.00  0.00     0.014 A 
BRANCH   8  13
ATOM     13  C   UNL A   1      31.445  26.283  24.148  1.00  0.00     0.023 C 
ATOM     14  C   UNL A   1      30.556  28.611  23.986  1.00  0.00     0.092 C 
ATOM     15  C   UNL A   1      30.825  29.768  24.631  1.00  0.00     0.039 C 
ATOM     16  C   UNL A   1      31.361  27.554  24.571  1.00  0.00     0.057 C 
ATOM     17  C   UNL A   1      30.261  31.104  24.266  1.00  0.00     0.066 C 
ATOM     18  N   UNL A   1      31.771  29.550  25.640  1.00  0.00    -0.280 N 
ATOM     19  C   UNL A   1      32.120  28.175  25.706  1.00  0.00     0.263 C 
ATOM     20  O   UNL A   1      32.852  27.600  26.486  1.00  0.00    -0.268 OA
BRANCH  14  21
ATOM     21  C   UNL A   1      29.585  28.388  22.900  1.00  0.00     0.340 C 
ATOM     22  O   UNL A   1      29.818  28.640  21.727  1.00  0.00    -0.246 OA
BRANCH  21  23
ATOM     23  O   UNL A   1      28.408  27.928  23.387  1.00  0.00    -0.465 OA
ATOM     24  C   UNL A   1      27.300  28.787  23.109  1.00  0.00     0.282 C 
ENDBRANCH  21  23
ENDBRANCH  14  21
BRANCH  18  25
ATOM     25  C   UNL A   1      32.412  30.499  26.484  1.00  0.00     0.049 A 
ATOM     26  C   UNL A   1      33.727  30.257  26.915  1.00  0.00     0.028 A 
ATOM     27  C   UNL A   1      31.795  31.694  26.875  1.00  0.00     0.028 A 
ATOM     28  C   UNL A   1      34.432  31.211  27.653  1.00  0.00     0.018 A 
ATOM     29  C   UNL A   1      32.494  32.648  27.625  1.00  0.00     0.018 A 
ATOM     30  C   UNL A   1      33.815  32.408  27.994  1.00  0.00     0.018 A 
ATOM     31  Br  UNL A   1      34.779  33.717  28.959  1.00  0.00    -0.051 Br
ENDBRANCH  18  25
ENDBRANCH   8  13
ENDBRANCH   4   7
ENDBRANCH   2   3
ENDBRANCH   1   2
BRANCH   1  32
ATOM     32  C   UNL A   1      37.863  20.045  24.888  1.00  0.00     0.023 C 
BRANCH  32  33
ATOM     33  C   UNL A   1      39.024  20.263  25.850  1.00  0.00     0.116 C 
BRANCH  33  34
ATOM     34  N   UNL A   1      40.017  19.201  25.795  1.00  0.00    -0.352 N 
ATOM     35  C   UNL A   1      41.376  19.285  25.968  1.00  0.00     0.251 C 
ATOM     36  H   UNL A   1      39.666  18.300  25.611  1.00  0.00     0.163 HD
ATOM     37  O   UNL A   1      42.087  18.309  25.757  1.00  0.00    -0.269 OA
BRANCH  35  38
ATOM     38  C   UNL A   1      41.979  20.571  26.368  1.00  0.00     0.039 A 
ATOM     39  C   UNL A   1      42.362  21.467  25.370  1.00  0.00     0.014 A 
ATOM     40  C   UNL A   1      42.140  20.904  27.716  1.00  0.00     0.014 A 
ATOM     41  C   UNL A   1      42.853  22.723  25.725  1.00  0.00     0.010 A 
ATOM     42  C   UNL A   1      42.550  22.186  28.069  1.00  0.00     0.010 A 
ATOM     43  C   UNL A   1      42.913  23.107  27.077  1.00  0.00    -0.014 A 
BRANCH  43  44
ATOM     44  C   UNL A   1      43.330  24.482  27.450  1.00  0.00     0.031 A 
ATOM     45  C   UNL A   1      44.771  24.900  27.357  1.00  0.00     0.074 A 
ATOM     46  C   UNL A   1      42.403  25.351  27.900  1.00  0.00     0.049 A 
ATOM     47  N   UNL A   1      45.306  26.069  27.600  1.00  0.00    -0.248 NA
ATOM     48  C   UNL A   1      45.742  23.867  26.962  1.00  0.00     0.031 C 
ATOM     49  C   UNL A   1      40.981  25.049  28.089  1.00  0.00     0.029 A 
ATOM     50  N   UNL A   1      42.515  26.667  28.270  1.00  0.00    -0.354 N 
ATOM     51  C   UNL A   1      46.670  25.912  27.391  1.00  0.00     0.074 A 
ATOM     52  C   UNL A   1      46.889  24.521  27.063  1.00  0.00     0.031 C 
ATOM     53  C   UNL A   1      40.346  26.161  28.491  1.00  0.00     0.029 A 
ATOM     54  C   UNL A   1      41.319  27.240  28.628  1.00  0.00     0.049 A 
ATOM     55  H   UNL A   1      43.371  27.153  28.279  1.00  0.00     0.167 HD
ATOM     56  C   UNL A   1      47.650  26.846  27.444  1.00  0.00     0.031 A 
ATOM     57  C   UNL A   1      41.035  28.496  29.020  1.00  0.00     0.031 A 
ATOM     58  C   UNL A   1      47.431  28.229  27.779  1.00  0.00     0.049 A 
ATOM     59  C   UNL A   1      42.143  29.508  29.087  1.00  0.00     0.074 A 
ATOM     60  C   UNL A   1      48.349  29.264  27.810  1.00  0.00     0.029 A 
ATOM     61  N   UNL A   1      46.208  28.768  28.152  1.00  0.00    -0.354 N 
ATOM     62  N   UNL A   1      43.415  29.363  28.801  1.00  0.00    -0.248 NA
ATOM     63  C   UNL A   1      41.772  30.862  29.518  1.00  0.00     0.031 C 
ATOM     64  C   UNL A   1      47.696  30.415  28.264  1.00  0.00     0.029 A 
ATOM     65  C   UNL A   1      46.355  30.114  28.446  1.00  0.00     0.049 A 
ATOM     66  H   UNL A   1      45.362  28.267  28.199  1.00  0.00     0.167 HD
ATOM     67  C   UNL A   1      43.990  30.613  28.995  1.00  0.00     0.074 A 
ATOM     68  C   UNL A   1      42.922  31.507  29.392  1.00  0.00     0.031 C 
ATOM     69  C   UNL A   1      45.286  30.988  28.858  1.00  0.00     0.031 A 
BRANCH  56  70
ATOM     70  C   UNL A   1      49.054  26.395  27.144  1.00  0.00    -0.014 A 
ATOM     71  C   UNL A   1      49.555  26.393  25.832  1.00  0.00     0.009 A 
ATOM     72  C   UNL A   1      49.901  26.000  28.191  1.00  0.00     0.009 A 
ATOM     73  C   UNL A   1      50.859  25.968  25.570  1.00  0.00     0.001 A 
ATOM     74  C   UNL A   1      51.216  25.607  27.931  1.00  0.00     0.001 A 
ATOM     75  C   UNL A   1      51.690  25.581  26.620  1.00  0.00     0.000 A 
ENDBRANCH  56  70
BRANCH  57  76
ATOM     76  C   UNL A   1      39.638  28.874  29.362  1.00  0.00    -0.014 A 
ATOM     77  C   UNL A   1      39.153  28.715  30.669  1.00  0.00     0.009 A 
ATOM     78  C   UNL A   1      38.776  29.385  28.378  1.00  0.00     0.009 A 
ATOM     79  C   UNL A   1      37.827  29.027  30.976  1.00  0.00     0.001 A 
ATOM     80  C   UNL A   1      37.461  29.730  28.696  1.00  0.00     0.001 A 
ATOM     81  C   UNL A   1      36.983  29.538  29.991  1.00  0.00     0.000 A 
ENDBRANCH  57  76
BRANCH  69  82
ATOM     82  C   UNL A   1      45.608  32.434  29.120  1.00  0.00    -0.014 A 
ATOM     83  C   UNL A   1      45.975  32.883  30.399  1.00  0.00     0.009 A 
ATOM     84  C   UNL A   1      45.551  33.361  28.067  1.00  0.00     0.009 A 
ATOM     85  C   UNL A   1      46.224  34.237  30.629  1.00  0.00     0.001 A 
ATOM     86  C   UNL A   1      45.838  34.708  28.291  1.00  0.00     0.001 A 
ATOM     87  C   UNL A   1      46.159  35.148  29.575  1.00  0.00     0.000 A 
ENDBRANCH  69  82
ENDBRANCH  43  44
ENDBRANCH  35  38
ENDBRANCH  33  34
ENDBRANCH  32  33
ENDBRANCH   1  32
TORSDOF 15
ENDMDL
MODEL 2
REMARK VINA RESULT:     -12.0      0.723      5.658
REMARK SMILES COC(=O)C1=C(C)N(c2ccc(Br)cc2)C(=O)/C1=C\c1ccc(C(=O)NCCCCNC(=O)c2ccc(-c3c4nc(c(-c5ccccc5)c5ccc([nH]5)c(-c5ccccc5)c5nc(c(-c6ccccc6)c6ccc3[nH]6)C=C5)C=C4)cc2)cc1
REMARK SMILES IDX 28 1 27 2 26 3 24 4 25 5 23 7 20 8 21 9 83 10 22 11 82 12
REMARK SMILES IDX 19 13 5 14 6 15 18 16 7 17 8 18 16 19 17 20 3 21 4 22 2 23
REMARK SMILES IDX 1 24 9 25 10 26 15 27 11 28 14 29 12 30 13 31 29 32 30 33
REMARK SMILES IDX 31 34 32 35 33 37 34 38 35 39 81 40 36 41 80 42 37 43 38 44
REMARK SMILES IDX 39 45 74 46 40 47 79 48 73 49 75 50 41 51 78 52 72 53 71 54
REMARK SMILES IDX 42 56 64 57 49 58 63 59 50 60 53 61 62 62 76 63 51 64 52 65
REMARK SMILES IDX 61 67 77 68 54 69 43 70 44 71 48 72 45 73 47 74 46 75 65 76
REMARK SMILES IDX 66 77 70 78 67 79 69 80 68 81 55 82 56 83 60 84 57 85 59 86
REMARK SMILES IDX 58 87
REMARK H PARENT 26 6 31 36 75 55 53 66
REMARK Flexibility Score: inf
ROOT
ATOM      1  C   UNL A   1      37.254  21.578  24.646  1.00  0.00     0.023 C 
ENDROOT
BRANCH   1   2
ATOM      2  C   UNL A   1      35.737  21.478  24.834  1.00  0.00     0.116 C 
BRANCH   2   3
ATOM      3  N   UNL A   1      35.391  21.656  26.230  1.00  0.00    -0.352 N 
ATOM      4  C   UNL A   1      34.586  22.572  26.863  1.00  0.00     0.251 C 
ATOM      5  O   UNL A   1      34.456  22.468  28.083  1.00  0.00    -0.269 OA
ATOM      6  H   UNL A   1      35.808  21.001  26.835  1.00  0.00     0.163 HD
BRANCH   4   7
ATOM      7  C   UNL A   1      33.838  23.639  26.141  1.00  0.00     0.039 A 
ATOM      8  C   UNL A   1      32.271  25.559  24.807  1.00  0.00    -0.025 A 
ATOM      9  C   UNL A   1      31.704  24.779  25.816  1.00  0.00     0.009 A 
ATOM     10  C   UNL A   1      33.624  25.414  24.502  1.00  0.00     0.009 A 
ATOM     11  C   UNL A   1      32.485  23.821  26.473  1.00  0.00     0.014 A 
ATOM     12  C   UNL A   1      34.406  24.486  25.186  1.00  0.00     0.014 A 
BRANCH   8  13
ATOM     13  C   UNL A   1      31.516  26.580  24.086  1.00  0.00     0.023 C 
ATOM     14  C   UNL A   1      30.458  28.833  23.881  1.00  0.00     0.092 C 
ATOM     15  C   UNL A   1      30.619  30.010  24.524  1.00  0.00     0.039 C 
ATOM     16  C   UNL A   1      31.323  27.844  24.497  1.00  0.00     0.057 C 
ATOM     17  C   UNL A   1      29.965  31.297  24.133  1.00  0.00     0.066 C 
ATOM     18  N   UNL A   1      31.550  29.871  25.561  1.00  0.00    -0.280 N 
ATOM     19  C   UNL A   1      32.000  28.528  25.648  1.00  0.00     0.263 C 
ATOM     20  O   UNL A   1      32.751  28.015  26.452  1.00  0.00    -0.268 OA
BRANCH  14  21
ATOM     21  C   UNL A   1      29.537  28.530  22.770  1.00  0.00     0.340 C 
ATOM     22  O   UNL A   1      29.713  28.922  21.625  1.00  0.00    -0.246 OA
BRANCH  21  23
ATOM     23  O   UNL A   1      28.468  27.820  23.204  1.00  0.00    -0.465 OA
ATOM     24  C   UNL A   1      27.285  28.606  23.357  1.00  0.00     0.282 C 
ENDBRANCH  21  23
ENDBRANCH  14  21
BRANCH  18  25
ATOM     25  C   UNL A   1      32.093  30.872  26.415  1.00  0.00     0.049 A 
ATOM     26  C   UNL A   1      33.337  30.650  27.027  1.00  0.00     0.028 A 
ATOM     27  C   UNL A   1      31.449  32.094  26.643  1.00  0.00     0.028 A 
ATOM     28  C   UNL A   1      33.957  31.647  27.783  1.00  0.00     0.018 A 
ATOM     29  C   UNL A   1      32.062  33.093  27.410  1.00  0.00     0.018 A 
ATOM     30  C   UNL A   1      33.321  32.870  27.962  1.00  0.00     0.018 A 
ATOM     31  Br  UNL A   1      34.174  34.234  28.953  1.00  0.00    -0.051 Br
ENDBRANCH  18  25
ENDBRANCH   8  13
ENDBRANCH   4   7
ENDBRANCH   2   3
ENDBRANCH   1   2
BRANCH   1  32
ATOM     32  C   UNL A   1      38.001  20.272  24.924  1.00  0.00     0.023 C 
BRANCH  32  33
ATOM     33  C   UNL A   1      39.070  20.368  26.004  1.00  0.00     0.116 C 
BRANCH  33  34
ATOM     34  N   UNL A   1      40.092  19.339  25.888  1.00  0.00    -0.352 N 
ATOM     35  C   UNL A   1      41.452  19.457  26.038  1.00  0.00     0.251 C 
ATOM     36  H   UNL A   1      39.764  18.436  25.673  1.00  0.00     0.163 HD
ATOM     37  O   UNL A   1      42.187  18.512  25.775  1.00  0.00    -0.269 OA
BRANCH  35  38
ATOM     38  C   UNL A   1      42.025  20.743  26.480  1.00  0.00     0.039 A 
ATOM     39  C   UNL A   1      42.465  21.645  25.510  1.00  0.00     0.014 A 
ATOM     40  C   UNL A   1      42.103  21.071  27.837  1.00  0.00     0.014 A 
ATOM     41  C   UNL A   1      42.928  22.902  25.900  1.00  0.00     0.010 A 
ATOM     42  C   UNL A   1      42.485  22.352  28.219  1.00  0.00     0.010 A 
ATOM     43  C   UNL A   1      42.904  23.280  27.255  1.00  0.00    -0.014 A 
BRANCH  43  44
ATOM     44  C   UNL A   1      43.293  24.655  27.658  1.00  0.00     0.031 A 
ATOM     45  C   UNL A   1      42.249  25.694  27.952  1.00  0.00     0.074 A 
ATOM     46  C   UNL A   1      44.601  24.971  27.733  1.00  0.00     0.049 A 
ATOM     47  N   UNL A   1      42.407  26.928  28.358  1.00  0.00    -0.248 NA
ATOM     48  C   UNL A   1      40.843  25.307  27.744  1.00  0.00     0.031 C 
ATOM     49  C   UNL A   1      45.711  24.067  27.418  1.00  0.00     0.029 A 
ATOM     50  N   UNL A   1      45.219  26.137  28.108  1.00  0.00    -0.354 N 
ATOM     51  C   UNL A   1      41.129  27.464  28.450  1.00  0.00     0.074 A 
ATOM     52  C   UNL A   1      40.210  26.443  27.998  1.00  0.00     0.031 C 
ATOM     53  C   UNL A   1      46.871  24.696  27.661  1.00  0.00     0.029 A 
ATOM     54  C   UNL A   1      46.590  26.056  28.107  1.00  0.00     0.049 A 
ATOM     55  H   UNL A   1      44.727  26.953  28.354  1.00  0.00     0.167 HD
ATOM     56  C   UNL A   1      40.750  28.687  28.891  1.00  0.00     0.031 A 
ATOM     57  C   UNL A   1      47.520  26.973  28.434  1.00  0.00     0.031 A 
ATOM     58  C   UNL A   1      41.667  29.705  29.332  1.00  0.00     0.049 A 
ATOM     59  C   UNL A   1      47.074  28.329  28.905  1.00  0.00     0.074 A 
ATOM     60  C   UNL A   1      41.381  30.959  29.847  1.00  0.00     0.029 A 
ATOM     61  N   UNL A   1      43.049  29.592  29.301  1.00  0.00    -0.354 N 
ATOM     62  N   UNL A   1      45.856  28.789  29.069  1.00  0.00    -0.248 NA
ATOM     63  C   UNL A   1      48.133  29.286  29.250  1.00  0.00     0.031 C 
ATOM     64  C   UNL A   1      42.591  31.628  30.066  1.00  0.00     0.029 A 
ATOM     65  C   UNL A   1      43.630  30.765  29.757  1.00  0.00     0.049 A 
ATOM     66  H   UNL A   1      43.544  28.796  29.001  1.00  0.00     0.167 HD
ATOM     67  C   UNL A   1      46.005  30.081  29.559  1.00  0.00     0.074 A 
ATOM     68  C   UNL A   1      47.427  30.316  29.693  1.00  0.00     0.031 C 
ATOM     69  C   UNL A   1      45.049  30.992  29.868  1.00  0.00     0.031 A 
BRANCH  56  70
ATOM     70  C   UNL A   1      39.277  28.994  28.906  1.00  0.00    -0.014 A 
ATOM     71  C   UNL A   1      38.635  29.545  27.785  1.00  0.00     0.009 A 
ATOM     72  C   UNL A   1      38.512  28.695  30.044  1.00  0.00     0.009 A 
ATOM     73  C   UNL A   1      37.267  29.826  27.817  1.00  0.00     0.001 A 
ATOM     74  C   UNL A   1      37.138  28.946  30.062  1.00  0.00     0.001 A 
ATOM     75  C   UNL A   1      36.519  29.521  28.953  1.00  0.00     0.000 A 
ENDBRANCH  56  70
BRANCH  57  76
ATOM     76  C   UNL A   1      48.966  26.637  28.345  1.00  0.00    -0.014 A 
ATOM     77  C   UNL A   1      49.680  26.857  27.157  1.00  0.00     0.009 A 
ATOM     78  C   UNL A   1      49.637  26.081  29.445  1.00  0.00     0.009 A 
ATOM     79  C   UNL A   1      51.026  26.497  27.062  1.00  0.00     0.001 A 
ATOM     80  C   UNL A   1      50.992  25.754  29.359  1.00  0.00     0.001 A 
ATOM     81  C   UNL A   1      51.682  25.950  28.164  1.00  0.00     0.000 A 
ENDBRANCH  57  76
BRANCH  69  82
ATOM     82  C   UNL A   1      45.519  32.318  30.403  1.00  0.00    -0.014 A 
ATOM     83  C   UNL A   1      45.773  33.403  29.550  1.00  0.00     0.009 A 
ATOM     84  C   UNL A   1      45.704  32.483  31.785  1.00  0.00     0.009 A 
ATOM     85  C   UNL A   1      46.253  34.609  30.064  1.00  0.00     0.001 A 
ATOM     86  C   UNL A   1      46.148  33.702  32.301  1.00  0.00     0.001 A 
ATOM     87  C   UNL A   1      46.437  34.759  31.438  1.00  0.00     0.000 A 
ENDBRANCH  69  82
ENDBRANCH  43  44
ENDBRANCH  35  38
ENDBRANCH  33  34
ENDBRANCH  32  33
ENDBRANCH   1  32
TORSDOF 15
ENDMDL
MODEL 3
REMARK VINA RESULT:     -11.7      3.433      6.381
REMARK SMILES COC(=O)C1=C(C)N(c2ccc(Br)cc2)C(=O)/C1=C\c1ccc(C(=O)NCCCCNC(=O)c2ccc(-c3c4nc(c(-c5ccccc5)c5ccc([nH]5)c(-c5ccccc5)c5nc(c(-c6ccccc6)c6ccc3[nH]6)C=C5)C=C4)cc2)cc1
REMARK SMILES IDX 28 1 27 2 26 3 24 4 25 5 23 7 20 8 21 9 83 10 22 11 82 12
REMARK SMILES IDX 19 13 5 14 6 15 18 16 7 17 8 18 16 19 17 20 3 21 4 22 2 23
REMARK SMILES IDX 1 24 9 25 10 26 15 27 11 28 14 29 12 30 13 31 29 32 30 33
REMARK SMILES IDX 31 34 32 35 33 37 34 38 35 39 81 40 36 41 80 42 37 43 38 44
REMARK SMILES IDX 39 45 74 46 40 47 79 48 73 49 75 50 41 51 78 52 72 53 71 54
REMARK SMILES IDX 42 56 64 57 49 58 63 59 50 60 53 61 62 62 76 63 51 64 52 65
REMARK SMILES IDX 61 67 77 68 54 69 43 70 44 71 48 72 45 73 47 74 46 75 65 76
REMARK SMILES IDX 66 77 70 78 67 79 69 80 68 81 55 82 56 83 60 84 57 85 59 86
REMARK SMILES IDX 58 87
REMARK H PARENT 26 6 31 36 75 55 53 66
REMARK Flexibility Score: inf
ROOT
ATOM      1  C   UNL A   1      39.286  26.343  28.017  1.00  0.00     0.023 C 
ENDROOT
BRANCH   1   2
ATOM      2  C   UNL A   1      40.542  27.214  28.114  1.00  0.00     0.116 C 
BRANCH   2   3
ATOM      3  N   UNL A   1      40.893  27.437  29.503  1.00  0.00    -0.352 N 
ATOM      4  C   UNL A   1      40.399  28.308  30.442  1.00  0.00     0.251 C 
ATOM      5  O   UNL A   1      40.885  28.261  31.573  1.00  0.00    -0.269 OA
ATOM      6  H   UNL A   1      41.618  26.859  29.832  1.00  0.00     0.163 HD
BRANCH   4   7
ATOM      7  C   UNL A   1      39.284  29.259  30.169  1.00  0.00     0.039 A 
ATOM      8  C   UNL A   1      37.062  30.918  29.691  1.00  0.00    -0.025 A 
ATOM      9  C   UNL A   1      36.949  29.843  30.575  1.00  0.00     0.009 A 
ATOM     10  C   UNL A   1      38.291  31.189  29.089  1.00  0.00     0.009 A 
ATOM     11  C   UNL A   1      38.056  29.016  30.806  1.00  0.00     0.014 A 
ATOM     12  C   UNL A   1      39.399  30.386  29.353  1.00  0.00     0.014 A 
BRANCH   8  13
ATOM     13  C   UNL A   1      35.951  31.822  29.409  1.00  0.00     0.023 C 
ATOM     14  C   UNL A   1      33.920  32.519  28.134  1.00  0.00     0.092 C 
ATOM     15  C   UNL A   1      33.039  31.871  27.340  1.00  0.00     0.039 C 
ATOM     16  C   UNL A   1      34.951  31.584  28.546  1.00  0.00     0.057 C 
ATOM     17  C   UNL A   1      31.787  32.469  26.783  1.00  0.00     0.066 C 
ATOM     18  N   UNL A   1      33.424  30.534  27.181  1.00  0.00    -0.280 N 
ATOM     19  C   UNL A   1      34.645  30.284  27.861  1.00  0.00     0.263 C 
ATOM     20  O   UNL A   1      35.315  29.272  27.899  1.00  0.00    -0.268 OA
BRANCH  14  21
ATOM     21  C   UNL A   1      33.917  33.944  28.511  1.00  0.00     0.340 C 
ATOM     22  O   UNL A   1      34.534  34.803  27.899  1.00  0.00    -0.246 OA
BRANCH  21  23
ATOM     23  O   UNL A   1      33.194  34.147  29.639  1.00  0.00    -0.465 OA
ATOM     24  C   UNL A   1      33.506  35.371  30.305  1.00  0.00     0.282 C 
ENDBRANCH  21  23
ENDBRANCH  14  21
BRANCH  18  25
ATOM     25  C   UNL A   1      32.736  29.478  26.521  1.00  0.00     0.049 A 
ATOM     26  C   UNL A   1      32.040  28.529  27.286  1.00  0.00     0.028 A 
ATOM     27  C   UNL A   1      32.693  29.368  25.125  1.00  0.00     0.028 A 
ATOM     28  C   UNL A   1      31.261  27.541  26.677  1.00  0.00     0.018 A 
ATOM     29  C   UNL A   1      31.923  28.372  24.510  1.00  0.00     0.018 A 
ATOM     30  C   UNL A   1      31.197  27.475  25.290  1.00  0.00     0.018 A 
ATOM     31  Br  UNL A   1      30.116  26.164  24.464  1.00  0.00    -0.051 Br
ENDBRANCH  18  25
ENDBRANCH   8  13
ENDBRANCH   4   7
ENDBRANCH   2   3
ENDBRANCH   1   2
BRANCH   1  32
ATOM     32  C   UNL A   1      39.508  25.010  27.299  1.00  0.00     0.023 C 
BRANCH  32  33
ATOM     33  C   UNL A   1      40.531  24.095  27.960  1.00  0.00     0.116 C 
BRANCH  33  34
ATOM     34  N   UNL A   1      41.102  23.122  27.042  1.00  0.00    -0.352 N 
ATOM     35  C   UNL A   1      42.191  23.254  26.216  1.00  0.00     0.251 C 
ATOM     36  H   UNL A   1      40.647  22.250  27.009  1.00  0.00     0.163 HD
ATOM     37  O   UNL A   1      42.461  22.377  25.403  1.00  0.00    -0.269 OA
BRANCH  35  38
ATOM     38  C   UNL A   1      43.010  24.480  26.285  1.00  0.00     0.039 A 
ATOM     39  C   UNL A   1      43.663  24.779  27.482  1.00  0.00     0.014 A 
ATOM     40  C   UNL A   1      43.156  25.314  25.173  1.00  0.00     0.014 A 
ATOM     41  C   UNL A   1      44.512  25.884  27.544  1.00  0.00     0.010 A 
ATOM     42  C   UNL A   1      44.067  26.365  25.211  1.00  0.00     0.010 A 
ATOM     43  C   UNL A   1      44.752  26.663  26.397  1.00  0.00    -0.014 A 
BRANCH  43  44
ATOM     44  C   UNL A   1      45.738  27.771  26.434  1.00  0.00     0.031 A 
ATOM     45  C   UNL A   1      47.210  27.494  26.307  1.00  0.00     0.074 A 
ATOM     46  C   UNL A   1      45.302  29.033  26.611  1.00  0.00     0.049 A 
ATOM     47  N   UNL A   1      48.207  28.341  26.275  1.00  0.00    -0.248 NA
ATOM     48  C   UNL A   1      47.621  26.083  26.227  1.00  0.00     0.031 C 
ATOM     49  C   UNL A   1      43.903  29.426  26.803  1.00  0.00     0.029 A 
ATOM     50  N   UNL A   1      45.987  30.221  26.646  1.00  0.00    -0.354 N 
ATOM     51  C   UNL A   1      49.357  27.569  26.175  1.00  0.00     0.074 A 
ATOM     52  C   UNL A   1      48.941  26.185  26.214  1.00  0.00     0.031 C 
ATOM     53  C   UNL A   1      43.830  30.764  26.886  1.00  0.00     0.029 A 
ATOM     54  C   UNL A   1      45.176  31.319  26.794  1.00  0.00     0.049 A 
ATOM     55  H   UNL A   1      46.967  30.280  26.573  1.00  0.00     0.167 HD
ATOM     56  C   UNL A   1      50.643  27.975  26.039  1.00  0.00     0.031 A 
ATOM     57  C   UNL A   1      45.480  32.629  26.847  1.00  0.00     0.031 A 
ATOM     58  C   UNL A   1      51.056  29.353  26.009  1.00  0.00     0.049 A 
ATOM     59  C   UNL A   1      46.916  33.052  26.711  1.00  0.00     0.074 A 
ATOM     60  C   UNL A   1      52.328  29.868  25.823  1.00  0.00     0.029 A 
ATOM     61  N   UNL A   1      50.207  30.437  26.179  1.00  0.00    -0.354 N 
ATOM     62  N   UNL A   1      47.983  32.311  26.529  1.00  0.00    -0.248 NA
ATOM     63  C   UNL A   1      47.186  34.494  26.773  1.00  0.00     0.031 C 
ATOM     64  C   UNL A   1      52.258  31.260  25.945  1.00  0.00     0.029 A 
ATOM     65  C   UNL A   1      50.932  31.617  26.134  1.00  0.00     0.049 A 
ATOM     66  H   UNL A   1      49.233  30.376  26.310  1.00  0.00     0.167 HD
ATOM     67  C   UNL A   1      49.047  33.199  26.431  1.00  0.00     0.074 A 
ATOM     68  C   UNL A   1      48.490  34.531  26.543  1.00  0.00     0.031 C 
ATOM     69  C   UNL A   1      50.367  32.936  26.266  1.00  0.00     0.031 A 
BRANCH  56  70
ATOM     70  C   UNL A   1      51.698  26.908  25.926  1.00  0.00    -0.014 A 
ATOM     71  C   UNL A   1      52.110  26.420  24.675  1.00  0.00     0.009 A 
ATOM     72  C   UNL A   1      52.314  26.407  27.083  1.00  0.00     0.009 A 
ATOM     73  C   UNL A   1      53.089  25.426  24.588  1.00  0.00     0.001 A 
ATOM     74  C   UNL A   1      53.315  25.438  26.992  1.00  0.00     0.001 A 
ATOM     75  C   UNL A   1      53.694  24.941  25.746  1.00  0.00     0.000 A 
ENDBRANCH  56  70
BRANCH  57  76
ATOM     76  C   UNL A   1      44.403  33.641  27.019  1.00  0.00    -0.014 A 
ATOM     77  C   UNL A   1      43.861  34.305  25.908  1.00  0.00     0.009 A 
ATOM     78  C   UNL A   1      43.921  33.957  28.299  1.00  0.00     0.009 A 
ATOM     79  C   UNL A   1      42.883  35.288  26.078  1.00  0.00     0.001 A 
ATOM     80  C   UNL A   1      42.918  34.914  28.463  1.00  0.00     0.001 A 
ATOM     81  C   UNL A   1      42.409  35.588  27.354  1.00  0.00     0.000 A 
ENDBRANCH  57  76
BRANCH  69  82
ATOM     82  C   UNL A   1      51.291  34.120  26.174  1.00  0.00    -0.014 A 
ATOM     83  C   UNL A   1      51.558  34.746  24.946  1.00  0.00     0.009 A 
ATOM     84  C   UNL A   1      51.897  34.621  27.336  1.00  0.00     0.009 A 
ATOM     85  C   UNL A   1      52.455  35.814  24.877  1.00  0.00     0.001 A 
ATOM     86  C   UNL A   1      52.764  35.713  27.271  1.00  0.00     0.001 A 
ATOM     87  C   UNL A   1      53.054  36.299  26.039  1.00  0.00     0.000 A 
ENDBRANCH  69  82
ENDBRANCH  43  44
ENDBRANCH  35  38
ENDBRANCH  33  34
ENDBRANCH  32  33
ENDBRANCH   1  32
TORSDOF 15
ENDMDL
