MODEL 1
REMARK VINA RESULT:     -12.2      0.000      0.000
REMARK SMILES Cc1cccc(NS(=O)(=O)c2ccc(Br)c(C(=O)NCCCCNC(=O)c3ccc(-c4c5nc(c(-c6ccccc6)c6ccc([nH]6)c(-c6ccccc6)c6nc(c(-c7ccccc7)c7ccc4[nH]7)C=C6)C=C5)cc3)c2)c1
REMARK SMILES IDX 21 1 20 2 19 3 17 4 18 5 16 7 11 8 12 9 75 10 13 11 14 12
REMARK SMILES IDX 15 13 8 14 9 15 10 16 7 17 6 19 1 20 2 21 3 22 76 23 4 24
REMARK SMILES IDX 5 25 22 26 23 27 24 28 25 29 26 31 27 32 28 33 74 34 29 35
REMARK SMILES IDX 73 36 30 37 31 38 32 39 67 40 33 41 72 42 66 43 68 44 34 45
REMARK SMILES IDX 71 46 65 47 64 48 35 50 57 51 42 52 56 53 43 54 46 55 55 56
REMARK SMILES IDX 69 57 44 58 45 59 54 61 70 62 47 63 36 64 37 65 41 66 38 67
REMARK SMILES IDX 40 68 39 69 58 70 59 71 63 72 60 73 62 74 61 75 48 76 49 77
REMARK SMILES IDX 53 78 50 79 52 80 51 81
REMARK H PARENT 19 6 7 18 24 30 68 49 46 60
REMARK Flexibility Score: inf
ROOT
ATOM      1  C   UNL A   1      37.719  21.020  25.070  1.00  0.00     0.023 C 
ENDROOT
BRANCH   1   2
ATOM      2  C   UNL A   1      36.202  21.176  25.122  1.00  0.00     0.116 C 
BRANCH   2   3
ATOM      3  N   UNL A   1      35.592  21.284  26.442  1.00  0.00    -0.352 N 
ATOM      4  C   UNL A   1      34.287  21.525  26.833  1.00  0.00     0.252 C 
ATOM      5  O   UNL A   1      34.010  21.435  28.029  1.00  0.00    -0.269 OA
ATOM      6  H   UNL A   1      36.223  21.164  27.189  1.00  0.00     0.163 HD
BRANCH   4   7
ATOM      7  C   UNL A   1      33.253  22.037  25.892  1.00  0.00     0.055 A 
ATOM      8  C   UNL A   1      31.765  23.872  25.312  1.00  0.00     0.088 A 
ATOM      9  C   UNL A   1      31.850  23.516  23.973  1.00  0.00     0.023 A 
ATOM     10  C   UNL A   1      32.555  23.199  26.258  1.00  0.00     0.037 A 
ATOM     11  C   UNL A   1      32.362  22.257  23.662  1.00  0.00     0.018 A 
ATOM     12  C   UNL A   1      32.932  21.466  24.663  1.00  0.00     0.030 A 
ATOM     13  Br  UNL A   1      32.902  19.575  24.399  1.00  0.00    -0.050 Br
BRANCH   8  14
ATOM     14  S   UNL A   1      30.507  24.985  25.903  1.00  0.00     0.261 S 
ATOM     15  O   UNL A   1      29.687  24.229  26.810  1.00  0.00    -0.201 OA
ATOM     16  O   UNL A   1      29.930  25.621  24.726  1.00  0.00    -0.201 OA
BRANCH  14  17
ATOM     17  N   UNL A   1      31.160  26.232  26.835  1.00  0.00    -0.280 N 
ATOM     18  H   UNL A   1      30.932  26.222  27.793  1.00  0.00     0.180 HD
BRANCH  17  19
ATOM     19  C   UNL A   1      32.002  27.300  26.400  1.00  0.00     0.049 A 
ATOM     20  C   UNL A   1      31.918  31.096  26.816  1.00  0.00     0.044 C 
ATOM     21  C   UNL A   1      32.383  29.715  26.458  1.00  0.00    -0.049 A 
ATOM     22  C   UNL A   1      33.640  29.515  25.882  1.00  0.00     0.003 A 
ATOM     23  C   UNL A   1      31.582  28.598  26.731  1.00  0.00     0.030 A 
ATOM     24  C   UNL A   1      34.017  28.240  25.458  1.00  0.00     0.002 A 
ATOM     25  C   UNL A   1      33.166  27.144  25.653  1.00  0.00     0.027 A 
ENDBRANCH  17  19
ENDBRANCH  14  17
ENDBRANCH   8  14
ENDBRANCH   4   7
ENDBRANCH   2   3
ENDBRANCH   1   2
BRANCH   1  26
ATOM     26  C   UNL A   1      38.547  22.142  25.672  1.00  0.00     0.023 C 
BRANCH  26  27
ATOM     27  C   UNL A   1      39.714  21.713  26.553  1.00  0.00     0.116 C 
BRANCH  27  28
ATOM     28  N   UNL A   1      40.621  20.726  25.977  1.00  0.00    -0.352 N 
ATOM     29  C   UNL A   1      42.010  20.723  25.975  1.00  0.00     0.251 C 
ATOM     30  H   UNL A   1      40.192  19.961  25.530  1.00  0.00     0.163 HD
ATOM     31  O   UNL A   1      42.625  19.803  25.445  1.00  0.00    -0.269 OA
BRANCH  29  32
ATOM     32  C   UNL A   1      42.747  21.764  26.739  1.00  0.00     0.039 A 
ATOM     33  C   UNL A   1      42.726  21.692  28.135  1.00  0.00     0.014 A 
ATOM     34  C   UNL A   1      43.233  22.906  26.110  1.00  0.00     0.014 A 
ATOM     35  C   UNL A   1      42.905  22.858  28.877  1.00  0.00     0.010 A 
ATOM     36  C   UNL A   1      43.299  24.085  26.828  1.00  0.00     0.010 A 
ATOM     37  C   UNL A   1      43.054  24.071  28.202  1.00  0.00    -0.014 A 
BRANCH  37  38
ATOM     38  C   UNL A   1      42.763  25.353  28.831  1.00  0.00     0.031 A 
ATOM     39  C   UNL A   1      41.559  26.126  28.485  1.00  0.00     0.074 A 
ATOM     40  C   UNL A   1      43.621  25.855  29.748  1.00  0.00     0.049 A 
ATOM     41  N   UNL A   1      41.531  27.418  28.445  1.00  0.00    -0.248 NA
ATOM     42  C   UNL A   1      40.290  25.503  28.124  1.00  0.00     0.031 C 
ATOM     43  C   UNL A   1      43.427  27.018  30.610  1.00  0.00     0.029 A 
ATOM     44  N   UNL A   1      44.956  25.516  29.931  1.00  0.00    -0.354 N 
ATOM     45  C   UNL A   1      40.213  27.787  28.351  1.00  0.00     0.074 A 
ATOM     46  C   UNL A   1      39.487  26.571  28.063  1.00  0.00     0.031 C 
ATOM     47  C   UNL A   1      44.627  27.442  31.040  1.00  0.00     0.029 A 
ATOM     48  C   UNL A   1      45.646  26.651  30.371  1.00  0.00     0.049 A 
ATOM     49  H   UNL A   1      45.350  24.626  29.776  1.00  0.00     0.167 HD
ATOM     50  C   UNL A   1      39.825  29.048  28.687  1.00  0.00     0.031 A 
ATOM     51  C   UNL A   1      46.686  27.160  29.650  1.00  0.00     0.031 A 
ATOM     52  C   UNL A   1      40.935  29.871  29.149  1.00  0.00     0.049 A 
ATOM     53  C   UNL A   1      46.429  28.551  29.108  1.00  0.00     0.074 A 
ATOM     54  C   UNL A   1      41.376  30.220  30.416  1.00  0.00     0.029 A 
ATOM     55  N   UNL A   1      41.957  30.205  28.271  1.00  0.00    -0.354 N 
ATOM     56  N   UNL A   1      45.258  29.124  29.085  1.00  0.00    -0.248 NA
ATOM     57  C   UNL A   1      47.462  29.385  28.497  1.00  0.00     0.031 C 
ATOM     58  C   UNL A   1      42.697  30.723  30.300  1.00  0.00     0.029 A 
ATOM     59  C   UNL A   1      43.046  30.701  28.963  1.00  0.00     0.049 A 
ATOM     60  H   UNL A   1      41.913  30.102  27.292  1.00  0.00     0.167 HD
ATOM     61  C   UNL A   1      45.347  30.340  28.457  1.00  0.00     0.074 A 
ATOM     62  C   UNL A   1      46.755  30.468  28.129  1.00  0.00     0.031 C 
ATOM     63  C   UNL A   1      44.245  31.119  28.249  1.00  0.00     0.031 A 
BRANCH  50  64
ATOM     64  C   UNL A   1      38.376  29.389  28.892  1.00  0.00    -0.014 A 
ATOM     65  C   UNL A   1      37.602  29.854  27.815  1.00  0.00     0.009 A 
ATOM     66  C   UNL A   1      37.737  29.313  30.142  1.00  0.00     0.009 A 
ATOM     67  C   UNL A   1      36.293  30.316  27.992  1.00  0.00     0.001 A 
ATOM     68  C   UNL A   1      36.440  29.810  30.333  1.00  0.00     0.001 A 
ATOM     69  C   UNL A   1      35.723  30.323  29.258  1.00  0.00     0.000 A 
ENDBRANCH  50  64
BRANCH  51  70
ATOM     70  C   UNL A   1      47.505  26.123  28.963  1.00  0.00    -0.014 A 
ATOM     71  C   UNL A   1      47.331  25.947  27.575  1.00  0.00     0.009 A 
ATOM     72  C   UNL A   1      48.647  25.579  29.567  1.00  0.00     0.009 A 
ATOM     73  C   UNL A   1      48.322  25.341  26.797  1.00  0.00     0.001 A 
ATOM     74  C   UNL A   1      49.632  24.962  28.785  1.00  0.00     0.001 A 
ATOM     75  C   UNL A   1      49.486  24.874  27.400  1.00  0.00     0.000 A 
ENDBRANCH  51  70
BRANCH  63  76
ATOM     76  C   UNL A   1      44.167  32.381  27.420  1.00  0.00    -0.014 A 
ATOM     77  C   UNL A   1      44.282  32.432  26.025  1.00  0.00     0.009 A 
ATOM     78  C   UNL A   1      43.840  33.597  28.067  1.00  0.00     0.009 A 
ATOM     79  C   UNL A   1      44.117  33.636  25.322  1.00  0.00     0.001 A 
ATOM     80  C   UNL A   1      43.628  34.787  27.368  1.00  0.00     0.001 A 
ATOM     81  C   UNL A   1      43.779  34.809  25.991  1.00  0.00     0.000 A 
ENDBRANCH  63  76
ENDBRANCH  37  38
ENDBRANCH  29  32
ENDBRANCH  27  28
ENDBRANCH  26  27
ENDBRANCH   1  26
TORSDOF 14
ENDMDL
MODEL 2
REMARK VINA RESULT:     -12.2      3.164      8.723
REMARK SMILES Cc1cccc(NS(=O)(=O)c2ccc(Br)c(C(=O)NCCCCNC(=O)c3ccc(-c4c5nc(c(-c6ccccc6)c6ccc([nH]6)c(-c6ccccc6)c6nc(c(-c7ccccc7)c7ccc4[nH]7)C=C6)C=C5)cc3)c2)c1
REMARK SMILES IDX 21 1 20 2 19 3 17 4 18 5 16 7 11 8 12 9 75 10 13 11 14 12
REMARK SMILES IDX 15 13 8 14 9 15 10 16 7 17 6 19 1 20 2 21 3 22 76 23 4 24
REMARK SMILES IDX 5 25 22 26 23 27 24 28 25 29 26 31 27 32 28 33 74 34 29 35
REMARK SMILES IDX 73 36 30 37 31 38 32 39 67 40 33 41 72 42 66 43 68 44 34 45
REMARK SMILES IDX 71 46 65 47 64 48 35 50 57 51 42 52 56 53 43 54 46 55 55 56
REMARK SMILES IDX 69 57 44 58 45 59 54 61 70 62 47 63 36 64 37 65 41 66 38 67
REMARK SMILES IDX 40 68 39 69 58 70 59 71 63 72 60 73 62 74 61 75 48 76 49 77
REMARK SMILES IDX 53 78 50 79 52 80 51 81
REMARK H PARENT 19 6 7 18 24 30 68 49 46 60
REMARK Flexibility Score: inf
ROOT
ATOM      1  C   UNL A   1      32.091  29.199  27.468  1.00  0.00     0.023 C 
ENDROOT
BRANCH   1   2
ATOM      2  C   UNL A   1      32.921  27.978  27.084  1.00  0.00     0.116 C 
BRANCH   2   3
ATOM      3  N   UNL A   1      33.336  27.872  25.690  1.00  0.00    -0.352 N 
ATOM      4  C   UNL A   1      33.493  26.776  24.861  1.00  0.00     0.252 C 
ATOM      5  O   UNL A   1      33.731  26.975  23.670  1.00  0.00    -0.269 OA
ATOM      6  H   UNL A   1      33.542  28.735  25.264  1.00  0.00     0.163 HD
BRANCH   4   7
ATOM      7  C   UNL A   1      33.539  25.381  25.380  1.00  0.00     0.055 A 
ATOM      8  C   UNL A   1      34.924  23.446  25.885  1.00  0.00     0.088 A 
ATOM      9  C   UNL A   1      34.049  23.086  26.900  1.00  0.00     0.023 A 
ATOM     10  C   UNL A   1      34.727  24.655  25.198  1.00  0.00     0.037 A 
ATOM     11  C   UNL A   1      32.790  23.684  26.922  1.00  0.00     0.018 A 
ATOM     12  C   UNL A   1      32.501  24.739  26.052  1.00  0.00     0.030 A 
ATOM     13  Br  UNL A   1      30.670  24.995  25.573  1.00  0.00    -0.050 Br
BRANCH   8  14
ATOM     14  S   UNL A   1      36.145  22.311  25.259  1.00  0.00     0.261 S 
ATOM     15  O   UNL A   1      37.307  22.464  26.090  1.00  0.00    -0.201 OA
ATOM     16  O   UNL A   1      36.220  22.535  23.820  1.00  0.00    -0.201 OA
BRANCH  14  17
ATOM     17  N   UNL A   1      35.669  20.704  25.457  1.00  0.00    -0.280 N 
ATOM     18  H   UNL A   1      36.194  20.173  26.099  1.00  0.00     0.180 HD
BRANCH  17  19
ATOM     19  C   UNL A   1      34.597  20.024  24.805  1.00  0.00     0.049 A 
ATOM     20  C   UNL A   1      34.040  16.427  23.645  1.00  0.00     0.044 C 
ATOM     21  C   UNL A   1      33.792  17.871  23.967  1.00  0.00    -0.049 A 
ATOM     22  C   UNL A   1      32.528  18.435  23.777  1.00  0.00     0.003 A 
ATOM     23  C   UNL A   1      34.812  18.670  24.501  1.00  0.00     0.030 A 
ATOM     24  C   UNL A   1      32.338  19.803  23.980  1.00  0.00     0.002 A 
ATOM     25  C   UNL A   1      33.393  20.610  24.426  1.00  0.00     0.027 A 
ENDBRANCH  17  19
ENDBRANCH  14  17
ENDBRANCH   8  14
ENDBRANCH   4   7
ENDBRANCH   2   3
ENDBRANCH   1   2
BRANCH   1  26
ATOM     26  C   UNL A   1      32.707  30.562  27.205  1.00  0.00     0.023 C 
BRANCH  26  27
ATOM     27  C   UNL A   1      34.223  30.644  27.327  1.00  0.00     0.116 C 
BRANCH  27  28
ATOM     28  N   UNL A   1      34.734  31.397  28.467  1.00  0.00    -0.352 N 
ATOM     29  C   UNL A   1      35.832  31.117  29.269  1.00  0.00     0.251 C 
ATOM     30  H   UNL A   1      34.233  32.213  28.699  1.00  0.00     0.163 HD
ATOM     31  O   UNL A   1      36.130  31.866  30.194  1.00  0.00    -0.269 OA
BRANCH  29  32
ATOM     32  C   UNL A   1      36.728  29.984  28.917  1.00  0.00     0.039 A 
ATOM     33  C   UNL A   1      37.011  29.038  29.907  1.00  0.00     0.014 A 
ATOM     34  C   UNL A   1      37.458  29.988  27.732  1.00  0.00     0.014 A 
ATOM     35  C   UNL A   1      38.198  28.313  29.833  1.00  0.00     0.010 A 
ATOM     36  C   UNL A   1      38.689  29.358  27.706  1.00  0.00     0.010 A 
ATOM     37  C   UNL A   1      39.092  28.586  28.796  1.00  0.00    -0.014 A 
BRANCH  37  38
ATOM     38  C   UNL A   1      40.511  28.267  28.887  1.00  0.00     0.031 A 
ATOM     39  C   UNL A   1      41.064  27.037  28.293  1.00  0.00     0.074 A 
ATOM     40  C   UNL A   1      41.343  29.109  29.539  1.00  0.00     0.049 A 
ATOM     41  N   UNL A   1      42.034  26.367  28.823  1.00  0.00    -0.248 NA
ATOM     42  C   UNL A   1      40.547  26.445  27.065  1.00  0.00     0.031 C 
ATOM     43  C   UNL A   1      42.801  29.062  29.590  1.00  0.00     0.029 A 
ATOM     44  N   UNL A   1      41.001  30.075  30.478  1.00  0.00    -0.354 N 
ATOM     45  C   UNL A   1      42.452  25.458  27.884  1.00  0.00     0.074 A 
ATOM     46  C   UNL A   1      41.445  25.479  26.847  1.00  0.00     0.031 C 
ATOM     47  C   UNL A   1      43.220  29.767  30.655  1.00  0.00     0.029 A 
ATOM     48  C   UNL A   1      42.045  30.185  31.403  1.00  0.00     0.049 A 
ATOM     49  H   UNL A   1      40.164  30.595  30.490  1.00  0.00     0.167 HD
ATOM     50  C   UNL A   1      43.686  24.890  27.976  1.00  0.00     0.031 A 
ATOM     51  C   UNL A   1      41.834  29.945  32.729  1.00  0.00     0.031 A 
ATOM     52  C   UNL A   1      44.443  25.379  29.121  1.00  0.00     0.049 A 
ATOM     53  C   UNL A   1      42.600  28.752  33.262  1.00  0.00     0.074 A 
ATOM     54  C   UNL A   1      45.437  26.336  29.244  1.00  0.00     0.029 A 
ATOM     55  N   UNL A   1      44.001  25.102  30.407  1.00  0.00    -0.354 N 
ATOM     56  N   UNL A   1      43.196  27.868  32.511  1.00  0.00    -0.248 NA
ATOM     57  C   UNL A   1      42.706  28.429  34.683  1.00  0.00     0.031 C 
ATOM     58  C   UNL A   1      45.557  26.672  30.616  1.00  0.00     0.029 A 
ATOM     59  C   UNL A   1      44.654  25.903  31.325  1.00  0.00     0.049 A 
ATOM     60  H   UNL A   1      43.317  24.430  30.634  1.00  0.00     0.167 HD
ATOM     61  C   UNL A   1      43.723  26.873  33.294  1.00  0.00     0.074 A 
ATOM     62  C   UNL A   1      43.410  27.284  34.650  1.00  0.00     0.031 C 
ATOM     63  C   UNL A   1      44.353  25.792  32.746  1.00  0.00     0.031 A 
BRANCH  50  64
ATOM     64  C   UNL A   1      44.287  24.143  26.819  1.00  0.00    -0.014 A 
ATOM     65  C   UNL A   1      45.120  24.812  25.905  1.00  0.00     0.009 A 
ATOM     66  C   UNL A   1      44.024  22.787  26.558  1.00  0.00     0.009 A 
ATOM     67  C   UNL A   1      45.583  24.191  24.739  1.00  0.00     0.001 A 
ATOM     68  C   UNL A   1      44.453  22.172  25.374  1.00  0.00     0.001 A 
ATOM     69  C   UNL A   1      45.223  22.880  24.458  1.00  0.00     0.000 A 
ENDBRANCH  50  64
BRANCH  51  70
ATOM     70  C   UNL A   1      40.489  30.369  33.208  1.00  0.00    -0.014 A 
ATOM     71  C   UNL A   1      40.158  31.738  33.141  1.00  0.00     0.009 A 
ATOM     72  C   UNL A   1      39.455  29.441  33.392  1.00  0.00     0.009 A 
ATOM     73  C   UNL A   1      38.825  32.157  33.148  1.00  0.00     0.001 A 
ATOM     74  C   UNL A   1      38.120  29.866  33.410  1.00  0.00     0.001 A 
ATOM     75  C   UNL A   1      37.805  31.216  33.254  1.00  0.00     0.000 A 
ENDBRANCH  51  70
BRANCH  63  76
ATOM     76  C   UNL A   1      44.814  24.546  33.469  1.00  0.00    -0.014 A 
ATOM     77  C   UNL A   1      46.080  24.375  34.041  1.00  0.00     0.009 A 
ATOM     78  C   UNL A   1      43.877  23.508  33.695  1.00  0.00     0.009 A 
ATOM     79  C   UNL A   1      46.404  23.216  34.766  1.00  0.00     0.001 A 
ATOM     80  C   UNL A   1      44.179  22.376  34.455  1.00  0.00     0.001 A 
ATOM     81  C   UNL A   1      45.451  22.225  34.983  1.00  0.00     0.000 A 
ENDBRANCH  63  76
ENDBRANCH  37  38
ENDBRANCH  29  32
ENDBRANCH  27  28
ENDBRANCH  26  27
ENDBRANCH   1  26
TORSDOF 14
ENDMDL
MODEL 3
REMARK VINA RESULT:     -12.1      3.157      8.327
REMARK SMILES Cc1cccc(NS(=O)(=O)c2ccc(Br)c(C(=O)NCCCCNC(=O)c3ccc(-c4c5nc(c(-c6ccccc6)c6ccc([nH]6)c(-c6ccccc6)c6nc(c(-c7ccccc7)c7ccc4[nH]7)C=C6)C=C5)cc3)c2)c1
REMARK SMILES IDX 21 1 20 2 19 3 17 4 18 5 16 7 11 8 12 9 75 10 13 11 14 12
REMARK SMILES IDX 15 13 8 14 9 15 10 16 7 17 6 19 1 20 2 21 3 22 76 23 4 24
REMARK SMILES IDX 5 25 22 26 23 27 24 28 25 29 26 31 27 32 28 33 74 34 29 35
REMARK SMILES IDX 73 36 30 37 31 38 32 39 67 40 33 41 72 42 66 43 68 44 34 45
REMARK SMILES IDX 71 46 65 47 64 48 35 50 57 51 42 52 56 53 43 54 46 55 55 56
REMARK SMILES IDX 69 57 44 58 45 59 54 61 70 62 47 63 36 64 37 65 41 66 38 67
REMARK SMILES IDX 40 68 39 69 58 70 59 71 63 72 60 73 62 74 61 75 48 76 49 77
REMARK SMILES IDX 53 78 50 79 52 80 51 81
REMARK H PARENT 19 6 7 18 24 30 68 49 46 60
REMARK Flexibility Score: inf
ROOT
ATOM      1  C   UNL A   1      33.821  28.573  27.157  1.00  0.00     0.023 C 
ENDROOT
BRANCH   1   2
ATOM      2  C   UNL A   1      33.662  28.231  25.679  1.00  0.00     0.116 C 
BRANCH   2   3
ATOM      3  N   UNL A   1      32.419  28.638  25.034  1.00  0.00    -0.352 N 
ATOM      4  C   UNL A   1      31.353  27.901  24.549  1.00  0.00     0.252 C 
ATOM      5  O   UNL A   1      30.353  28.506  24.165  1.00  0.00    -0.269 OA
ATOM      6  H   UNL A   1      32.321  29.611  24.926  1.00  0.00     0.163 HD
BRANCH   4   7
ATOM      7  C   UNL A   1      31.432  26.430  24.332  1.00  0.00     0.055 A 
ATOM      8  C   UNL A   1      30.875  24.219  25.179  1.00  0.00     0.088 A 
ATOM      9  C   UNL A   1      30.823  23.735  23.878  1.00  0.00     0.023 A 
ATOM     10  C   UNL A   1      31.071  25.592  25.399  1.00  0.00     0.037 A 
ATOM     11  C   UNL A   1      31.385  24.514  22.867  1.00  0.00     0.018 A 
ATOM     12  C   UNL A   1      31.819  25.813  23.145  1.00  0.00     0.030 A 
ATOM     13  Br  UNL A   1      33.206  26.521  22.038  1.00  0.00    -0.050 Br
BRANCH   8  14
ATOM     14  S   UNL A   1      30.947  23.122  26.579  1.00  0.00     0.261 S 
ATOM     15  O   UNL A   1      29.594  22.720  26.852  1.00  0.00    -0.201 OA
ATOM     16  O   UNL A   1      31.745  23.798  27.594  1.00  0.00    -0.201 OA
BRANCH  14  17
ATOM     17  N   UNL A   1      31.767  21.692  26.216  1.00  0.00    -0.280 N 
ATOM     18  H   UNL A   1      31.265  20.857  26.359  1.00  0.00     0.180 HD
BRANCH  17  19
ATOM     19  C   UNL A   1      33.100  21.549  25.726  1.00  0.00     0.049 A 
ATOM     20  C   UNL A   1      36.137  23.860  25.557  1.00  0.00     0.044 C 
ATOM     21  C   UNL A   1      35.277  22.634  25.466  1.00  0.00    -0.049 A 
ATOM     22  C   UNL A   1      35.824  21.409  25.077  1.00  0.00     0.003 A 
ATOM     23  C   UNL A   1      33.918  22.687  25.808  1.00  0.00     0.030 A 
ATOM     24  C   UNL A   1      34.994  20.302  24.895  1.00  0.00     0.002 A 
ATOM     25  C   UNL A   1      33.619  20.393  25.152  1.00  0.00     0.027 A 
ENDBRANCH  17  19
ENDBRANCH  14  17
ENDBRANCH   8  14
ENDBRANCH   4   7
ENDBRANCH   2   3
ENDBRANCH   1   2
BRANCH   1  26
ATOM     26  C   UNL A   1      33.248  29.901  27.621  1.00  0.00     0.023 C 
BRANCH  26  27
ATOM     27  C   UNL A   1      34.149  31.116  27.443  1.00  0.00     0.116 C 
BRANCH  27  28
ATOM     28  N   UNL A   1      34.617  31.752  28.670  1.00  0.00    -0.352 N 
ATOM     29  C   UNL A   1      35.633  31.344  29.523  1.00  0.00     0.251 C 
ATOM     30  H   UNL A   1      34.151  32.580  28.927  1.00  0.00     0.163 HD
ATOM     31  O   UNL A   1      35.906  32.004  30.521  1.00  0.00    -0.269 OA
BRANCH  29  32
ATOM     32  C   UNL A   1      36.483  30.182  29.150  1.00  0.00     0.039 A 
ATOM     33  C   UNL A   1      36.776  29.238  30.140  1.00  0.00     0.014 A 
ATOM     34  C   UNL A   1      37.168  30.153  27.939  1.00  0.00     0.014 A 
ATOM     35  C   UNL A   1      37.938  28.478  30.030  1.00  0.00     0.010 A 
ATOM     36  C   UNL A   1      38.378  29.488  27.875  1.00  0.00     0.010 A 
ATOM     37  C   UNL A   1      38.800  28.715  28.956  1.00  0.00    -0.014 A 
BRANCH  37  38
ATOM     38  C   UNL A   1      40.212  28.356  28.998  1.00  0.00     0.031 A 
ATOM     39  C   UNL A   1      40.704  27.096  28.417  1.00  0.00     0.074 A 
ATOM     40  C   UNL A   1      41.095  29.191  29.592  1.00  0.00     0.049 A 
ATOM     41  N   UNL A   1      41.676  26.411  28.925  1.00  0.00    -0.248 NA
ATOM     42  C   UNL A   1      40.119  26.486  27.228  1.00  0.00     0.031 C 
ATOM     43  C   UNL A   1      42.552  29.102  29.584  1.00  0.00     0.029 A 
ATOM     44  N   UNL A   1      40.820  30.192  30.517  1.00  0.00    -0.354 N 
ATOM     45  C   UNL A   1      42.028  25.465  27.996  1.00  0.00     0.074 A 
ATOM     46  C   UNL A   1      40.980  25.488  27.001  1.00  0.00     0.031 C 
ATOM     47  C   UNL A   1      43.035  29.822  30.611  1.00  0.00     0.029 A 
ATOM     48  C   UNL A   1      41.905  30.295  31.394  1.00  0.00     0.049 A 
ATOM     49  H   UNL A   1      40.000  30.736  30.548  1.00  0.00     0.167 HD
ATOM     50  C   UNL A   1      43.248  24.864  28.053  1.00  0.00     0.031 A 
ATOM     51  C   UNL A   1      41.742  30.097  32.734  1.00  0.00     0.031 A 
ATOM     52  C   UNL A   1      44.066  25.360  29.151  1.00  0.00     0.049 A 
ATOM     53  C   UNL A   1      42.495  28.897  33.268  1.00  0.00     0.074 A 
ATOM     54  C   UNL A   1      45.092  26.290  29.207  1.00  0.00     0.029 A 
ATOM     55  N   UNL A   1      43.670  25.131  30.462  1.00  0.00    -0.354 N 
ATOM     56  N   UNL A   1      43.034  27.976  32.519  1.00  0.00    -0.248 NA
ATOM     57  C   UNL A   1      42.652  28.609  34.693  1.00  0.00     0.031 C 
ATOM     58  C   UNL A   1      45.278  26.659  30.563  1.00  0.00     0.029 A 
ATOM     59  C   UNL A   1      44.384  25.937  31.330  1.00  0.00     0.049 A 
ATOM     60  H   UNL A   1      42.978  24.486  30.736  1.00  0.00     0.167 HD
ATOM     61  C   UNL A   1      43.565  26.987  33.307  1.00  0.00     0.074 A 
ATOM     62  C   UNL A   1      43.321  27.443  34.663  1.00  0.00     0.031 C 
ATOM     63  C   UNL A   1      44.140  25.873  32.765  1.00  0.00     0.031 A 
BRANCH  50  64
ATOM     64  C   UNL A   1      43.778  24.068  26.893  1.00  0.00    -0.014 A 
ATOM     65  C   UNL A   1      44.441  24.718  25.837  1.00  0.00     0.009 A 
ATOM     66  C   UNL A   1      43.609  22.678  26.772  1.00  0.00     0.009 A 
ATOM     67  C   UNL A   1      44.822  24.037  24.676  1.00  0.00     0.001 A 
ATOM     68  C   UNL A   1      43.954  21.998  25.596  1.00  0.00     0.001 A 
ATOM     69  C   UNL A   1      44.550  22.681  24.543  1.00  0.00     0.000 A 
ENDBRANCH  50  64
BRANCH  51  70
ATOM     70  C   UNL A   1      40.431  30.574  33.256  1.00  0.00    -0.014 A 
ATOM     71  C   UNL A   1      40.197  31.963  33.301  1.00  0.00     0.009 A 
ATOM     72  C   UNL A   1      39.336  29.708  33.374  1.00  0.00     0.009 A 
ATOM     73  C   UNL A   1      38.896  32.472  33.351  1.00  0.00     0.001 A 
ATOM     74  C   UNL A   1      38.034  30.222  33.436  1.00  0.00     0.001 A 
ATOM     75  C   UNL A   1      37.813  31.599  33.390  1.00  0.00     0.000 A 
ENDBRANCH  51  70
BRANCH  63  76
ATOM     76  C   UNL A   1      44.595  24.634  33.502  1.00  0.00    -0.014 A 
ATOM     77  C   UNL A   1      43.783  23.531  33.793  1.00  0.00     0.009 A 
ATOM     78  C   UNL A   1      45.967  24.508  33.831  1.00  0.00     0.009 A 
ATOM     79  C   UNL A   1      44.305  22.383  34.412  1.00  0.00     0.001 A 
ATOM     80  C   UNL A   1      46.499  23.350  34.403  1.00  0.00     0.001 A 
ATOM     81  C   UNL A   1      45.662  22.288  34.705  1.00  0.00     0.000 A 
ENDBRANCH  63  76
ENDBRANCH  37  38
ENDBRANCH  29  32
ENDBRANCH  27  28
ENDBRANCH  26  27
ENDBRANCH   1  26
TORSDOF 14
ENDMDL
