MODEL 1
REMARK VINA RESULT:     -12.4      0.000      0.000
REMARK SMILES Cc1cccc(-c2ncc([C@@H]3[NH2+][C@H](C(=O)NCCCCNC(=O)c4ccc(-c5c6nc(c(-c7ccccc7)c7ccc([nH]7)c(-c7ccccc7)c7nc(c(-c8ccccc8)c8ccc5[nH]8)C=C7)C=C6)cc4)C(C)(C)S3)s2)c1
REMARK SMILES IDX 18 1 17 2 16 3 14 4 15 5 13 7 11 8 12 9 75 10 72 13 73 14
REMARK SMILES IDX 74 15 10 16 7 17 8 18 76 19 9 20 6 21 1 22 2 23 3 24 77 25
REMARK SMILES IDX 4 26 5 27 19 28 20 29 21 30 22 31 23 33 24 34 25 35 71 36
REMARK SMILES IDX 26 37 70 38 27 39 28 40 29 41 64 42 30 43 69 44 63 45 65 46
REMARK SMILES IDX 31 47 68 48 62 49 61 50 32 52 54 53 39 54 53 55 40 56 43 57
REMARK SMILES IDX 52 58 66 59 41 60 42 61 51 63 67 64 44 65 33 66 34 67 38 68
REMARK SMILES IDX 35 69 37 70 36 71 55 72 56 73 60 74 57 75 59 76 58 77 45 78
REMARK SMILES IDX 46 79 50 80 47 81 49 82 48 83
REMARK H PARENT 16 6 12 11 12 12 21 32 65 51 43 62
REMARK Flexibility Score: inf
ROOT
ATOM      1  C   UNL A   1      34.058  28.694  26.922  1.00  0.00     0.023 C 
ENDROOT
BRANCH   1   2
ATOM      2  C   UNL A   1      33.374  29.369  25.730  1.00  0.00     0.116 C 
BRANCH   2   3
ATOM      3  N   UNL A   1      33.983  29.000  24.477  1.00  0.00    -0.351 N 
ATOM      4  C   UNL A   1      33.544  28.757  23.229  1.00  0.00     0.279 C 
ATOM      5  O   UNL A   1      34.489  28.703  22.420  1.00  0.00    -0.268 OA
ATOM      6  H   UNL A   1      34.960  28.902  24.554  1.00  0.00     0.163 HD
BRANCH   4   7
ATOM      7  C   UNL A   1      32.064  28.647  22.689  1.00  0.00     0.289 C 
ATOM      8  C   UNL A   1      31.461  26.377  23.319  1.00  0.00     0.286 C 
ATOM      9  N   UNL A   1      31.947  27.212  22.213  1.00  0.00    -0.319 N 
ATOM     10  S   UNL A   1      30.400  27.413  24.365  1.00  0.00    -0.080 SA
ATOM     11  H   UNL A   1      31.290  27.163  21.434  1.00  0.00     0.348 HD
ATOM     12  H   UNL A   1      32.859  26.877  21.905  1.00  0.00     0.348 HD
ATOM     13  C   UNL A   1      30.700  28.919  23.387  1.00  0.00     0.077 C 
ATOM     14  C   UNL A   1      29.566  29.011  22.326  1.00  0.00     0.030 C 
ATOM     15  C   UNL A   1      30.495  30.143  24.265  1.00  0.00     0.030 C 
BRANCH   8  16
ATOM     16  C   UNL A   1      32.549  25.706  24.106  1.00  0.00     0.093 A 
ATOM     17  C   UNL A   1      34.499  24.404  24.827  1.00  0.00     0.123 A 
ATOM     18  N   UNL A   1      33.812  24.812  25.875  1.00  0.00    -0.244 NA
ATOM     19  S   UNL A   1      33.847  24.902  23.308  1.00  0.00    -0.112 S 
ATOM     20  C   UNL A   1      32.725  25.559  25.470  1.00  0.00     0.134 A 
BRANCH  17  21
ATOM     21  C   UNL A   1      35.681  23.526  24.923  1.00  0.00     0.011 A 
ATOM     22  C   UNL A   1      39.056  23.619  26.729  1.00  0.00     0.044 C 
ATOM     23  C   UNL A   1      37.917  23.158  25.869  1.00  0.00    -0.050 A 
ATOM     24  C   UNL A   1      37.989  21.930  25.206  1.00  0.00     0.003 A 
ATOM     25  C   UNL A   1      36.766  23.946  25.716  1.00  0.00     0.014 A 
ATOM     26  C   UNL A   1      36.931  21.502  24.405  1.00  0.00     0.001 A 
ATOM     27  C   UNL A   1      35.786  22.293  24.263  1.00  0.00     0.011 A 
ENDBRANCH  17  21
ENDBRANCH   8  16
ENDBRANCH   4   7
ENDBRANCH   2   3
ENDBRANCH   1   2
BRANCH   1  28
ATOM     28  C   UNL A   1      34.583  29.621  28.012  1.00  0.00     0.023 C 
BRANCH  28  29
ATOM     29  C   UNL A   1      34.986  30.999  27.524  1.00  0.00     0.116 C 
BRANCH  29  30
ATOM     30  N   UNL A   1      34.041  32.071  27.813  1.00  0.00    -0.352 N 
ATOM     31  C   UNL A   1      34.085  33.026  28.825  1.00  0.00     0.251 C 
ATOM     32  H   UNL A   1      33.263  32.128  27.211  1.00  0.00     0.163 HD
ATOM     33  O   UNL A   1      33.186  33.836  28.951  1.00  0.00    -0.269 OA
BRANCH  31  34
ATOM     34  C   UNL A   1      35.319  33.146  29.651  1.00  0.00     0.039 A 
ATOM     35  C   UNL A   1      36.391  33.863  29.109  1.00  0.00     0.014 A 
ATOM     36  C   UNL A   1      35.515  32.329  30.758  1.00  0.00     0.014 A 
ATOM     37  C   UNL A   1      37.687  33.517  29.475  1.00  0.00     0.010 A 
ATOM     38  C   UNL A   1      36.794  31.881  31.016  1.00  0.00     0.010 A 
ATOM     39  C   UNL A   1      37.875  32.422  30.317  1.00  0.00    -0.014 A 
BRANCH  39  40
ATOM     40  C   UNL A   1      39.133  31.693  30.406  1.00  0.00     0.031 A 
ATOM     41  C   UNL A   1      39.284  30.382  29.749  1.00  0.00     0.074 A 
ATOM     42  C   UNL A   1      40.187  32.231  31.060  1.00  0.00     0.049 A 
ATOM     43  N   UNL A   1      40.147  29.496  30.116  1.00  0.00    -0.248 NA
ATOM     44  C   UNL A   1      38.410  29.920  28.675  1.00  0.00     0.031 C 
ATOM     45  C   UNL A   1      41.580  31.790  31.023  1.00  0.00     0.029 A 
ATOM     46  N   UNL A   1      40.155  33.171  32.084  1.00  0.00    -0.354 N 
ATOM     47  C   UNL A   1      40.174  28.529  29.144  1.00  0.00     0.074 A 
ATOM     48  C   UNL A   1      38.979  28.752  28.368  1.00  0.00     0.031 C 
ATOM     49  C   UNL A   1      42.215  32.260  32.110  1.00  0.00     0.029 A 
ATOM     50  C   UNL A   1      41.219  32.893  32.956  1.00  0.00     0.049 A 
ATOM     51  H   UNL A   1      39.502  33.901  32.181  1.00  0.00     0.167 HD
ATOM     52  C   UNL A   1      41.290  27.759  29.011  1.00  0.00     0.031 A 
ATOM     53  C   UNL A   1      40.989  32.569  34.262  1.00  0.00     0.031 A 
ATOM     54  C   UNL A   1      42.215  27.940  30.134  1.00  0.00     0.049 A 
ATOM     55  C   UNL A   1      41.452  31.178  34.650  1.00  0.00     0.074 A 
ATOM     56  C   UNL A   1      43.464  28.523  30.265  1.00  0.00     0.029 A 
ATOM     57  N   UNL A   1      41.765  27.695  31.427  1.00  0.00    -0.354 N 
ATOM     58  N   UNL A   1      41.839  30.264  33.804  1.00  0.00    -0.248 NA
ATOM     59  C   UNL A   1      41.454  30.692  36.026  1.00  0.00     0.031 C 
ATOM     60  C   UNL A   1      43.746  28.659  31.653  1.00  0.00     0.029 A 
ATOM     61  C   UNL A   1      42.681  28.132  32.363  1.00  0.00     0.049 A 
ATOM     62  H   UNL A   1      40.906  27.267  31.647  1.00  0.00     0.167 HD
ATOM     63  C   UNL A   1      42.082  29.085  34.468  1.00  0.00     0.074 A 
ATOM     64  C   UNL A   1      41.857  29.419  35.863  1.00  0.00     0.031 C 
ATOM     65  C   UNL A   1      42.410  27.944  33.788  1.00  0.00     0.031 A 
BRANCH  52  66
ATOM     66  C   UNL A   1      41.663  27.018  27.742  1.00  0.00    -0.014 A 
ATOM     67  C   UNL A   1      42.006  25.655  27.812  1.00  0.00     0.009 A 
ATOM     68  C   UNL A   1      41.801  27.608  26.471  1.00  0.00     0.009 A 
ATOM     69  C   UNL A   1      42.499  24.949  26.704  1.00  0.00     0.001 A 
ATOM     70  C   UNL A   1      42.276  26.908  25.355  1.00  0.00     0.001 A 
ATOM     71  C   UNL A   1      42.639  25.578  25.474  1.00  0.00     0.000 A 
ENDBRANCH  52  66
BRANCH  53  72
ATOM     72  C   UNL A   1      39.801  33.257  34.840  1.00  0.00    -0.014 A 
ATOM     73  C   UNL A   1      38.525  32.720  34.575  1.00  0.00     0.009 A 
ATOM     74  C   UNL A   1      39.939  34.159  35.905  1.00  0.00     0.009 A 
ATOM     75  C   UNL A   1      37.447  32.978  35.426  1.00  0.00     0.001 A 
ATOM     76  C   UNL A   1      38.851  34.426  36.747  1.00  0.00     0.001 A 
ATOM     77  C   UNL A   1      37.620  33.807  36.531  1.00  0.00     0.000 A 
ENDBRANCH  53  72
BRANCH  65  78
ATOM     78  C   UNL A   1      42.530  26.530  34.341  1.00  0.00    -0.014 A 
ATOM     79  C   UNL A   1      41.584  25.877  35.137  1.00  0.00     0.009 A 
ATOM     80  C   UNL A   1      43.662  25.755  33.978  1.00  0.00     0.009 A 
ATOM     81  C   UNL A   1      41.756  24.545  35.552  1.00  0.00     0.001 A 
ATOM     82  C   UNL A   1      43.824  24.419  34.356  1.00  0.00     0.001 A 
ATOM     83  C   UNL A   1      42.868  23.813  35.152  1.00  0.00     0.000 A 
ENDBRANCH  65  78
ENDBRANCH  39  40
ENDBRANCH  31  34
ENDBRANCH  29  30
ENDBRANCH  28  29
ENDBRANCH   1  28
TORSDOF 13
ENDMDL
MODEL 2
REMARK VINA RESULT:     -12.4      1.646      4.500
REMARK SMILES Cc1cccc(-c2ncc([C@@H]3[NH2+][C@H](C(=O)NCCCCNC(=O)c4ccc(-c5c6nc(c(-c7ccccc7)c7ccc([nH]7)c(-c7ccccc7)c7nc(c(-c8ccccc8)c8ccc5[nH]8)C=C7)C=C6)cc4)C(C)(C)S3)s2)c1
REMARK SMILES IDX 18 1 17 2 16 3 14 4 15 5 13 7 11 8 12 9 75 10 72 13 73 14
REMARK SMILES IDX 74 15 10 16 7 17 8 18 76 19 9 20 6 21 1 22 2 23 3 24 77 25
REMARK SMILES IDX 4 26 5 27 19 28 20 29 21 30 22 31 23 33 24 34 25 35 71 36
REMARK SMILES IDX 26 37 70 38 27 39 28 40 29 41 64 42 30 43 69 44 63 45 65 46
REMARK SMILES IDX 31 47 68 48 62 49 61 50 32 52 54 53 39 54 53 55 40 56 43 57
REMARK SMILES IDX 52 58 66 59 41 60 42 61 51 63 67 64 44 65 33 66 34 67 38 68
REMARK SMILES IDX 35 69 37 70 36 71 55 72 56 73 60 74 57 75 59 76 58 77 45 78
REMARK SMILES IDX 46 79 50 80 47 81 49 82 48 83
REMARK H PARENT 16 6 12 11 12 12 21 32 65 51 43 62
REMARK Flexibility Score: inf
ROOT
ATOM      1  C   UNL A   1      33.257  28.088  27.027  1.00  0.00     0.023 C 
ENDROOT
BRANCH   1   2
ATOM      2  C   UNL A   1      32.393  27.578  25.870  1.00  0.00     0.116 C 
BRANCH   2   3
ATOM      3  N   UNL A   1      31.447  26.580  26.301  1.00  0.00    -0.351 N 
ATOM      4  C   UNL A   1      31.298  25.255  26.122  1.00  0.00     0.279 C 
ATOM      5  O   UNL A   1      30.446  24.787  26.898  1.00  0.00    -0.268 OA
ATOM      6  H   UNL A   1      30.736  26.962  26.865  1.00  0.00     0.163 HD
BRANCH   4   7
ATOM      7  C   UNL A   1      32.101  24.272  25.181  1.00  0.00     0.289 C 
ATOM      8  C   UNL A   1      31.342  24.950  22.972  1.00  0.00     0.286 C 
ATOM      9  N   UNL A   1      31.139  23.972  24.048  1.00  0.00    -0.319 N 
ATOM     10  S   UNL A   1      33.088  25.445  23.000  1.00  0.00    -0.080 SA
ATOM     11  H   UNL A   1      31.314  23.032  23.692  1.00  0.00     0.348 HD
ATOM     12  H   UNL A   1      30.180  24.029  24.389  1.00  0.00     0.348 HD
ATOM     13  C   UNL A   1      33.475  24.437  24.467  1.00  0.00     0.077 C 
ATOM     14  C   UNL A   1      33.981  23.058  23.957  1.00  0.00     0.030 C 
ATOM     15  C   UNL A   1      34.672  25.035  25.190  1.00  0.00     0.030 C 
BRANCH   8  16
ATOM     16  C   UNL A   1      30.419  26.133  23.036  1.00  0.00     0.093 A 
ATOM     17  C   UNL A   1      29.424  28.373  22.950  1.00  0.00     0.123 A 
ATOM     18  N   UNL A   1      28.588  27.525  23.517  1.00  0.00    -0.244 NA
ATOM     19  S   UNL A   1      30.917  27.672  22.444  1.00  0.00    -0.112 S 
ATOM     20  C   UNL A   1      29.142  26.262  23.550  1.00  0.00     0.134 A 
BRANCH  17  21
ATOM     21  C   UNL A   1      29.153  29.819  22.826  1.00  0.00     0.011 A 
ATOM     22  C   UNL A   1      27.835  32.161  20.100  1.00  0.00     0.044 C 
ATOM     23  C   UNL A   1      28.368  31.665  21.411  1.00  0.00    -0.050 A 
ATOM     24  C   UNL A   1      28.576  32.555  22.468  1.00  0.00     0.003 A 
ATOM     25  C   UNL A   1      28.663  30.307  21.599  1.00  0.00     0.014 A 
ATOM     26  C   UNL A   1      29.074  32.095  23.686  1.00  0.00     0.001 A 
ATOM     27  C   UNL A   1      29.361  30.738  23.865  1.00  0.00     0.011 A 
ENDBRANCH  17  21
ENDBRANCH   8  16
ENDBRANCH   4   7
ENDBRANCH   2   3
ENDBRANCH   1   2
BRANCH   1  28
ATOM     28  C   UNL A   1      34.473  28.923  26.645  1.00  0.00     0.023 C 
BRANCH  28  29
ATOM     29  C   UNL A   1      34.800  30.037  27.620  1.00  0.00     0.116 C 
BRANCH  29  30
ATOM     30  N   UNL A   1      33.977  31.236  27.508  1.00  0.00    -0.352 N 
ATOM     31  C   UNL A   1      34.094  32.445  28.189  1.00  0.00     0.251 C 
ATOM     32  H   UNL A   1      33.235  31.183  26.862  1.00  0.00     0.163 HD
ATOM     33  O   UNL A   1      33.291  33.339  28.001  1.00  0.00    -0.269 OA
BRANCH  31  34
ATOM     34  C   UNL A   1      35.301  32.686  29.027  1.00  0.00     0.039 A 
ATOM     35  C   UNL A   1      36.361  33.386  28.444  1.00  0.00     0.014 A 
ATOM     36  C   UNL A   1      35.494  31.986  30.212  1.00  0.00     0.014 A 
ATOM     37  C   UNL A   1      37.658  33.124  28.872  1.00  0.00     0.010 A 
ATOM     38  C   UNL A   1      36.780  31.611  30.541  1.00  0.00     0.010 A 
ATOM     39  C   UNL A   1      37.861  32.122  29.818  1.00  0.00    -0.014 A 
BRANCH  39  40
ATOM     40  C   UNL A   1      39.140  31.450  30.006  1.00  0.00     0.031 A 
ATOM     41  C   UNL A   1      39.385  30.128  29.401  1.00  0.00     0.074 A 
ATOM     42  C   UNL A   1      40.129  32.051  30.704  1.00  0.00     0.049 A 
ATOM     43  N   UNL A   1      40.259  29.291  29.848  1.00  0.00    -0.248 NA
ATOM     44  C   UNL A   1      38.598  29.598  28.292  1.00  0.00     0.031 C 
ATOM     45  C   UNL A   1      41.539  31.670  30.766  1.00  0.00     0.029 A 
ATOM     46  N   UNL A   1      39.996  33.019  31.695  1.00  0.00    -0.354 N 
ATOM     47  C   UNL A   1      40.385  28.298  28.910  1.00  0.00     0.074 A 
ATOM     48  C   UNL A   1      39.232  28.446  28.057  1.00  0.00     0.031 C 
ATOM     49  C   UNL A   1      42.086  32.198  31.873  1.00  0.00     0.029 A 
ATOM     50  C   UNL A   1      41.015  32.812  32.637  1.00  0.00     0.049 A 
ATOM     51  H   UNL A   1      39.309  33.723  31.729  1.00  0.00     0.167 HD
ATOM     52  C   UNL A   1      41.538  27.573  28.869  1.00  0.00     0.031 A 
ATOM     53  C   UNL A   1      40.719  32.518  33.937  1.00  0.00     0.031 A 
ATOM     54  C   UNL A   1      42.385  27.826  30.038  1.00  0.00     0.049 A 
ATOM     55  C   UNL A   1      41.214  31.160  34.396  1.00  0.00     0.074 A 
ATOM     56  C   UNL A   1      43.598  28.466  30.226  1.00  0.00     0.029 A 
ATOM     57  N   UNL A   1      41.866  27.601  31.310  1.00  0.00    -0.354 N 
ATOM     58  N   UNL A   1      41.689  30.239  33.604  1.00  0.00    -0.248 NA
ATOM     59  C   UNL A   1      41.152  30.715  35.784  1.00  0.00     0.031 C 
ATOM     60  C   UNL A   1      43.789  28.654  31.624  1.00  0.00     0.029 A 
ATOM     61  C   UNL A   1      42.705  28.103  32.284  1.00  0.00     0.049 A 
ATOM     62  H   UNL A   1      41.014  27.143  31.491  1.00  0.00     0.167 HD
ATOM     63  C   UNL A   1      41.939  29.091  34.318  1.00  0.00     0.074 A 
ATOM     64  C   UNL A   1      41.615  29.456  35.686  1.00  0.00     0.031 C 
ATOM     65  C   UNL A   1      42.355  27.946  33.696  1.00  0.00     0.031 A 
BRANCH  52  66
ATOM     66  C   UNL A   1      42.018  26.812  27.648  1.00  0.00    -0.014 A 
ATOM     67  C   UNL A   1      41.773  25.429  27.555  1.00  0.00     0.009 A 
ATOM     68  C   UNL A   1      42.800  27.355  26.612  1.00  0.00     0.009 A 
ATOM     69  C   UNL A   1      42.313  24.641  26.527  1.00  0.00     0.001 A 
ATOM     70  C   UNL A   1      43.331  26.580  25.572  1.00  0.00     0.001 A 
ATOM     71  C   UNL A   1      43.098  25.217  25.537  1.00  0.00     0.000 A 
ENDBRANCH  52  66
BRANCH  53  72
ATOM     72  C   UNL A   1      39.470  33.171  34.420  1.00  0.00    -0.014 A 
ATOM     73  C   UNL A   1      38.234  32.641  33.996  1.00  0.00     0.009 A 
ATOM     74  C   UNL A   1      39.488  34.020  35.536  1.00  0.00     0.009 A 
ATOM     75  C   UNL A   1      37.071  32.852  34.742  1.00  0.00     0.001 A 
ATOM     76  C   UNL A   1      38.315  34.239  36.272  1.00  0.00     0.001 A 
ATOM     77  C   UNL A   1      37.120  33.626  35.898  1.00  0.00     0.000 A 
ENDBRANCH  53  72
BRANCH  65  78
ATOM     78  C   UNL A   1      42.499  26.555  34.300  1.00  0.00    -0.014 A 
ATOM     79  C   UNL A   1      41.557  25.910  35.108  1.00  0.00     0.009 A 
ATOM     80  C   UNL A   1      43.651  25.794  33.978  1.00  0.00     0.009 A 
ATOM     81  C   UNL A   1      41.753  24.596  35.571  1.00  0.00     0.001 A 
ATOM     82  C   UNL A   1      43.838  24.476  34.405  1.00  0.00     0.001 A 
ATOM     83  C   UNL A   1      42.886  23.876  35.211  1.00  0.00     0.000 A 
ENDBRANCH  65  78
ENDBRANCH  39  40
ENDBRANCH  31  34
ENDBRANCH  29  30
ENDBRANCH  28  29
ENDBRANCH   1  28
TORSDOF 13
ENDMDL
MODEL 3
REMARK VINA RESULT:     -12.2      3.910      9.203
REMARK SMILES Cc1cccc(-c2ncc([C@@H]3[NH2+][C@H](C(=O)NCCCCNC(=O)c4ccc(-c5c6nc(c(-c7ccccc7)c7ccc([nH]7)c(-c7ccccc7)c7nc(c(-c8ccccc8)c8ccc5[nH]8)C=C7)C=C6)cc4)C(C)(C)S3)s2)c1
REMARK SMILES IDX 18 1 17 2 16 3 14 4 15 5 13 7 11 8 12 9 75 10 72 13 73 14
REMARK SMILES IDX 74 15 10 16 7 17 8 18 76 19 9 20 6 21 1 22 2 23 3 24 77 25
REMARK SMILES IDX 4 26 5 27 19 28 20 29 21 30 22 31 23 33 24 34 25 35 71 36
REMARK SMILES IDX 26 37 70 38 27 39 28 40 29 41 64 42 30 43 69 44 63 45 65 46
REMARK SMILES IDX 31 47 68 48 62 49 61 50 32 52 54 53 39 54 53 55 40 56 43 57
REMARK SMILES IDX 52 58 66 59 41 60 42 61 51 63 67 64 44 65 33 66 34 67 38 68
REMARK SMILES IDX 35 69 37 70 36 71 55 72 56 73 60 74 57 75 59 76 58 77 45 78
REMARK SMILES IDX 46 79 50 80 47 81 49 82 48 83
REMARK H PARENT 16 6 12 11 12 12 21 32 65 51 43 62
REMARK Flexibility Score: inf
ROOT
ATOM      1  C   UNL A   1      37.825  21.071  25.079  1.00  0.00     0.023 C 
ENDROOT
BRANCH   1   2
ATOM      2  C   UNL A   1      36.342  21.258  24.749  1.00  0.00     0.116 C 
BRANCH   2   3
ATOM      3  N   UNL A   1      35.586  21.705  25.892  1.00  0.00    -0.351 N 
ATOM      4  C   UNL A   1      34.460  21.312  26.513  1.00  0.00     0.279 C 
ATOM      5  O   UNL A   1      34.331  21.875  27.616  1.00  0.00    -0.268 OA
ATOM      6  H   UNL A   1      35.995  22.490  26.324  1.00  0.00     0.163 HD
BRANCH   4   7
ATOM      7  C   UNL A   1      33.408  20.213  26.085  1.00  0.00     0.289 C 
ATOM      8  C   UNL A   1      32.075  21.403  24.435  1.00  0.00     0.286 C 
ATOM      9  N   UNL A   1      32.131  20.994  25.845  1.00  0.00    -0.319 N 
ATOM     10  S   UNL A   1      32.942  20.140  23.462  1.00  0.00    -0.080 SA
ATOM     11  H   UNL A   1      31.325  20.407  26.062  1.00  0.00     0.348 HD
ATOM     12  H   UNL A   1      32.116  21.820  26.443  1.00  0.00     0.348 HD
ATOM     13  C   UNL A   1      33.431  19.174  24.926  1.00  0.00     0.077 C 
ATOM     14  C   UNL A   1      32.333  18.096  25.153  1.00  0.00     0.030 C 
ATOM     15  C   UNL A   1      34.685  18.375  24.610  1.00  0.00     0.030 C 
BRANCH   8  16
ATOM     16  C   UNL A   1      32.607  22.782  24.174  1.00  0.00     0.093 A 
ATOM     17  C   UNL A   1      33.082  25.188  24.209  1.00  0.00     0.123 A 
ATOM     18  N   UNL A   1      33.659  24.625  23.166  1.00  0.00    -0.244 NA
ATOM     19  S   UNL A   1      32.200  24.095  25.213  1.00  0.00    -0.112 S 
ATOM     20  C   UNL A   1      33.406  23.270  23.156  1.00  0.00     0.134 A 
BRANCH  17  21
ATOM     21  C   UNL A   1      33.108  26.642  24.465  1.00  0.00     0.011 A 
ATOM     22  C   UNL A   1      32.268  28.947  27.405  1.00  0.00     0.044 C 
ATOM     23  C   UNL A   1      32.704  28.473  26.050  1.00  0.00    -0.050 A 
ATOM     24  C   UNL A   1      33.132  29.392  25.088  1.00  0.00     0.003 A 
ATOM     25  C   UNL A   1      32.692  27.108  25.727  1.00  0.00     0.014 A 
ATOM     26  C   UNL A   1      33.534  28.952  23.827  1.00  0.00     0.001 A 
ATOM     27  C   UNL A   1      33.523  27.588  23.517  1.00  0.00     0.011 A 
ENDBRANCH  17  21
ENDBRANCH   8  16
ENDBRANCH   4   7
ENDBRANCH   2   3
ENDBRANCH   1   2
BRANCH   1  28
ATOM     28  C   UNL A   1      38.515  22.237  25.776  1.00  0.00     0.023 C 
BRANCH  28  29
ATOM     29  C   UNL A   1      39.723  21.846  26.606  1.00  0.00     0.116 C 
BRANCH  29  30
ATOM     30  N   UNL A   1      40.557  20.790  26.045  1.00  0.00    -0.352 N 
ATOM     31  C   UNL A   1      41.946  20.688  26.029  1.00  0.00     0.251 C 
ATOM     32  H   UNL A   1      40.073  20.047  25.617  1.00  0.00     0.163 HD
ATOM     33  O   UNL A   1      42.490  19.749  25.479  1.00  0.00    -0.269 OA
BRANCH  31  34
ATOM     34  C   UNL A   1      42.749  21.655  26.828  1.00  0.00     0.039 A 
ATOM     35  C   UNL A   1      42.594  21.630  28.217  1.00  0.00     0.014 A 
ATOM     36  C   UNL A   1      43.377  22.733  26.216  1.00  0.00     0.014 A 
ATOM     37  C   UNL A   1      42.780  22.805  28.938  1.00  0.00     0.010 A 
ATOM     38  C   UNL A   1      43.420  23.932  26.897  1.00  0.00     0.010 A 
ATOM     39  C   UNL A   1      43.046  23.982  28.242  1.00  0.00    -0.014 A 
BRANCH  39  40
ATOM     40  C   UNL A   1      42.812  25.307  28.799  1.00  0.00     0.031 A 
ATOM     41  C   UNL A   1      41.663  26.114  28.348  1.00  0.00     0.074 A 
ATOM     42  C   UNL A   1      43.623  25.793  29.765  1.00  0.00     0.049 A 
ATOM     43  N   UNL A   1      41.619  27.401  28.436  1.00  0.00    -0.248 NA
ATOM     44  C   UNL A   1      40.501  25.545  27.674  1.00  0.00     0.031 C 
ATOM     45  C   UNL A   1      43.395  26.954  30.623  1.00  0.00     0.029 A 
ATOM     46  N   UNL A   1      44.948  25.446  30.009  1.00  0.00    -0.354 N 
ATOM     47  C   UNL A   1      40.330  27.781  28.160  1.00  0.00     0.074 A 
ATOM     48  C   UNL A   1      39.728  26.626  27.542  1.00  0.00     0.031 C 
ATOM     49  C   UNL A   1      44.574  27.374  31.111  1.00  0.00     0.029 A 
ATOM     50  C   UNL A   1      45.615  26.592  30.469  1.00  0.00     0.049 A 
ATOM     51  H   UNL A   1      45.347  24.555  29.881  1.00  0.00     0.167 HD
ATOM     52  C   UNL A   1      39.878  28.974  28.640  1.00  0.00     0.031 A 
ATOM     53  C   UNL A   1      46.666  27.117  29.773  1.00  0.00     0.031 A 
ATOM     54  C   UNL A   1      40.966  29.791  29.185  1.00  0.00     0.049 A 
ATOM     55  C   UNL A   1      46.431  28.524  29.258  1.00  0.00     0.074 A 
ATOM     56  C   UNL A   1      41.322  30.190  30.462  1.00  0.00     0.029 A 
ATOM     57  N   UNL A   1      42.041  30.120  28.364  1.00  0.00    -0.354 N 
ATOM     58  N   UNL A   1      45.277  29.131  29.263  1.00  0.00    -0.248 NA
ATOM     59  C   UNL A   1      47.475  29.332  28.637  1.00  0.00     0.031 C 
ATOM     60  C   UNL A   1      42.636  30.732  30.408  1.00  0.00     0.029 A 
ATOM     61  C   UNL A   1      43.067  30.687  29.094  1.00  0.00     0.049 A 
ATOM     62  H   UNL A   1      42.067  29.969  27.392  1.00  0.00     0.167 HD
ATOM     63  C   UNL A   1      45.382  30.343  28.623  1.00  0.00     0.074 A 
ATOM     64  C   UNL A   1      46.790  30.432  28.279  1.00  0.00     0.031 C 
ATOM     65  C   UNL A   1      44.283  31.131  28.413  1.00  0.00     0.031 A 
BRANCH  52  66
ATOM     66  C   UNL A   1      38.412  29.307  28.839  1.00  0.00    -0.014 A 
ATOM     67  C   UNL A   1      37.654  29.770  27.748  1.00  0.00     0.009 A 
ATOM     68  C   UNL A   1      37.741  29.294  30.076  1.00  0.00     0.009 A 
ATOM     69  C   UNL A   1      36.337  30.232  27.894  1.00  0.00     0.001 A 
ATOM     70  C   UNL A   1      36.421  29.738  30.229  1.00  0.00     0.001 A 
ATOM     71  C   UNL A   1      35.721  30.221  29.138  1.00  0.00     0.000 A 
ENDBRANCH  52  66
BRANCH  53  72
ATOM     72  C   UNL A   1      47.488  26.088  29.078  1.00  0.00    -0.014 A 
ATOM     73  C   UNL A   1      47.229  25.837  27.715  1.00  0.00     0.009 A 
ATOM     74  C   UNL A   1      48.707  25.655  29.619  1.00  0.00     0.009 A 
ATOM     75  C   UNL A   1      48.212  25.286  26.889  1.00  0.00     0.001 A 
ATOM     76  C   UNL A   1      49.684  25.089  28.788  1.00  0.00     0.001 A 
ATOM     77  C   UNL A   1      49.451  24.941  27.421  1.00  0.00     0.000 A 
ENDBRANCH  53  72
BRANCH  65  78
ATOM     78  C   UNL A   1      44.191  32.397  27.572  1.00  0.00    -0.014 A 
ATOM     79  C   UNL A   1      44.175  33.708  28.060  1.00  0.00     0.009 A 
ATOM     80  C   UNL A   1      44.187  32.272  26.159  1.00  0.00     0.009 A 
ATOM     81  C   UNL A   1      44.148  34.820  27.200  1.00  0.00     0.001 A 
ATOM     82  C   UNL A   1      44.196  33.372  25.296  1.00  0.00     0.001 A 
ATOM     83  C   UNL A   1      44.171  34.653  25.820  1.00  0.00     0.000 A 
ENDBRANCH  65  78
ENDBRANCH  39  40
ENDBRANCH  31  34
ENDBRANCH  29  30
ENDBRANCH  28  29
ENDBRANCH   1  28
TORSDOF 13
ENDMDL
