MODEL 1
REMARK VINA RESULT:     -11.2      0.000      0.000
REMARK SMILES C[C@@H]1[NH2+]CC[C@H]1C(=O)NCc1cccc(C(=O)NCCCCNC(=O)c2ccc(-c3c4nc(c(-c5ccccc5)c5ccc([nH]5)c(-c5ccccc5)c5nc(c(-c6ccccc6)c6ccc3[nH]6)C=C5)C=C4)cc2)c1
REMARK SMILES IDX 20 1 19 2 18 3 16 4 17 5 15 7 11 8 12 9 74 10 13 11 14 12
REMARK SMILES IDX 10 13 9 14 7 15 8 16 6 18 1 19 2 20 3 21 4 22 5 25 21 26
REMARK SMILES IDX 22 27 23 28 24 29 25 31 26 32 27 33 73 34 28 35 72 36 29 37
REMARK SMILES IDX 30 38 31 39 66 40 32 41 71 42 65 43 67 44 33 45 70 46 64 47
REMARK SMILES IDX 63 48 34 50 56 51 41 52 55 53 42 54 45 55 54 56 68 57 43 58
REMARK SMILES IDX 44 59 53 61 69 62 46 63 35 64 36 65 40 66 37 67 39 68 38 69
REMARK SMILES IDX 57 70 58 71 62 72 59 73 61 74 60 75 47 76 48 77 52 78 49 79
REMARK SMILES IDX 51 80 50 81
REMARK H PARENT 18 6 9 17 3 23 3 24 23 30 67 49 45 60
REMARK Flexibility Score: inf
ROOT
ATOM      1  C   UNL A   1      31.437  30.637  26.682  1.00  0.00     0.023 C 
ENDROOT
BRANCH   1   2
ATOM      2  C   UNL A   1      32.795  29.953  26.680  1.00  0.00     0.116 C 
BRANCH   2   3
ATOM      3  N   UNL A   1      33.402  29.751  25.373  1.00  0.00    -0.352 N 
ATOM      4  C   UNL A   1      32.900  29.198  24.208  1.00  0.00     0.251 C 
ATOM      5  O   UNL A   1      33.618  29.171  23.211  1.00  0.00    -0.269 OA
ATOM      6  H   UNL A   1      34.333  30.063  25.305  1.00  0.00     0.163 HD
BRANCH   4   7
ATOM      7  C   UNL A   1      31.559  28.548  24.156  1.00  0.00     0.040 A 
ATOM      8  C   UNL A   1      30.259  26.504  24.230  1.00  0.00    -0.028 A 
ATOM      9  C   UNL A   1      29.233  27.141  23.522  1.00  0.00     0.005 A 
ATOM     10  C   UNL A   1      31.331  27.280  24.685  1.00  0.00     0.019 A 
ATOM     11  C   UNL A   1      29.342  28.491  23.186  1.00  0.00     0.001 A 
ATOM     12  C   UNL A   1      30.527  29.179  23.455  1.00  0.00     0.014 A 
BRANCH   8  13
ATOM     13  C   UNL A   1      30.284  24.995  24.319  1.00  0.00     0.151 C 
BRANCH  13  14
ATOM     14  N   UNL A   1      30.259  24.490  25.679  1.00  0.00    -0.352 N 
ATOM     15  C   UNL A   1      31.094  23.649  26.340  1.00  0.00     0.229 C 
ATOM     16  O   UNL A   1      30.739  23.270  27.459  1.00  0.00    -0.275 OA
ATOM     17  H   UNL A   1      29.503  24.816  26.218  1.00  0.00     0.163 HD
BRANCH  15  18
ATOM     18  C   UNL A   1      32.423  23.206  25.754  1.00  0.00     0.142 C 
ATOM     19  C   UNL A   1      34.151  24.830  24.861  1.00  0.00     0.076 C 
ATOM     20  C   UNL A   1      33.583  24.138  26.098  1.00  0.00     0.192 C 
ATOM     21  N   UNL A   1      34.639  23.322  26.714  1.00  0.00    -0.343 N 
ATOM     22  C   UNL A   1      34.314  21.912  26.499  1.00  0.00     0.261 C 
ATOM     23  H   UNL A   1      34.687  23.516  27.715  1.00  0.00     0.346 HD
ATOM     24  H   UNL A   1      35.543  23.541  26.296  1.00  0.00     0.346 HD
ATOM     25  C   UNL A   1      32.829  21.815  26.216  1.00  0.00     0.081 C 
ENDBRANCH  15  18
ENDBRANCH  13  14
ENDBRANCH   8  13
ENDBRANCH   4   7
ENDBRANCH   2   3
ENDBRANCH   1   2
BRANCH   1  26
ATOM     26  C   UNL A   1      31.444  32.154  26.619  1.00  0.00     0.023 C 
BRANCH  26  27
ATOM     27  C   UNL A   1      32.681  32.833  27.187  1.00  0.00     0.116 C 
BRANCH  27  28
ATOM     28  N   UNL A   1      32.422  34.127  27.801  1.00  0.00    -0.352 N 
ATOM     29  C   UNL A   1      33.128  34.784  28.786  1.00  0.00     0.251 C 
ATOM     30  H   UNL A   1      31.628  34.602  27.463  1.00  0.00     0.163 HD
ATOM     31  O   UNL A   1      32.710  35.831  29.253  1.00  0.00    -0.269 OA
BRANCH  29  32
ATOM     32  C   UNL A   1      34.383  34.192  29.306  1.00  0.00     0.039 A 
ATOM     33  C   UNL A   1      34.324  33.381  30.442  1.00  0.00     0.014 A 
ATOM     34  C   UNL A   1      35.604  34.422  28.671  1.00  0.00     0.014 A 
ATOM     35  C   UNL A   1      35.484  32.750  30.901  1.00  0.00     0.010 A 
ATOM     36  C   UNL A   1      36.733  33.715  29.066  1.00  0.00     0.010 A 
ATOM     37  C   UNL A   1      36.691  32.887  30.197  1.00  0.00    -0.014 A 
BRANCH  37  38
ATOM     38  C   UNL A   1      37.933  32.216  30.657  1.00  0.00     0.031 A 
ATOM     39  C   UNL A   1      38.721  32.805  31.796  1.00  0.00     0.074 A 
ATOM     40  C   UNL A   1      38.380  31.114  30.025  1.00  0.00     0.049 A 
ATOM     41  N   UNL A   1      39.850  32.397  32.319  1.00  0.00    -0.248 NA
ATOM     42  C   UNL A   1      38.187  34.033  32.409  1.00  0.00     0.031 C 
ATOM     43  C   UNL A   1      37.735  30.468  28.878  1.00  0.00     0.029 A 
ATOM     44  N   UNL A   1      39.489  30.339  30.260  1.00  0.00    -0.354 N 
ATOM     45  C   UNL A   1      40.167  33.328  33.300  1.00  0.00     0.074 A 
ATOM     46  C   UNL A   1      39.150  34.354  33.258  1.00  0.00     0.031 C 
ATOM     47  C   UNL A   1      38.440  29.378  28.535  1.00  0.00     0.029 A 
ATOM     48  C   UNL A   1      39.602  29.266  29.409  1.00  0.00     0.049 A 
ATOM     49  H   UNL A   1      40.141  30.535  30.970  1.00  0.00     0.167 HD
ATOM     50  C   UNL A   1      41.198  33.319  34.179  1.00  0.00     0.031 A 
ATOM     51  C   UNL A   1      40.538  28.299  29.346  1.00  0.00     0.031 A 
ATOM     52  C   UNL A   1      42.198  32.290  34.237  1.00  0.00     0.049 A 
ATOM     53  C   UNL A   1      41.668  28.306  30.338  1.00  0.00     0.074 A 
ATOM     54  C   UNL A   1      43.253  32.159  35.123  1.00  0.00     0.029 A 
ATOM     55  N   UNL A   1      42.264  31.209  33.372  1.00  0.00    -0.354 N 
ATOM     56  N   UNL A   1      41.917  29.158  31.304  1.00  0.00    -0.248 NA
ATOM     57  C   UNL A   1      42.635  27.203  30.244  1.00  0.00     0.031 C 
ATOM     58  C   UNL A   1      43.984  31.022  34.764  1.00  0.00     0.029 A 
ATOM     59  C   UNL A   1      43.349  30.413  33.694  1.00  0.00     0.049 A 
ATOM     60  H   UNL A   1      41.632  31.033  32.637  1.00  0.00     0.167 HD
ATOM     61  C   UNL A   1      43.043  28.672  31.956  1.00  0.00     0.074 A 
ATOM     62  C   UNL A   1      43.421  27.446  31.283  1.00  0.00     0.031 C 
ATOM     63  C   UNL A   1      43.703  29.191  33.020  1.00  0.00     0.031 A 
BRANCH  50  64
ATOM     64  C   UNL A   1      41.286  34.466  35.149  1.00  0.00    -0.014 A 
ATOM     65  C   UNL A   1      40.631  34.422  36.392  1.00  0.00     0.009 A 
ATOM     66  C   UNL A   1      42.048  35.598  34.825  1.00  0.00     0.009 A 
ATOM     67  C   UNL A   1      40.703  35.506  37.269  1.00  0.00     0.001 A 
ATOM     68  C   UNL A   1      42.144  36.667  35.719  1.00  0.00     0.001 A 
ATOM     69  C   UNL A   1      41.462  36.625  36.934  1.00  0.00     0.000 A 
ENDBRANCH  50  64
BRANCH  51  70
ATOM     70  C   UNL A   1      40.429  27.219  28.330  1.00  0.00    -0.014 A 
ATOM     71  C   UNL A   1      41.022  27.369  27.065  1.00  0.00     0.009 A 
ATOM     72  C   UNL A   1      39.721  26.041  28.610  1.00  0.00     0.009 A 
ATOM     73  C   UNL A   1      40.879  26.377  26.093  1.00  0.00     0.001 A 
ATOM     74  C   UNL A   1      39.607  25.036  27.645  1.00  0.00     0.001 A 
ATOM     75  C   UNL A   1      40.175  25.210  26.384  1.00  0.00     0.000 A 
ENDBRANCH  51  70
BRANCH  63  76
ATOM     76  C   UNL A   1      44.865  28.404  33.560  1.00  0.00    -0.014 A 
ATOM     77  C   UNL A   1      44.694  27.410  34.535  1.00  0.00     0.009 A 
ATOM     78  C   UNL A   1      46.152  28.642  33.050  1.00  0.00     0.009 A 
ATOM     79  C   UNL A   1      45.794  26.700  35.018  1.00  0.00     0.001 A 
ATOM     80  C   UNL A   1      47.245  27.908  33.512  1.00  0.00     0.001 A 
ATOM     81  C   UNL A   1      47.067  26.946  34.504  1.00  0.00     0.000 A 
ENDBRANCH  63  76
ENDBRANCH  37  38
ENDBRANCH  29  32
ENDBRANCH  27  28
ENDBRANCH  26  27
ENDBRANCH   1  26
TORSDOF 14
ENDMDL
MODEL 2
REMARK VINA RESULT:     -11.2      0.881      5.995
REMARK SMILES C[C@@H]1[NH2+]CC[C@H]1C(=O)NCc1cccc(C(=O)NCCCCNC(=O)c2ccc(-c3c4nc(c(-c5ccccc5)c5ccc([nH]5)c(-c5ccccc5)c5nc(c(-c6ccccc6)c6ccc3[nH]6)C=C5)C=C4)cc2)c1
REMARK SMILES IDX 20 1 19 2 18 3 16 4 17 5 15 7 11 8 12 9 74 10 13 11 14 12
REMARK SMILES IDX 10 13 9 14 7 15 8 16 6 18 1 19 2 20 3 21 4 22 5 25 21 26
REMARK SMILES IDX 22 27 23 28 24 29 25 31 26 32 27 33 73 34 28 35 72 36 29 37
REMARK SMILES IDX 30 38 31 39 66 40 32 41 71 42 65 43 67 44 33 45 70 46 64 47
REMARK SMILES IDX 63 48 34 50 56 51 41 52 55 53 42 54 45 55 54 56 68 57 43 58
REMARK SMILES IDX 44 59 53 61 69 62 46 63 35 64 36 65 40 66 37 67 39 68 38 69
REMARK SMILES IDX 57 70 58 71 62 72 59 73 61 74 60 75 47 76 48 77 52 78 49 79
REMARK SMILES IDX 51 80 50 81
REMARK H PARENT 18 6 9 17 3 23 3 24 23 30 67 49 45 60
REMARK Flexibility Score: inf
ROOT
ATOM      1  C   UNL A   1      31.566  30.584  26.437  1.00  0.00     0.023 C 
ENDROOT
BRANCH   1   2
ATOM      2  C   UNL A   1      32.984  30.035  26.470  1.00  0.00     0.116 C 
BRANCH   2   3
ATOM      3  N   UNL A   1      33.572  29.718  25.177  1.00  0.00    -0.352 N 
ATOM      4  C   UNL A   1      33.060  29.044  24.082  1.00  0.00     0.251 C 
ATOM      5  O   UNL A   1      33.761  28.933  23.078  1.00  0.00    -0.269 OA
ATOM      6  H   UNL A   1      34.495  30.038  25.061  1.00  0.00     0.163 HD
BRANCH   4   7
ATOM      7  C   UNL A   1      31.731  28.368  24.120  1.00  0.00     0.040 A 
ATOM      8  C   UNL A   1      30.480  26.301  24.302  1.00  0.00    -0.028 A 
ATOM      9  C   UNL A   1      29.401  26.907  23.646  1.00  0.00     0.005 A 
ATOM     10  C   UNL A   1      31.560  27.105  24.680  1.00  0.00     0.019 A 
ATOM     11  C   UNL A   1      29.463  28.253  23.284  1.00  0.00     0.001 A 
ATOM     12  C   UNL A   1      30.647  28.968  23.472  1.00  0.00     0.014 A 
BRANCH   8  13
ATOM     13  C   UNL A   1      30.540  24.794  24.412  1.00  0.00     0.151 C 
BRANCH  13  14
ATOM     14  N   UNL A   1      30.499  24.308  25.778  1.00  0.00    -0.352 N 
ATOM     15  C   UNL A   1      31.340  23.496  26.468  1.00  0.00     0.229 C 
ATOM     16  O   UNL A   1      30.970  23.124  27.584  1.00  0.00    -0.275 OA
ATOM     17  H   UNL A   1      29.723  24.622  26.297  1.00  0.00     0.163 HD
BRANCH  15  18
ATOM     18  C   UNL A   1      32.691  23.079  25.916  1.00  0.00     0.142 C 
ATOM     19  C   UNL A   1      34.527  24.732  25.354  1.00  0.00     0.076 C 
ATOM     20  C   UNL A   1      33.854  23.912  26.452  1.00  0.00     0.192 C 
ATOM     21  N   UNL A   1      34.839  22.982  27.024  1.00  0.00    -0.343 N 
ATOM     22  C   UNL A   1      34.484  21.626  26.607  1.00  0.00     0.261 C 
ATOM     23  H   UNL A   1      34.823  23.045  28.042  1.00  0.00     0.346 HD
ATOM     24  H   UNL A   1      35.775  23.216  26.696  1.00  0.00     0.346 HD
ATOM     25  C   UNL A   1      33.021  21.625  26.219  1.00  0.00     0.081 C 
ENDBRANCH  15  18
ENDBRANCH  13  14
ENDBRANCH   8  13
ENDBRANCH   4   7
ENDBRANCH   2   3
ENDBRANCH   1   2
BRANCH   1  26
ATOM     26  C   UNL A   1      31.415  32.082  26.623  1.00  0.00     0.023 C 
BRANCH  26  27
ATOM     27  C   UNL A   1      32.610  32.794  27.239  1.00  0.00     0.116 C 
BRANCH  27  28
ATOM     28  N   UNL A   1      32.351  34.175  27.618  1.00  0.00    -0.352 N 
ATOM     29  C   UNL A   1      33.007  34.968  28.536  1.00  0.00     0.251 C 
ATOM     30  H   UNL A   1      31.599  34.606  27.150  1.00  0.00     0.163 HD
ATOM     31  O   UNL A   1      32.592  36.085  28.798  1.00  0.00    -0.269 OA
BRANCH  29  32
ATOM     32  C   UNL A   1      34.202  34.441  29.236  1.00  0.00     0.039 A 
ATOM     33  C   UNL A   1      34.037  33.829  30.481  1.00  0.00     0.014 A 
ATOM     34  C   UNL A   1      35.471  34.536  28.664  1.00  0.00     0.014 A 
ATOM     35  C   UNL A   1      35.140  33.255  31.120  1.00  0.00     0.010 A 
ATOM     36  C   UNL A   1      36.545  33.878  29.250  1.00  0.00     0.010 A 
ATOM     37  C   UNL A   1      36.397  33.248  30.494  1.00  0.00    -0.014 A 
BRANCH  37  38
ATOM     38  C   UNL A   1      37.580  32.633  31.147  1.00  0.00     0.031 A 
ATOM     39  C   UNL A   1      38.240  31.435  30.518  1.00  0.00     0.074 A 
ATOM     40  C   UNL A   1      38.030  33.114  32.322  1.00  0.00     0.049 A 
ATOM     41  N   UNL A   1      39.255  30.729  30.950  1.00  0.00    -0.248 NA
ATOM     42  C   UNL A   1      37.665  30.946  29.254  1.00  0.00     0.031 C 
ATOM     43  C   UNL A   1      37.452  34.240  33.060  1.00  0.00     0.029 A 
ATOM     44  N   UNL A   1      39.083  32.711  33.106  1.00  0.00    -0.354 N 
ATOM     45  C   UNL A   1      39.420  29.706  30.025  1.00  0.00     0.074 A 
ATOM     46  C   UNL A   1      38.367  29.843  29.045  1.00  0.00     0.031 C 
ATOM     47  C   UNL A   1      38.179  34.459  34.167  1.00  0.00     0.029 A 
ATOM     48  C   UNL A   1      39.249  33.470  34.239  1.00  0.00     0.049 A 
ATOM     49  H   UNL A   1      39.663  31.949  32.878  1.00  0.00     0.167 HD
ATOM     50  C   UNL A   1      40.381  28.751  29.975  1.00  0.00     0.031 A 
ATOM     51  C   UNL A   1      40.166  33.379  35.221  1.00  0.00     0.031 A 
ATOM     52  C   UNL A   1      41.442  28.626  30.935  1.00  0.00     0.049 A 
ATOM     53  C   UNL A   1      41.227  32.317  35.140  1.00  0.00     0.074 A 
ATOM     54  C   UNL A   1      42.494  27.728  30.946  1.00  0.00     0.029 A 
ATOM     55  N   UNL A   1      41.587  29.429  32.055  1.00  0.00    -0.354 N 
ATOM     56  N   UNL A   1      41.409  31.397  34.222  1.00  0.00    -0.248 NA
ATOM     57  C   UNL A   1      42.222  32.293  36.222  1.00  0.00     0.031 C 
ATOM     58  C   UNL A   1      43.250  27.959  32.100  1.00  0.00     0.029 A 
ATOM     59  C   UNL A   1      42.704  29.039  32.773  1.00  0.00     0.049 A 
ATOM     60  H   UNL A   1      40.985  30.168  32.303  1.00  0.00     0.167 HD
ATOM     61  C   UNL A   1      42.560  30.715  34.594  1.00  0.00     0.074 A 
ATOM     62  C   UNL A   1      43.039  31.333  35.814  1.00  0.00     0.031 C 
ATOM     63  C   UNL A   1      43.171  29.673  33.978  1.00  0.00     0.031 A 
BRANCH  50  64
ATOM     64  C   UNL A   1      40.317  27.769  28.837  1.00  0.00    -0.014 A 
ATOM     65  C   UNL A   1      40.952  28.032  27.610  1.00  0.00     0.009 A 
ATOM     66  C   UNL A   1      39.630  26.557  28.997  1.00  0.00     0.009 A 
ATOM     67  C   UNL A   1      40.861  27.121  26.556  1.00  0.00     0.001 A 
ATOM     68  C   UNL A   1      39.569  25.633  27.951  1.00  0.00     0.001 A 
ATOM     69  C   UNL A   1      40.174  25.921  26.729  1.00  0.00     0.000 A 
ENDBRANCH  50  64
BRANCH  51  70
ATOM     70  C   UNL A   1      40.147  34.345  36.352  1.00  0.00    -0.014 A 
ATOM     71  C   UNL A   1      40.791  35.588  36.237  1.00  0.00     0.009 A 
ATOM     72  C   UNL A   1      39.501  34.027  37.556  1.00  0.00     0.009 A 
ATOM     73  C   UNL A   1      40.817  36.476  37.315  1.00  0.00     0.001 A 
ATOM     74  C   UNL A   1      39.502  34.931  38.621  1.00  0.00     0.001 A 
ATOM     75  C   UNL A   1      40.170  36.149  38.504  1.00  0.00     0.000 A 
ENDBRANCH  51  70
BRANCH  63  76
ATOM     76  C   UNL A   1      44.455  29.175  34.581  1.00  0.00    -0.014 A 
ATOM     77  C   UNL A   1      44.472  28.141  35.529  1.00  0.00     0.009 A 
ATOM     78  C   UNL A   1      45.674  29.732  34.158  1.00  0.00     0.009 A 
ATOM     79  C   UNL A   1      45.681  27.704  36.073  1.00  0.00     0.001 A 
ATOM     80  C   UNL A   1      46.882  29.270  34.680  1.00  0.00     0.001 A 
ATOM     81  C   UNL A   1      46.884  28.265  35.646  1.00  0.00     0.000 A 
ENDBRANCH  63  76
ENDBRANCH  37  38
ENDBRANCH  29  32
ENDBRANCH  27  28
ENDBRANCH  26  27
ENDBRANCH   1  26
TORSDOF 14
ENDMDL
MODEL 3
REMARK VINA RESULT:     -11.2      3.704      9.239
REMARK SMILES C[C@@H]1[NH2+]CC[C@H]1C(=O)NCc1cccc(C(=O)NCCCCNC(=O)c2ccc(-c3c4nc(c(-c5ccccc5)c5ccc([nH]5)c(-c5ccccc5)c5nc(c(-c6ccccc6)c6ccc3[nH]6)C=C5)C=C4)cc2)c1
REMARK SMILES IDX 20 1 19 2 18 3 16 4 17 5 15 7 11 8 12 9 74 10 13 11 14 12
REMARK SMILES IDX 10 13 9 14 7 15 8 16 6 18 1 19 2 20 3 21 4 22 5 25 21 26
REMARK SMILES IDX 22 27 23 28 24 29 25 31 26 32 27 33 73 34 28 35 72 36 29 37
REMARK SMILES IDX 30 38 31 39 66 40 32 41 71 42 65 43 67 44 33 45 70 46 64 47
REMARK SMILES IDX 63 48 34 50 56 51 41 52 55 53 42 54 45 55 54 56 68 57 43 58
REMARK SMILES IDX 44 59 53 61 69 62 46 63 35 64 36 65 40 66 37 67 39 68 38 69
REMARK SMILES IDX 57 70 58 71 62 72 59 73 61 74 60 75 47 76 48 77 52 78 49 79
REMARK SMILES IDX 51 80 50 81
REMARK H PARENT 18 6 9 17 3 23 3 24 23 30 67 49 45 60
REMARK Flexibility Score: inf
ROOT
ATOM      1  C   UNL A   1      38.509  21.867  25.732  1.00  0.00     0.023 C 
ENDROOT
BRANCH   1   2
ATOM      2  C   UNL A   1      37.103  22.372  25.447  1.00  0.00     0.116 C 
BRANCH   2   3
ATOM      3  N   UNL A   1      36.141  22.213  26.528  1.00  0.00    -0.352 N 
ATOM      4  C   UNL A   1      34.842  21.738  26.531  1.00  0.00     0.251 C 
ATOM      5  O   UNL A   1      34.240  21.675  27.601  1.00  0.00    -0.269 OA
ATOM      6  H   UNL A   1      36.472  22.493  27.411  1.00  0.00     0.163 HD
BRANCH   4   7
ATOM      7  C   UNL A   1      34.122  21.396  25.270  1.00  0.00     0.040 A 
ATOM      8  C   UNL A   1      32.680  22.122  23.463  1.00  0.00    -0.028 A 
ATOM      9  C   UNL A   1      32.286  20.795  23.255  1.00  0.00     0.005 A 
ATOM     10  C   UNL A   1      33.727  22.370  24.357  1.00  0.00     0.019 A 
ATOM     11  C   UNL A   1      32.853  19.766  24.008  1.00  0.00     0.001 A 
ATOM     12  C   UNL A   1      33.730  20.072  25.051  1.00  0.00     0.014 A 
BRANCH   8  13
ATOM     13  C   UNL A   1      31.856  23.248  22.880  1.00  0.00     0.151 C 
BRANCH  13  14
ATOM     14  N   UNL A   1      32.590  24.087  21.951  1.00  0.00    -0.352 N 
ATOM     15  C   UNL A   1      32.862  25.416  21.963  1.00  0.00     0.229 C 
ATOM     16  O   UNL A   1      33.384  25.891  20.951  1.00  0.00    -0.275 OA
ATOM     17  H   UNL A   1      32.956  23.606  21.174  1.00  0.00     0.163 HD
BRANCH  15  18
ATOM     18  C   UNL A   1      32.568  26.289  23.170  1.00  0.00     0.142 C 
ATOM     19  C   UNL A   1      33.610  25.899  25.446  1.00  0.00     0.076 C 
ATOM     20  C   UNL A   1      33.784  26.524  24.064  1.00  0.00     0.192 C 
ATOM     21  N   UNL A   1      33.947  27.978  24.216  1.00  0.00    -0.343 N 
ATOM     22  C   UNL A   1      32.738  28.629  23.713  1.00  0.00     0.261 C 
ATOM     23  H   UNL A   1      34.757  28.292  23.681  1.00  0.00     0.346 HD
ATOM     24  H   UNL A   1      34.091  28.215  25.197  1.00  0.00     0.346 HD
ATOM     25  C   UNL A   1      32.039  27.661  22.782  1.00  0.00     0.081 C 
ENDBRANCH  15  18
ENDBRANCH  13  14
ENDBRANCH   8  13
ENDBRANCH   4   7
ENDBRANCH   2   3
ENDBRANCH   1   2
BRANCH   1  26
ATOM     26  C   UNL A   1      38.851  20.484  25.209  1.00  0.00     0.023 C 
BRANCH  26  27
ATOM     27  C   UNL A   1      39.493  19.538  26.212  1.00  0.00     0.116 C 
BRANCH  27  28
ATOM     28  N   UNL A   1      40.786  19.016  25.797  1.00  0.00    -0.352 N 
ATOM     29  C   UNL A   1      42.021  19.628  25.811  1.00  0.00     0.251 C 
ATOM     30  H   UNL A   1      40.778  18.091  25.459  1.00  0.00     0.163 HD
ATOM     31  O   UNL A   1      42.995  19.069  25.332  1.00  0.00    -0.269 OA
BRANCH  29  32
ATOM     32  C   UNL A   1      42.156  20.991  26.375  1.00  0.00     0.039 A 
ATOM     33  C   UNL A   1      42.051  21.160  27.758  1.00  0.00     0.014 A 
ATOM     34  C   UNL A   1      42.399  22.091  25.552  1.00  0.00     0.014 A 
ATOM     35  C   UNL A   1      42.254  22.425  28.317  1.00  0.00     0.010 A 
ATOM     36  C   UNL A   1      42.701  23.324  26.115  1.00  0.00     0.010 A 
ATOM     37  C   UNL A   1      42.613  23.511  27.503  1.00  0.00    -0.014 A 
BRANCH  37  38
ATOM     38  C   UNL A   1      42.847  24.861  28.074  1.00  0.00     0.031 A 
ATOM     39  C   UNL A   1      44.231  25.253  28.518  1.00  0.00     0.074 A 
ATOM     40  C   UNL A   1      41.816  25.711  28.243  1.00  0.00     0.049 A 
ATOM     41  N   UNL A   1      44.636  26.364  29.079  1.00  0.00    -0.248 NA
ATOM     42  C   UNL A   1      45.297  24.252  28.336  1.00  0.00     0.031 C 
ATOM     43  C   UNL A   1      40.419  25.437  27.899  1.00  0.00     0.029 A 
ATOM     44  N   UNL A   1      41.788  26.986  28.752  1.00  0.00    -0.354 N 
ATOM     45  C   UNL A   1      45.989  26.185  29.334  1.00  0.00     0.074 A 
ATOM     46  C   UNL A   1      46.325  24.839  28.928  1.00  0.00     0.031 C 
ATOM     47  C   UNL A   1      39.678  26.523  28.172  1.00  0.00     0.029 A 
ATOM     48  C   UNL A   1      40.537  27.555  28.743  1.00  0.00     0.049 A 
ATOM     49  H   UNL A   1      42.588  27.449  29.091  1.00  0.00     0.167 HD
ATOM     50  C   UNL A   1      46.885  27.069  29.836  1.00  0.00     0.031 A 
ATOM     51  C   UNL A   1      40.131  28.774  29.147  1.00  0.00     0.031 A 
ATOM     52  C   UNL A   1      46.559  28.414  30.220  1.00  0.00     0.049 A 
ATOM     53  C   UNL A   1      41.145  29.741  29.693  1.00  0.00     0.074 A 
ATOM     54  C   UNL A   1      47.402  29.406  30.690  1.00  0.00     0.029 A 
ATOM     55  N   UNL A   1      45.285  28.957  30.175  1.00  0.00    -0.354 N 
ATOM     56  N   UNL A   1      42.435  29.579  29.866  1.00  0.00    -0.248 NA
ATOM     57  C   UNL A   1      40.648  31.070  30.081  1.00  0.00     0.031 C 
ATOM     58  C   UNL A   1      46.628  30.536  30.972  1.00  0.00     0.029 A 
ATOM     59  C   UNL A   1      45.315  30.268  30.620  1.00  0.00     0.049 A 
ATOM     60  H   UNL A   1      44.478  28.483  29.870  1.00  0.00     0.167 HD
ATOM     61  C   UNL A   1      42.909  30.794  30.343  1.00  0.00     0.074 A 
ATOM     62  C   UNL A   1      41.770  31.687  30.421  1.00  0.00     0.031 C 
ATOM     63  C   UNL A   1      44.174  31.144  30.680  1.00  0.00     0.031 A 
BRANCH  50  64
ATOM     64  C   UNL A   1      48.304  26.597  29.994  1.00  0.00    -0.014 A 
ATOM     65  C   UNL A   1      48.725  25.929  31.157  1.00  0.00     0.009 A 
ATOM     66  C   UNL A   1      49.230  26.804  28.961  1.00  0.00     0.009 A 
ATOM     67  C   UNL A   1      50.053  25.519  31.298  1.00  0.00     0.001 A 
ATOM     68  C   UNL A   1      50.549  26.365  29.091  1.00  0.00     0.001 A 
ATOM     69  C   UNL A   1      50.962  25.734  30.263  1.00  0.00     0.000 A 
ENDBRANCH  50  64
BRANCH  51  70
ATOM     70  C   UNL A   1      38.703  29.168  29.017  1.00  0.00    -0.014 A 
ATOM     71  C   UNL A   1      37.830  29.051  30.112  1.00  0.00     0.009 A 
ATOM     72  C   UNL A   1      38.200  29.647  27.799  1.00  0.00     0.009 A 
ATOM     73  C   UNL A   1      36.478  29.374  29.977  1.00  0.00     0.001 A 
ATOM     74  C   UNL A   1      36.853  29.999  27.676  1.00  0.00     0.001 A 
ATOM     75  C   UNL A   1      35.991  29.850  28.762  1.00  0.00     0.000 A 
ENDBRANCH  51  70
BRANCH  63  76
ATOM     76  C   UNL A   1      44.405  32.567  31.108  1.00  0.00    -0.014 A 
ATOM     77  C   UNL A   1      44.663  33.584  30.177  1.00  0.00     0.009 A 
ATOM     78  C   UNL A   1      44.324  32.896  32.471  1.00  0.00     0.009 A 
ATOM     79  C   UNL A   1      44.877  34.895  30.607  1.00  0.00     0.001 A 
ATOM     80  C   UNL A   1      44.506  34.212  32.894  1.00  0.00     0.001 A 
ATOM     81  C   UNL A   1      44.794  35.209  31.963  1.00  0.00     0.000 A 
ENDBRANCH  63  76
ENDBRANCH  37  38
ENDBRANCH  29  32
ENDBRANCH  27  28
ENDBRANCH  26  27
ENDBRANCH   1  26
TORSDOF 14
ENDMDL
