MODEL 1
REMARK VINA RESULT:     -12.4      0.000      0.000
REMARK SMILES Cc1c(C[NH2+]Cc2cccc(F)c2)c(C(=O)NCCCCNC(=O)c2ccc(-c3c4nc(c(-c5ccccc5)c5ccc([nH]5)c(-c5ccccc5)c5nc(c(-c6ccccc6)c6ccc3[nH]6)C=C5)C=C4)cc2)c(C)n1Cc1c(F)cccc1Cl
REMARK SMILES IDX 18 1 17 2 15 3 16 4 14 6 1 7 2 8 3 9 75 10 73 11 74 12 4 13
REMARK SMILES IDX 5 14 6 17 7 18 8 19 13 20 9 21 11 22 10 23 12 24 76 25 77 26
REMARK SMILES IDX 78 27 83 28 79 29 80 30 82 31 84 32 81 33 19 34 20 35 21 36
REMARK SMILES IDX 22 37 23 38 24 40 25 41 26 42 72 43 27 44 71 45 28 46 29 47
REMARK SMILES IDX 30 48 65 49 31 50 70 51 64 52 66 53 32 54 69 55 63 56 62 57
REMARK SMILES IDX 33 59 55 60 40 61 54 62 41 63 44 64 53 65 67 66 42 67 43 68
REMARK SMILES IDX 52 70 68 71 45 72 34 73 35 74 39 75 36 76 38 77 37 78 56 79
REMARK SMILES IDX 57 80 61 81 58 82 60 83 59 84 46 85 47 86 51 87 48 88 50 89
REMARK SMILES IDX 49 90
REMARK H PARENT 17 5 5 15 5 16 22 39 66 58 44 69
REMARK Flexibility Score: inf
ROOT
ATOM      1  C   UNL A   1      37.689  23.728  25.634  1.00  0.00     0.116 C 
ENDROOT
BRANCH   1   2
ATOM      2  N   UNL A   1      37.432  23.460  24.241  1.00  0.00    -0.352 N 
ATOM      3  C   UNL A   1      36.245  23.143  23.604  1.00  0.00     0.253 C 
ATOM      4  O   UNL A   1      36.323  23.009  22.385  1.00  0.00    -0.269 OA
ATOM      5  H   UNL A   1      38.220  23.511  23.654  1.00  0.00     0.163 HD
BRANCH   3   6
ATOM      6  C   UNL A   1      35.008  22.864  24.364  1.00  0.00     0.069 A 
ATOM      7  C   UNL A   1      31.837  23.759  26.170  1.00  0.00     0.065 C 
ATOM      8  C   UNL A   1      32.995  23.193  25.418  1.00  0.00     0.025 A 
ATOM      9  C   UNL A   1      34.101  23.865  24.890  1.00  0.00     0.040 A 
ATOM     10  N   UNL A   1      33.189  21.846  25.162  1.00  0.00    -0.343 N 
ATOM     11  C   UNL A   1      34.549  21.678  24.943  1.00  0.00     0.028 A 
ATOM     12  C   UNL A   1      35.287  20.456  25.375  1.00  0.00     0.065 C 
BRANCH   9  13
ATOM     13  C   UNL A   1      34.341  25.358  24.925  1.00  0.00     0.300 C 
BRANCH  13  14
ATOM     14  N   UNL A   1      33.747  25.931  23.720  1.00  0.00    -0.339 N 
ATOM     15  H   UNL A   1      33.571  25.175  23.058  1.00  0.00     0.346 HD
ATOM     16  H   UNL A   1      34.409  26.620  23.363  1.00  0.00     0.346 HD
BRANCH  14  17
ATOM     17  C   UNL A   1      32.491  26.636  23.953  1.00  0.00     0.297 C 
BRANCH  17  18
ATOM     18  C   UNL A   1      32.512  27.719  25.014  1.00  0.00     0.009 A 
ATOM     19  C   UNL A   1      33.278  28.893  24.906  1.00  0.00     0.010 A 
ATOM     20  C   UNL A   1      31.691  27.572  26.145  1.00  0.00     0.048 A 
ATOM     21  C   UNL A   1      33.277  29.855  25.920  1.00  0.00     0.004 A 
ATOM     22  C   UNL A   1      31.687  28.541  27.145  1.00  0.00     0.123 A 
ATOM     23  C   UNL A   1      32.483  29.674  27.049  1.00  0.00     0.039 A 
ATOM     24  F   UNL A   1      30.904  28.378  28.220  1.00  0.00    -0.207 F 
ENDBRANCH  17  18
ENDBRANCH  14  17
ENDBRANCH  13  14
ENDBRANCH   9  13
BRANCH  10  25
ATOM     25  C   UNL A   1      32.208  20.758  25.311  1.00  0.00     0.162 C 
BRANCH  25  26
ATOM     26  C   UNL A   1      32.459  19.576  24.393  1.00  0.00     0.026 A 
ATOM     27  C   UNL A   1      32.747  18.316  24.938  1.00  0.00     0.129 A 
ATOM     28  C   UNL A   1      32.354  19.633  22.993  1.00  0.00     0.048 A 
ATOM     29  F   UNL A   1      32.743  18.139  26.262  1.00  0.00    -0.207 F 
ATOM     30  C   UNL A   1      32.980  17.182  24.159  1.00  0.00     0.040 A 
ATOM     31  C   UNL A   1      32.566  18.491  22.198  1.00  0.00     0.021 A 
ATOM     32  Cl  UNL A   1      31.896  21.072  22.156  1.00  0.00    -0.084 Cl
ATOM     33  C   UNL A   1      32.894  17.267  22.779  1.00  0.00     0.005 A 
ENDBRANCH  25  26
ENDBRANCH  10  25
ENDBRANCH   3   6
ENDBRANCH   1   2
BRANCH   1  34
ATOM     34  C   UNL A   1      38.217  22.564  26.466  1.00  0.00     0.023 C 
BRANCH  34  35
ATOM     35  C   UNL A   1      39.413  21.747  25.952  1.00  0.00     0.023 C 
BRANCH  35  36
ATOM     36  C   UNL A   1      40.602  21.481  26.887  1.00  0.00     0.116 C 
BRANCH  36  37
ATOM     37  N   UNL A   1      41.848  22.079  26.458  1.00  0.00    -0.352 N 
ATOM     38  C   UNL A   1      42.233  23.403  26.563  1.00  0.00     0.251 C 
ATOM     39  H   UNL A   1      42.499  21.470  26.042  1.00  0.00     0.163 HD
ATOM     40  O   UNL A   1      43.351  23.723  26.166  1.00  0.00    -0.269 OA
BRANCH  38  41
ATOM     41  C   UNL A   1      41.276  24.467  27.026  1.00  0.00     0.039 A 
ATOM     42  C   UNL A   1      41.050  25.518  26.160  1.00  0.00     0.014 A 
ATOM     43  C   UNL A   1      40.716  24.574  28.313  1.00  0.00     0.014 A 
ATOM     44  C   UNL A   1      40.250  26.614  26.562  1.00  0.00     0.010 A 
ATOM     45  C   UNL A   1      39.981  25.756  28.750  1.00  0.00     0.010 A 
ATOM     46  C   UNL A   1      39.742  26.844  27.892  1.00  0.00    -0.014 A 
BRANCH  46  47
ATOM     47  C   UNL A   1      39.428  28.375  28.260  1.00  0.00     0.031 A 
ATOM     48  C   UNL A   1      40.784  28.953  28.471  1.00  0.00     0.074 A 
ATOM     49  C   UNL A   1      38.437  29.289  28.599  1.00  0.00     0.049 A 
ATOM     50  N   UNL A   1      41.543  28.428  29.386  1.00  0.00    -0.248 NA
ATOM     51  C   UNL A   1      41.478  29.780  27.483  1.00  0.00     0.031 C 
ATOM     52  C   UNL A   1      36.998  29.063  28.794  1.00  0.00     0.029 A 
ATOM     53  N   UNL A   1      38.500  30.694  28.854  1.00  0.00    -0.354 N 
ATOM     54  C   UNL A   1      42.773  29.010  29.249  1.00  0.00     0.074 A 
ATOM     55  C   UNL A   1      42.727  29.674  27.953  1.00  0.00     0.031 C 
ATOM     56  C   UNL A   1      36.327  30.239  28.979  1.00  0.00     0.029 A 
ATOM     57  C   UNL A   1      37.247  31.376  28.986  1.00  0.00     0.049 A 
ATOM     58  H   UNL A   1      39.359  31.168  28.936  1.00  0.00     0.167 HD
ATOM     59  C   UNL A   1      43.383  29.410  30.400  1.00  0.00     0.031 A 
ATOM     60  C   UNL A   1      36.961  32.724  29.155  1.00  0.00     0.031 A 
ATOM     61  C   UNL A   1      43.283  30.835  30.566  1.00  0.00     0.049 A 
ATOM     62  C   UNL A   1      38.146  33.342  29.763  1.00  0.00     0.074 A 
ATOM     63  C   UNL A   1      43.473  31.901  29.709  1.00  0.00     0.029 A 
ATOM     64  N   UNL A   1      42.447  31.280  31.570  1.00  0.00    -0.354 N 
ATOM     65  N   UNL A   1      38.367  33.240  31.039  1.00  0.00    -0.248 NA
ATOM     66  C   UNL A   1      39.047  34.234  29.043  1.00  0.00     0.031 C 
ATOM     67  C   UNL A   1      42.354  32.737  29.926  1.00  0.00     0.029 A 
ATOM     68  C   UNL A   1      41.731  32.367  31.113  1.00  0.00     0.049 A 
ATOM     69  H   UNL A   1      42.372  30.884  32.468  1.00  0.00     0.167 HD
ATOM     70  C   UNL A   1      39.677  33.584  31.150  1.00  0.00     0.074 A 
ATOM     71  C   UNL A   1      39.941  34.444  30.013  1.00  0.00     0.031 C 
ATOM     72  C   UNL A   1      40.490  32.697  31.774  1.00  0.00     0.031 A 
BRANCH  59  73
ATOM     73  C   UNL A   1      43.279  28.417  31.533  1.00  0.00    -0.014 A 
ATOM     74  C   UNL A   1      42.194  28.495  32.411  1.00  0.00     0.009 A 
ATOM     75  C   UNL A   1      44.315  27.507  31.836  1.00  0.00     0.009 A 
ATOM     76  C   UNL A   1      42.187  27.745  33.594  1.00  0.00     0.001 A 
ATOM     77  C   UNL A   1      44.331  26.797  33.036  1.00  0.00     0.001 A 
ATOM     78  C   UNL A   1      43.268  26.924  33.920  1.00  0.00     0.000 A 
ENDBRANCH  59  73
BRANCH  60  79
ATOM     79  C   UNL A   1      35.827  33.768  29.158  1.00  0.00    -0.014 A 
ATOM     80  C   UNL A   1      35.049  33.962  27.967  1.00  0.00     0.009 A 
ATOM     81  C   UNL A   1      35.225  34.235  30.331  1.00  0.00     0.009 A 
ATOM     82  C   UNL A   1      33.729  34.447  27.961  1.00  0.00     0.001 A 
ATOM     83  C   UNL A   1      33.906  34.767  30.321  1.00  0.00     0.001 A 
ATOM     84  C   UNL A   1      33.147  34.836  29.150  1.00  0.00     0.000 A 
ENDBRANCH  60  79
BRANCH  72  85
ATOM     85  C   UNL A   1      39.916  31.925  32.958  1.00  0.00    -0.014 A 
ATOM     86  C   UNL A   1      40.042  32.299  34.316  1.00  0.00     0.009 A 
ATOM     87  C   UNL A   1      39.238  30.726  32.695  1.00  0.00     0.009 A 
ATOM     88  C   UNL A   1      39.578  31.484  35.356  1.00  0.00     0.001 A 
ATOM     89  C   UNL A   1      38.722  29.938  33.731  1.00  0.00     0.001 A 
ATOM     90  C   UNL A   1      38.909  30.305  35.061  1.00  0.00     0.000 A 
ENDBRANCH  72  85
ENDBRANCH  46  47
ENDBRANCH  38  41
ENDBRANCH  36  37
ENDBRANCH  35  36
ENDBRANCH  34  35
ENDBRANCH   1  34
TORSDOF 17
ENDMDL
MODEL 2
REMARK VINA RESULT:     -12.3      3.491      8.297
REMARK SMILES Cc1c(C[NH2+]Cc2cccc(F)c2)c(C(=O)NCCCCNC(=O)c2ccc(-c3c4nc(c(-c5ccccc5)c5ccc([nH]5)c(-c5ccccc5)c5nc(c(-c6ccccc6)c6ccc3[nH]6)C=C5)C=C4)cc2)c(C)n1Cc1c(F)cccc1Cl
REMARK SMILES IDX 18 1 17 2 15 3 16 4 14 6 1 7 2 8 3 9 75 10 73 11 74 12 4 13
REMARK SMILES IDX 5 14 6 17 7 18 8 19 13 20 9 21 11 22 10 23 12 24 76 25 77 26
REMARK SMILES IDX 78 27 83 28 79 29 80 30 82 31 84 32 81 33 19 34 20 35 21 36
REMARK SMILES IDX 22 37 23 38 24 40 25 41 26 42 72 43 27 44 71 45 28 46 29 47
REMARK SMILES IDX 30 48 65 49 31 50 70 51 64 52 66 53 32 54 69 55 63 56 62 57
REMARK SMILES IDX 33 59 55 60 40 61 54 62 41 63 44 64 53 65 67 66 42 67 43 68
REMARK SMILES IDX 52 70 68 71 45 72 34 73 35 74 39 75 36 76 38 77 37 78 56 79
REMARK SMILES IDX 57 80 61 81 58 82 60 83 59 84 46 85 47 86 51 87 48 88 50 89
REMARK SMILES IDX 49 90
REMARK H PARENT 17 5 5 15 5 16 22 39 66 58 44 69
REMARK Flexibility Score: inf
ROOT
ATOM      1  C   UNL A   1      31.882  29.836  25.376  1.00  0.00     0.116 C 
ENDROOT
BRANCH   1   2
ATOM      2  N   UNL A   1      33.005  29.640  24.494  1.00  0.00    -0.352 N 
ATOM      3  C   UNL A   1      33.403  28.508  23.804  1.00  0.00     0.253 C 
ATOM      4  O   UNL A   1      34.389  28.651  23.086  1.00  0.00    -0.269 OA
ATOM      5  H   UNL A   1      33.575  30.431  24.363  1.00  0.00     0.163 HD
BRANCH   3   6
ATOM      6  C   UNL A   1      32.753  27.199  24.023  1.00  0.00     0.069 A 
ATOM      7  C   UNL A   1      30.181  24.523  23.435  1.00  0.00     0.065 C 
ATOM      8  C   UNL A   1      31.339  25.411  23.746  1.00  0.00     0.025 A 
ATOM      9  C   UNL A   1      31.540  26.742  23.372  1.00  0.00     0.040 A 
ATOM     10  N   UNL A   1      32.419  25.052  24.535  1.00  0.00    -0.343 N 
ATOM     11  C   UNL A   1      32.971  26.234  25.010  1.00  0.00     0.028 A 
ATOM     12  C   UNL A   1      33.570  26.351  26.371  1.00  0.00     0.065 C 
BRANCH   9  13
ATOM     13  C   UNL A   1      30.625  27.576  22.504  1.00  0.00     0.300 C 
BRANCH  13  14
ATOM     14  N   UNL A   1      29.540  28.069  23.350  1.00  0.00    -0.339 N 
ATOM     15  H   UNL A   1      29.923  28.770  23.985  1.00  0.00     0.346 HD
ATOM     16  H   UNL A   1      29.157  27.261  23.841  1.00  0.00     0.346 HD
BRANCH  14  17
ATOM     17  C   UNL A   1      28.438  28.674  22.611  1.00  0.00     0.297 C 
BRANCH  17  18
ATOM     18  C   UNL A   1      28.461  30.184  22.477  1.00  0.00     0.009 A 
ATOM     19  C   UNL A   1      28.777  31.049  23.539  1.00  0.00     0.010 A 
ATOM     20  C   UNL A   1      28.199  30.754  21.220  1.00  0.00     0.048 A 
ATOM     21  C   UNL A   1      28.767  32.437  23.370  1.00  0.00     0.004 A 
ATOM     22  C   UNL A   1      28.203  32.137  21.058  1.00  0.00     0.123 A 
ATOM     23  C   UNL A   1      28.472  32.984  22.125  1.00  0.00     0.039 A 
ATOM     24  F   UNL A   1      27.941  32.662  19.854  1.00  0.00    -0.207 F 
ENDBRANCH  17  18
ENDBRANCH  14  17
ENDBRANCH  13  14
ENDBRANCH   9  13
BRANCH  10  25
ATOM     25  C   UNL A   1      32.790  23.698  24.981  1.00  0.00     0.162 C 
BRANCH  25  26
ATOM     26  C   UNL A   1      34.248  23.351  24.741  1.00  0.00     0.026 A 
ATOM     27  C   UNL A   1      34.782  23.435  23.446  1.00  0.00     0.129 A 
ATOM     28  C   UNL A   1      35.153  23.010  25.760  1.00  0.00     0.048 A 
ATOM     29  F   UNL A   1      34.027  23.873  22.435  1.00  0.00    -0.207 F 
ATOM     30  C   UNL A   1      36.113  23.141  23.149  1.00  0.00     0.040 A 
ATOM     31  C   UNL A   1      36.503  22.733  25.475  1.00  0.00     0.021 A 
ATOM     32  Cl  UNL A   1      34.699  22.971  27.426  1.00  0.00    -0.084 Cl
ATOM     33  C   UNL A   1      36.982  22.783  24.167  1.00  0.00     0.005 A 
ENDBRANCH  25  26
ENDBRANCH  10  25
ENDBRANCH   3   6
ENDBRANCH   1   2
BRANCH   1  34
ATOM     34  C   UNL A   1      32.204  30.106  26.842  1.00  0.00     0.023 C 
BRANCH  34  35
ATOM     35  C   UNL A   1      33.652  30.413  27.254  1.00  0.00     0.023 C 
BRANCH  35  36
ATOM     36  C   UNL A   1      34.047  31.857  27.598  1.00  0.00     0.116 C 
BRANCH  36  37
ATOM     37  N   UNL A   1      34.289  32.094  29.004  1.00  0.00    -0.352 N 
ATOM     38  C   UNL A   1      35.407  31.749  29.743  1.00  0.00     0.251 C 
ATOM     39  H   UNL A   1      33.572  32.556  29.495  1.00  0.00     0.163 HD
ATOM     40  O   UNL A   1      35.445  32.060  30.931  1.00  0.00    -0.269 OA
BRANCH  38  41
ATOM     41  C   UNL A   1      36.501  30.897  29.161  1.00  0.00     0.039 A 
ATOM     42  C   UNL A   1      36.253  29.541  29.077  1.00  0.00     0.014 A 
ATOM     43  C   UNL A   1      37.804  31.325  28.846  1.00  0.00     0.014 A 
ATOM     44  C   UNL A   1      37.270  28.656  28.646  1.00  0.00     0.010 A 
ATOM     45  C   UNL A   1      38.872  30.391  28.503  1.00  0.00     0.010 A 
ATOM     46  C   UNL A   1      38.651  29.006  28.417  1.00  0.00    -0.014 A 
BRANCH  46  47
ATOM     47  C   UNL A   1      39.703  27.800  28.554  1.00  0.00     0.031 A 
ATOM     48  C   UNL A   1      40.637  28.289  29.606  1.00  0.00     0.074 A 
ATOM     49  C   UNL A   1      40.157  26.611  27.995  1.00  0.00     0.049 A 
ATOM     50  N   UNL A   1      41.270  29.404  29.399  1.00  0.00    -0.248 NA
ATOM     51  C   UNL A   1      40.596  27.844  30.999  1.00  0.00     0.031 C 
ATOM     52  C   UNL A   1      39.704  25.929  26.775  1.00  0.00     0.029 A 
ATOM     53  N   UNL A   1      41.176  25.702  28.418  1.00  0.00    -0.354 N 
ATOM     54  C   UNL A   1      41.904  29.713  30.571  1.00  0.00     0.074 A 
ATOM     55  C   UNL A   1      41.297  28.835  31.563  1.00  0.00     0.031 C 
ATOM     56  C   UNL A   1      40.298  24.707  26.634  1.00  0.00     0.029 A 
ATOM     57  C   UNL A   1      41.256  24.459  27.710  1.00  0.00     0.049 A 
ATOM     58  H   UNL A   1      41.790  25.918  29.156  1.00  0.00     0.167 HD
ATOM     59  C   UNL A   1      43.197  30.129  30.466  1.00  0.00     0.031 A 
ATOM     60  C   UNL A   1      42.063  23.348  27.916  1.00  0.00     0.031 A 
ATOM     61  C   UNL A   1      44.107  29.078  30.834  1.00  0.00     0.049 A 
ATOM     62  C   UNL A   1      43.262  23.813  28.625  1.00  0.00     0.074 A 
ATOM     63  C   UNL A   1      44.137  28.181  31.883  1.00  0.00     0.029 A 
ATOM     64  N   UNL A   1      44.842  28.515  29.811  1.00  0.00    -0.354 N 
ATOM     65  N   UNL A   1      44.234  24.385  27.981  1.00  0.00    -0.248 NA
ATOM     66  C   UNL A   1      43.527  23.525  30.030  1.00  0.00     0.031 C 
ATOM     67  C   UNL A   1      44.414  26.933  31.278  1.00  0.00     0.029 A 
ATOM     68  C   UNL A   1      44.889  27.147  29.989  1.00  0.00     0.049 A 
ATOM     69  H   UNL A   1      45.265  29.010  29.073  1.00  0.00     0.167 HD
ATOM     70  C   UNL A   1      44.942  24.987  28.973  1.00  0.00     0.074 A 
ATOM     71  C   UNL A   1      44.669  24.206  30.163  1.00  0.00     0.031 C 
ATOM     72  C   UNL A   1      45.168  26.317  28.840  1.00  0.00     0.031 A 
BRANCH  59  73
ATOM     73  C   UNL A   1      43.444  31.106  29.341  1.00  0.00    -0.014 A 
ATOM     74  C   UNL A   1      43.798  30.618  28.080  1.00  0.00     0.009 A 
ATOM     75  C   UNL A   1      43.485  32.502  29.549  1.00  0.00     0.009 A 
ATOM     76  C   UNL A   1      44.253  31.493  27.086  1.00  0.00     0.001 A 
ATOM     77  C   UNL A   1      43.983  33.367  28.577  1.00  0.00     0.001 A 
ATOM     78  C   UNL A   1      44.376  32.860  27.345  1.00  0.00     0.000 A 
ENDBRANCH  59  73
BRANCH  60  79
ATOM     79  C   UNL A   1      42.293  21.880  27.506  1.00  0.00    -0.014 A 
ATOM     80  C   UNL A   1      41.281  20.905  27.794  1.00  0.00     0.009 A 
ATOM     81  C   UNL A   1      43.206  21.500  26.516  1.00  0.00     0.009 A 
ATOM     82  C   UNL A   1      41.104  19.716  27.062  1.00  0.00     0.001 A 
ATOM     83  C   UNL A   1      43.055  20.278  25.805  1.00  0.00     0.001 A 
ATOM     84  C   UNL A   1      41.987  19.409  26.048  1.00  0.00     0.000 A 
ENDBRANCH  60  79
BRANCH  72  85
ATOM     85  C   UNL A   1      45.427  26.853  27.435  1.00  0.00    -0.014 A 
ATOM     86  C   UNL A   1      44.431  27.282  26.527  1.00  0.00     0.009 A 
ATOM     87  C   UNL A   1      46.752  26.893  26.980  1.00  0.00     0.009 A 
ATOM     88  C   UNL A   1      44.737  27.663  25.216  1.00  0.00     0.001 A 
ATOM     89  C   UNL A   1      47.067  27.328  25.687  1.00  0.00     0.001 A 
ATOM     90  C   UNL A   1      46.059  27.693  24.798  1.00  0.00     0.000 A 
ENDBRANCH  72  85
ENDBRANCH  46  47
ENDBRANCH  38  41
ENDBRANCH  36  37
ENDBRANCH  35  36
ENDBRANCH  34  35
ENDBRANCH   1  34
TORSDOF 17
ENDMDL
MODEL 3
REMARK VINA RESULT:     -12.0      2.486      5.343
REMARK SMILES Cc1c(C[NH2+]Cc2cccc(F)c2)c(C(=O)NCCCCNC(=O)c2ccc(-c3c4nc(c(-c5ccccc5)c5ccc([nH]5)c(-c5ccccc5)c5nc(c(-c6ccccc6)c6ccc3[nH]6)C=C5)C=C4)cc2)c(C)n1Cc1c(F)cccc1Cl
REMARK SMILES IDX 18 1 17 2 15 3 16 4 14 6 1 7 2 8 3 9 75 10 73 11 74 12 4 13
REMARK SMILES IDX 5 14 6 17 7 18 8 19 13 20 9 21 11 22 10 23 12 24 76 25 77 26
REMARK SMILES IDX 78 27 83 28 79 29 80 30 82 31 84 32 81 33 19 34 20 35 21 36
REMARK SMILES IDX 22 37 23 38 24 40 25 41 26 42 72 43 27 44 71 45 28 46 29 47
REMARK SMILES IDX 30 48 65 49 31 50 70 51 64 52 66 53 32 54 69 55 63 56 62 57
REMARK SMILES IDX 33 59 55 60 40 61 54 62 41 63 44 64 53 65 67 66 42 67 43 68
REMARK SMILES IDX 52 70 68 71 45 72 34 73 35 74 39 75 36 76 38 77 37 78 56 79
REMARK SMILES IDX 57 80 61 81 58 82 60 83 59 84 46 85 47 86 51 87 48 88 50 89
REMARK SMILES IDX 49 90
REMARK H PARENT 17 5 5 15 5 16 22 39 66 58 44 69
REMARK Flexibility Score: inf
ROOT
ATOM      1  C   UNL A   1      34.100  24.480  24.010  1.00  0.00     0.116 C 
ENDROOT
BRANCH   1   2
ATOM      2  N   UNL A   1      34.151  25.415  25.104  1.00  0.00    -0.352 N 
ATOM      3  C   UNL A   1      33.261  26.414  25.459  1.00  0.00     0.253 C 
ATOM      4  O   UNL A   1      33.548  27.035  26.479  1.00  0.00    -0.269 OA
ATOM      5  H   UNL A   1      34.938  25.332  25.689  1.00  0.00     0.163 HD
BRANCH   3   6
ATOM      6  C   UNL A   1      32.119  26.778  24.593  1.00  0.00     0.069 A 
ATOM      7  C   UNL A   1      28.494  26.960  23.620  1.00  0.00     0.065 C 
ATOM      8  C   UNL A   1      29.961  27.076  23.868  1.00  0.00     0.025 A 
ATOM      9  C   UNL A   1      30.732  26.434  24.841  1.00  0.00     0.040 A 
ATOM     10  N   UNL A   1      30.834  27.833  23.105  1.00  0.00    -0.343 N 
ATOM     11  C   UNL A   1      32.096  27.289  23.293  1.00  0.00     0.028 A 
ATOM     12  C   UNL A   1      33.117  27.234  22.206  1.00  0.00     0.065 C 
BRANCH   9  13
ATOM     13  C   UNL A   1      30.223  25.495  25.911  1.00  0.00     0.300 C 
BRANCH  13  14
ATOM     14  N   UNL A   1      30.323  24.133  25.392  1.00  0.00    -0.339 N 
ATOM     15  H   UNL A   1      31.129  24.087  24.768  1.00  0.00     0.346 HD
ATOM     16  H   UNL A   1      29.444  23.934  24.914  1.00  0.00     0.346 HD
BRANCH  14  17
ATOM     17  C   UNL A   1      30.482  23.114  26.422  1.00  0.00     0.297 C 
BRANCH  17  18
ATOM     18  C   UNL A   1      31.827  22.417  26.481  1.00  0.00     0.009 A 
ATOM     19  C   UNL A   1      32.780  22.659  27.486  1.00  0.00     0.010 A 
ATOM     20  C   UNL A   1      32.127  21.445  25.511  1.00  0.00     0.048 A 
ATOM     21  C   UNL A   1      34.015  22.003  27.486  1.00  0.00     0.004 A 
ATOM     22  C   UNL A   1      33.355  20.788  25.526  1.00  0.00     0.123 A 
ATOM     23  C   UNL A   1      34.306  21.069  26.497  1.00  0.00     0.039 A 
ATOM     24  F   UNL A   1      33.625  19.871  24.588  1.00  0.00    -0.207 F 
ENDBRANCH  17  18
ENDBRANCH  14  17
ENDBRANCH  13  14
ENDBRANCH   9  13
BRANCH  10  25
ATOM     25  C   UNL A   1      30.488  28.864  22.111  1.00  0.00     0.162 C 
BRANCH  25  26
ATOM     26  C   UNL A   1      29.616  29.978  22.661  1.00  0.00     0.026 A 
ATOM     27  C   UNL A   1      28.439  30.341  21.988  1.00  0.00     0.129 A 
ATOM     28  C   UNL A   1      29.867  30.649  23.869  1.00  0.00     0.048 A 
ATOM     29  F   UNL A   1      28.054  29.671  20.898  1.00  0.00    -0.207 F 
ATOM     30  C   UNL A   1      27.583  31.346  22.436  1.00  0.00     0.040 A 
ATOM     31  C   UNL A   1      28.999  31.650  24.342  1.00  0.00     0.021 A 
ATOM     32  Cl  UNL A   1      31.205  30.254  24.886  1.00  0.00    -0.084 Cl
ATOM     33  C   UNL A   1      27.864  32.012  23.619  1.00  0.00     0.005 A 
ENDBRANCH  25  26
ENDBRANCH  10  25
ENDBRANCH   3   6
ENDBRANCH   1   2
BRANCH   1  34
ATOM     34  C   UNL A   1      35.119  23.344  24.034  1.00  0.00     0.023 C 
BRANCH  34  35
ATOM     35  C   UNL A   1      36.579  23.647  24.404  1.00  0.00     0.023 C 
BRANCH  35  36
ATOM     36  C   UNL A   1      37.035  23.489  25.863  1.00  0.00     0.116 C 
BRANCH  36  37
ATOM     37  N   UNL A   1      38.110  22.539  26.055  1.00  0.00    -0.352 N 
ATOM     38  C   UNL A   1      39.333  22.755  26.664  1.00  0.00     0.251 C 
ATOM     39  H   UNL A   1      37.951  21.630  25.712  1.00  0.00     0.163 HD
ATOM     40  O   UNL A   1      40.116  21.813  26.761  1.00  0.00    -0.269 OA
BRANCH  38  41
ATOM     41  C   UNL A   1      39.771  24.132  27.082  1.00  0.00     0.039 A 
ATOM     42  C   UNL A   1      39.259  24.610  28.272  1.00  0.00     0.014 A 
ATOM     43  C   UNL A   1      40.520  25.035  26.305  1.00  0.00     0.014 A 
ATOM     44  C   UNL A   1      39.533  25.936  28.684  1.00  0.00     0.010 A 
ATOM     45  C   UNL A   1      40.707  26.429  26.690  1.00  0.00     0.010 A 
ATOM     46  C   UNL A   1      40.192  26.946  27.892  1.00  0.00    -0.014 A 
BRANCH  46  47
ATOM     47  C   UNL A   1      39.841  28.466  28.274  1.00  0.00     0.031 A 
ATOM     48  C   UNL A   1      41.183  29.100  28.394  1.00  0.00     0.074 A 
ATOM     49  C   UNL A   1      38.838  29.341  28.675  1.00  0.00     0.049 A 
ATOM     50  N   UNL A   1      42.021  28.610  29.258  1.00  0.00    -0.248 NA
ATOM     51  C   UNL A   1      41.776  29.947  27.359  1.00  0.00     0.031 C 
ATOM     52  C   UNL A   1      37.425  29.059  28.965  1.00  0.00     0.029 A 
ATOM     53  N   UNL A   1      38.860  30.749  28.921  1.00  0.00    -0.354 N 
ATOM     54  C   UNL A   1      43.216  29.241  29.039  1.00  0.00     0.074 A 
ATOM     55  C   UNL A   1      43.057  29.895  27.746  1.00  0.00     0.031 C 
ATOM     56  C   UNL A   1      36.720  30.208  29.191  1.00  0.00     0.029 A 
ATOM     57  C   UNL A   1      37.592  31.380  29.133  1.00  0.00     0.049 A 
ATOM     58  H   UNL A   1      39.703  31.258  28.944  1.00  0.00     0.167 HD
ATOM     59  C   UNL A   1      43.882  29.672  30.146  1.00  0.00     0.031 A 
ATOM     60  C   UNL A   1      37.263  32.717  29.317  1.00  0.00     0.031 A 
ATOM     61  C   UNL A   1      43.736  31.092  30.314  1.00  0.00     0.049 A 
ATOM     62  C   UNL A   1      38.460  33.386  29.843  1.00  0.00     0.074 A 
ATOM     63  C   UNL A   1      43.826  32.160  29.443  1.00  0.00     0.029 A 
ATOM     64  N   UNL A   1      42.950  31.509  31.369  1.00  0.00    -0.354 N 
ATOM     65  N   UNL A   1      38.768  33.300  31.102  1.00  0.00    -0.248 NA
ATOM     66  C   UNL A   1      39.275  34.309  29.062  1.00  0.00     0.031 C 
ATOM     67  C   UNL A   1      42.691  32.952  29.730  1.00  0.00     0.029 A 
ATOM     68  C   UNL A   1      42.163  32.564  30.956  1.00  0.00     0.049 A 
ATOM     69  H   UNL A   1      42.951  31.115  32.271  1.00  0.00     0.167 HD
ATOM     70  C   UNL A   1      40.068  33.697  31.125  1.00  0.00     0.074 A 
ATOM     71  C   UNL A   1      40.221  34.561  29.971  1.00  0.00     0.031 C 
ATOM     72  C   UNL A   1      40.955  32.847  31.697  1.00  0.00     0.031 A 
BRANCH  59  73
ATOM     73  C   UNL A   1      43.894  28.681  31.286  1.00  0.00    -0.014 A 
ATOM     74  C   UNL A   1      44.521  27.445  31.108  1.00  0.00     0.009 A 
ATOM     75  C   UNL A   1      43.162  28.890  32.474  1.00  0.00     0.009 A 
ATOM     76  C   UNL A   1      44.353  26.425  32.054  1.00  0.00     0.001 A 
ATOM     77  C   UNL A   1      42.956  27.861  33.392  1.00  0.00     0.001 A 
ATOM     78  C   UNL A   1      43.546  26.623  33.175  1.00  0.00     0.000 A 
ENDBRANCH  59  73
BRANCH  60  79
ATOM     79  C   UNL A   1      36.091  33.714  29.391  1.00  0.00    -0.014 A 
ATOM     80  C   UNL A   1      35.382  34.054  28.190  1.00  0.00     0.009 A 
ATOM     81  C   UNL A   1      35.398  33.988  30.575  1.00  0.00     0.009 A 
ATOM     82  C   UNL A   1      34.046  34.495  28.164  1.00  0.00     0.001 A 
ATOM     83  C   UNL A   1      34.063  34.476  30.551  1.00  0.00     0.001 A 
ATOM     84  C   UNL A   1      33.375  34.690  29.354  1.00  0.00     0.000 A 
ENDBRANCH  60  79
BRANCH  72  85
ATOM     85  C   UNL A   1      40.492  32.060  32.919  1.00  0.00    -0.014 A 
ATOM     86  C   UNL A   1      40.565  32.510  34.257  1.00  0.00     0.009 A 
ATOM     87  C   UNL A   1      39.985  30.769  32.716  1.00  0.00     0.009 A 
ATOM     88  C   UNL A   1      40.216  31.688  35.336  1.00  0.00     0.001 A 
ATOM     89  C   UNL A   1      39.582  29.965  33.790  1.00  0.00     0.001 A 
ATOM     90  C   UNL A   1      39.717  30.416  35.100  1.00  0.00     0.000 A 
ENDBRANCH  72  85
ENDBRANCH  46  47
ENDBRANCH  38  41
ENDBRANCH  36  37
ENDBRANCH  35  36
ENDBRANCH  34  35
ENDBRANCH   1  34
TORSDOF 17
ENDMDL
