MODEL 1
REMARK VINA RESULT:     -11.2      0.000      0.000
REMARK SMILES O=C(Cc1ccn(-c2ccccc2F)c1)NCCCCNC(=O)c1ccc(-c2c3nc(c(-c4ccccc4)c4ccc([nH]4)c(-c4ccccc4)c4nc(c(-c5ccccc5)c5ccc2[nH]5)C=C4)C=C3)cc1
REMARK SMILES IDX 18 1 17 2 16 3 1 4 2 5 3 7 4 8 5 9 15 10 6 11 7 12 8 13 9 14
REMARK SMILES IDX 13 15 10 16 12 17 14 18 11 19 19 20 20 21 21 22 22 23 23 25
REMARK SMILES IDX 24 26 25 27 71 28 26 29 70 30 27 31 28 32 29 33 64 34 30 35
REMARK SMILES IDX 69 36 63 37 65 38 31 39 68 40 62 41 61 42 32 44 54 45 39 46
REMARK SMILES IDX 53 47 40 48 43 49 52 50 66 51 41 52 42 53 51 55 67 56 44 57
REMARK SMILES IDX 33 58 34 59 38 60 35 61 37 62 36 63 55 64 56 65 60 66 57 67
REMARK SMILES IDX 59 68 58 69 45 70 46 71 50 72 47 73 49 74 48 75
REMARK H PARENT 16 6 21 24 65 43 43 54
REMARK Flexibility Score: inf
ROOT
ATOM      1  C   UNL A   1      32.658  29.718  26.373  1.00  0.00     0.023 C 
ENDROOT
BRANCH   1   2
ATOM      2  C   UNL A   1      31.835  29.097  25.242  1.00  0.00     0.116 C 
BRANCH   2   3
ATOM      3  N   UNL A   1      31.486  27.720  25.523  1.00  0.00    -0.356 N 
ATOM      4  O   UNL A   1      30.198  27.393  23.648  1.00  0.00    -0.275 OA
ATOM      5  C   UNL A   1      30.685  26.964  24.693  1.00  0.00     0.224 C 
ATOM      6  H   UNL A   1      31.836  27.306  26.344  1.00  0.00     0.163 HD
BRANCH   5   7
ATOM      7  C   UNL A   1      30.377  25.573  25.221  1.00  0.00     0.137 C 
BRANCH   7   8
ATOM      8  C   UNL A   1      31.252  24.506  24.642  1.00  0.00    -0.021 A 
ATOM      9  C   UNL A   1      30.991  23.702  23.501  1.00  0.00     0.024 A 
ATOM     10  C   UNL A   1      32.514  24.149  25.084  1.00  0.00     0.095 A 
ATOM     11  C   UNL A   1      32.112  22.937  23.261  1.00  0.00     0.091 A 
ATOM     12  N   UNL A   1      33.058  23.214  24.229  1.00  0.00    -0.321 N 
BRANCH  12  13
ATOM     13  C   UNL A   1      34.363  22.673  24.293  1.00  0.00     0.081 A 
ATOM     14  C   UNL A   1      35.353  23.134  23.412  1.00  0.00     0.030 A 
ATOM     15  C   UNL A   1      34.685  21.698  25.238  1.00  0.00     0.147 A 
ATOM     16  C   UNL A   1      36.653  22.630  23.502  1.00  0.00     0.002 A 
ATOM     17  C   UNL A   1      35.972  21.169  25.301  1.00  0.00     0.041 A 
ATOM     18  F   UNL A   1      33.756  21.189  26.060  1.00  0.00    -0.205 F 
ATOM     19  C   UNL A   1      36.961  21.642  24.438  1.00  0.00     0.003 A 
ENDBRANCH  12  13
ENDBRANCH   7   8
ENDBRANCH   5   7
ENDBRANCH   2   3
ENDBRANCH   1   2
BRANCH   1  20
ATOM     20  C   UNL A   1      33.534  28.733  27.164  1.00  0.00     0.023 C 
BRANCH  20  21
ATOM     21  C   UNL A   1      35.002  29.140  27.269  1.00  0.00     0.116 C 
BRANCH  21  22
ATOM     22  N   UNL A   1      35.227  30.044  28.387  1.00  0.00    -0.352 N 
ATOM     23  C   UNL A   1      36.283  30.096  29.251  1.00  0.00     0.251 C 
ATOM     24  H   UNL A   1      34.520  30.712  28.540  1.00  0.00     0.163 HD
ATOM     25  O   UNL A   1      36.126  30.630  30.363  1.00  0.00    -0.269 OA
BRANCH  23  26
ATOM     26  C   UNL A   1      37.607  29.551  28.903  1.00  0.00     0.039 A 
ATOM     27  C   UNL A   1      38.388  28.980  29.917  1.00  0.00     0.014 A 
ATOM     28  C   UNL A   1      38.131  29.701  27.613  1.00  0.00     0.014 A 
ATOM     29  C   UNL A   1      39.670  28.523  29.632  1.00  0.00     0.010 A 
ATOM     30  C   UNL A   1      39.395  29.217  27.314  1.00  0.00     0.010 A 
ATOM     31  C   UNL A   1      40.160  28.627  28.322  1.00  0.00    -0.014 A 
BRANCH  31  32
ATOM     32  C   UNL A   1      41.412  27.933  27.962  1.00  0.00     0.031 A 
ATOM     33  C   UNL A   1      42.562  28.957  27.776  1.00  0.00     0.074 A 
ATOM     34  C   UNL A   1      41.336  26.566  27.854  1.00  0.00     0.049 A 
ATOM     35  N   UNL A   1      43.673  28.845  27.121  1.00  0.00    -0.248 NA
ATOM     36  C   UNL A   1      42.453  30.323  28.375  1.00  0.00     0.031 C 
ATOM     37  C   UNL A   1      40.127  25.755  28.150  1.00  0.00     0.029 A 
ATOM     38  N   UNL A   1      42.225  25.572  27.490  1.00  0.00    -0.354 N 
ATOM     39  C   UNL A   1      44.448  30.009  27.348  1.00  0.00     0.074 A 
ATOM     40  C   UNL A   1      43.611  30.918  28.065  1.00  0.00     0.031 C 
ATOM     41  C   UNL A   1      40.327  24.446  27.866  1.00  0.00     0.029 A 
ATOM     42  C   UNL A   1      41.675  24.263  27.368  1.00  0.00     0.049 A 
ATOM     43  H   UNL A   1      43.178  25.757  27.326  1.00  0.00     0.167 HD
ATOM     44  C   UNL A   1      45.776  30.082  27.027  1.00  0.00     0.031 A 
ATOM     45  C   UNL A   1      42.250  23.129  26.850  1.00  0.00     0.031 A 
ATOM     46  C   UNL A   1      46.162  28.894  26.346  1.00  0.00     0.049 A 
ATOM     47  C   UNL A   1      43.651  23.490  26.613  1.00  0.00     0.074 A 
ATOM     48  C   UNL A   1      45.859  28.422  25.096  1.00  0.00     0.029 A 
ATOM     49  N   UNL A   1      46.593  27.859  27.139  1.00  0.00    -0.354 N 
ATOM     50  N   UNL A   1      44.543  23.632  27.543  1.00  0.00    -0.248 NA
ATOM     51  C   UNL A   1      44.080  23.799  25.244  1.00  0.00     0.031 C 
ATOM     52  C   UNL A   1      45.571  27.067  25.355  1.00  0.00     0.029 A 
ATOM     53  C   UNL A   1      46.015  26.724  26.638  1.00  0.00     0.049 A 
ATOM     54  H   UNL A   1      47.197  27.922  27.915  1.00  0.00     0.167 HD
ATOM     55  C   UNL A   1      45.462  24.439  26.925  1.00  0.00     0.074 A 
ATOM     56  C   UNL A   1      45.320  24.211  25.500  1.00  0.00     0.031 C 
ATOM     57  C   UNL A   1      45.835  25.601  27.521  1.00  0.00     0.031 A 
BRANCH  44  58
ATOM     58  C   UNL A   1      46.896  30.991  27.455  1.00  0.00    -0.014 A 
ATOM     59  C   UNL A   1      47.467  30.747  28.733  1.00  0.00     0.009 A 
ATOM     60  C   UNL A   1      47.143  32.237  26.874  1.00  0.00     0.009 A 
ATOM     61  C   UNL A   1      48.110  31.749  29.461  1.00  0.00     0.001 A 
ATOM     62  C   UNL A   1      47.830  33.231  27.591  1.00  0.00     0.001 A 
ATOM     63  C   UNL A   1      48.271  33.003  28.896  1.00  0.00     0.000 A 
ENDBRANCH  44  58
BRANCH  45  64
ATOM     64  C   UNL A   1      41.871  21.735  26.397  1.00  0.00    -0.014 A 
ATOM     65  C   UNL A   1      42.738  20.674  26.138  1.00  0.00     0.009 A 
ATOM     66  C   UNL A   1      40.483  21.418  26.292  1.00  0.00     0.009 A 
ATOM     67  C   UNL A   1      42.240  19.368  25.904  1.00  0.00     0.001 A 
ATOM     68  C   UNL A   1      39.985  20.125  26.115  1.00  0.00     0.001 A 
ATOM     69  C   UNL A   1      40.873  19.087  25.937  1.00  0.00     0.000 A 
ENDBRANCH  45  64
BRANCH  57  70
ATOM     70  C   UNL A   1      45.607  25.675  29.029  1.00  0.00    -0.014 A 
ATOM     71  C   UNL A   1      44.408  26.213  29.528  1.00  0.00     0.009 A 
ATOM     72  C   UNL A   1      46.592  25.347  29.982  1.00  0.00     0.009 A 
ATOM     73  C   UNL A   1      44.214  26.449  30.896  1.00  0.00     0.001 A 
ATOM     74  C   UNL A   1      46.403  25.579  31.356  1.00  0.00     0.001 A 
ATOM     75  C   UNL A   1      45.213  26.137  31.811  1.00  0.00     0.000 A 
ENDBRANCH  57  70
ENDBRANCH  31  32
ENDBRANCH  23  26
ENDBRANCH  21  22
ENDBRANCH  20  21
ENDBRANCH   1  20
TORSDOF 13
ENDMDL
MODEL 2
REMARK VINA RESULT:     -11.2      5.109      9.700
REMARK SMILES O=C(Cc1ccn(-c2ccccc2F)c1)NCCCCNC(=O)c1ccc(-c2c3nc(c(-c4ccccc4)c4ccc([nH]4)c(-c4ccccc4)c4nc(c(-c5ccccc5)c5ccc2[nH]5)C=C4)C=C3)cc1
REMARK SMILES IDX 18 1 17 2 16 3 1 4 2 5 3 7 4 8 5 9 15 10 6 11 7 12 8 13 9 14
REMARK SMILES IDX 13 15 10 16 12 17 14 18 11 19 19 20 20 21 21 22 22 23 23 25
REMARK SMILES IDX 24 26 25 27 71 28 26 29 70 30 27 31 28 32 29 33 64 34 30 35
REMARK SMILES IDX 69 36 63 37 65 38 31 39 68 40 62 41 61 42 32 44 54 45 39 46
REMARK SMILES IDX 53 47 40 48 43 49 52 50 66 51 41 52 42 53 51 55 67 56 44 57
REMARK SMILES IDX 33 58 34 59 38 60 35 61 37 62 36 63 55 64 56 65 60 66 57 67
REMARK SMILES IDX 59 68 58 69 45 70 46 71 50 72 47 73 49 74 48 75
REMARK H PARENT 16 6 21 24 65 43 43 54
REMARK Flexibility Score: inf
ROOT
ATOM      1  C   UNL A   1      34.191  30.754  27.808  1.00  0.00     0.023 C 
ENDROOT
BRANCH   1   2
ATOM      2  C   UNL A   1      34.613  29.444  27.140  1.00  0.00     0.116 C 
BRANCH   2   3
ATOM      3  N   UNL A   1      33.480  28.578  26.889  1.00  0.00    -0.356 N 
ATOM      4  O   UNL A   1      33.932  28.199  24.667  1.00  0.00    -0.275 OA
ATOM      5  C   UNL A   1      33.224  28.014  25.656  1.00  0.00     0.224 C 
ATOM      6  H   UNL A   1      32.864  28.384  27.631  1.00  0.00     0.163 HD
BRANCH   5   7
ATOM      7  C   UNL A   1      31.937  27.210  25.594  1.00  0.00     0.137 C 
BRANCH   7   8
ATOM      8  C   UNL A   1      30.955  27.730  24.592  1.00  0.00    -0.021 A 
ATOM      9  C   UNL A   1      29.939  27.000  23.919  1.00  0.00     0.024 A 
ATOM     10  C   UNL A   1      30.820  29.045  24.180  1.00  0.00     0.095 A 
ATOM     11  C   UNL A   1      29.199  27.896  23.179  1.00  0.00     0.091 A 
ATOM     12  N   UNL A   1      29.731  29.160  23.342  1.00  0.00    -0.321 N 
BRANCH  12  13
ATOM     13  C   UNL A   1      29.216  30.356  22.790  1.00  0.00     0.081 A 
ATOM     14  C   UNL A   1      28.721  30.363  21.478  1.00  0.00     0.030 A 
ATOM     15  C   UNL A   1      29.176  31.530  23.545  1.00  0.00     0.147 A 
ATOM     16  C   UNL A   1      28.174  31.534  20.947  1.00  0.00     0.002 A 
ATOM     17  C   UNL A   1      28.666  32.706  23.001  1.00  0.00     0.041 A 
ATOM     18  F   UNL A   1      29.691  31.582  24.783  1.00  0.00    -0.205 F 
ATOM     19  C   UNL A   1      28.155  32.706  21.703  1.00  0.00     0.003 A 
ENDBRANCH  12  13
ENDBRANCH   7   8
ENDBRANCH   5   7
ENDBRANCH   2   3
ENDBRANCH   1   2
BRANCH   1  20
ATOM     20  C   UNL A   1      33.431  31.737  26.901  1.00  0.00     0.023 C 
BRANCH  20  21
ATOM     21  C   UNL A   1      32.226  32.402  27.564  1.00  0.00     0.116 C 
BRANCH  21  22
ATOM     22  N   UNL A   1      32.365  33.850  27.593  1.00  0.00    -0.352 N 
ATOM     23  C   UNL A   1      33.117  34.624  28.427  1.00  0.00     0.251 C 
ATOM     24  H   UNL A   1      31.843  34.338  26.915  1.00  0.00     0.163 HD
ATOM     25  O   UNL A   1      32.807  35.819  28.584  1.00  0.00    -0.269 OA
BRANCH  23  26
ATOM     26  C   UNL A   1      34.295  34.096  29.137  1.00  0.00     0.039 A 
ATOM     27  C   UNL A   1      34.115  33.513  30.399  1.00  0.00     0.014 A 
ATOM     28  C   UNL A   1      35.585  34.271  28.622  1.00  0.00     0.014 A 
ATOM     29  C   UNL A   1      35.217  33.071  31.123  1.00  0.00     0.010 A 
ATOM     30  C   UNL A   1      36.686  33.802  29.323  1.00  0.00     0.010 A 
ATOM     31  C   UNL A   1      36.499  33.200  30.570  1.00  0.00    -0.014 A 
BRANCH  31  32
ATOM     32  C   UNL A   1      37.638  32.522  31.218  1.00  0.00     0.031 A 
ATOM     33  C   UNL A   1      37.956  31.189  30.491  1.00  0.00     0.074 A 
ATOM     34  C   UNL A   1      38.184  33.161  32.304  1.00  0.00     0.049 A 
ATOM     35  N   UNL A   1      38.585  30.141  30.919  1.00  0.00    -0.248 NA
ATOM     36  C   UNL A   1      37.478  30.965  29.092  1.00  0.00     0.031 C 
ATOM     37  C   UNL A   1      37.766  34.496  32.805  1.00  0.00     0.029 A 
ATOM     38  N   UNL A   1      39.186  32.854  33.206  1.00  0.00    -0.354 N 
ATOM     39  C   UNL A   1      38.724  29.229  29.845  1.00  0.00     0.074 A 
ATOM     40  C   UNL A   1      37.953  29.759  28.764  1.00  0.00     0.031 C 
ATOM     41  C   UNL A   1      38.422  34.825  33.943  1.00  0.00     0.029 A 
ATOM     42  C   UNL A   1      39.333  33.757  34.299  1.00  0.00     0.049 A 
ATOM     43  H   UNL A   1      39.761  32.062  33.100  1.00  0.00     0.167 HD
ATOM     44  C   UNL A   1      39.574  28.159  29.894  1.00  0.00     0.031 A 
ATOM     45  C   UNL A   1      40.095  33.623  35.433  1.00  0.00     0.031 A 
ATOM     46  C   UNL A   1      40.146  28.071  31.193  1.00  0.00     0.049 A 
ATOM     47  C   UNL A   1      40.899  32.419  35.208  1.00  0.00     0.074 A 
ATOM     48  C   UNL A   1      39.604  27.731  32.405  1.00  0.00     0.029 A 
ATOM     49  N   UNL A   1      41.308  28.777  31.388  1.00  0.00    -0.354 N 
ATOM     50  N   UNL A   1      41.914  32.349  34.405  1.00  0.00    -0.248 NA
ATOM     51  C   UNL A   1      40.499  31.167  35.863  1.00  0.00     0.031 C 
ATOM     52  C   UNL A   1      40.138  28.721  33.254  1.00  0.00     0.029 A 
ATOM     53  C   UNL A   1      41.190  29.383  32.610  1.00  0.00     0.049 A 
ATOM     54  H   UNL A   1      42.074  28.835  30.771  1.00  0.00     0.167 HD
ATOM     55  C   UNL A   1      41.974  31.005  34.148  1.00  0.00     0.074 A 
ATOM     56  C   UNL A   1      41.365  30.339  35.283  1.00  0.00     0.031 C 
ATOM     57  C   UNL A   1      41.962  30.572  32.860  1.00  0.00     0.031 A 
BRANCH  44  58
ATOM     58  C   UNL A   1      40.185  27.273  28.843  1.00  0.00    -0.014 A 
ATOM     59  C   UNL A   1      40.955  27.912  27.834  1.00  0.00     0.009 A 
ATOM     60  C   UNL A   1      39.753  25.970  28.585  1.00  0.00     0.009 A 
ATOM     61  C   UNL A   1      41.142  27.345  26.573  1.00  0.00     0.001 A 
ATOM     62  C   UNL A   1      39.980  25.382  27.329  1.00  0.00     0.001 A 
ATOM     63  C   UNL A   1      40.631  26.084  26.313  1.00  0.00     0.000 A 
ENDBRANCH  44  58
BRANCH  45  64
ATOM     64  C   UNL A   1      40.273  34.257  36.796  1.00  0.00    -0.014 A 
ATOM     65  C   UNL A   1      39.267  34.585  37.704  1.00  0.00     0.009 A 
ATOM     66  C   UNL A   1      41.603  34.480  37.263  1.00  0.00     0.009 A 
ATOM     67  C   UNL A   1      39.583  34.999  39.023  1.00  0.00     0.001 A 
ATOM     68  C   UNL A   1      41.924  34.836  38.576  1.00  0.00     0.001 A 
ATOM     69  C   UNL A   1      40.904  35.081  39.469  1.00  0.00     0.000 A 
ENDBRANCH  45  64
BRANCH  57  70
ATOM     70  C   UNL A   1      42.395  31.597  31.813  1.00  0.00    -0.014 A 
ATOM     71  C   UNL A   1      41.425  32.250  31.034  1.00  0.00     0.009 A 
ATOM     72  C   UNL A   1      43.741  31.847  31.480  1.00  0.00     0.009 A 
ATOM     73  C   UNL A   1      41.773  33.077  29.956  1.00  0.00     0.001 A 
ATOM     74  C   UNL A   1      44.097  32.677  30.402  1.00  0.00     0.001 A 
ATOM     75  C   UNL A   1      43.109  33.288  29.636  1.00  0.00     0.000 A 
ENDBRANCH  57  70
ENDBRANCH  31  32
ENDBRANCH  23  26
ENDBRANCH  21  22
ENDBRANCH  20  21
ENDBRANCH   1  20
TORSDOF 13
ENDMDL
MODEL 3
REMARK VINA RESULT:     -11.2      2.335      6.342
REMARK SMILES O=C(Cc1ccn(-c2ccccc2F)c1)NCCCCNC(=O)c1ccc(-c2c3nc(c(-c4ccccc4)c4ccc([nH]4)c(-c4ccccc4)c4nc(c(-c5ccccc5)c5ccc2[nH]5)C=C4)C=C3)cc1
REMARK SMILES IDX 18 1 17 2 16 3 1 4 2 5 3 7 4 8 5 9 15 10 6 11 7 12 8 13 9 14
REMARK SMILES IDX 13 15 10 16 12 17 14 18 11 19 19 20 20 21 21 22 22 23 23 25
REMARK SMILES IDX 24 26 25 27 71 28 26 29 70 30 27 31 28 32 29 33 64 34 30 35
REMARK SMILES IDX 69 36 63 37 65 38 31 39 68 40 62 41 61 42 32 44 54 45 39 46
REMARK SMILES IDX 53 47 40 48 43 49 52 50 66 51 41 52 42 53 51 55 67 56 44 57
REMARK SMILES IDX 33 58 34 59 38 60 35 61 37 62 36 63 55 64 56 65 60 66 57 67
REMARK SMILES IDX 59 68 58 69 45 70 46 71 50 72 47 73 49 74 48 75
REMARK H PARENT 16 6 21 24 65 43 43 54
REMARK Flexibility Score: inf
ROOT
ATOM      1  C   UNL A   1      32.527  29.980  27.073  1.00  0.00     0.023 C 
ENDROOT
BRANCH   1   2
ATOM      2  C   UNL A   1      31.754  30.107  25.759  1.00  0.00     0.116 C 
BRANCH   2   3
ATOM      3  N   UNL A   1      32.511  29.596  24.636  1.00  0.00    -0.356 N 
ATOM      4  O   UNL A   1      30.794  28.400  23.687  1.00  0.00    -0.275 OA
ATOM      5  C   UNL A   1      31.966  28.772  23.673  1.00  0.00     0.224 C 
ATOM      6  H   UNL A   1      33.460  29.848  24.556  1.00  0.00     0.163 HD
BRANCH   5   7
ATOM      7  C   UNL A   1      32.960  28.285  22.633  1.00  0.00     0.137 C 
BRANCH   7   8
ATOM      8  C   UNL A   1      33.051  26.794  22.545  1.00  0.00    -0.021 A 
ATOM      9  C   UNL A   1      32.541  25.958  21.516  1.00  0.00     0.024 A 
ATOM     10  C   UNL A   1      33.707  25.957  23.430  1.00  0.00     0.095 A 
ATOM     11  C   UNL A   1      32.950  24.670  21.781  1.00  0.00     0.091 A 
ATOM     12  N   UNL A   1      33.676  24.663  22.955  1.00  0.00    -0.321 N 
BRANCH  12  13
ATOM     13  C   UNL A   1      34.315  23.540  23.531  1.00  0.00     0.081 A 
ATOM     14  C   UNL A   1      35.703  23.385  23.404  1.00  0.00     0.030 A 
ATOM     15  C   UNL A   1      33.581  22.589  24.242  1.00  0.00     0.147 A 
ATOM     16  C   UNL A   1      36.340  22.298  24.008  1.00  0.00     0.002 A 
ATOM     17  C   UNL A   1      34.212  21.485  24.809  1.00  0.00     0.041 A 
ATOM     18  F   UNL A   1      32.245  22.667  24.338  1.00  0.00    -0.205 F 
ATOM     19  C   UNL A   1      35.595  21.344  24.701  1.00  0.00     0.003 A 
ENDBRANCH  12  13
ENDBRANCH   7   8
ENDBRANCH   5   7
ENDBRANCH   2   3
ENDBRANCH   1   2
BRANCH   1  20
ATOM     20  C   UNL A   1      33.363  28.698  27.220  1.00  0.00     0.023 C 
BRANCH  20  21
ATOM     21  C   UNL A   1      34.859  28.891  26.974  1.00  0.00     0.116 C 
BRANCH  21  22
ATOM     22  N   UNL A   1      35.271  30.261  27.239  1.00  0.00    -0.352 N 
ATOM     23  C   UNL A   1      36.301  30.713  28.011  1.00  0.00     0.251 C 
ATOM     24  H   UNL A   1      34.733  30.958  26.797  1.00  0.00     0.163 HD
ATOM     25  O   UNL A   1      36.258  31.875  28.453  1.00  0.00    -0.269 OA
BRANCH  23  26
ATOM     26  C   UNL A   1      37.470  29.875  28.329  1.00  0.00     0.039 A 
ATOM     27  C   UNL A   1      38.557  29.870  27.444  1.00  0.00     0.014 A 
ATOM     28  C   UNL A   1      37.455  29.007  29.429  1.00  0.00     0.014 A 
ATOM     29  C   UNL A   1      39.642  29.033  27.683  1.00  0.00     0.010 A 
ATOM     30  C   UNL A   1      38.549  28.196  29.691  1.00  0.00     0.010 A 
ATOM     31  C   UNL A   1      39.640  28.213  28.819  1.00  0.00    -0.014 A 
BRANCH  31  32
ATOM     32  C   UNL A   1      40.878  27.508  29.205  1.00  0.00     0.031 A 
ATOM     33  C   UNL A   1      41.126  26.300  28.265  1.00  0.00     0.074 A 
ATOM     34  C   UNL A   1      41.556  28.022  30.283  1.00  0.00     0.049 A 
ATOM     35  N   UNL A   1      41.838  25.235  28.454  1.00  0.00    -0.248 NA
ATOM     36  C   UNL A   1      40.459  26.241  26.927  1.00  0.00     0.031 C 
ATOM     37  C   UNL A   1      41.177  29.259  31.015  1.00  0.00     0.029 A 
ATOM     38  N   UNL A   1      42.684  27.646  30.987  1.00  0.00    -0.354 N 
ATOM     39  C   UNL A   1      41.847  24.480  27.256  1.00  0.00     0.074 A 
ATOM     40  C   UNL A   1      40.916  25.112  26.374  1.00  0.00     0.031 C 
ATOM     41  C   UNL A   1      41.979  29.465  32.086  1.00  0.00     0.029 A 
ATOM     42  C   UNL A   1      42.961  28.403  32.163  1.00  0.00     0.049 A 
ATOM     43  H   UNL A   1      43.260  26.903  30.695  1.00  0.00     0.167 HD
ATOM     44  C   UNL A   1      42.725  23.454  27.040  1.00  0.00     0.031 A 
ATOM     45  C   UNL A   1      43.880  28.155  33.152  1.00  0.00     0.031 A 
ATOM     46  C   UNL A   1      43.478  23.222  28.224  1.00  0.00     0.049 A 
ATOM     47  C   UNL A   1      44.677  27.030  32.656  1.00  0.00     0.074 A 
ATOM     48  C   UNL A   1      43.125  22.700  29.440  1.00  0.00     0.029 A 
ATOM     49  N   UNL A   1      44.637  23.949  28.352  1.00  0.00    -0.354 N 
ATOM     50  N   UNL A   1      45.568  27.115  31.719  1.00  0.00    -0.248 NA
ATOM     51  C   UNL A   1      44.409  25.686  33.181  1.00  0.00     0.031 C 
ATOM     52  C   UNL A   1      43.747  23.592  30.336  1.00  0.00     0.029 A 
ATOM     53  C   UNL A   1      44.677  24.382  29.650  1.00  0.00     0.049 A 
ATOM     54  H   UNL A   1      45.305  24.123  27.649  1.00  0.00     0.167 HD
ATOM     55  C   UNL A   1      45.628  25.821  31.274  1.00  0.00     0.074 A 
ATOM     56  C   UNL A   1      45.206  24.983  32.380  1.00  0.00     0.031 C 
ATOM     57  C   UNL A   1      45.444  25.563  29.952  1.00  0.00     0.031 A 
BRANCH  44  58
ATOM     58  C   UNL A   1      43.204  22.744  25.803  1.00  0.00    -0.014 A 
ATOM     59  C   UNL A   1      43.401  21.340  25.905  1.00  0.00     0.009 A 
ATOM     60  C   UNL A   1      43.806  23.395  24.724  1.00  0.00     0.009 A 
ATOM     61  C   UNL A   1      44.283  20.653  25.070  1.00  0.00     0.001 A 
ATOM     62  C   UNL A   1      44.660  22.692  23.857  1.00  0.00     0.001 A 
ATOM     63  C   UNL A   1      44.933  21.338  24.057  1.00  0.00     0.000 A 
ENDBRANCH  44  58
BRANCH  45  64
ATOM     64  C   UNL A   1      44.233  28.611  34.552  1.00  0.00    -0.014 A 
ATOM     65  C   UNL A   1      43.393  29.257  35.459  1.00  0.00     0.009 A 
ATOM     66  C   UNL A   1      45.529  28.290  35.056  1.00  0.00     0.009 A 
ATOM     67  C   UNL A   1      43.792  29.459  36.805  1.00  0.00     0.001 A 
ATOM     68  C   UNL A   1      45.910  28.436  36.392  1.00  0.00     0.001 A 
ATOM     69  C   UNL A   1      45.027  29.010  37.279  1.00  0.00     0.000 A 
ENDBRANCH  45  64
BRANCH  57  70
ATOM     70  C   UNL A   1      45.695  26.736  29.007  1.00  0.00    -0.014 A 
ATOM     71  C   UNL A   1      44.644  27.230  28.216  1.00  0.00     0.009 A 
ATOM     72  C   UNL A   1      46.970  27.289  28.776  1.00  0.00     0.009 A 
ATOM     73  C   UNL A   1      44.856  28.195  27.220  1.00  0.00     0.001 A 
ATOM     74  C   UNL A   1      47.189  28.259  27.781  1.00  0.00     0.001 A 
ATOM     75  C   UNL A   1      46.129  28.707  26.999  1.00  0.00     0.000 A 
ENDBRANCH  57  70
ENDBRANCH  31  32
ENDBRANCH  23  26
ENDBRANCH  21  22
ENDBRANCH  20  21
ENDBRANCH   1  20
TORSDOF 13
ENDMDL
