MODEL 1
REMARK VINA RESULT:     -10.8      0.000      0.000
REMARK SMILES CN(CC(C)(C)O)C(=O)NC[C@@H](C(=O)NCCCCNC(=O)c1ccc(-c2c3nc(c(-c4ccccc4)c4ccc([nH]4)c(-c4ccccc4)c4nc(c(-c5ccccc5)c5ccc2[nH]5)C=C4)C=C3)cc1)c1ccccc1
REMARK SMILES IDX 13 1 14 2 15 3 12 5 11 6 10 7 8 8 9 9 2 11 1 12 3 13 4 14
REMARK SMILES IDX 5 15 6 16 7 17 71 19 72 20 76 21 73 22 75 23 74 24 16 25
REMARK SMILES IDX 17 26 18 27 19 28 20 29 21 30 22 32 23 33 24 34 70 35 25 36
REMARK SMILES IDX 69 37 26 38 27 39 28 40 63 41 29 42 68 43 62 44 64 45 30 46
REMARK SMILES IDX 67 47 61 48 60 49 31 51 53 52 38 53 52 54 39 55 42 56 51 57
REMARK SMILES IDX 65 58 40 59 41 60 50 62 66 63 43 64 32 65 33 66 37 67 34 68
REMARK SMILES IDX 36 69 35 70 54 71 55 72 59 73 56 74 58 75 57 76 44 77 45 78
REMARK SMILES IDX 49 79 46 80 48 81 47 82
REMARK H PARENT 15 4 10 10 7 18 20 31 64 50 42 61
REMARK Flexibility Score: inf
ROOT
ATOM      1  C   UNL A   1      34.144  21.457  26.155  1.00  0.00     0.229 C 
ATOM      2  O   UNL A   1      33.591  21.060  27.184  1.00  0.00    -0.274 OA
ATOM      3  N   UNL A   1      35.382  22.009  26.322  1.00  0.00    -0.356 N 
ATOM      4  H   UNL A   1      35.789  21.851  27.205  1.00  0.00     0.163 HD
ENDROOT
BRANCH   1   5
ATOM      5  C   UNL A   1      33.535  21.306  24.746  1.00  0.00     0.128 C 
BRANCH   5   6
ATOM      6  C   UNL A   1      32.108  21.898  24.598  1.00  0.00     0.136 C 
BRANCH   6   7
ATOM      7  N   UNL A   1      31.584  22.667  25.722  1.00  0.00    -0.337 N 
ATOM      8  C   UNL A   1      31.347  23.920  26.130  1.00  0.00     0.317 C 
ATOM      9  O   UNL A   1      31.017  23.993  27.321  1.00  0.00    -0.249 OA
ATOM     10  H   UNL A   1      31.306  22.044  26.431  1.00  0.00     0.165 HD
BRANCH   8  11
ATOM     11  N   UNL A   1      31.449  25.040  25.367  1.00  0.00    -0.325 N 
ATOM     12  C   UNL A   1      30.388  25.239  24.378  1.00  0.00     0.148 C 
BRANCH  11  13
ATOM     13  C   UNL A   1      32.506  26.052  25.338  1.00  0.00     0.155 C 
BRANCH  13  14
ATOM     14  C   UNL A   1      32.213  27.336  26.159  1.00  0.00     0.077 C 
ATOM     15  C   UNL A   1      33.461  27.943  26.794  1.00  0.00     0.043 C 
ATOM     16  C   UNL A   1      31.518  28.353  25.248  1.00  0.00     0.043 C 
BRANCH  14  17
ATOM     17  O   UNL A   1      31.304  27.025  27.224  1.00  0.00    -0.389 OA
ATOM     18  H   UNL A   1      30.430  27.394  27.022  1.00  0.00     0.211 HD
ENDBRANCH  14  17
ENDBRANCH  13  14
ENDBRANCH  11  13
ENDBRANCH   8  11
ENDBRANCH   6   7
ENDBRANCH   5   6
BRANCH   5  19
ATOM     19  C   UNL A   1      33.437  19.838  24.292  1.00  0.00    -0.034 A 
ATOM     20  C   UNL A   1      34.432  18.916  24.650  1.00  0.00     0.004 A 
ATOM     21  C   UNL A   1      32.440  19.421  23.392  1.00  0.00     0.004 A 
ATOM     22  C   UNL A   1      34.460  17.638  24.082  1.00  0.00     0.000 A 
ATOM     23  C   UNL A   1      32.455  18.137  22.846  1.00  0.00     0.000 A 
ATOM     24  C   UNL A   1      33.476  17.253  23.176  1.00  0.00     0.000 A 
ENDBRANCH   5  19
ENDBRANCH   1   5
BRANCH   3  25
ATOM     25  C   UNL A   1      36.194  22.793  25.411  1.00  0.00     0.116 C 
BRANCH  25  26
ATOM     26  C   UNL A   1      36.962  21.873  24.459  1.00  0.00     0.023 C 
BRANCH  26  27
ATOM     27  C   UNL A   1      37.638  20.678  25.117  1.00  0.00     0.023 C 
BRANCH  27  28
ATOM     28  C   UNL A   1      39.002  20.983  25.710  1.00  0.00     0.116 C 
BRANCH  28  29
ATOM     29  N   UNL A   1      39.895  19.830  25.710  1.00  0.00    -0.352 N 
ATOM     30  C   UNL A   1      41.223  19.771  26.066  1.00  0.00     0.251 C 
ATOM     31  H   UNL A   1      39.494  18.981  25.415  1.00  0.00     0.163 HD
ATOM     32  O   UNL A   1      41.879  18.753  25.912  1.00  0.00    -0.269 OA
BRANCH  30  33
ATOM     33  C   UNL A   1      41.857  20.993  26.599  1.00  0.00     0.039 A 
ATOM     34  C   UNL A   1      42.405  21.914  25.707  1.00  0.00     0.014 A 
ATOM     35  C   UNL A   1      41.791  21.270  27.967  1.00  0.00     0.014 A 
ATOM     36  C   UNL A   1      42.795  23.169  26.176  1.00  0.00     0.010 A 
ATOM     37  C   UNL A   1      42.094  22.548  28.413  1.00  0.00     0.010 A 
ATOM     38  C   UNL A   1      42.584  23.514  27.520  1.00  0.00    -0.014 A 
BRANCH  38  39
ATOM     39  C   UNL A   1      42.844  24.885  28.025  1.00  0.00     0.031 A 
ATOM     40  C   UNL A   1      44.222  25.256  28.492  1.00  0.00     0.074 A 
ATOM     41  C   UNL A   1      41.824  25.757  28.156  1.00  0.00     0.049 A 
ATOM     42  N   UNL A   1      44.623  26.342  29.101  1.00  0.00    -0.248 NA
ATOM     43  C   UNL A   1      45.285  24.259  28.276  1.00  0.00     0.031 C 
ATOM     44  C   UNL A   1      40.432  25.508  27.773  1.00  0.00     0.029 A 
ATOM     45  N   UNL A   1      41.803  27.032  28.665  1.00  0.00    -0.354 N 
ATOM     46  C   UNL A   1      45.973  26.149  29.359  1.00  0.00     0.074 A 
ATOM     47  C   UNL A   1      46.314  24.826  28.886  1.00  0.00     0.031 C 
ATOM     48  C   UNL A   1      39.699  26.602  28.038  1.00  0.00     0.029 A 
ATOM     49  C   UNL A   1      40.555  27.609  28.654  1.00  0.00     0.049 A 
ATOM     50  H   UNL A   1      42.604  27.489  29.006  1.00  0.00     0.167 HD
ATOM     51  C   UNL A   1      46.858  27.006  29.921  1.00  0.00     0.031 A 
ATOM     52  C   UNL A   1      40.145  28.809  29.107  1.00  0.00     0.031 A 
ATOM     53  C   UNL A   1      46.526  28.329  30.372  1.00  0.00     0.049 A 
ATOM     54  C   UNL A   1      41.143  29.730  29.751  1.00  0.00     0.074 A 
ATOM     55  C   UNL A   1      47.364  29.294  30.902  1.00  0.00     0.029 A 
ATOM     56  N   UNL A   1      45.253  28.876  30.337  1.00  0.00    -0.354 N 
ATOM     57  N   UNL A   1      42.428  29.552  29.943  1.00  0.00    -0.248 NA
ATOM     58  C   UNL A   1      40.631  31.017  30.245  1.00  0.00     0.031 C 
ATOM     59  C   UNL A   1      46.589  30.412  31.229  1.00  0.00     0.029 A 
ATOM     60  C   UNL A   1      45.278  30.157  30.859  1.00  0.00     0.049 A 
ATOM     61  H   UNL A   1      44.451  28.421  29.994  1.00  0.00     0.167 HD
ATOM     62  C   UNL A   1      42.881  30.709  30.561  1.00  0.00     0.074 A 
ATOM     63  C   UNL A   1      41.738  31.590  30.694  1.00  0.00     0.031 C 
ATOM     64  C   UNL A   1      44.130  31.016  30.983  1.00  0.00     0.031 A 
BRANCH  51  65
ATOM     65  C   UNL A   1      48.274  26.532  30.076  1.00  0.00    -0.014 A 
ATOM     66  C   UNL A   1      48.688  25.862  31.238  1.00  0.00     0.009 A 
ATOM     67  C   UNL A   1      49.196  26.727  29.037  1.00  0.00     0.009 A 
ATOM     68  C   UNL A   1      50.007  25.423  31.369  1.00  0.00     0.001 A 
ATOM     69  C   UNL A   1      50.506  26.264  29.158  1.00  0.00     0.001 A 
ATOM     70  C   UNL A   1      50.913  25.619  30.327  1.00  0.00     0.000 A 
ENDBRANCH  51  65
BRANCH  52  71
ATOM     71  C   UNL A   1      38.721  29.216  28.977  1.00  0.00    -0.014 A 
ATOM     72  C   UNL A   1      37.840  29.062  30.058  1.00  0.00     0.009 A 
ATOM     73  C   UNL A   1      38.230  29.734  27.768  1.00  0.00     0.009 A 
ATOM     74  C   UNL A   1      36.488  29.390  29.921  1.00  0.00     0.001 A 
ATOM     75  C   UNL A   1      36.884  30.085  27.644  1.00  0.00     0.001 A 
ATOM     76  C   UNL A   1      36.012  29.904  28.716  1.00  0.00     0.000 A 
ENDBRANCH  52  71
BRANCH  64  77
ATOM     77  C   UNL A   1      44.330  32.366  31.608  1.00  0.00    -0.014 A 
ATOM     78  C   UNL A   1      44.224  32.542  32.996  1.00  0.00     0.009 A 
ATOM     79  C   UNL A   1      44.675  33.462  30.803  1.00  0.00     0.009 A 
ATOM     80  C   UNL A   1      44.433  33.800  33.562  1.00  0.00     0.001 A 
ATOM     81  C   UNL A   1      44.908  34.712  31.375  1.00  0.00     0.001 A 
ATOM     82  C   UNL A   1      44.780  34.882  32.753  1.00  0.00     0.000 A 
ENDBRANCH  64  77
ENDBRANCH  38  39
ENDBRANCH  30  33
ENDBRANCH  28  29
ENDBRANCH  27  28
ENDBRANCH  26  27
ENDBRANCH  25  26
ENDBRANCH   3  25
TORSDOF 18
ENDMDL
MODEL 2
REMARK VINA RESULT:     -10.6      1.140      6.027
REMARK SMILES CN(CC(C)(C)O)C(=O)NC[C@@H](C(=O)NCCCCNC(=O)c1ccc(-c2c3nc(c(-c4ccccc4)c4ccc([nH]4)c(-c4ccccc4)c4nc(c(-c5ccccc5)c5ccc2[nH]5)C=C4)C=C3)cc1)c1ccccc1
REMARK SMILES IDX 13 1 14 2 15 3 12 5 11 6 10 7 8 8 9 9 2 11 1 12 3 13 4 14
REMARK SMILES IDX 5 15 6 16 7 17 71 19 72 20 76 21 73 22 75 23 74 24 16 25
REMARK SMILES IDX 17 26 18 27 19 28 20 29 21 30 22 32 23 33 24 34 70 35 25 36
REMARK SMILES IDX 69 37 26 38 27 39 28 40 63 41 29 42 68 43 62 44 64 45 30 46
REMARK SMILES IDX 67 47 61 48 60 49 31 51 53 52 38 53 52 54 39 55 42 56 51 57
REMARK SMILES IDX 65 58 40 59 41 60 50 62 66 63 43 64 32 65 33 66 37 67 34 68
REMARK SMILES IDX 36 69 35 70 54 71 55 72 59 73 56 74 58 75 57 76 44 77 45 78
REMARK SMILES IDX 49 79 46 80 48 81 47 82
REMARK H PARENT 15 4 10 10 7 18 20 31 64 50 42 61
REMARK Flexibility Score: inf
ROOT
ATOM      1  C   UNL A   1      34.388  21.678  26.181  1.00  0.00     0.229 C 
ATOM      2  O   UNL A   1      33.887  21.233  27.215  1.00  0.00    -0.274 OA
ATOM      3  N   UNL A   1      35.560  22.362  26.336  1.00  0.00    -0.356 N 
ATOM      4  H   UNL A   1      35.986  22.256  27.218  1.00  0.00     0.163 HD
ENDROOT
BRANCH   1   5
ATOM      5  C   UNL A   1      33.793  21.452  24.777  1.00  0.00     0.128 C 
BRANCH   5   6
ATOM      6  C   UNL A   1      32.387  22.076  24.568  1.00  0.00     0.136 C 
BRANCH   6   7
ATOM      7  N   UNL A   1      31.637  22.445  25.764  1.00  0.00    -0.337 N 
ATOM      8  C   UNL A   1      31.227  23.504  26.474  1.00  0.00     0.317 C 
ATOM      9  O   UNL A   1      30.723  23.199  27.562  1.00  0.00    -0.249 OA
ATOM     10  H   UNL A   1      31.319  21.625  26.205  1.00  0.00     0.165 HD
BRANCH   8  11
ATOM     11  N   UNL A   1      31.333  24.806  26.097  1.00  0.00    -0.325 N 
ATOM     12  C   UNL A   1      32.697  25.318  25.945  1.00  0.00     0.148 C 
BRANCH  11  13
ATOM     13  C   UNL A   1      30.282  25.801  25.885  1.00  0.00     0.155 C 
BRANCH  13  14
ATOM     14  C   UNL A   1      29.947  26.100  24.400  1.00  0.00     0.077 C 
ATOM     15  C   UNL A   1      30.504  27.434  23.913  1.00  0.00     0.043 C 
ATOM     16  C   UNL A   1      30.470  24.946  23.537  1.00  0.00     0.043 C 
BRANCH  14  17
ATOM     17  O   UNL A   1      28.523  26.147  24.231  1.00  0.00    -0.389 OA
ATOM     18  H   UNL A   1      28.133  26.699  24.928  1.00  0.00     0.211 HD
ENDBRANCH  14  17
ENDBRANCH  13  14
ENDBRANCH  11  13
ENDBRANCH   8  11
ENDBRANCH   6   7
ENDBRANCH   5   6
BRANCH   5  19
ATOM     19  C   UNL A   1      33.653  19.960  24.421  1.00  0.00    -0.034 A 
ATOM     20  C   UNL A   1      34.698  19.064  24.693  1.00  0.00     0.004 A 
ATOM     21  C   UNL A   1      32.551  19.488  23.685  1.00  0.00     0.004 A 
ATOM     22  C   UNL A   1      34.666  17.757  24.198  1.00  0.00     0.000 A 
ATOM     23  C   UNL A   1      32.509  18.176  23.213  1.00  0.00     0.000 A 
ATOM     24  C   UNL A   1      33.576  17.317  23.453  1.00  0.00     0.000 A 
ENDBRANCH   5  19
ENDBRANCH   1   5
BRANCH   3  25
ATOM     25  C   UNL A   1      36.278  23.221  25.415  1.00  0.00     0.116 C 
BRANCH  25  26
ATOM     26  C   UNL A   1      37.270  22.402  24.587  1.00  0.00     0.023 C 
BRANCH  26  27
ATOM     27  C   UNL A   1      37.764  21.122  25.249  1.00  0.00     0.023 C 
BRANCH  27  28
ATOM     28  C   UNL A   1      39.118  21.251  25.922  1.00  0.00     0.116 C 
BRANCH  28  29
ATOM     29  N   UNL A   1      39.939  20.054  25.790  1.00  0.00    -0.352 N 
ATOM     30  C   UNL A   1      41.290  19.908  26.008  1.00  0.00     0.251 C 
ATOM     31  H   UNL A   1      39.462  19.240  25.508  1.00  0.00     0.163 HD
ATOM     32  O   UNL A   1      41.868  18.863  25.752  1.00  0.00    -0.269 OA
BRANCH  30  33
ATOM     33  C   UNL A   1      42.043  21.070  26.517  1.00  0.00     0.039 A 
ATOM     34  C   UNL A   1      42.555  21.996  25.607  1.00  0.00     0.014 A 
ATOM     35  C   UNL A   1      42.128  21.295  27.893  1.00  0.00     0.014 A 
ATOM     36  C   UNL A   1      43.061  23.207  26.078  1.00  0.00     0.010 A 
ATOM     37  C   UNL A   1      42.547  22.536  28.352  1.00  0.00     0.010 A 
ATOM     38  C   UNL A   1      43.003  23.509  27.448  1.00  0.00    -0.014 A 
BRANCH  38  39
ATOM     39  C   UNL A   1      43.391  24.841  27.972  1.00  0.00     0.031 A 
ATOM     40  C   UNL A   1      42.330  25.868  28.251  1.00  0.00     0.074 A 
ATOM     41  C   UNL A   1      44.695  25.160  28.101  1.00  0.00     0.049 A 
ATOM     42  N   UNL A   1      42.466  27.130  28.568  1.00  0.00    -0.248 NA
ATOM     43  C   UNL A   1      40.931  25.425  28.123  1.00  0.00     0.031 C 
ATOM     44  C   UNL A   1      45.824  24.266  27.829  1.00  0.00     0.029 A 
ATOM     45  N   UNL A   1      45.291  26.336  28.482  1.00  0.00    -0.354 N 
ATOM     46  C   UNL A   1      41.175  27.633  28.655  1.00  0.00     0.074 A 
ATOM     47  C   UNL A   1      40.273  26.557  28.311  1.00  0.00     0.031 C 
ATOM     48  C   UNL A   1      46.972  24.918  28.074  1.00  0.00     0.029 A 
ATOM     49  C   UNL A   1      46.665  26.287  28.472  1.00  0.00     0.049 A 
ATOM     50  H   UNL A   1      44.783  27.139  28.738  1.00  0.00     0.167 HD
ATOM     51  C   UNL A   1      40.775  28.877  29.011  1.00  0.00     0.031 A 
ATOM     52  C   UNL A   1      47.574  27.244  28.737  1.00  0.00     0.031 A 
ATOM     53  C   UNL A   1      41.669  29.941  29.374  1.00  0.00     0.049 A 
ATOM     54  C   UNL A   1      47.101  28.623  29.103  1.00  0.00     0.074 A 
ATOM     55  C   UNL A   1      41.358  31.218  29.804  1.00  0.00     0.029 A 
ATOM     56  N   UNL A   1      43.051  29.846  29.356  1.00  0.00    -0.354 N 
ATOM     57  N   UNL A   1      45.876  29.070  29.229  1.00  0.00    -0.248 NA
ATOM     58  C   UNL A   1      48.141  29.631  29.359  1.00  0.00     0.031 C 
ATOM     59  C   UNL A   1      42.555  31.913  30.007  1.00  0.00     0.029 A 
ATOM     60  C   UNL A   1      43.609  31.052  29.745  1.00  0.00     0.049 A 
ATOM     61  H   UNL A   1      43.561  29.043  29.104  1.00  0.00     0.167 HD
ATOM     62  C   UNL A   1      45.996  30.403  29.598  1.00  0.00     0.074 A 
ATOM     63  C   UNL A   1      47.413  30.687  29.694  1.00  0.00     0.031 C 
ATOM     64  C   UNL A   1      45.021  31.313  29.834  1.00  0.00     0.031 A 
BRANCH  51  65
ATOM     65  C   UNL A   1      39.298  29.148  29.025  1.00  0.00    -0.014 A 
ATOM     66  C   UNL A   1      38.640  29.626  27.880  1.00  0.00     0.009 A 
ATOM     67  C   UNL A   1      38.549  28.891  30.183  1.00  0.00     0.009 A 
ATOM     68  C   UNL A   1      37.266  29.870  27.905  1.00  0.00     0.001 A 
ATOM     69  C   UNL A   1      37.171  29.112  30.198  1.00  0.00     0.001 A 
ATOM     70  C   UNL A   1      36.532  29.608  29.061  1.00  0.00     0.000 A 
ENDBRANCH  51  65
BRANCH  52  71
ATOM     71  C   UNL A   1      49.028  26.943  28.663  1.00  0.00    -0.014 A 
ATOM     72  C   UNL A   1      49.706  27.028  27.437  1.00  0.00     0.009 A 
ATOM     73  C   UNL A   1      49.738  26.543  29.805  1.00  0.00     0.009 A 
ATOM     74  C   UNL A   1      51.059  26.690  27.351  1.00  0.00     0.001 A 
ATOM     75  C   UNL A   1      51.097  26.231  29.721  1.00  0.00     0.001 A 
ATOM     76  C   UNL A   1      51.754  26.295  28.493  1.00  0.00     0.000 A 
ENDBRANCH  52  71
BRANCH  64  77
ATOM     77  C   UNL A   1      45.454  32.691  30.239  1.00  0.00    -0.014 A 
ATOM     78  C   UNL A   1      45.818  32.973  31.565  1.00  0.00     0.009 A 
ATOM     79  C   UNL A   1      45.545  33.705  29.274  1.00  0.00     0.009 A 
ATOM     80  C   UNL A   1      46.239  34.255  31.920  1.00  0.00     0.001 A 
ATOM     81  C   UNL A   1      45.991  34.978  29.627  1.00  0.00     0.001 A 
ATOM     82  C   UNL A   1      46.330  35.254  30.951  1.00  0.00     0.000 A 
ENDBRANCH  64  77
ENDBRANCH  38  39
ENDBRANCH  30  33
ENDBRANCH  28  29
ENDBRANCH  27  28
ENDBRANCH  26  27
ENDBRANCH  25  26
ENDBRANCH   3  25
TORSDOF 18
ENDMDL
MODEL 3
REMARK VINA RESULT:     -10.5      2.740      4.992
REMARK SMILES CN(CC(C)(C)O)C(=O)NC[C@@H](C(=O)NCCCCNC(=O)c1ccc(-c2c3nc(c(-c4ccccc4)c4ccc([nH]4)c(-c4ccccc4)c4nc(c(-c5ccccc5)c5ccc2[nH]5)C=C4)C=C3)cc1)c1ccccc1
REMARK SMILES IDX 13 1 14 2 15 3 12 5 11 6 10 7 8 8 9 9 2 11 1 12 3 13 4 14
REMARK SMILES IDX 5 15 6 16 7 17 71 19 72 20 76 21 73 22 75 23 74 24 16 25
REMARK SMILES IDX 17 26 18 27 19 28 20 29 21 30 22 32 23 33 24 34 70 35 25 36
REMARK SMILES IDX 69 37 26 38 27 39 28 40 63 41 29 42 68 43 62 44 64 45 30 46
REMARK SMILES IDX 67 47 61 48 60 49 31 51 53 52 38 53 52 54 39 55 42 56 51 57
REMARK SMILES IDX 65 58 40 59 41 60 50 62 66 63 43 64 32 65 33 66 37 67 34 68
REMARK SMILES IDX 36 69 35 70 54 71 55 72 59 73 56 74 58 75 57 76 44 77 45 78
REMARK SMILES IDX 49 79 46 80 48 81 47 82
REMARK H PARENT 15 4 10 10 7 18 20 31 64 50 42 61
REMARK Flexibility Score: inf
ROOT
ATOM      1  C   UNL A   1      33.266  25.076  24.451  1.00  0.00     0.229 C 
ATOM      2  O   UNL A   1      33.520  25.683  23.408  1.00  0.00    -0.274 OA
ATOM      3  N   UNL A   1      34.046  23.985  24.708  1.00  0.00    -0.356 N 
ATOM      4  H   UNL A   1      34.853  23.914  24.148  1.00  0.00     0.163 HD
ENDROOT
BRANCH   1   5
ATOM      5  C   UNL A   1      32.183  25.520  25.455  1.00  0.00     0.128 C 
BRANCH   5   6
ATOM      6  C   UNL A   1      30.797  25.808  24.817  1.00  0.00     0.136 C 
BRANCH   6   7
ATOM      7  N   UNL A   1      30.786  26.383  23.476  1.00  0.00    -0.337 N 
ATOM      8  C   UNL A   1      30.859  27.548  22.821  1.00  0.00     0.317 C 
ATOM      9  O   UNL A   1      30.618  27.446  21.611  1.00  0.00    -0.249 OA
ATOM     10  H   UNL A   1      30.690  25.655  22.820  1.00  0.00     0.165 HD
BRANCH   8  11
ATOM     11  N   UNL A   1      31.153  28.755  23.372  1.00  0.00    -0.325 N 
ATOM     12  C   UNL A   1      32.575  29.102  23.429  1.00  0.00     0.148 C 
BRANCH  11  13
ATOM     13  C   UNL A   1      30.261  29.740  23.985  1.00  0.00     0.155 C 
BRANCH  13  14
ATOM     14  C   UNL A   1      29.255  30.413  23.013  1.00  0.00     0.077 C 
ATOM     15  C   UNL A   1      28.009  29.570  22.757  1.00  0.00     0.043 C 
ATOM     16  C   UNL A   1      28.874  31.787  23.576  1.00  0.00     0.043 C 
BRANCH  14  17
ATOM     17  O   UNL A   1      29.888  30.632  21.745  1.00  0.00    -0.389 OA
ATOM     18  H   UNL A   1      29.269  31.079  21.147  1.00  0.00     0.211 HD
ENDBRANCH  14  17
ENDBRANCH  13  14
ENDBRANCH  11  13
ENDBRANCH   8  11
ENDBRANCH   6   7
ENDBRANCH   5   6
BRANCH   5  19
ATOM     19  C   UNL A   1      32.570  26.795  26.226  1.00  0.00    -0.034 A 
ATOM     20  C   UNL A   1      31.580  27.596  26.816  1.00  0.00     0.004 A 
ATOM     21  C   UNL A   1      33.894  27.268  26.231  1.00  0.00     0.004 A 
ATOM     22  C   UNL A   1      31.897  28.852  27.342  1.00  0.00     0.000 A 
ATOM     23  C   UNL A   1      34.213  28.511  26.780  1.00  0.00     0.000 A 
ATOM     24  C   UNL A   1      33.211  29.310  27.318  1.00  0.00     0.000 A 
ENDBRANCH   5  19
ENDBRANCH   1   5
BRANCH   3  25
ATOM     25  C   UNL A   1      33.877  22.912  25.668  1.00  0.00     0.116 C 
BRANCH  25  26
ATOM     26  C   UNL A   1      35.219  22.230  25.944  1.00  0.00     0.023 C 
BRANCH  26  27
ATOM     27  C   UNL A   1      36.374  23.174  26.253  1.00  0.00     0.023 C 
BRANCH  27  28
ATOM     28  C   UNL A   1      37.462  23.195  25.194  1.00  0.00     0.116 C 
BRANCH  28  29
ATOM     29  N   UNL A   1      38.659  22.463  25.590  1.00  0.00    -0.352 N 
ATOM     30  C   UNL A   1      39.742  22.910  26.312  1.00  0.00     0.251 C 
ATOM     31  H   UNL A   1      38.697  21.522  25.303  1.00  0.00     0.163 HD
ATOM     32  O   UNL A   1      40.730  22.211  26.479  1.00  0.00    -0.269 OA
BRANCH  30  33
ATOM     33  C   UNL A   1      39.704  24.286  26.845  1.00  0.00     0.039 A 
ATOM     34  C   UNL A   1      39.175  24.503  28.118  1.00  0.00     0.014 A 
ATOM     35  C   UNL A   1      40.302  25.325  26.129  1.00  0.00     0.014 A 
ATOM     36  C   UNL A   1      39.343  25.750  28.722  1.00  0.00     0.010 A 
ATOM     37  C   UNL A   1      40.548  26.533  26.767  1.00  0.00     0.010 A 
ATOM     38  C   UNL A   1      40.084  26.752  28.075  1.00  0.00    -0.014 A 
BRANCH  38  39
ATOM     39  C   UNL A   1      40.414  28.034  28.742  1.00  0.00     0.031 A 
ATOM     40  C   UNL A   1      41.742  28.197  29.425  1.00  0.00     0.074 A 
ATOM     41  C   UNL A   1      39.486  29.010  28.818  1.00  0.00     0.049 A 
ATOM     42  N   UNL A   1      42.164  29.174  30.187  1.00  0.00    -0.248 NA
ATOM     43  C   UNL A   1      42.710  27.100  29.258  1.00  0.00     0.031 C 
ATOM     44  C   UNL A   1      38.146  28.964  28.228  1.00  0.00     0.029 A 
ATOM     45  N   UNL A   1      39.529  30.232  29.442  1.00  0.00    -0.354 N 
ATOM     46  C   UNL A   1      43.434  28.798  30.605  1.00  0.00     0.074 A 
ATOM     47  C   UNL A   1      43.694  27.487  30.055  1.00  0.00     0.031 C 
ATOM     48  C   UNL A   1      37.505  30.113  28.497  1.00  0.00     0.029 A 
ATOM     49  C   UNL A   1      38.366  30.955  29.319  1.00  0.00     0.049 A 
ATOM     50  H   UNL A   1      40.317  30.560  29.931  1.00  0.00     0.167 HD
ATOM     51  C   UNL A   1      44.314  29.493  31.363  1.00  0.00     0.031 A 
ATOM     52  C   UNL A   1      38.027  32.155  29.827  1.00  0.00     0.031 A 
ATOM     53  C   UNL A   1      44.065  30.805  31.892  1.00  0.00     0.049 A 
ATOM     54  C   UNL A   1      39.014  32.892  30.688  1.00  0.00     0.074 A 
ATOM     55  C   UNL A   1      44.916  31.615  32.623  1.00  0.00     0.029 A 
ATOM     56  N   UNL A   1      42.877  31.503  31.739  1.00  0.00    -0.354 N 
ATOM     57  N   UNL A   1      40.230  32.546  31.033  1.00  0.00    -0.248 NA
ATOM     58  C   UNL A   1      38.577  34.187  31.232  1.00  0.00     0.031 C 
ATOM     59  C   UNL A   1      44.228  32.788  32.949  1.00  0.00     0.029 A 
ATOM     60  C   UNL A   1      42.964  32.725  32.382  1.00  0.00     0.049 A 
ATOM     61  H   UNL A   1      42.089  31.178  31.247  1.00  0.00     0.167 HD
ATOM     62  C   UNL A   1      40.710  33.585  31.817  1.00  0.00     0.074 A 
ATOM     63  C   UNL A   1      39.663  34.584  31.880  1.00  0.00     0.031 C 
ATOM     64  C   UNL A   1      41.911  33.703  32.433  1.00  0.00     0.031 A 
BRANCH  51  65
ATOM     65  C   UNL A   1      45.632  28.840  31.661  1.00  0.00    -0.014 A 
ATOM     66  C   UNL A   1      45.797  28.031  32.796  1.00  0.00     0.009 A 
ATOM     67  C   UNL A   1      46.712  29.008  30.781  1.00  0.00     0.009 A 
ATOM     68  C   UNL A   1      47.028  27.427  33.061  1.00  0.00     0.001 A 
ATOM     69  C   UNL A   1      47.933  28.381  31.033  1.00  0.00     0.001 A 
ATOM     70  C   UNL A   1      48.092  27.597  32.177  1.00  0.00     0.000 A 
ENDBRANCH  51  65
BRANCH  52  71
ATOM     71  C   UNL A   1      36.690  32.741  29.546  1.00  0.00    -0.014 A 
ATOM     72  C   UNL A   1      36.421  33.324  28.297  1.00  0.00     0.009 A 
ATOM     73  C   UNL A   1      35.687  32.745  30.527  1.00  0.00     0.009 A 
ATOM     74  C   UNL A   1      35.185  33.927  28.049  1.00  0.00     0.001 A 
ATOM     75  C   UNL A   1      34.443  33.325  30.266  1.00  0.00     0.001 A 
ATOM     76  C   UNL A   1      34.196  33.924  29.031  1.00  0.00     0.000 A 
ENDBRANCH  52  71
BRANCH  64  77
ATOM     77  C   UNL A   1      42.162  34.963  33.208  1.00  0.00    -0.014 A 
ATOM     78  C   UNL A   1      41.607  35.150  34.483  1.00  0.00     0.009 A 
ATOM     79  C   UNL A   1      43.001  35.954  32.676  1.00  0.00     0.009 A 
ATOM     80  C   UNL A   1      41.868  36.319  35.199  1.00  0.00     0.001 A 
ATOM     81  C   UNL A   1      43.280  37.109  33.404  1.00  0.00     0.001 A 
ATOM     82  C   UNL A   1      42.708  37.294  34.662  1.00  0.00     0.000 A 
ENDBRANCH  64  77
ENDBRANCH  38  39
ENDBRANCH  30  33
ENDBRANCH  28  29
ENDBRANCH  27  28
ENDBRANCH  26  27
ENDBRANCH  25  26
ENDBRANCH   3  25
TORSDOF 18
ENDMDL
