MODEL 1
REMARK VINA RESULT:     -11.8      0.000      0.000
REMARK SMILES COC(=O)c1ccc2c(c1)=N[C@H](c1cn(CCC(=O)NCCCCNC(=O)c3ccc(-c4c5nc(c(-c6ccccc6)c6ccc([nH]6)c(-c6ccccc6)c6nc(c(-c7ccccc7)c7ccc4[nH]7)C=C6)C=C5)cc3)c3ccccc13)N=2
REMARK SMILES IDX 21 1 20 2 18 3 19 4 17 6 16 7 15 8 13 9 14 10 81 11 76 12
REMARK SMILES IDX 80 13 77 14 79 15 78 16 12 17 5 18 6 19 10 20 7 21 9 22 8 23
REMARK SMILES IDX 11 24 82 25 3 26 4 27 2 28 1 29 22 30 23 31 24 32 25 33
REMARK SMILES IDX 26 34 27 36 28 37 29 38 75 39 30 40 74 41 31 42 32 43 33 44
REMARK SMILES IDX 68 45 34 46 73 47 67 48 69 49 35 50 72 51 66 52 65 53 36 55
REMARK SMILES IDX 58 56 43 57 57 58 44 59 47 60 56 61 70 62 45 63 46 64 55 66
REMARK SMILES IDX 71 67 48 68 37 69 38 70 42 71 39 72 41 73 40 74 59 75 60 76
REMARK SMILES IDX 64 77 61 78 63 79 62 80 49 81 50 82 54 83 51 84 53 85 52 86
REMARK H PARENT 20 5 25 35 69 54 47 65
REMARK Flexibility Score: inf
ROOT
ATOM      1  C   UNL A   1      31.779  29.607  25.339  1.00  0.00     0.116 C 
ENDROOT
BRANCH   1   2
ATOM      2  N   UNL A   1      31.003  29.981  24.165  1.00  0.00    -0.356 N 
ATOM      3  C   UNL A   1      30.199  29.273  23.320  1.00  0.00     0.221 C 
ATOM      4  O   UNL A   1      29.561  29.916  22.480  1.00  0.00    -0.275 OA
ATOM      5  H   UNL A   1      31.072  30.936  23.935  1.00  0.00     0.163 HD
BRANCH   3   6
ATOM      6  C   UNL A   1      30.003  27.774  23.441  1.00  0.00     0.122 C 
BRANCH   6   7
ATOM      7  C   UNL A   1      31.041  26.975  22.608  1.00  0.00     0.132 C 
BRANCH   7   8
ATOM      8  N   UNL A   1      32.044  26.259  23.415  1.00  0.00    -0.347 N 
ATOM      9  C   UNL A   1      32.785  24.198  23.149  1.00  0.00     0.024 A 
ATOM     10  C   UNL A   1      33.012  25.524  22.777  1.00  0.00     0.094 A 
ATOM     11  C   UNL A   1      31.627  24.234  24.013  1.00  0.00     0.007 A 
ATOM     12  C   UNL A   1      31.746  25.515  24.539  1.00  0.00     0.048 A 
ATOM     13  C   UNL A   1      30.857  23.334  24.755  1.00  0.00     0.011 A 
ATOM     14  C   UNL A   1      31.869  25.666  25.926  1.00  0.00     0.027 A 
ATOM     15  C   UNL A   1      30.802  23.494  26.132  1.00  0.00     0.001 A 
ATOM     16  C   UNL A   1      31.445  24.580  26.713  1.00  0.00     0.002 A 
BRANCH   9  17
ATOM     17  C   UNL A   1      33.786  23.123  22.864  1.00  0.00     0.255 C 
ATOM     18  C   UNL A   1      37.471  22.407  25.335  1.00  0.00     0.062 A 
ATOM     19  C   UNL A   1      36.857  21.090  25.386  1.00  0.00     0.018 A 
ATOM     20  C   UNL A   1      36.962  23.389  24.572  1.00  0.00     0.046 A 
ATOM     21  C   UNL A   1      35.608  20.835  24.961  1.00  0.00     0.031 A 
ATOM     22  C   UNL A   1      35.703  23.108  23.884  1.00  0.00     0.087 A 
ATOM     23  C   UNL A   1      34.923  21.907  24.238  1.00  0.00     0.086 A 
ATOM     24  N   UNL A   1      35.123  23.791  22.969  1.00  0.00    -0.252 NA
ATOM     25  N   UNL A   1      33.731  21.932  23.752  1.00  0.00    -0.252 NA
BRANCH  18  26
ATOM     26  C   UNL A   1      38.661  22.755  26.155  1.00  0.00     0.337 C 
ATOM     27  O   UNL A   1      38.625  23.548  27.107  1.00  0.00    -0.246 OA
BRANCH  26  28
ATOM     28  O   UNL A   1      39.763  22.103  25.724  1.00  0.00    -0.465 OA
ATOM     29  C   UNL A   1      40.126  20.981  26.535  1.00  0.00     0.282 C 
ENDBRANCH  26  28
ENDBRANCH  18  26
ENDBRANCH   9  17
ENDBRANCH   7   8
ENDBRANCH   6   7
ENDBRANCH   3   6
ENDBRANCH   1   2
BRANCH   1  30
ATOM     30  C   UNL A   1      33.118  28.923  25.039  1.00  0.00     0.023 C 
BRANCH  30  31
ATOM     31  C   UNL A   1      34.363  29.379  25.824  1.00  0.00     0.023 C 
BRANCH  31  32
ATOM     32  C   UNL A   1      34.540  28.795  27.220  1.00  0.00     0.116 C 
BRANCH  32  33
ATOM     33  N   UNL A   1      34.918  29.800  28.191  1.00  0.00    -0.352 N 
ATOM     34  C   UNL A   1      36.019  30.072  28.945  1.00  0.00     0.251 C 
ATOM     35  H   UNL A   1      34.197  30.453  28.344  1.00  0.00     0.163 HD
ATOM     36  O   UNL A   1      35.904  31.015  29.734  1.00  0.00    -0.269 OA
BRANCH  34  37
ATOM     37  C   UNL A   1      37.325  29.360  28.900  1.00  0.00     0.039 A 
ATOM     38  C   UNL A   1      37.850  28.503  29.869  1.00  0.00     0.014 A 
ATOM     39  C   UNL A   1      38.125  29.675  27.784  1.00  0.00     0.014 A 
ATOM     40  C   UNL A   1      39.166  28.030  29.760  1.00  0.00     0.010 A 
ATOM     41  C   UNL A   1      39.421  29.199  27.663  1.00  0.00     0.010 A 
ATOM     42  C   UNL A   1      39.961  28.408  28.675  1.00  0.00    -0.014 A 
BRANCH  42  43
ATOM     43  C   UNL A   1      41.352  27.952  28.583  1.00  0.00     0.031 A 
ATOM     44  C   UNL A   1      41.601  26.658  27.897  1.00  0.00     0.074 A 
ATOM     45  C   UNL A   1      42.390  28.755  28.900  1.00  0.00     0.049 A 
ATOM     46  N   UNL A   1      42.317  25.664  28.311  1.00  0.00    -0.248 NA
ATOM     47  C   UNL A   1      40.955  26.431  26.597  1.00  0.00     0.031 C 
ATOM     48  C   UNL A   1      42.306  30.157  29.284  1.00  0.00     0.029 A 
ATOM     49  N   UNL A   1      43.734  28.546  28.810  1.00  0.00    -0.354 N 
ATOM     50  C   UNL A   1      42.320  24.725  27.281  1.00  0.00     0.074 A 
ATOM     51  C   UNL A   1      41.401  25.213  26.283  1.00  0.00     0.031 C 
ATOM     52  C   UNL A   1      43.515  30.741  29.178  1.00  0.00     0.029 A 
ATOM     53  C   UNL A   1      44.483  29.719  28.832  1.00  0.00     0.049 A 
ATOM     54  H   UNL A   1      44.136  27.651  28.738  1.00  0.00     0.167 HD
ATOM     55  C   UNL A   1      43.186  23.674  27.254  1.00  0.00     0.031 A 
ATOM     56  C   UNL A   1      45.790  29.869  28.511  1.00  0.00     0.031 A 
ATOM     57  C   UNL A   1      43.791  23.443  28.535  1.00  0.00     0.049 A 
ATOM     58  C   UNL A   1      46.428  28.540  28.611  1.00  0.00     0.074 A 
ATOM     59  C   UNL A   1      43.317  23.063  29.772  1.00  0.00     0.029 A 
ATOM     60  N   UNL A   1      45.060  23.926  28.744  1.00  0.00    -0.354 N 
ATOM     61  N   UNL A   1      46.576  27.898  29.734  1.00  0.00    -0.248 NA
ATOM     62  C   UNL A   1      46.517  27.727  27.408  1.00  0.00     0.031 C 
ATOM     63  C   UNL A   1      44.120  23.774  30.706  1.00  0.00     0.029 A 
ATOM     64  C   UNL A   1      45.068  24.505  29.987  1.00  0.00     0.049 A 
ATOM     65  H   UNL A   1      45.818  23.868  28.121  1.00  0.00     0.167 HD
ATOM     66  C   UNL A   1      46.336  26.571  29.414  1.00  0.00     0.074 A 
ATOM     67  C   UNL A   1      46.426  26.513  27.956  1.00  0.00     0.031 C 
ATOM     68  C   UNL A   1      45.801  25.707  30.327  1.00  0.00     0.031 A 
BRANCH  55  69
ATOM     69  C   UNL A   1      43.696  23.010  26.004  1.00  0.00    -0.014 A 
ATOM     70  C   UNL A   1      44.388  23.699  24.993  1.00  0.00     0.009 A 
ATOM     71  C   UNL A   1      43.716  21.603  25.939  1.00  0.00     0.009 A 
ATOM     72  C   UNL A   1      45.072  23.026  23.975  1.00  0.00     0.001 A 
ATOM     73  C   UNL A   1      44.434  20.926  24.946  1.00  0.00     0.001 A 
ATOM     74  C   UNL A   1      45.115  21.639  23.966  1.00  0.00     0.000 A 
ENDBRANCH  55  69
BRANCH  56  75
ATOM     75  C   UNL A   1      46.411  31.022  27.819  1.00  0.00    -0.014 A 
ATOM     76  C   UNL A   1      47.670  31.499  28.235  1.00  0.00     0.009 A 
ATOM     77  C   UNL A   1      45.682  31.812  26.920  1.00  0.00     0.009 A 
ATOM     78  C   UNL A   1      48.172  32.727  27.794  1.00  0.00     0.001 A 
ATOM     79  C   UNL A   1      46.182  33.048  26.481  1.00  0.00     0.001 A 
ATOM     80  C   UNL A   1      47.420  33.509  26.928  1.00  0.00     0.000 A 
ENDBRANCH  56  75
BRANCH  68  81
ATOM     81  C   UNL A   1      45.658  26.165  31.761  1.00  0.00    -0.014 A 
ATOM     82  C   UNL A   1      46.540  25.644  32.720  1.00  0.00     0.009 A 
ATOM     83  C   UNL A   1      44.532  26.879  32.212  1.00  0.00     0.009 A 
ATOM     84  C   UNL A   1      46.287  25.798  34.085  1.00  0.00     0.001 A 
ATOM     85  C   UNL A   1      44.292  27.054  33.579  1.00  0.00     0.001 A 
ATOM     86  C   UNL A   1      45.161  26.498  34.515  1.00  0.00     0.000 A 
ENDBRANCH  68  81
ENDBRANCH  42  43
ENDBRANCH  34  37
ENDBRANCH  32  33
ENDBRANCH  31  32
ENDBRANCH  30  31
ENDBRANCH   1  30
TORSDOF 16
ENDMDL
MODEL 2
REMARK VINA RESULT:     -11.6      2.773      8.276
REMARK SMILES COC(=O)c1ccc2c(c1)=N[C@H](c1cn(CCC(=O)NCCCCNC(=O)c3ccc(-c4c5nc(c(-c6ccccc6)c6ccc([nH]6)c(-c6ccccc6)c6nc(c(-c7ccccc7)c7ccc4[nH]7)C=C6)C=C5)cc3)c3ccccc13)N=2
REMARK SMILES IDX 21 1 20 2 18 3 19 4 17 6 16 7 15 8 13 9 14 10 81 11 76 12
REMARK SMILES IDX 80 13 77 14 79 15 78 16 12 17 5 18 6 19 10 20 7 21 9 22 8 23
REMARK SMILES IDX 11 24 82 25 3 26 4 27 2 28 1 29 22 30 23 31 24 32 25 33
REMARK SMILES IDX 26 34 27 36 28 37 29 38 75 39 30 40 74 41 31 42 32 43 33 44
REMARK SMILES IDX 68 45 34 46 73 47 67 48 69 49 35 50 72 51 66 52 65 53 36 55
REMARK SMILES IDX 58 56 43 57 57 58 44 59 47 60 56 61 70 62 45 63 46 64 55 66
REMARK SMILES IDX 71 67 48 68 37 69 38 70 42 71 39 72 41 73 40 74 59 75 60 76
REMARK SMILES IDX 64 77 61 78 63 79 62 80 49 81 50 82 54 83 51 84 53 85 52 86
REMARK H PARENT 20 5 25 35 69 54 47 65
REMARK Flexibility Score: inf
ROOT
ATOM      1  C   UNL A   1      37.526  22.711  25.543  1.00  0.00     0.116 C 
ENDROOT
BRANCH   1   2
ATOM      2  N   UNL A   1      36.398  22.408  26.412  1.00  0.00    -0.356 N 
ATOM      3  C   UNL A   1      35.288  21.629  26.256  1.00  0.00     0.221 C 
ATOM      4  O   UNL A   1      34.570  21.466  27.248  1.00  0.00    -0.275 OA
ATOM      5  H   UNL A   1      36.446  22.854  27.289  1.00  0.00     0.163 HD
BRANCH   3   6
ATOM      6  C   UNL A   1      34.972  20.906  24.961  1.00  0.00     0.122 C 
BRANCH   6   7
ATOM      7  C   UNL A   1      33.491  20.448  24.888  1.00  0.00     0.132 C 
BRANCH   7   8
ATOM      8  N   UNL A   1      32.570  21.460  24.344  1.00  0.00    -0.347 N 
ATOM      9  C   UNL A   1      33.066  23.432  23.489  1.00  0.00     0.024 A 
ATOM     10  C   UNL A   1      32.887  22.087  23.164  1.00  0.00     0.094 A 
ATOM     11  C   UNL A   1      32.847  23.517  24.915  1.00  0.00     0.007 A 
ATOM     12  C   UNL A   1      31.974  22.451  25.098  1.00  0.00     0.048 A 
ATOM     13  C   UNL A   1      32.833  24.501  25.906  1.00  0.00     0.011 A 
ATOM     14  C   UNL A   1      30.705  22.705  25.634  1.00  0.00     0.027 A 
ATOM     15  C   UNL A   1      31.649  24.725  26.595  1.00  0.00     0.001 A 
ATOM     16  C   UNL A   1      30.551  23.916  26.331  1.00  0.00     0.002 A 
BRANCH   9  17
ATOM     17  C   UNL A   1      33.172  24.484  22.429  1.00  0.00     0.255 C 
ATOM     18  C   UNL A   1      31.044  28.439  22.600  1.00  0.00     0.062 A 
ATOM     19  C   UNL A   1      32.420  28.884  22.438  1.00  0.00     0.018 A 
ATOM     20  C   UNL A   1      30.717  27.138  22.546  1.00  0.00     0.046 A 
ATOM     21  C   UNL A   1      33.482  28.068  22.541  1.00  0.00     0.031 A 
ATOM     22  C   UNL A   1      31.819  26.182  22.428  1.00  0.00     0.087 A 
ATOM     23  C   UNL A   1      33.209  26.633  22.629  1.00  0.00     0.086 A 
ATOM     24  N   UNL A   1      31.765  24.929  22.172  1.00  0.00    -0.252 NA
ATOM     25  N   UNL A   1      34.032  25.652  22.758  1.00  0.00    -0.252 NA
BRANCH  18  26
ATOM     26  C   UNL A   1      29.937  29.389  22.880  1.00  0.00     0.337 C 
ATOM     27  O   UNL A   1      29.907  30.128  23.876  1.00  0.00    -0.246 OA
BRANCH  26  28
ATOM     28  O   UNL A   1      28.985  29.333  21.923  1.00  0.00    -0.465 OA
ATOM     29  C   UNL A   1      28.712  30.595  21.304  1.00  0.00     0.282 C 
ENDBRANCH  26  28
ENDBRANCH  18  26
ENDBRANCH   9  17
ENDBRANCH   7   8
ENDBRANCH   6   7
ENDBRANCH   3   6
ENDBRANCH   1   2
BRANCH   1  30
ATOM     30  C   UNL A   1      38.759  21.825  25.750  1.00  0.00     0.023 C 
BRANCH  30  31
ATOM     31  C   UNL A   1      39.844  22.301  26.735  1.00  0.00     0.023 C 
BRANCH  31  32
ATOM     32  C   UNL A   1      41.135  21.491  26.771  1.00  0.00     0.116 C 
BRANCH  32  33
ATOM     33  N   UNL A   1      42.070  21.905  25.747  1.00  0.00    -0.352 N 
ATOM     34  C   UNL A   1      42.682  23.068  25.389  1.00  0.00     0.251 C 
ATOM     35  H   UNL A   1      42.330  21.158  25.162  1.00  0.00     0.163 HD
ATOM     36  O   UNL A   1      43.376  23.012  24.369  1.00  0.00    -0.269 OA
BRANCH  34  37
ATOM     37  C   UNL A   1      42.603  24.371  26.104  1.00  0.00     0.039 A 
ATOM     38  C   UNL A   1      43.255  24.722  27.287  1.00  0.00     0.014 A 
ATOM     39  C   UNL A   1      41.700  25.294  25.540  1.00  0.00     0.014 A 
ATOM     40  C   UNL A   1      42.959  25.934  27.928  1.00  0.00     0.010 A 
ATOM     41  C   UNL A   1      41.414  26.501  26.162  1.00  0.00     0.010 A 
ATOM     42  C   UNL A   1      42.012  26.804  27.383  1.00  0.00    -0.014 A 
BRANCH  42  43
ATOM     43  C   UNL A   1      41.668  28.050  28.075  1.00  0.00     0.031 A 
ATOM     44  C   UNL A   1      42.592  29.202  27.907  1.00  0.00     0.074 A 
ATOM     45  C   UNL A   1      40.465  28.235  28.658  1.00  0.00     0.049 A 
ATOM     46  N   UNL A   1      43.090  29.961  28.828  1.00  0.00    -0.248 NA
ATOM     47  C   UNL A   1      43.035  29.539  26.547  1.00  0.00     0.031 C 
ATOM     48  C   UNL A   1      39.342  27.308  28.624  1.00  0.00     0.029 A 
ATOM     49  N   UNL A   1      39.934  29.329  29.274  1.00  0.00    -0.354 N 
ATOM     50  C   UNL A   1      43.818  30.951  28.170  1.00  0.00     0.074 A 
ATOM     51  C   UNL A   1      43.816  30.596  26.773  1.00  0.00     0.031 C 
ATOM     52  C   UNL A   1      38.207  27.939  28.982  1.00  0.00     0.029 A 
ATOM     53  C   UNL A   1      38.547  29.289  29.385  1.00  0.00     0.049 A 
ATOM     54  H   UNL A   1      40.480  30.076  29.610  1.00  0.00     0.167 HD
ATOM     55  C   UNL A   1      44.258  32.075  28.801  1.00  0.00     0.031 A 
ATOM     56  C   UNL A   1      37.716  30.308  29.706  1.00  0.00     0.031 A 
ATOM     57  C   UNL A   1      44.224  31.938  30.231  1.00  0.00     0.049 A 
ATOM     58  C   UNL A   1      38.518  31.337  30.398  1.00  0.00     0.074 A 
ATOM     59  C   UNL A   1      44.878  31.132  31.138  1.00  0.00     0.029 A 
ATOM     60  N   UNL A   1      43.165  32.492  30.905  1.00  0.00    -0.354 N 
ATOM     61  N   UNL A   1      39.062  31.155  31.567  1.00  0.00    -0.248 NA
ATOM     62  C   UNL A   1      39.083  32.419  29.607  1.00  0.00     0.031 C 
ATOM     63  C   UNL A   1      43.917  30.869  32.152  1.00  0.00     0.029 A 
ATOM     64  C   UNL A   1      42.751  31.569  31.831  1.00  0.00     0.049 A 
ATOM     65  H   UNL A   1      42.776  33.383  30.754  1.00  0.00     0.167 HD
ATOM     66  C   UNL A   1      40.294  31.784  31.483  1.00  0.00     0.074 A 
ATOM     67  C   UNL A   1      40.200  32.643  30.303  1.00  0.00     0.031 C 
ATOM     68  C   UNL A   1      41.369  31.337  32.197  1.00  0.00     0.031 A 
BRANCH  55  69
ATOM     69  C   UNL A   1      44.472  33.408  28.138  1.00  0.00    -0.014 A 
ATOM     70  C   UNL A   1      45.520  34.280  28.483  1.00  0.00     0.009 A 
ATOM     71  C   UNL A   1      43.765  33.704  26.957  1.00  0.00     0.009 A 
ATOM     72  C   UNL A   1      45.853  35.384  27.692  1.00  0.00     0.001 A 
ATOM     73  C   UNL A   1      44.123  34.783  26.141  1.00  0.00     0.001 A 
ATOM     74  C   UNL A   1      45.170  35.621  26.507  1.00  0.00     0.000 A 
ENDBRANCH  55  69
BRANCH  56  75
ATOM     75  C   UNL A   1      36.365  30.564  29.154  1.00  0.00    -0.014 A 
ATOM     76  C   UNL A   1      35.803  29.669  28.222  1.00  0.00     0.009 A 
ATOM     77  C   UNL A   1      35.721  31.795  29.341  1.00  0.00     0.009 A 
ATOM     78  C   UNL A   1      34.661  29.997  27.486  1.00  0.00     0.001 A 
ATOM     79  C   UNL A   1      34.577  32.127  28.599  1.00  0.00     0.001 A 
ATOM     80  C   UNL A   1      34.056  31.234  27.663  1.00  0.00     0.000 A 
ENDBRANCH  56  75
BRANCH  68  81
ATOM     81  C   UNL A   1      41.151  30.263  33.239  1.00  0.00    -0.014 A 
ATOM     82  C   UNL A   1      41.187  30.630  34.594  1.00  0.00     0.009 A 
ATOM     83  C   UNL A   1      41.173  28.892  32.922  1.00  0.00     0.009 A 
ATOM     84  C   UNL A   1      41.280  29.662  35.597  1.00  0.00     0.001 A 
ATOM     85  C   UNL A   1      41.240  27.922  33.928  1.00  0.00     0.001 A 
ATOM     86  C   UNL A   1      41.311  28.309  35.264  1.00  0.00     0.000 A 
ENDBRANCH  68  81
ENDBRANCH  42  43
ENDBRANCH  34  37
ENDBRANCH  32  33
ENDBRANCH  31  32
ENDBRANCH  30  31
ENDBRANCH   1  30
TORSDOF 16
ENDMDL
MODEL 3
REMARK VINA RESULT:     -11.6      2.748      6.329
REMARK SMILES COC(=O)c1ccc2c(c1)=N[C@H](c1cn(CCC(=O)NCCCCNC(=O)c3ccc(-c4c5nc(c(-c6ccccc6)c6ccc([nH]6)c(-c6ccccc6)c6nc(c(-c7ccccc7)c7ccc4[nH]7)C=C6)C=C5)cc3)c3ccccc13)N=2
REMARK SMILES IDX 21 1 20 2 18 3 19 4 17 6 16 7 15 8 13 9 14 10 81 11 76 12
REMARK SMILES IDX 80 13 77 14 79 15 78 16 12 17 5 18 6 19 10 20 7 21 9 22 8 23
REMARK SMILES IDX 11 24 82 25 3 26 4 27 2 28 1 29 22 30 23 31 24 32 25 33
REMARK SMILES IDX 26 34 27 36 28 37 29 38 75 39 30 40 74 41 31 42 32 43 33 44
REMARK SMILES IDX 68 45 34 46 73 47 67 48 69 49 35 50 72 51 66 52 65 53 36 55
REMARK SMILES IDX 58 56 43 57 57 58 44 59 47 60 56 61 70 62 45 63 46 64 55 66
REMARK SMILES IDX 71 67 48 68 37 69 38 70 42 71 39 72 41 73 40 74 59 75 60 76
REMARK SMILES IDX 64 77 61 78 63 79 62 80 49 81 50 82 54 83 51 84 53 85 52 86
REMARK H PARENT 20 5 25 35 69 54 47 65
REMARK Flexibility Score: inf
ROOT
ATOM      1  C   UNL A   1      34.914  30.489  27.785  1.00  0.00     0.116 C 
ENDROOT
BRANCH   1   2
ATOM      2  N   UNL A   1      33.728  31.244  27.406  1.00  0.00    -0.356 N 
ATOM      3  C   UNL A   1      32.487  30.870  26.978  1.00  0.00     0.221 C 
ATOM      4  O   UNL A   1      31.639  31.761  26.863  1.00  0.00    -0.275 OA
ATOM      5  H   UNL A   1      33.845  32.220  27.471  1.00  0.00     0.163 HD
BRANCH   3   6
ATOM      6  C   UNL A   1      32.106  29.422  26.737  1.00  0.00     0.122 C 
BRANCH   6   7
ATOM      7  C   UNL A   1      32.071  29.066  25.227  1.00  0.00     0.132 C 
BRANCH   7   8
ATOM      8  N   UNL A   1      31.470  27.755  24.927  1.00  0.00    -0.347 N 
ATOM      9  C   UNL A   1      32.024  25.784  25.750  1.00  0.00     0.024 A 
ATOM     10  C   UNL A   1      31.202  26.892  25.960  1.00  0.00     0.094 A 
ATOM     11  C   UNL A   1      32.778  26.086  24.554  1.00  0.00     0.007 A 
ATOM     12  C   UNL A   1      31.885  26.929  23.902  1.00  0.00     0.048 A 
ATOM     13  C   UNL A   1      33.741  25.470  23.751  1.00  0.00     0.011 A 
ATOM     14  C   UNL A   1      31.422  26.565  22.630  1.00  0.00     0.027 A 
ATOM     15  C   UNL A   1      33.420  25.201  22.428  1.00  0.00     0.001 A 
ATOM     16  C   UNL A   1      32.193  25.620  21.931  1.00  0.00     0.002 A 
BRANCH   9  17
ATOM     17  C   UNL A   1      31.840  24.516  26.522  1.00  0.00     0.255 C 
ATOM     18  C   UNL A   1      32.857  20.438  24.928  1.00  0.00     0.062 A 
ATOM     19  C   UNL A   1      33.644  20.449  26.151  1.00  0.00     0.018 A 
ATOM     20  C   UNL A   1      32.014  21.440  24.627  1.00  0.00     0.046 A 
ATOM     21  C   UNL A   1      33.842  21.549  26.897  1.00  0.00     0.031 A 
ATOM     22  C   UNL A   1      32.005  22.592  25.529  1.00  0.00     0.087 A 
ATOM     23  C   UNL A   1      33.061  22.736  26.549  1.00  0.00     0.086 A 
ATOM     24  N   UNL A   1      31.177  23.568  25.571  1.00  0.00    -0.252 NA
ATOM     25  N   UNL A   1      33.078  23.909  27.079  1.00  0.00    -0.252 NA
BRANCH  18  26
ATOM     26  C   UNL A   1      32.976  19.350  23.923  1.00  0.00     0.337 C 
ATOM     27  O   UNL A   1      32.172  19.189  22.993  1.00  0.00    -0.246 OA
BRANCH  26  28
ATOM     28  O   UNL A   1      34.056  18.575  24.163  1.00  0.00    -0.465 OA
ATOM     29  C   UNL A   1      33.846  17.186  23.887  1.00  0.00     0.282 C 
ENDBRANCH  26  28
ENDBRANCH  18  26
ENDBRANCH   9  17
ENDBRANCH   7   8
ENDBRANCH   6   7
ENDBRANCH   3   6
ENDBRANCH   1   2
BRANCH   1  30
ATOM     30  C   UNL A   1      36.216  31.297  27.807  1.00  0.00     0.023 C 
BRANCH  30  31
ATOM     31  C   UNL A   1      36.480  32.224  29.009  1.00  0.00     0.023 C 
BRANCH  31  32
ATOM     32  C   UNL A   1      37.401  33.414  28.763  1.00  0.00     0.116 C 
BRANCH  32  33
ATOM     33  N   UNL A   1      37.996  33.908  29.986  1.00  0.00    -0.352 N 
ATOM     34  C   UNL A   1      38.947  33.474  30.860  1.00  0.00     0.251 C 
ATOM     35  H   UNL A   1      37.621  34.777  30.254  1.00  0.00     0.163 HD
ATOM     36  O   UNL A   1      39.116  34.182  31.858  1.00  0.00    -0.269 OA
BRANCH  34  37
ATOM     37  C   UNL A   1      39.793  32.257  30.721  1.00  0.00     0.039 A 
ATOM     38  C   UNL A   1      41.073  32.181  30.169  1.00  0.00     0.014 A 
ATOM     39  C   UNL A   1      39.169  31.061  31.127  1.00  0.00     0.014 A 
ATOM     40  C   UNL A   1      41.684  30.936  29.962  1.00  0.00     0.010 A 
ATOM     41  C   UNL A   1      39.774  29.828  30.938  1.00  0.00     0.010 A 
ATOM     42  C   UNL A   1      41.017  29.759  30.314  1.00  0.00    -0.014 A 
BRANCH  42  43
ATOM     43  C   UNL A   1      41.635  28.454  30.055  1.00  0.00     0.031 A 
ATOM     44  C   UNL A   1      42.431  27.848  31.153  1.00  0.00     0.074 A 
ATOM     45  C   UNL A   1      41.326  27.721  28.965  1.00  0.00     0.049 A 
ATOM     46  N   UNL A   1      43.619  27.341  31.087  1.00  0.00    -0.248 NA
ATOM     47  C   UNL A   1      41.842  27.820  32.499  1.00  0.00     0.031 C 
ATOM     48  C   UNL A   1      40.320  28.050  27.964  1.00  0.00     0.029 A 
ATOM     49  N   UNL A   1      41.727  26.473  28.592  1.00  0.00    -0.354 N 
ATOM     50  C   UNL A   1      43.894  26.818  32.349  1.00  0.00     0.074 A 
ATOM     51  C   UNL A   1      42.799  27.211  33.200  1.00  0.00     0.031 C 
ATOM     52  C   UNL A   1      40.018  26.960  27.233  1.00  0.00     0.029 A 
ATOM     53  C   UNL A   1      40.900  25.883  27.639  1.00  0.00     0.049 A 
ATOM     54  H   UNL A   1      42.525  26.031  28.960  1.00  0.00     0.167 HD
ATOM     55  C   UNL A   1      44.940  25.975  32.577  1.00  0.00     0.031 A 
ATOM     56  C   UNL A   1      40.876  24.584  27.259  1.00  0.00     0.031 A 
ATOM     57  C   UNL A   1      45.898  26.004  31.508  1.00  0.00     0.049 A 
ATOM     58  C   UNL A   1      42.172  23.985  27.636  1.00  0.00     0.074 A 
ATOM     59  C   UNL A   1      46.742  26.965  30.994  1.00  0.00     0.029 A 
ATOM     60  N   UNL A   1      45.850  24.998  30.574  1.00  0.00    -0.354 N 
ATOM     61  N   UNL A   1      43.305  24.326  27.091  1.00  0.00    -0.248 NA
ATOM     62  C   UNL A   1      42.273  23.314  28.922  1.00  0.00     0.031 C 
ATOM     63  C   UNL A   1      46.772  26.715  29.595  1.00  0.00     0.029 A 
ATOM     64  C   UNL A   1      45.986  25.587  29.343  1.00  0.00     0.049 A 
ATOM     65  H   UNL A   1      45.739  24.037  30.753  1.00  0.00     0.167 HD
ATOM     66  C   UNL A   1      44.214  24.318  28.138  1.00  0.00     0.074 A 
ATOM     67  C   UNL A   1      43.552  23.574  29.207  1.00  0.00     0.031 C 
ATOM     68  C   UNL A   1      45.291  25.158  28.147  1.00  0.00     0.031 A 
BRANCH  55  69
ATOM     69  C   UNL A   1      44.976  24.916  33.646  1.00  0.00    -0.014 A 
ATOM     70  C   UNL A   1      44.128  23.795  33.648  1.00  0.00     0.009 A 
ATOM     71  C   UNL A   1      46.059  24.894  34.546  1.00  0.00     0.009 A 
ATOM     72  C   UNL A   1      44.348  22.704  34.495  1.00  0.00     0.001 A 
ATOM     73  C   UNL A   1      46.306  23.786  35.365  1.00  0.00     0.001 A 
ATOM     74  C   UNL A   1      45.452  22.690  35.337  1.00  0.00     0.000 A 
ENDBRANCH  55  69
BRANCH  56  75
ATOM     75  C   UNL A   1      39.683  23.784  26.896  1.00  0.00    -0.014 A 
ATOM     76  C   UNL A   1      39.829  22.435  26.516  1.00  0.00     0.009 A 
ATOM     77  C   UNL A   1      38.437  24.388  26.680  1.00  0.00     0.009 A 
ATOM     78  C   UNL A   1      38.783  21.723  25.921  1.00  0.00     0.001 A 
ATOM     79  C   UNL A   1      37.388  23.676  26.079  1.00  0.00     0.001 A 
ATOM     80  C   UNL A   1      37.566  22.349  25.688  1.00  0.00     0.000 A 
ENDBRANCH  56  75
BRANCH  68  81
ATOM     81  C   UNL A   1      45.595  25.962  26.903  1.00  0.00    -0.014 A 
ATOM     82  C   UNL A   1      46.713  25.604  26.132  1.00  0.00     0.009 A 
ATOM     83  C   UNL A   1      44.967  27.192  26.632  1.00  0.00     0.009 A 
ATOM     84  C   UNL A   1      47.210  26.464  25.150  1.00  0.00     0.001 A 
ATOM     85  C   UNL A   1      45.451  28.041  25.630  1.00  0.00     0.001 A 
ATOM     86  C   UNL A   1      46.583  27.684  24.902  1.00  0.00     0.000 A 
ENDBRANCH  68  81
ENDBRANCH  42  43
ENDBRANCH  34  37
ENDBRANCH  32  33
ENDBRANCH  31  32
ENDBRANCH  30  31
ENDBRANCH   1  30
TORSDOF 16
ENDMDL
