MODEL 1
REMARK VINA RESULT:     -12.2      0.000      0.000
REMARK SMILES Cc1c(C(=O)NCCCCNC(=O)c2ccc(-c3c4nc(c(-c5ccccc5)c5ccc([nH]5)c(-c5ccccc5)c5nc(c(-c6ccccc6)c6ccc3[nH]6)C=C5)C=C4)cc2)cccc1N1[C@@H](C)C=C(/C=C(\C#N)C(=O)NCCc2c[nH]c3ccccc23)[C@@H]1C
REMARK SMILES IDX 4 1 5 2 6 3 3 5 1 6 2 7 65 8 62 9 64 10 63 11 66 12 67 13
REMARK SMILES IDX 89 14 69 15 68 16 70 17 90 18 71 19 72 20 73 21 74 22 75 23
REMARK SMILES IDX 76 24 77 25 78 27 79 28 80 29 81 30 88 31 82 32 83 33 87 34
REMARK SMILES IDX 84 36 86 37 85 38 7 39 8 40 9 41 10 42 11 43 12 44 13 46
REMARK SMILES IDX 14 47 15 48 61 49 16 50 60 51 17 52 18 53 19 54 54 55 20 56
REMARK SMILES IDX 59 57 53 58 55 59 21 60 58 61 52 62 51 63 22 65 44 66 29 67
REMARK SMILES IDX 43 68 30 69 33 70 42 71 56 72 31 73 32 74 41 76 57 77 34 78
REMARK SMILES IDX 23 79 24 80 28 81 25 82 27 83 26 84 45 85 46 86 50 87 47 88
REMARK SMILES IDX 49 89 48 90 35 91 36 92 40 93 37 94 39 95 38 96
REMARK H PARENT 6 4 77 26 82 35 11 45 55 64 33 75
REMARK Flexibility Score: inf
ROOT
ATOM      1  C   UNL A   1      33.035  28.552  24.994  1.00  0.00     0.251 C 
ATOM      2  O   UNL A   1      32.819  29.118  23.912  1.00  0.00    -0.269 OA
ATOM      3  N   UNL A   1      33.832  29.303  25.807  1.00  0.00    -0.352 N 
ATOM      4  H   UNL A   1      34.133  30.127  25.361  1.00  0.00     0.163 HD
ENDROOT
BRANCH   1   5
ATOM      5  C   UNL A   1      32.387  27.201  25.238  1.00  0.00     0.044 A 
ATOM      6  C   UNL A   1      34.309  25.528  24.883  1.00  0.00     0.047 C 
ATOM      7  C   UNL A   1      32.916  25.882  25.291  1.00  0.00    -0.015 A 
ATOM      8  C   UNL A   1      32.065  24.770  25.573  1.00  0.00     0.041 A 
ATOM      9  C   UNL A   1      30.980  27.323  25.342  1.00  0.00     0.014 A 
ATOM     10  C   UNL A   1      30.682  24.970  25.657  1.00  0.00     0.026 A 
ATOM     11  C   UNL A   1      30.136  26.232  25.517  1.00  0.00     0.003 A 
BRANCH   8  12
ATOM     12  N   UNL A   1      32.527  23.468  25.581  1.00  0.00    -0.358 N 
ATOM     13  C   UNL A   1      32.096  22.541  24.527  1.00  0.00     0.103 C 
ATOM     14  C   UNL A   1      33.688  22.975  26.343  1.00  0.00     0.110 C 
ATOM     15  C   UNL A   1      33.195  21.532  24.564  1.00  0.00     0.003 C 
ATOM     16  C   UNL A   1      32.073  23.149  23.120  1.00  0.00     0.035 C 
ATOM     17  C   UNL A   1      34.149  21.828  25.457  1.00  0.00    -0.026 C 
ATOM     18  C   UNL A   1      33.239  22.498  27.725  1.00  0.00     0.036 C 
BRANCH  17  19
ATOM     19  C   UNL A   1      35.445  21.192  25.604  1.00  0.00     0.031 C 
ATOM     20  C   UNL A   1      36.564  21.381  24.867  1.00  0.00     0.117 C 
BRANCH  20  21
ATOM     21  C   UNL A   1      36.642  22.288  23.770  1.00  0.00     0.105 C 
ATOM     22  N   UNL A   1      36.693  23.040  22.898  1.00  0.00    -0.192 NA
ENDBRANCH  20  21
BRANCH  20  23
ATOM     23  C   UNL A   1      37.663  20.397  25.073  1.00  0.00     0.261 C 
ATOM     24  O   UNL A   1      37.524  19.216  24.752  1.00  0.00    -0.268 OA
ATOM     25  N   UNL A   1      38.915  20.830  25.379  1.00  0.00    -0.351 N 
ATOM     26  H   UNL A   1      39.611  20.455  24.790  1.00  0.00     0.163 HD
BRANCH  25  27
ATOM     27  C   UNL A   1      39.451  21.741  26.405  1.00  0.00     0.121 C 
BRANCH  27  28
ATOM     28  C   UNL A   1      40.790  22.457  26.044  1.00  0.00     0.059 C 
BRANCH  28  29
ATOM     29  C   UNL A   1      42.024  21.948  26.799  1.00  0.00    -0.021 A 
ATOM     30  C   UNL A   1      41.925  21.177  27.958  1.00  0.00     0.087 A 
ATOM     31  C   UNL A   1      43.166  22.740  27.149  1.00  0.00     0.003 A 
ATOM     32  N   UNL A   1      41.938  22.217  28.898  1.00  0.00    -0.361 N 
ATOM     33  C   UNL A   1      42.867  23.138  28.453  1.00  0.00     0.046 A 
ATOM     34  C   UNL A   1      44.356  23.210  26.567  1.00  0.00     0.010 A 
ATOM     35  H   UNL A   1      41.391  22.280  29.714  1.00  0.00     0.166 HD
ATOM     36  C   UNL A   1      43.491  24.202  29.094  1.00  0.00     0.026 A 
ATOM     37  C   UNL A   1      45.131  24.125  27.300  1.00  0.00     0.001 A 
ATOM     38  C   UNL A   1      44.660  24.671  28.497  1.00  0.00     0.002 A 
ENDBRANCH  28  29
ENDBRANCH  27  28
ENDBRANCH  25  27
ENDBRANCH  20  23
ENDBRANCH  17  19
ENDBRANCH   8  12
ENDBRANCH   1   5
BRANCH   3  39
ATOM     39  C   UNL A   1      34.347  29.207  27.147  1.00  0.00     0.116 C 
BRANCH  39  40
ATOM     40  C   UNL A   1      35.752  29.834  27.259  1.00  0.00     0.023 C 
BRANCH  40  41
ATOM     41  C   UNL A   1      35.792  31.268  27.755  1.00  0.00     0.023 C 
BRANCH  41  42
ATOM     42  C   UNL A   1      35.210  31.397  29.140  1.00  0.00     0.116 C 
BRANCH  42  43
ATOM     43  N   UNL A   1      34.409  32.566  29.430  1.00  0.00    -0.352 N 
ATOM     44  C   UNL A   1      34.682  33.571  30.350  1.00  0.00     0.251 C 
ATOM     45  H   UNL A   1      33.574  32.660  28.919  1.00  0.00     0.163 HD
ATOM     46  O   UNL A   1      33.818  34.410  30.591  1.00  0.00    -0.269 OA
BRANCH  44  47
ATOM     47  C   UNL A   1      36.069  33.765  30.886  1.00  0.00     0.039 A 
ATOM     48  C   UNL A   1      37.035  34.200  29.969  1.00  0.00     0.014 A 
ATOM     49  C   UNL A   1      36.488  33.114  32.034  1.00  0.00     0.014 A 
ATOM     50  C   UNL A   1      38.303  33.637  30.012  1.00  0.00     0.010 A 
ATOM     51  C   UNL A   1      37.622  32.364  31.954  1.00  0.00     0.010 A 
ATOM     52  C   UNL A   1      38.505  32.598  30.908  1.00  0.00    -0.014 A 
BRANCH  52  53
ATOM     53  C   UNL A   1      39.705  31.814  31.038  1.00  0.00     0.031 A 
ATOM     54  C   UNL A   1      39.719  30.602  30.211  1.00  0.00     0.074 A 
ATOM     55  C   UNL A   1      40.752  32.387  31.674  1.00  0.00     0.049 A 
ATOM     56  N   UNL A   1      40.525  29.629  30.381  1.00  0.00    -0.248 NA
ATOM     57  C   UNL A   1      38.762  30.361  29.121  1.00  0.00     0.031 C 
ATOM     58  C   UNL A   1      42.162  32.022  31.710  1.00  0.00     0.029 A 
ATOM     59  N   UNL A   1      40.650  33.382  32.649  1.00  0.00    -0.354 N 
ATOM     60  C   UNL A   1      40.436  28.828  29.264  1.00  0.00     0.074 A 
ATOM     61  C   UNL A   1      39.244  29.241  28.575  1.00  0.00     0.031 C 
ATOM     62  C   UNL A   1      42.702  32.502  32.852  1.00  0.00     0.029 A 
ATOM     63  C   UNL A   1      41.618  33.084  33.632  1.00  0.00     0.049 A 
ATOM     64  H   UNL A   1      40.027  34.143  32.650  1.00  0.00     0.167 HD
ATOM     65  C   UNL A   1      41.490  28.013  28.999  1.00  0.00     0.031 A 
ATOM     66  C   UNL A   1      41.171  32.622  34.843  1.00  0.00     0.031 A 
ATOM     67  C   UNL A   1      42.472  28.127  30.078  1.00  0.00     0.049 A 
ATOM     68  C   UNL A   1      41.420  31.131  35.001  1.00  0.00     0.074 A 
ATOM     69  C   UNL A   1      43.606  28.901  30.251  1.00  0.00     0.029 A 
ATOM     70  N   UNL A   1      42.060  27.757  31.345  1.00  0.00    -0.354 N 
ATOM     71  N   UNL A   1      41.787  30.344  34.021  1.00  0.00    -0.248 NA
ATOM     72  C   UNL A   1      41.257  30.404  36.257  1.00  0.00     0.031 C 
ATOM     73  C   UNL A   1      43.826  29.036  31.660  1.00  0.00     0.029 A 
ATOM     74  C   UNL A   1      42.844  28.324  32.329  1.00  0.00     0.049 A 
ATOM     75  H   UNL A   1      41.299  27.160  31.525  1.00  0.00     0.167 HD
ATOM     76  C   UNL A   1      41.981  29.077  34.483  1.00  0.00     0.074 A 
ATOM     77  C   UNL A   1      41.563  29.149  35.878  1.00  0.00     0.031 C 
ATOM     78  C   UNL A   1      42.485  28.064  33.715  1.00  0.00     0.031 A 
BRANCH  65  79
ATOM     79  C   UNL A   1      41.749  27.278  27.717  1.00  0.00    -0.014 A 
ATOM     80  C   UNL A   1      42.951  27.548  27.038  1.00  0.00     0.009 A 
ATOM     81  C   UNL A   1      40.888  26.347  27.109  1.00  0.00     0.009 A 
ATOM     82  C   UNL A   1      43.268  26.953  25.813  1.00  0.00     0.001 A 
ATOM     83  C   UNL A   1      41.196  25.751  25.876  1.00  0.00     0.001 A 
ATOM     84  C   UNL A   1      42.386  26.055  25.228  1.00  0.00     0.000 A 
ENDBRANCH  65  79
BRANCH  66  85
ATOM     85  C   UNL A   1      39.936  33.377  35.269  1.00  0.00    -0.014 A 
ATOM     86  C   UNL A   1      38.726  32.638  35.273  1.00  0.00     0.009 A 
ATOM     87  C   UNL A   1      40.043  34.474  36.133  1.00  0.00     0.009 A 
ATOM     88  C   UNL A   1      37.802  32.795  36.311  1.00  0.00     0.001 A 
ATOM     89  C   UNL A   1      39.071  34.671  37.123  1.00  0.00     0.001 A 
ATOM     90  C   UNL A   1      38.006  33.779  37.270  1.00  0.00     0.000 A 
ENDBRANCH  66  85
BRANCH  78  91
ATOM     91  C   UNL A   1      42.645  26.667  34.239  1.00  0.00    -0.014 A 
ATOM     92  C   UNL A   1      41.701  26.078  35.084  1.00  0.00     0.009 A 
ATOM     93  C   UNL A   1      43.802  25.914  33.946  1.00  0.00     0.009 A 
ATOM     94  C   UNL A   1      41.832  24.747  35.487  1.00  0.00     0.001 A 
ATOM     95  C   UNL A   1      43.959  24.602  34.379  1.00  0.00     0.001 A 
ATOM     96  C   UNL A   1      42.953  24.006  35.121  1.00  0.00     0.000 A 
ENDBRANCH  78  91
ENDBRANCH  52  53
ENDBRANCH  44  47
ENDBRANCH  42  43
ENDBRANCH  41  42
ENDBRANCH  40  41
ENDBRANCH  39  40
ENDBRANCH   3  39
TORSDOF 18
ENDMDL
MODEL 2
REMARK VINA RESULT:     -12.0      1.581      2.398
REMARK SMILES Cc1c(C(=O)NCCCCNC(=O)c2ccc(-c3c4nc(c(-c5ccccc5)c5ccc([nH]5)c(-c5ccccc5)c5nc(c(-c6ccccc6)c6ccc3[nH]6)C=C5)C=C4)cc2)cccc1N1[C@@H](C)C=C(/C=C(\C#N)C(=O)NCCc2c[nH]c3ccccc23)[C@@H]1C
REMARK SMILES IDX 4 1 5 2 6 3 3 5 1 6 2 7 65 8 62 9 64 10 63 11 66 12 67 13
REMARK SMILES IDX 89 14 69 15 68 16 70 17 90 18 71 19 72 20 73 21 74 22 75 23
REMARK SMILES IDX 76 24 77 25 78 27 79 28 80 29 81 30 88 31 82 32 83 33 87 34
REMARK SMILES IDX 84 36 86 37 85 38 7 39 8 40 9 41 10 42 11 43 12 44 13 46
REMARK SMILES IDX 14 47 15 48 61 49 16 50 60 51 17 52 18 53 19 54 54 55 20 56
REMARK SMILES IDX 59 57 53 58 55 59 21 60 58 61 52 62 51 63 22 65 44 66 29 67
REMARK SMILES IDX 43 68 30 69 33 70 42 71 56 72 31 73 32 74 41 76 57 77 34 78
REMARK SMILES IDX 23 79 24 80 28 81 25 82 27 83 26 84 45 85 46 86 50 87 47 88
REMARK SMILES IDX 49 89 48 90 35 91 36 92 40 93 37 94 39 95 38 96
REMARK H PARENT 6 4 77 26 82 35 11 45 55 64 33 75
REMARK Flexibility Score: inf
ROOT
ATOM      1  C   UNL A   1      32.390  28.449  24.139  1.00  0.00     0.251 C 
ATOM      2  O   UNL A   1      32.804  28.592  22.979  1.00  0.00    -0.269 OA
ATOM      3  N   UNL A   1      32.439  29.617  24.841  1.00  0.00    -0.352 N 
ATOM      4  H   UNL A   1      32.848  30.341  24.315  1.00  0.00     0.163 HD
ENDROOT
BRANCH   1   5
ATOM      5  C   UNL A   1      31.892  27.077  24.558  1.00  0.00     0.044 A 
ATOM      6  C   UNL A   1      33.969  25.577  24.333  1.00  0.00     0.047 C 
ATOM      7  C   UNL A   1      32.556  25.833  24.744  1.00  0.00    -0.015 A 
ATOM      8  C   UNL A   1      31.830  24.682  25.180  1.00  0.00     0.041 A 
ATOM      9  C   UNL A   1      30.481  27.068  24.693  1.00  0.00     0.014 A 
ATOM     10  C   UNL A   1      30.437  24.751  25.286  1.00  0.00     0.026 A 
ATOM     11  C   UNL A   1      29.759  25.926  25.021  1.00  0.00     0.003 A 
BRANCH   8  12
ATOM     12  N   UNL A   1      32.426  23.444  25.322  1.00  0.00    -0.358 N 
ATOM     13  C   UNL A   1      32.104  22.374  24.370  1.00  0.00     0.103 C 
ATOM     14  C   UNL A   1      33.623  23.155  26.130  1.00  0.00     0.110 C 
ATOM     15  C   UNL A   1      33.302  21.494  24.510  1.00  0.00     0.003 C 
ATOM     16  C   UNL A   1      32.033  22.829  22.907  1.00  0.00     0.035 C 
ATOM     17  C   UNL A   1      34.211  21.978  25.367  1.00  0.00    -0.026 C 
ATOM     18  C   UNL A   1      33.212  22.779  27.554  1.00  0.00     0.036 C 
BRANCH  17  19
ATOM     19  C   UNL A   1      35.564  21.500  25.579  1.00  0.00     0.031 C 
ATOM     20  C   UNL A   1      36.674  21.765  24.851  1.00  0.00     0.117 C 
BRANCH  20  21
ATOM     21  C   UNL A   1      36.680  22.604  23.700  1.00  0.00     0.105 C 
ATOM     22  N   UNL A   1      36.711  23.286  22.770  1.00  0.00    -0.192 NA
ENDBRANCH  20  21
BRANCH  20  23
ATOM     23  C   UNL A   1      37.868  20.924  25.141  1.00  0.00     0.261 C 
ATOM     24  O   UNL A   1      37.885  19.726  24.850  1.00  0.00    -0.268 OA
ATOM     25  N   UNL A   1      39.044  21.509  25.494  1.00  0.00    -0.351 N 
ATOM     26  H   UNL A   1      39.808  21.204  24.951  1.00  0.00     0.163 HD
BRANCH  25  27
ATOM     27  C   UNL A   1      39.415  22.502  26.516  1.00  0.00     0.121 C 
BRANCH  27  28
ATOM     28  C   UNL A   1      40.904  22.971  26.497  1.00  0.00     0.059 C 
BRANCH  28  29
ATOM     29  C   UNL A   1      41.888  22.042  27.219  1.00  0.00    -0.021 A 
ATOM     30  C   UNL A   1      43.049  22.516  27.832  1.00  0.00     0.087 A 
ATOM     31  C   UNL A   1      42.393  20.806  26.699  1.00  0.00     0.003 A 
ATOM     32  N   UNL A   1      43.923  22.386  26.744  1.00  0.00    -0.361 N 
ATOM     33  C   UNL A   1      43.602  21.195  26.122  1.00  0.00     0.046 A 
ATOM     34  C   UNL A   1      42.006  19.460  26.588  1.00  0.00     0.010 A 
ATOM     35  H   UNL A   1      44.627  23.021  26.475  1.00  0.00     0.166 HD
ATOM     36  C   UNL A   1      44.289  20.429  25.186  1.00  0.00     0.026 A 
ATOM     37  C   UNL A   1      42.816  18.602  25.826  1.00  0.00     0.001 A 
ATOM     38  C   UNL A   1      43.883  19.100  25.073  1.00  0.00     0.002 A 
ENDBRANCH  28  29
ENDBRANCH  27  28
ENDBRANCH  25  27
ENDBRANCH  20  23
ENDBRANCH  17  19
ENDBRANCH   8  12
ENDBRANCH   1   5
BRANCH   3  39
ATOM     39  C   UNL A   1      32.049  30.068  26.150  1.00  0.00     0.116 C 
BRANCH  39  40
ATOM     40  C   UNL A   1      31.372  31.453  26.093  1.00  0.00     0.023 C 
BRANCH  40  41
ATOM     41  C   UNL A   1      31.581  32.337  27.309  1.00  0.00     0.023 C 
BRANCH  41  42
ATOM     42  C   UNL A   1      32.370  33.576  26.970  1.00  0.00     0.116 C 
BRANCH  42  43
ATOM     43  N   UNL A   1      32.861  34.385  28.064  1.00  0.00    -0.352 N 
ATOM     44  C   UNL A   1      33.829  34.042  29.000  1.00  0.00     0.251 C 
ATOM     45  H   UNL A   1      32.464  35.280  28.158  1.00  0.00     0.163 HD
ATOM     46  O   UNL A   1      34.015  34.781  29.964  1.00  0.00    -0.269 OA
BRANCH  44  47
ATOM     47  C   UNL A   1      34.778  32.911  28.744  1.00  0.00     0.039 A 
ATOM     48  C   UNL A   1      34.785  31.878  29.691  1.00  0.00     0.014 A 
ATOM     49  C   UNL A   1      35.893  33.083  27.941  1.00  0.00     0.014 A 
ATOM     50  C   UNL A   1      36.001  31.333  30.081  1.00  0.00     0.010 A 
ATOM     51  C   UNL A   1      37.107  32.759  28.469  1.00  0.00     0.010 A 
ATOM     52  C   UNL A   1      37.151  31.920  29.574  1.00  0.00    -0.014 A 
BRANCH  52  53
ATOM     53  C   UNL A   1      38.503  31.577  29.929  1.00  0.00     0.031 A 
ATOM     54  C   UNL A   1      39.013  30.380  29.249  1.00  0.00     0.074 A 
ATOM     55  C   UNL A   1      39.217  32.499  30.613  1.00  0.00     0.049 A 
ATOM     56  N   UNL A   1      40.048  29.734  29.617  1.00  0.00    -0.248 NA
ATOM     57  C   UNL A   1      38.347  29.769  28.089  1.00  0.00     0.031 C 
ATOM     58  C   UNL A   1      40.649  32.612  30.852  1.00  0.00     0.029 A 
ATOM     59  N   UNL A   1      38.670  33.472  31.454  1.00  0.00    -0.354 N 
ATOM     60  C   UNL A   1      40.375  28.873  28.593  1.00  0.00     0.074 A 
ATOM     61  C   UNL A   1      39.227  28.830  27.730  1.00  0.00     0.031 C 
ATOM     62  C   UNL A   1      40.841  33.317  31.989  1.00  0.00     0.029 A 
ATOM     63  C   UNL A   1      39.529  33.571  32.569  1.00  0.00     0.049 A 
ATOM     64  H   UNL A   1      37.848  33.989  31.298  1.00  0.00     0.167 HD
ATOM     65  C   UNL A   1      41.656  28.425  28.544  1.00  0.00     0.031 A 
ATOM     66  C   UNL A   1      39.077  33.073  33.764  1.00  0.00     0.031 A 
ATOM     67  C   UNL A   1      42.387  28.924  29.710  1.00  0.00     0.049 A 
ATOM     68  C   UNL A   1      39.753  31.756  34.114  1.00  0.00     0.074 A 
ATOM     69  C   UNL A   1      43.187  30.033  29.925  1.00  0.00     0.029 A 
ATOM     70  N   UNL A   1      41.932  28.529  30.954  1.00  0.00    -0.354 N 
ATOM     71  N   UNL A   1      40.483  31.065  33.277  1.00  0.00    -0.248 NA
ATOM     72  C   UNL A   1      39.643  31.103  35.416  1.00  0.00     0.031 C 
ATOM     73  C   UNL A   1      43.147  30.327  31.326  1.00  0.00     0.029 A 
ATOM     74  C   UNL A   1      42.350  29.384  31.953  1.00  0.00     0.049 A 
ATOM     75  H   UNL A   1      41.376  27.731  31.109  1.00  0.00     0.167 HD
ATOM     76  C   UNL A   1      40.992  29.964  33.896  1.00  0.00     0.074 A 
ATOM     77  C   UNL A   1      40.376  29.992  35.216  1.00  0.00     0.031 C 
ATOM     78  C   UNL A   1      41.892  29.117  33.308  1.00  0.00     0.031 A 
BRANCH  65  79
ATOM     79  C   UNL A   1      42.314  27.727  27.390  1.00  0.00    -0.014 A 
ATOM     80  C   UNL A   1      43.218  26.689  27.681  1.00  0.00     0.009 A 
ATOM     81  C   UNL A   1      42.129  28.026  26.029  1.00  0.00     0.009 A 
ATOM     82  C   UNL A   1      43.920  26.006  26.683  1.00  0.00     0.001 A 
ATOM     83  C   UNL A   1      42.835  27.350  25.021  1.00  0.00     0.001 A 
ATOM     84  C   UNL A   1      43.732  26.340  25.349  1.00  0.00     0.000 A 
ENDBRANCH  65  79
BRANCH  66  85
ATOM     85  C   UNL A   1      37.621  33.415  33.957  1.00  0.00    -0.014 A 
ATOM     86  C   UNL A   1      37.251  34.751  33.660  1.00  0.00     0.009 A 
ATOM     87  C   UNL A   1      36.642  32.419  33.849  1.00  0.00     0.009 A 
ATOM     88  C   UNL A   1      36.058  35.024  32.984  1.00  0.00     0.001 A 
ATOM     89  C   UNL A   1      35.416  32.719  33.240  1.00  0.00     0.001 A 
ATOM     90  C   UNL A   1      35.164  33.992  32.725  1.00  0.00     0.000 A 
ENDBRANCH  66  85
BRANCH  78  91
ATOM     91  C   UNL A   1      42.401  27.886  33.999  1.00  0.00    -0.014 A 
ATOM     92  C   UNL A   1      41.541  26.961  34.596  1.00  0.00     0.009 A 
ATOM     93  C   UNL A   1      43.786  27.651  34.128  1.00  0.00     0.009 A 
ATOM     94  C   UNL A   1      42.037  25.782  35.157  1.00  0.00     0.001 A 
ATOM     95  C   UNL A   1      44.288  26.498  34.723  1.00  0.00     0.001 A 
ATOM     96  C   UNL A   1      43.409  25.544  35.205  1.00  0.00     0.000 A 
ENDBRANCH  78  91
ENDBRANCH  52  53
ENDBRANCH  44  47
ENDBRANCH  42  43
ENDBRANCH  41  42
ENDBRANCH  40  41
ENDBRANCH  39  40
ENDBRANCH   3  39
TORSDOF 18
ENDMDL
MODEL 3
REMARK VINA RESULT:     -11.8      1.658      2.793
REMARK SMILES Cc1c(C(=O)NCCCCNC(=O)c2ccc(-c3c4nc(c(-c5ccccc5)c5ccc([nH]5)c(-c5ccccc5)c5nc(c(-c6ccccc6)c6ccc3[nH]6)C=C5)C=C4)cc2)cccc1N1[C@@H](C)C=C(/C=C(\C#N)C(=O)NCCc2c[nH]c3ccccc23)[C@@H]1C
REMARK SMILES IDX 4 1 5 2 6 3 3 5 1 6 2 7 65 8 62 9 64 10 63 11 66 12 67 13
REMARK SMILES IDX 89 14 69 15 68 16 70 17 90 18 71 19 72 20 73 21 74 22 75 23
REMARK SMILES IDX 76 24 77 25 78 27 79 28 80 29 81 30 88 31 82 32 83 33 87 34
REMARK SMILES IDX 84 36 86 37 85 38 7 39 8 40 9 41 10 42 11 43 12 44 13 46
REMARK SMILES IDX 14 47 15 48 61 49 16 50 60 51 17 52 18 53 19 54 54 55 20 56
REMARK SMILES IDX 59 57 53 58 55 59 21 60 58 61 52 62 51 63 22 65 44 66 29 67
REMARK SMILES IDX 43 68 30 69 33 70 42 71 56 72 31 73 32 74 41 76 57 77 34 78
REMARK SMILES IDX 23 79 24 80 28 81 25 82 27 83 26 84 45 85 46 86 50 87 47 88
REMARK SMILES IDX 49 89 48 90 35 91 36 92 40 93 37 94 39 95 38 96
REMARK H PARENT 6 4 77 26 82 35 11 45 55 64 33 75
REMARK Flexibility Score: inf
ROOT
ATOM      1  C   UNL A   1      32.306  28.541  23.968  1.00  0.00     0.251 C 
ATOM      2  O   UNL A   1      32.730  28.688  22.812  1.00  0.00    -0.269 OA
ATOM      3  N   UNL A   1      32.345  29.707  24.674  1.00  0.00    -0.352 N 
ATOM      4  H   UNL A   1      32.757  30.434  24.153  1.00  0.00     0.163 HD
ENDROOT
BRANCH   1   5
ATOM      5  C   UNL A   1      31.807  27.167  24.379  1.00  0.00     0.044 A 
ATOM      6  C   UNL A   1      33.901  25.681  24.211  1.00  0.00     0.047 C 
ATOM      7  C   UNL A   1      32.476  25.929  24.586  1.00  0.00    -0.015 A 
ATOM      8  C   UNL A   1      31.748  24.773  25.007  1.00  0.00     0.041 A 
ATOM      9  C   UNL A   1      30.394  27.148  24.479  1.00  0.00     0.014 A 
ATOM     10  C   UNL A   1      30.352  24.832  25.078  1.00  0.00     0.026 A 
ATOM     11  C   UNL A   1      29.673  26.001  24.793  1.00  0.00     0.003 A 
BRANCH   8  12
ATOM     12  N   UNL A   1      32.349  23.539  25.168  1.00  0.00    -0.358 N 
ATOM     13  C   UNL A   1      32.072  22.469  24.203  1.00  0.00     0.103 C 
ATOM     14  C   UNL A   1      33.520  23.260  26.018  1.00  0.00     0.110 C 
ATOM     15  C   UNL A   1      33.271  21.600  24.384  1.00  0.00     0.003 C 
ATOM     16  C   UNL A   1      32.048  22.927  22.740  1.00  0.00     0.035 C 
ATOM     17  C   UNL A   1      34.144  22.090  25.275  1.00  0.00    -0.026 C 
ATOM     18  C   UNL A   1      33.061  22.877  27.426  1.00  0.00     0.036 C 
BRANCH  17  19
ATOM     19  C   UNL A   1      35.493  21.623  25.534  1.00  0.00     0.031 C 
ATOM     20  C   UNL A   1      36.621  21.873  24.827  1.00  0.00     0.117 C 
BRANCH  20  21
ATOM     21  C   UNL A   1      36.653  22.681  23.654  1.00  0.00     0.105 C 
ATOM     22  N   UNL A   1      36.687  23.313  22.691  1.00  0.00    -0.192 NA
ENDBRANCH  20  21
BRANCH  20  23
ATOM     23  C   UNL A   1      37.810  21.044  25.171  1.00  0.00     0.261 C 
ATOM     24  O   UNL A   1      37.834  19.838  24.921  1.00  0.00    -0.268 OA
ATOM     25  N   UNL A   1      38.977  21.643  25.527  1.00  0.00    -0.351 N 
ATOM     26  H   UNL A   1      39.753  21.322  25.011  1.00  0.00     0.163 HD
BRANCH  25  27
ATOM     27  C   UNL A   1      39.326  22.672  26.522  1.00  0.00     0.121 C 
BRANCH  27  28
ATOM     28  C   UNL A   1      40.846  23.003  26.652  1.00  0.00     0.059 C 
BRANCH  28  29
ATOM     29  C   UNL A   1      41.695  21.913  27.319  1.00  0.00    -0.021 A 
ATOM     30  C   UNL A   1      42.723  22.211  28.213  1.00  0.00     0.087 A 
ATOM     31  C   UNL A   1      42.295  20.802  26.643  1.00  0.00     0.003 A 
ATOM     32  N   UNL A   1      43.778  22.291  27.294  1.00  0.00    -0.361 N 
ATOM     33  C   UNL A   1      43.585  21.269  26.384  1.00  0.00     0.046 A 
ATOM     34  C   UNL A   1      41.946  19.522  26.180  1.00  0.00     0.010 A 
ATOM     35  H   UNL A   1      44.513  22.947  27.295  1.00  0.00     0.166 HD
ATOM     36  C   UNL A   1      44.434  20.700  25.442  1.00  0.00     0.026 A 
ATOM     37  C   UNL A   1      42.888  18.822  25.406  1.00  0.00     0.001 A 
ATOM     38  C   UNL A   1      44.067  19.437  24.977  1.00  0.00     0.002 A 
ENDBRANCH  28  29
ENDBRANCH  27  28
ENDBRANCH  25  27
ENDBRANCH  20  23
ENDBRANCH  17  19
ENDBRANCH   8  12
ENDBRANCH   1   5
BRANCH   3  39
ATOM     39  C   UNL A   1      31.942  30.154  25.981  1.00  0.00     0.116 C 
BRANCH  39  40
ATOM     40  C   UNL A   1      32.454  29.206  27.085  1.00  0.00     0.023 C 
BRANCH  40  41
ATOM     41  C   UNL A   1      33.790  29.578  27.702  1.00  0.00     0.023 C 
BRANCH  41  42
ATOM     42  C   UNL A   1      34.096  31.044  27.530  1.00  0.00     0.116 C 
BRANCH  42  43
ATOM     43  N   UNL A   1      34.576  31.775  28.682  1.00  0.00    -0.352 N 
ATOM     44  C   UNL A   1      35.581  31.398  29.563  1.00  0.00     0.251 C 
ATOM     45  H   UNL A   1      34.139  32.638  28.864  1.00  0.00     0.163 HD
ATOM     46  O   UNL A   1      35.756  32.056  30.586  1.00  0.00    -0.269 OA
BRANCH  44  47
ATOM     47  C   UNL A   1      36.577  30.342  29.187  1.00  0.00     0.039 A 
ATOM     48  C   UNL A   1      36.630  29.213  30.014  1.00  0.00     0.014 A 
ATOM     49  C   UNL A   1      37.681  30.648  28.409  1.00  0.00     0.014 A 
ATOM     50  C   UNL A   1      37.868  28.681  30.345  1.00  0.00     0.010 A 
ATOM     51  C   UNL A   1      38.909  30.320  28.901  1.00  0.00     0.010 A 
ATOM     52  C   UNL A   1      38.991  29.367  29.908  1.00  0.00    -0.014 A 
BRANCH  52  53
ATOM     53  C   UNL A   1      40.358  29.044  30.225  1.00  0.00     0.031 A 
ATOM     54  C   UNL A   1      40.906  27.933  29.439  1.00  0.00     0.074 A 
ATOM     55  C   UNL A   1      41.041  29.928  30.987  1.00  0.00     0.049 A 
ATOM     56  N   UNL A   1      41.967  27.295  29.745  1.00  0.00    -0.248 NA
ATOM     57  C   UNL A   1      40.254  27.403  28.232  1.00  0.00     0.031 C 
ATOM     58  C   UNL A   1      42.471  30.073  31.229  1.00  0.00     0.029 A 
ATOM     59  N   UNL A   1      40.466  30.801  31.912  1.00  0.00    -0.354 N 
ATOM     60  C   UNL A   1      42.317  26.541  28.647  1.00  0.00     0.074 A 
ATOM     61  C   UNL A   1      41.166  26.534  27.788  1.00  0.00     0.031 C 
ATOM     62  C   UNL A   1      42.645  30.681  32.423  1.00  0.00     0.029 A 
ATOM     63  C   UNL A   1      41.328  30.832  33.029  1.00  0.00     0.049 A 
ATOM     64  H   UNL A   1      39.624  31.299  31.807  1.00  0.00     0.167 HD
ATOM     65  C   UNL A   1      43.614  26.148  28.553  1.00  0.00     0.031 A 
ATOM     66  C   UNL A   1      40.903  30.213  34.176  1.00  0.00     0.031 A 
ATOM     67  C   UNL A   1      44.335  26.568  29.756  1.00  0.00     0.049 A 
ATOM     68  C   UNL A   1      41.629  28.897  34.405  1.00  0.00     0.074 A 
ATOM     69  C   UNL A   1      45.095  27.682  30.066  1.00  0.00     0.029 A 
ATOM     70  N   UNL A   1      43.903  26.047  30.962  1.00  0.00    -0.354 N 
ATOM     71  N   UNL A   1      42.378  28.311  33.507  1.00  0.00    -0.248 NA
ATOM     72  C   UNL A   1      41.553  28.127  35.644  1.00  0.00     0.031 C 
ATOM     73  C   UNL A   1      45.054  27.849  31.488  1.00  0.00     0.029 A 
ATOM     74  C   UNL A   1      44.296  26.824  32.031  1.00  0.00     0.049 A 
ATOM     75  H   UNL A   1      43.378  25.218  31.047  1.00  0.00     0.167 HD
ATOM     76  C   UNL A   1      42.932  27.178  34.023  1.00  0.00     0.074 A 
ATOM     77  C   UNL A   1      42.324  27.066  35.343  1.00  0.00     0.031 C 
ATOM     78  C   UNL A   1      43.858  26.421  33.359  1.00  0.00     0.031 A 
BRANCH  65  79
ATOM     79  C   UNL A   1      44.289  25.581  27.339  1.00  0.00    -0.014 A 
ATOM     80  C   UNL A   1      45.612  25.122  27.479  1.00  0.00     0.009 A 
ATOM     81  C   UNL A   1      43.729  25.478  26.054  1.00  0.00     0.009 A 
ATOM     82  C   UNL A   1      46.347  24.619  26.401  1.00  0.00     0.001 A 
ATOM     83  C   UNL A   1      44.463  24.981  24.965  1.00  0.00     0.001 A 
ATOM     84  C   UNL A   1      45.773  24.553  25.139  1.00  0.00     0.000 A 
ENDBRANCH  65  79
BRANCH  66  85
ATOM     85  C   UNL A   1      39.437  30.483  34.405  1.00  0.00    -0.014 A 
ATOM     86  C   UNL A   1      39.118  31.737  34.983  1.00  0.00     0.009 A 
ATOM     87  C   UNL A   1      38.472  29.862  33.602  1.00  0.00     0.009 A 
ATOM     88  C   UNL A   1      38.022  32.474  34.523  1.00  0.00     0.001 A 
ATOM     89  C   UNL A   1      37.335  30.581  33.206  1.00  0.00     0.001 A 
ATOM     90  C   UNL A   1      37.160  31.912  33.590  1.00  0.00     0.000 A 
ENDBRANCH  66  85
BRANCH  78  91
ATOM     91  C   UNL A   1      44.416  25.153  33.936  1.00  0.00    -0.014 A 
ATOM     92  C   UNL A   1      45.725  25.069  34.415  1.00  0.00     0.009 A 
ATOM     93  C   UNL A   1      43.649  23.970  33.954  1.00  0.00     0.009 A 
ATOM     94  C   UNL A   1      46.190  23.902  35.026  1.00  0.00     0.001 A 
ATOM     95  C   UNL A   1      44.121  22.791  34.522  1.00  0.00     0.001 A 
ATOM     96  C   UNL A   1      45.382  22.770  35.093  1.00  0.00     0.000 A 
ENDBRANCH  78  91
ENDBRANCH  52  53
ENDBRANCH  44  47
ENDBRANCH  42  43
ENDBRANCH  41  42
ENDBRANCH  40  41
ENDBRANCH  39  40
ENDBRANCH   3  39
TORSDOF 18
ENDMDL
