MODEL 1
REMARK VINA RESULT:     -11.6      0.000      0.000
REMARK SMILES O=C(NCCCCNC(=O)c1sccc1S(=O)(=O)Nc1ccc(Cn2cncn2)cc1)c1ccc(-c2c3nc(c(-c4ccccc4)c4ccc([nH]4)c(-c4ccccc4)c4nc(c(-c5ccccc5)c5ccc2[nH]5)C=C4)C=C3)cc1
REMARK SMILES IDX 7 1 6 2 5 3 4 4 3 5 1 6 2 7 32 9 33 10 79 11 34 12 78 13
REMARK SMILES IDX 35 14 36 15 37 16 72 17 38 18 77 19 71 20 73 21 39 22 76 23
REMARK SMILES IDX 70 24 69 25 40 27 62 28 47 29 61 30 48 31 51 32 60 33 74 34
REMARK SMILES IDX 49 35 50 36 59 38 75 39 52 40 41 41 42 42 46 43 43 44 45 45
REMARK SMILES IDX 44 46 63 47 64 48 68 49 65 50 67 51 66 52 53 53 54 54 58 55
REMARK SMILES IDX 55 56 57 57 56 58 8 59 9 60 10 62 11 63 12 64 15 65 13 66
REMARK SMILES IDX 14 67 16 68 17 69 18 70 19 71 20 73 21 74 31 75 22 76 30 77
REMARK SMILES IDX 23 78 24 79 25 80 26 81 29 82 27 83 28 84
REMARK H PARENT 3 8 73 26 51 37 8 61 19 72
REMARK Flexibility Score: inf
ROOT
ATOM      1  C   UNL A   1      37.428  23.751  26.096  1.00  0.00     0.116 C 
ENDROOT
BRANCH   1   2
ATOM      2  C   UNL A   1      38.881  23.509  26.484  1.00  0.00     0.023 C 
BRANCH   2   3
ATOM      3  C   UNL A   1      39.414  22.116  26.133  1.00  0.00     0.023 C 
BRANCH   3   4
ATOM      4  C   UNL A   1      40.872  21.857  26.515  1.00  0.00     0.116 C 
BRANCH   4   5
ATOM      5  N   UNL A   1      41.866  22.249  25.539  1.00  0.00    -0.352 N 
ATOM      6  O   UNL A   1      43.522  23.293  24.497  1.00  0.00    -0.269 OA
ATOM      7  C   UNL A   1      42.661  23.351  25.378  1.00  0.00     0.251 C 
ATOM      8  H   UNL A   1      42.001  21.573  24.836  1.00  0.00     0.163 HD
BRANCH   7   9
ATOM      9  C   UNL A   1      42.497  24.616  26.134  1.00  0.00     0.039 A 
ATOM     10  C   UNL A   1      43.057  24.882  27.384  1.00  0.00     0.014 A 
ATOM     11  C   UNL A   1      41.699  25.602  25.529  1.00  0.00     0.014 A 
ATOM     12  C   UNL A   1      42.720  26.041  28.074  1.00  0.00     0.010 A 
ATOM     13  C   UNL A   1      41.404  26.789  26.191  1.00  0.00     0.010 A 
ATOM     14  C   UNL A   1      41.880  26.987  27.485  1.00  0.00    -0.014 A 
BRANCH  14  15
ATOM     15  C   UNL A   1      41.649  28.233  28.214  1.00  0.00     0.031 A 
ATOM     16  C   UNL A   1      42.694  29.285  28.052  1.00  0.00     0.074 A 
ATOM     17  C   UNL A   1      40.506  28.530  28.861  1.00  0.00     0.049 A 
ATOM     18  N   UNL A   1      43.366  29.905  28.968  1.00  0.00    -0.248 NA
ATOM     19  C   UNL A   1      43.064  29.659  26.677  1.00  0.00     0.031 C 
ATOM     20  C   UNL A   1      39.254  27.772  28.852  1.00  0.00     0.029 A 
ATOM     21  N   UNL A   1      40.188  29.660  29.560  1.00  0.00    -0.354 N 
ATOM     22  C   UNL A   1      44.124  30.867  28.303  1.00  0.00     0.074 A 
ATOM     23  C   UNL A   1      43.982  30.599  26.894  1.00  0.00     0.031 C 
ATOM     24  C   UNL A   1      38.259  28.565  29.303  1.00  0.00     0.029 A 
ATOM     25  C   UNL A   1      38.825  29.830  29.744  1.00  0.00     0.049 A 
ATOM     26  H   UNL A   1      40.862  30.292  29.903  1.00  0.00     0.167 HD
ATOM     27  C   UNL A   1      44.650  31.952  28.937  1.00  0.00     0.031 A 
ATOM     28  C   UNL A   1      38.191  30.954  30.150  1.00  0.00     0.031 A 
ATOM     29  C   UNL A   1      44.736  31.775  30.360  1.00  0.00     0.049 A 
ATOM     30  C   UNL A   1      39.176  31.846  30.798  1.00  0.00     0.074 A 
ATOM     31  C   UNL A   1      45.347  30.873  31.209  1.00  0.00     0.029 A 
ATOM     32  N   UNL A   1      43.864  32.488  31.146  1.00  0.00    -0.354 N 
ATOM     33  N   UNL A   1      39.716  31.618  31.959  1.00  0.00    -0.248 NA
ATOM     34  C   UNL A   1      39.828  32.869  29.997  1.00  0.00     0.031 C 
ATOM     35  C   UNL A   1      44.481  30.777  32.338  1.00  0.00     0.029 A 
ATOM     36  C   UNL A   1      43.404  31.635  32.110  1.00  0.00     0.049 A 
ATOM     37  H   UNL A   1      43.619  33.435  31.036  1.00  0.00     0.167 HD
ATOM     38  C   UNL A   1      40.994  32.149  31.865  1.00  0.00     0.074 A 
ATOM     39  C   UNL A   1      40.953  33.024  30.698  1.00  0.00     0.031 C 
ATOM     40  C   UNL A   1      42.033  31.606  32.566  1.00  0.00     0.031 A 
BRANCH  27  41
ATOM     41  C   UNL A   1      44.709  33.326  28.306  1.00  0.00    -0.014 A 
ATOM     42  C   UNL A   1      43.539  34.111  28.277  1.00  0.00     0.009 A 
ATOM     43  C   UNL A   1      45.767  33.744  27.475  1.00  0.00     0.009 A 
ATOM     44  C   UNL A   1      43.404  35.187  27.393  1.00  0.00     0.001 A 
ATOM     45  C   UNL A   1      45.652  34.850  26.629  1.00  0.00     0.001 A 
ATOM     46  C   UNL A   1      44.458  35.550  26.561  1.00  0.00     0.000 A 
ENDBRANCH  27  41
BRANCH  28  47
ATOM     47  C   UNL A   1      36.821  31.402  29.826  1.00  0.00    -0.014 A 
ATOM     48  C   UNL A   1      35.966  31.884  30.828  1.00  0.00     0.009 A 
ATOM     49  C   UNL A   1      36.427  31.576  28.487  1.00  0.00     0.009 A 
ATOM     50  C   UNL A   1      34.771  32.538  30.498  1.00  0.00     0.001 A 
ATOM     51  C   UNL A   1      35.231  32.219  28.157  1.00  0.00     0.001 A 
ATOM     52  C   UNL A   1      34.409  32.712  29.165  1.00  0.00     0.000 A 
ENDBRANCH  28  47
BRANCH  40  53
ATOM     53  C   UNL A   1      41.715  30.648  33.682  1.00  0.00    -0.014 A 
ATOM     54  C   UNL A   1      41.797  29.253  33.532  1.00  0.00     0.009 A 
ATOM     55  C   UNL A   1      41.464  31.168  34.961  1.00  0.00     0.009 A 
ATOM     56  C   UNL A   1      41.590  28.403  34.621  1.00  0.00     0.001 A 
ATOM     57  C   UNL A   1      41.280  30.318  36.054  1.00  0.00     0.001 A 
ATOM     58  C   UNL A   1      41.336  28.937  35.882  1.00  0.00     0.000 A 
ENDBRANCH  40  53
ENDBRANCH  14  15
ENDBRANCH   7   9
ENDBRANCH   4   5
ENDBRANCH   3   4
ENDBRANCH   2   3
ENDBRANCH   1   2
BRANCH   1  59
ATOM     59  N   UNL A   1      37.248  23.662  24.662  1.00  0.00    -0.351 N 
ATOM     60  C   UNL A   1      36.205  23.137  23.952  1.00  0.00     0.262 C 
ATOM     61  H   UNL A   1      37.984  24.032  24.121  1.00  0.00     0.163 HD
ATOM     62  O   UNL A   1      36.382  22.975  22.744  1.00  0.00    -0.268 OA
BRANCH  60  63
ATOM     63  C   UNL A   1      35.005  22.732  24.643  1.00  0.00     0.112 A 
ATOM     64  S   UNL A   1      34.903  21.042  24.988  1.00  0.00    -0.137 S 
ATOM     65  C   UNL A   1      33.867  23.398  25.066  1.00  0.00     0.111 A 
ATOM     66  C   UNL A   1      33.407  21.212  25.780  1.00  0.00     0.067 A 
ATOM     67  C   UNL A   1      32.967  22.513  25.758  1.00  0.00     0.035 A 
BRANCH  65  68
ATOM     68  S   UNL A   1      33.407  25.061  24.861  1.00  0.00     0.263 S 
ATOM     69  O   UNL A   1      34.409  25.787  25.597  1.00  0.00    -0.201 OA
ATOM     70  O   UNL A   1      33.320  25.180  23.413  1.00  0.00    -0.201 OA
BRANCH  68  71
ATOM     71  N   UNL A   1      31.911  25.513  25.416  1.00  0.00    -0.280 N 
ATOM     72  H   UNL A   1      31.564  25.041  26.208  1.00  0.00     0.180 HD
BRANCH  71  73
ATOM     73  C   UNL A   1      31.088  26.516  24.850  1.00  0.00     0.049 A 
ATOM     74  C   UNL A   1      31.553  27.821  25.019  1.00  0.00     0.027 A 
ATOM     75  C   UNL A   1      30.006  26.272  24.014  1.00  0.00     0.027 A 
ATOM     76  C   UNL A   1      31.110  28.836  24.179  1.00  0.00     0.008 A 
ATOM     77  C   UNL A   1      29.529  27.300  23.196  1.00  0.00     0.008 A 
ATOM     78  C   UNL A   1      30.138  28.565  23.209  1.00  0.00    -0.026 A 
BRANCH  78  79
ATOM     79  C   UNL A   1      29.854  29.555  22.106  1.00  0.00     0.181 C 
BRANCH  79  80
ATOM     80  N   UNL A   1      28.908  30.576  22.504  1.00  0.00    -0.249 N 
ATOM     81  C   UNL A   1      27.907  30.468  23.420  1.00  0.00     0.220 A 
ATOM     82  N   UNL A   1      29.009  31.839  22.047  1.00  0.00    -0.160 NA
ATOM     83  N   UNL A   1      27.308  31.628  23.556  1.00  0.00    -0.224 NA
ATOM     84  C   UNL A   1      28.013  32.434  22.707  1.00  0.00     0.246 A 
ENDBRANCH  79  80
ENDBRANCH  78  79
ENDBRANCH  71  73
ENDBRANCH  68  71
ENDBRANCH  65  68
ENDBRANCH  60  63
ENDBRANCH   1  59
TORSDOF 16
ENDMDL
MODEL 2
REMARK VINA RESULT:     -11.6      2.897      7.451
REMARK SMILES O=C(NCCCCNC(=O)c1sccc1S(=O)(=O)Nc1ccc(Cn2cncn2)cc1)c1ccc(-c2c3nc(c(-c4ccccc4)c4ccc([nH]4)c(-c4ccccc4)c4nc(c(-c5ccccc5)c5ccc2[nH]5)C=C4)C=C3)cc1
REMARK SMILES IDX 7 1 6 2 5 3 4 4 3 5 1 6 2 7 32 9 33 10 79 11 34 12 78 13
REMARK SMILES IDX 35 14 36 15 37 16 72 17 38 18 77 19 71 20 73 21 39 22 76 23
REMARK SMILES IDX 70 24 69 25 40 27 62 28 47 29 61 30 48 31 51 32 60 33 74 34
REMARK SMILES IDX 49 35 50 36 59 38 75 39 52 40 41 41 42 42 46 43 43 44 45 45
REMARK SMILES IDX 44 46 63 47 64 48 68 49 65 50 67 51 66 52 53 53 54 54 58 55
REMARK SMILES IDX 55 56 57 57 56 58 8 59 9 60 10 62 11 63 12 64 15 65 13 66
REMARK SMILES IDX 14 67 16 68 17 69 18 70 19 71 20 73 21 74 31 75 22 76 30 77
REMARK SMILES IDX 23 78 24 79 25 80 26 81 29 82 27 83 28 84
REMARK H PARENT 3 8 73 26 51 37 8 61 19 72
REMARK Flexibility Score: inf
ROOT
ATOM      1  C   UNL A   1      33.510  26.907  26.113  1.00  0.00     0.116 C 
ENDROOT
BRANCH   1   2
ATOM      2  C   UNL A   1      33.167  28.340  26.494  1.00  0.00     0.023 C 
BRANCH   2   3
ATOM      3  C   UNL A   1      34.172  29.012  27.434  1.00  0.00     0.023 C 
BRANCH   3   4
ATOM      4  C   UNL A   1      34.334  30.522  27.250  1.00  0.00     0.116 C 
BRANCH   4   5
ATOM      5  N   UNL A   1      34.380  31.311  28.463  1.00  0.00    -0.352 N 
ATOM      6  O   UNL A   1      35.084  32.403  30.259  1.00  0.00    -0.269 OA
ATOM      7  C   UNL A   1      35.334  31.540  29.416  1.00  0.00     0.251 C 
ATOM      8  H   UNL A   1      33.538  31.789  28.640  1.00  0.00     0.163 HD
BRANCH   7   9
ATOM      9  C   UNL A   1      36.595  30.768  29.537  1.00  0.00     0.039 A 
ATOM     10  C   UNL A   1      37.798  31.092  28.910  1.00  0.00     0.014 A 
ATOM     11  C   UNL A   1      36.543  29.617  30.342  1.00  0.00     0.014 A 
ATOM     12  C   UNL A   1      38.880  30.221  28.969  1.00  0.00     0.010 A 
ATOM     13  C   UNL A   1      37.641  28.769  30.450  1.00  0.00     0.010 A 
ATOM     14  C   UNL A   1      38.796  29.051  29.725  1.00  0.00    -0.014 A 
BRANCH  14  15
ATOM     15  C   UNL A   1      40.001  28.231  29.836  1.00  0.00     0.031 A 
ATOM     16  C   UNL A   1      40.643  28.195  31.182  1.00  0.00     0.074 A 
ATOM     17  C   UNL A   1      40.446  27.406  28.869  1.00  0.00     0.049 A 
ATOM     18  N   UNL A   1      41.867  28.469  31.502  1.00  0.00    -0.248 NA
ATOM     19  C   UNL A   1      39.784  27.848  32.327  1.00  0.00     0.031 C 
ATOM     20  C   UNL A   1      39.773  27.056  27.617  1.00  0.00     0.029 A 
ATOM     21  N   UNL A   1      41.546  26.596  28.875  1.00  0.00    -0.354 N 
ATOM     22  C   UNL A   1      41.985  28.168  32.858  1.00  0.00     0.074 A 
ATOM     23  C   UNL A   1      40.652  27.896  33.335  1.00  0.00     0.031 C 
ATOM     24  C   UNL A   1      40.348  25.946  27.106  1.00  0.00     0.029 A 
ATOM     25  C   UNL A   1      41.495  25.588  27.926  1.00  0.00     0.049 A 
ATOM     26  H   UNL A   1      42.304  26.718  29.493  1.00  0.00     0.167 HD
ATOM     27  C   UNL A   1      43.188  27.955  33.458  1.00  0.00     0.031 A 
ATOM     28  C   UNL A   1      42.284  24.491  27.857  1.00  0.00     0.031 A 
ATOM     29  C   UNL A   1      44.287  28.495  32.706  1.00  0.00     0.049 A 
ATOM     30  C   UNL A   1      43.496  24.727  28.670  1.00  0.00     0.074 A 
ATOM     31  C   UNL A   1      44.645  29.743  32.237  1.00  0.00     0.029 A 
ATOM     32  N   UNL A   1      45.122  27.609  32.071  1.00  0.00    -0.354 N 
ATOM     33  N   UNL A   1      44.449  25.549  28.339  1.00  0.00    -0.248 NA
ATOM     34  C   UNL A   1      43.512  24.279  30.053  1.00  0.00     0.031 C 
ATOM     35  C   UNL A   1      45.339  29.498  31.015  1.00  0.00     0.029 A 
ATOM     36  C   UNL A   1      45.371  28.115  30.826  1.00  0.00     0.049 A 
ATOM     37  H   UNL A   1      45.475  26.769  32.443  1.00  0.00     0.167 HD
ATOM     38  C   UNL A   1      44.923  26.045  29.544  1.00  0.00     0.074 A 
ATOM     39  C   UNL A   1      44.411  25.127  30.556  1.00  0.00     0.031 C 
ATOM     40  C   UNL A   1      45.439  27.307  29.631  1.00  0.00     0.031 A 
BRANCH  27  41
ATOM     41  C   UNL A   1      43.401  26.902  34.524  1.00  0.00    -0.014 A 
ATOM     42  C   UNL A   1      43.421  25.546  34.145  1.00  0.00     0.009 A 
ATOM     43  C   UNL A   1      43.270  27.168  35.902  1.00  0.00     0.009 A 
ATOM     44  C   UNL A   1      43.219  24.523  35.079  1.00  0.00     0.001 A 
ATOM     45  C   UNL A   1      43.120  26.146  36.843  1.00  0.00     0.001 A 
ATOM     46  C   UNL A   1      43.058  24.825  36.427  1.00  0.00     0.000 A 
ENDBRANCH  27  41
BRANCH  28  47
ATOM     47  C   UNL A   1      41.959  23.161  27.303  1.00  0.00    -0.014 A 
ATOM     48  C   UNL A   1      42.628  22.670  26.172  1.00  0.00     0.009 A 
ATOM     49  C   UNL A   1      41.148  22.267  28.026  1.00  0.00     0.009 A 
ATOM     50  C   UNL A   1      42.506  21.326  25.793  1.00  0.00     0.001 A 
ATOM     51  C   UNL A   1      41.018  20.929  27.643  1.00  0.00     0.001 A 
ATOM     52  C   UNL A   1      41.709  20.456  26.533  1.00  0.00     0.000 A 
ENDBRANCH  28  47
BRANCH  40  53
ATOM     53  C   UNL A   1      45.788  28.021  28.353  1.00  0.00    -0.014 A 
ATOM     54  C   UNL A   1      44.837  28.716  27.587  1.00  0.00     0.009 A 
ATOM     55  C   UNL A   1      47.140  28.117  27.987  1.00  0.00     0.009 A 
ATOM     56  C   UNL A   1      45.222  29.448  26.461  1.00  0.00     0.001 A 
ATOM     57  C   UNL A   1      47.526  28.868  26.874  1.00  0.00     0.001 A 
ATOM     58  C   UNL A   1      46.567  29.527  26.109  1.00  0.00     0.000 A 
ENDBRANCH  40  53
ENDBRANCH  14  15
ENDBRANCH   7   9
ENDBRANCH   4   5
ENDBRANCH   3   4
ENDBRANCH   2   3
ENDBRANCH   1   2
BRANCH   1  59
ATOM     59  N   UNL A   1      32.448  25.997  26.487  1.00  0.00    -0.351 N 
ATOM     60  C   UNL A   1      32.274  24.684  26.149  1.00  0.00     0.262 C 
ATOM     61  H   UNL A   1      31.750  26.380  27.067  1.00  0.00     0.163 HD
ATOM     62  O   UNL A   1      31.177  24.185  26.407  1.00  0.00    -0.268 OA
BRANCH  60  63
ATOM     63  C   UNL A   1      33.325  23.982  25.453  1.00  0.00     0.112 A 
ATOM     64  S   UNL A   1      34.382  23.067  26.468  1.00  0.00    -0.137 S 
ATOM     65  C   UNL A   1      33.716  23.907  24.127  1.00  0.00     0.111 A 
ATOM     66  C   UNL A   1      35.289  22.498  25.146  1.00  0.00     0.067 A 
ATOM     67  C   UNL A   1      34.832  23.013  23.958  1.00  0.00     0.035 A 
BRANCH  65  68
ATOM     68  S   UNL A   1      33.084  24.723  22.729  1.00  0.00     0.263 S 
ATOM     69  O   UNL A   1      33.651  26.043  22.818  1.00  0.00    -0.201 OA
ATOM     70  O   UNL A   1      33.464  23.824  21.650  1.00  0.00    -0.201 OA
BRANCH  68  71
ATOM     71  N   UNL A   1      31.436  24.862  22.607  1.00  0.00    -0.280 N 
ATOM     72  H   UNL A   1      30.951  24.108  22.199  1.00  0.00     0.180 HD
BRANCH  71  73
ATOM     73  C   UNL A   1      30.666  25.969  23.038  1.00  0.00     0.049 A 
ATOM     74  C   UNL A   1      30.975  27.177  22.412  1.00  0.00     0.027 A 
ATOM     75  C   UNL A   1      29.552  25.883  23.862  1.00  0.00     0.027 A 
ATOM     76  C   UNL A   1      30.052  28.217  22.405  1.00  0.00     0.008 A 
ATOM     77  C   UNL A   1      28.641  26.943  23.891  1.00  0.00     0.008 A 
ATOM     78  C   UNL A   1      28.840  28.080  23.092  1.00  0.00    -0.026 A 
BRANCH  78  79
ATOM     79  C   UNL A   1      27.711  29.055  22.865  1.00  0.00     0.181 C 
BRANCH  79  80
ATOM     80  N   UNL A   1      28.178  30.412  22.675  1.00  0.00    -0.249 N 
ATOM     81  C   UNL A   1      28.183  31.135  21.522  1.00  0.00     0.220 A 
ATOM     82  N   UNL A   1      28.577  31.166  23.718  1.00  0.00    -0.160 NA
ATOM     83  N   UNL A   1      28.618  32.350  21.765  1.00  0.00    -0.224 NA
ATOM     84  C   UNL A   1      28.841  32.327  23.113  1.00  0.00     0.246 A 
ENDBRANCH  79  80
ENDBRANCH  78  79
ENDBRANCH  71  73
ENDBRANCH  68  71
ENDBRANCH  65  68
ENDBRANCH  60  63
ENDBRANCH   1  59
TORSDOF 16
ENDMDL
MODEL 3
REMARK VINA RESULT:     -11.5      3.165      8.762
REMARK SMILES O=C(NCCCCNC(=O)c1sccc1S(=O)(=O)Nc1ccc(Cn2cncn2)cc1)c1ccc(-c2c3nc(c(-c4ccccc4)c4ccc([nH]4)c(-c4ccccc4)c4nc(c(-c5ccccc5)c5ccc2[nH]5)C=C4)C=C3)cc1
REMARK SMILES IDX 7 1 6 2 5 3 4 4 3 5 1 6 2 7 32 9 33 10 79 11 34 12 78 13
REMARK SMILES IDX 35 14 36 15 37 16 72 17 38 18 77 19 71 20 73 21 39 22 76 23
REMARK SMILES IDX 70 24 69 25 40 27 62 28 47 29 61 30 48 31 51 32 60 33 74 34
REMARK SMILES IDX 49 35 50 36 59 38 75 39 52 40 41 41 42 42 46 43 43 44 45 45
REMARK SMILES IDX 44 46 63 47 64 48 68 49 65 50 67 51 66 52 53 53 54 54 58 55
REMARK SMILES IDX 55 56 57 57 56 58 8 59 9 60 10 62 11 63 12 64 15 65 13 66
REMARK SMILES IDX 14 67 16 68 17 69 18 70 19 71 20 73 21 74 31 75 22 76 30 77
REMARK SMILES IDX 23 78 24 79 25 80 26 81 29 82 27 83 28 84
REMARK H PARENT 3 8 73 26 51 37 8 61 19 72
REMARK Flexibility Score: inf
ROOT
ATOM      1  C   UNL A   1      31.655  30.122  25.834  1.00  0.00     0.116 C 
ENDROOT
BRANCH   1   2
ATOM      2  C   UNL A   1      32.442  31.032  26.767  1.00  0.00     0.023 C 
BRANCH   2   3
ATOM      3  C   UNL A   1      33.758  30.441  27.280  1.00  0.00     0.023 C 
BRANCH   3   4
ATOM      4  C   UNL A   1      34.763  31.455  27.828  1.00  0.00     0.116 C 
BRANCH   4   5
ATOM      5  N   UNL A   1      34.661  31.757  29.240  1.00  0.00    -0.352 N 
ATOM      6  O   UNL A   1      35.136  32.086  31.380  1.00  0.00    -0.269 OA
ATOM      7  C   UNL A   1      35.479  31.563  30.318  1.00  0.00     0.251 C 
ATOM      8  H   UNL A   1      33.815  32.202  29.475  1.00  0.00     0.163 HD
BRANCH   7   9
ATOM      9  C   UNL A   1      36.691  30.707  30.303  1.00  0.00     0.039 A 
ATOM     10  C   UNL A   1      36.717  29.348  30.615  1.00  0.00     0.014 A 
ATOM     11  C   UNL A   1      37.895  31.343  29.955  1.00  0.00     0.014 A 
ATOM     12  C   UNL A   1      37.928  28.672  30.714  1.00  0.00     0.010 A 
ATOM     13  C   UNL A   1      39.104  30.657  29.998  1.00  0.00     0.010 A 
ATOM     14  C   UNL A   1      39.123  29.330  30.422  1.00  0.00    -0.014 A 
BRANCH  14  15
ATOM     15  C   UNL A   1      40.352  28.539  30.439  1.00  0.00     0.031 A 
ATOM     16  C   UNL A   1      41.077  28.489  31.742  1.00  0.00     0.074 A 
ATOM     17  C   UNL A   1      40.755  27.746  29.428  1.00  0.00     0.049 A 
ATOM     18  N   UNL A   1      42.311  28.786  31.992  1.00  0.00    -0.248 NA
ATOM     19  C   UNL A   1      40.300  28.095  32.929  1.00  0.00     0.031 C 
ATOM     20  C   UNL A   1      40.014  27.407  28.212  1.00  0.00     0.029 A 
ATOM     21  N   UNL A   1      41.872  26.964  29.347  1.00  0.00    -0.354 N 
ATOM     22  C   UNL A   1      42.521  28.459  33.331  1.00  0.00     0.074 A 
ATOM     23  C   UNL A   1      41.228  28.143  33.883  1.00  0.00     0.031 C 
ATOM     24  C   UNL A   1      40.581  26.323  27.641  1.00  0.00     0.029 A 
ATOM     25  C   UNL A   1      41.786  25.976  28.379  1.00  0.00     0.049 A 
ATOM     26  H   UNL A   1      42.664  27.091  29.920  1.00  0.00     0.167 HD
ATOM     27  C   UNL A   1      43.765  28.263  33.850  1.00  0.00     0.031 A 
ATOM     28  C   UNL A   1      42.594  24.900  28.237  1.00  0.00     0.031 A 
ATOM     29  C   UNL A   1      44.801  28.847  33.045  1.00  0.00     0.049 A 
ATOM     30  C   UNL A   1      43.849  25.150  28.978  1.00  0.00     0.074 A 
ATOM     31  C   UNL A   1      45.099  30.113  32.583  1.00  0.00     0.029 A 
ATOM     32  N   UNL A   1      45.616  27.996  32.339  1.00  0.00    -0.354 N 
ATOM     33  N   UNL A   1      44.760  26.002  28.608  1.00  0.00    -0.248 NA
ATOM     34  C   UNL A   1      43.961  24.671  30.346  1.00  0.00     0.031 C 
ATOM     35  C   UNL A   1      45.722  29.913  31.316  1.00  0.00     0.029 A 
ATOM     36  C   UNL A   1      45.774  28.535  31.093  1.00  0.00     0.049 A 
ATOM     37  H   UNL A   1      46.011  27.157  32.668  1.00  0.00     0.167 HD
ATOM     38  C   UNL A   1      45.296  26.483  29.793  1.00  0.00     0.074 A 
ATOM     39  C   UNL A   1      44.870  25.530  30.813  1.00  0.00     0.031 C 
ATOM     40  C   UNL A   1      45.786  27.755  29.877  1.00  0.00     0.031 A 
BRANCH  27  41
ATOM     41  C   UNL A   1      44.068  27.193  34.876  1.00  0.00    -0.014 A 
ATOM     42  C   UNL A   1      43.899  25.841  34.518  1.00  0.00     0.009 A 
ATOM     43  C   UNL A   1      44.208  27.466  36.251  1.00  0.00     0.009 A 
ATOM     44  C   UNL A   1      43.776  24.838  35.487  1.00  0.00     0.001 A 
ATOM     45  C   UNL A   1      44.136  26.459  37.218  1.00  0.00     0.001 A 
ATOM     46  C   UNL A   1      43.884  25.151  36.838  1.00  0.00     0.000 A 
ENDBRANCH  27  41
BRANCH  28  47
ATOM     47  C   UNL A   1      42.267  23.576  27.673  1.00  0.00    -0.014 A 
ATOM     48  C   UNL A   1      41.460  22.672  28.381  1.00  0.00     0.009 A 
ATOM     49  C   UNL A   1      42.554  23.283  26.327  1.00  0.00     0.009 A 
ATOM     50  C   UNL A   1      40.943  21.529  27.756  1.00  0.00     0.001 A 
ATOM     51  C   UNL A   1      42.047  22.138  25.706  1.00  0.00     0.001 A 
ATOM     52  C   UNL A   1      41.230  21.268  26.418  1.00  0.00     0.000 A 
ENDBRANCH  28  47
BRANCH  40  53
ATOM     53  C   UNL A   1      46.039  28.506  28.597  1.00  0.00    -0.014 A 
ATOM     54  C   UNL A   1      45.026  29.197  27.910  1.00  0.00     0.009 A 
ATOM     55  C   UNL A   1      47.361  28.639  28.147  1.00  0.00     0.009 A 
ATOM     56  C   UNL A   1      45.323  29.964  26.781  1.00  0.00     0.001 A 
ATOM     57  C   UNL A   1      47.661  29.423  27.031  1.00  0.00     0.001 A 
ATOM     58  C   UNL A   1      46.641  30.079  26.345  1.00  0.00     0.000 A 
ENDBRANCH  40  53
ENDBRANCH  14  15
ENDBRANCH   7   9
ENDBRANCH   4   5
ENDBRANCH   3   4
ENDBRANCH   2   3
ENDBRANCH   1   2
BRANCH   1  59
ATOM     59  N   UNL A   1      32.462  29.705  24.707  1.00  0.00    -0.351 N 
ATOM     60  C   UNL A   1      32.353  28.583  23.933  1.00  0.00     0.262 C 
ATOM     61  H   UNL A   1      33.196  30.315  24.465  1.00  0.00     0.163 HD
ATOM     62  O   UNL A   1      33.293  28.339  23.174  1.00  0.00    -0.268 OA
BRANCH  60  63
ATOM     63  C   UNL A   1      31.211  27.716  24.092  1.00  0.00     0.112 A 
ATOM     64  S   UNL A   1      29.893  28.051  23.027  1.00  0.00    -0.137 S 
ATOM     65  C   UNL A   1      30.906  26.676  24.954  1.00  0.00     0.111 A 
ATOM     66  C   UNL A   1      28.965  26.763  23.640  1.00  0.00     0.067 A 
ATOM     67  C   UNL A   1      29.617  26.108  24.655  1.00  0.00     0.035 A 
BRANCH  65  68
ATOM     68  S   UNL A   1      31.816  26.025  26.283  1.00  0.00     0.263 S 
ATOM     69  O   UNL A   1      33.120  25.790  25.722  1.00  0.00    -0.201 OA
ATOM     70  O   UNL A   1      31.623  27.036  27.313  1.00  0.00    -0.201 OA
BRANCH  68  71
ATOM     71  N   UNL A   1      31.269  24.615  26.963  1.00  0.00    -0.280 N 
ATOM     72  H   UNL A   1      30.531  24.686  27.612  1.00  0.00     0.180 HD
BRANCH  71  73
ATOM     73  C   UNL A   1      31.771  23.319  26.694  1.00  0.00     0.049 A 
ATOM     74  C   UNL A   1      31.184  22.677  25.603  1.00  0.00     0.027 A 
ATOM     75  C   UNL A   1      32.889  22.763  27.303  1.00  0.00     0.027 A 
ATOM     76  C   UNL A   1      31.844  21.630  24.970  1.00  0.00     0.008 A 
ATOM     77  C   UNL A   1      33.533  21.683  26.693  1.00  0.00     0.008 A 
ATOM     78  C   UNL A   1      33.066  21.168  25.473  1.00  0.00    -0.026 A 
BRANCH  78  79
ATOM     79  C   UNL A   1      33.938  20.247  24.655  1.00  0.00     0.181 C 
BRANCH  79  80
ATOM     80  N   UNL A   1      33.592  18.852  24.829  1.00  0.00    -0.249 N 
ATOM     81  C   UNL A   1      34.328  17.764  24.473  1.00  0.00     0.220 A 
ATOM     82  N   UNL A   1      32.483  18.486  25.499  1.00  0.00    -0.160 NA
ATOM     83  N   UNL A   1      33.712  16.671  24.858  1.00  0.00    -0.224 NA
ATOM     84  C   UNL A   1      32.597  17.155  25.481  1.00  0.00     0.246 A 
ENDBRANCH  79  80
ENDBRANCH  78  79
ENDBRANCH  71  73
ENDBRANCH  68  71
ENDBRANCH  65  68
ENDBRANCH  60  63
ENDBRANCH   1  59
TORSDOF 16
ENDMDL
