MODEL 1
REMARK VINA RESULT:     -10.8      0.000      0.000
REMARK SMILES CCN(Cc1ccccn1)C(=O)[C@H]1CC[C@@H](C(=O)NCCCCNC(=O)c2ccc(-c3c4nc(c(-c5ccccc5)c5ccc([nH]5)c(-c5ccccc5)c5nc(c(-c6ccccc6)c6ccc3[nH]6)C=C5)C=C4)cc2)CC1
REMARK SMILES IDX 20 1 19 2 17 3 18 4 16 6 13 7 76 8 14 9 75 10 15 11 11 12
REMARK SMILES IDX 12 13 3 14 2 15 1 16 4 17 5 18 6 19 10 20 7 21 9 22 8 23
REMARK SMILES IDX 21 24 22 25 23 26 24 27 25 28 26 30 27 31 28 32 74 33 29 34
REMARK SMILES IDX 73 35 30 36 31 37 32 38 67 39 33 40 72 41 66 42 68 43 34 44
REMARK SMILES IDX 71 45 65 46 64 47 35 49 57 50 42 51 56 52 43 53 46 54 55 55
REMARK SMILES IDX 69 56 44 57 45 58 54 60 70 61 47 62 36 63 37 64 41 65 38 66
REMARK SMILES IDX 40 67 39 68 58 69 59 70 63 71 60 72 62 73 61 74 48 75 49 76
REMARK SMILES IDX 53 77 50 78 52 79 51 80
REMARK H PARENT 19 5 24 29 68 48 46 59
REMARK Flexibility Score: inf
ROOT
ATOM      1  C   UNL A   1      33.428  27.156  26.100  1.00  0.00     0.116 C 
ENDROOT
BRANCH   1   2
ATOM      2  N   UNL A   1      32.999  26.831  24.693  1.00  0.00    -0.356 N 
ATOM      3  C   UNL A   1      32.461  25.834  23.922  1.00  0.00     0.223 C 
ATOM      4  O   UNL A   1      33.060  25.498  22.891  1.00  0.00    -0.275 OA
ATOM      5  H   UNL A   1      33.166  27.616  24.123  1.00  0.00     0.163 HD
BRANCH   3   6
ATOM      6  C   UNL A   1      31.020  25.417  24.035  1.00  0.00     0.078 C 
ATOM      7  C   UNL A   1      32.191  23.012  25.114  1.00  0.00     0.079 C 
ATOM      8  C   UNL A   1      31.550  24.004  26.102  1.00  0.00     0.014 C 
ATOM      9  C   UNL A   1      31.477  22.960  23.719  1.00  0.00     0.014 C 
ATOM     10  C   UNL A   1      30.644  25.058  25.488  1.00  0.00     0.014 C 
ATOM     11  C   UNL A   1      30.765  24.225  23.168  1.00  0.00     0.014 C 
BRANCH   7  12
ATOM     12  C   UNL A   1      33.713  23.003  25.569  1.00  0.00     0.226 C 
ATOM     13  O   UNL A   1      33.977  23.689  26.574  1.00  0.00    -0.275 OA
BRANCH  12  14
ATOM     14  N   UNL A   1      34.752  22.228  25.042  1.00  0.00    -0.337 N 
BRANCH  14  15
ATOM     15  C   UNL A   1      34.938  22.725  23.645  1.00  0.00     0.116 C 
ATOM     16  C   UNL A   1      36.357  22.946  23.106  1.00  0.00     0.027 C 
ENDBRANCH  14  15
BRANCH  14  17
ATOM     17  C   UNL A   1      34.845  20.639  25.381  1.00  0.00     0.175 C 
BRANCH  17  18
ATOM     18  C   UNL A   1      33.916  19.456  24.652  1.00  0.00     0.060 A 
ATOM     19  C   UNL A   1      34.382  18.149  24.469  1.00  0.00     0.026 A 
ATOM     20  N   UNL A   1      32.805  19.765  23.956  1.00  0.00    -0.259 NA
ATOM     21  C   UNL A   1      33.870  17.340  23.411  1.00  0.00     0.004 A 
ATOM     22  C   UNL A   1      32.233  18.934  23.030  1.00  0.00     0.111 A 
ATOM     23  C   UNL A   1      32.788  17.748  22.652  1.00  0.00     0.020 A 
ENDBRANCH  17  18
ENDBRANCH  14  17
ENDBRANCH  12  14
ENDBRANCH   7  12
ENDBRANCH   3   6
ENDBRANCH   1   2
BRANCH   1  24
ATOM     24  C   UNL A   1      33.924  28.654  26.604  1.00  0.00     0.023 C 
BRANCH  24  25
ATOM     25  C   UNL A   1      33.341  30.060  27.304  1.00  0.00     0.023 C 
BRANCH  25  26
ATOM     26  C   UNL A   1      33.885  31.486  27.832  1.00  0.00     0.116 C 
BRANCH  26  27
ATOM     27  N   UNL A   1      35.271  31.787  28.179  1.00  0.00    -0.352 N 
ATOM     28  C   UNL A   1      35.793  31.410  29.414  1.00  0.00     0.251 C 
ATOM     29  H   UNL A   1      35.843  32.262  27.534  1.00  0.00     0.163 HD
ATOM     30  O   UNL A   1      35.332  31.757  30.461  1.00  0.00    -0.269 OA
BRANCH  28  31
ATOM     31  C   UNL A   1      36.836  30.326  29.320  1.00  0.00     0.039 A 
ATOM     32  C   UNL A   1      37.298  30.047  28.027  1.00  0.00     0.014 A 
ATOM     33  C   UNL A   1      37.536  29.829  30.429  1.00  0.00     0.014 A 
ATOM     34  C   UNL A   1      38.530  29.421  27.846  1.00  0.00     0.010 A 
ATOM     35  C   UNL A   1      38.789  29.247  30.249  1.00  0.00     0.010 A 
ATOM     36  C   UNL A   1      39.313  29.087  28.958  1.00  0.00    -0.014 A 
BRANCH  36  37
ATOM     37  C   UNL A   1      40.707  28.629  28.775  1.00  0.00     0.031 A 
ATOM     38  C   UNL A   1      40.971  27.207  28.395  1.00  0.00     0.074 A 
ATOM     39  C   UNL A   1      41.715  29.496  29.007  1.00  0.00     0.049 A 
ATOM     40  N   UNL A   1      42.113  26.607  28.191  1.00  0.00    -0.248 NA
ATOM     41  C   UNL A   1      39.796  26.332  28.250  1.00  0.00     0.031 C 
ATOM     42  C   UNL A   1      41.551  30.888  29.442  1.00  0.00     0.029 A 
ATOM     43  N   UNL A   1      43.074  29.344  28.909  1.00  0.00    -0.354 N 
ATOM     44  C   UNL A   1      41.795  25.285  27.911  1.00  0.00     0.074 A 
ATOM     45  C   UNL A   1      40.359  25.156  28.015  1.00  0.00     0.031 C 
ATOM     46  C   UNL A   1      42.759  31.467  29.541  1.00  0.00     0.029 A 
ATOM     47  C   UNL A   1      43.783  30.486  29.206  1.00  0.00     0.049 A 
ATOM     48  H   UNL A   1      43.503  28.497  28.650  1.00  0.00     0.167 HD
ATOM     49  C   UNL A   1      42.633  24.275  27.580  1.00  0.00     0.031 A 
ATOM     50  C   UNL A   1      45.110  30.706  29.199  1.00  0.00     0.031 A 
ATOM     51  C   UNL A   1      44.056  24.436  27.463  1.00  0.00     0.049 A 
ATOM     52  C   UNL A   1      46.012  29.571  28.792  1.00  0.00     0.074 A 
ATOM     53  C   UNL A   1      45.000  23.506  27.070  1.00  0.00     0.029 A 
ATOM     54  N   UNL A   1      44.735  25.614  27.738  1.00  0.00    -0.354 N 
ATOM     55  N   UNL A   1      45.690  28.349  28.441  1.00  0.00    -0.248 NA
ATOM     56  C   UNL A   1      47.454  29.847  28.764  1.00  0.00     0.031 C 
ATOM     57  C   UNL A   1      46.259  24.110  27.152  1.00  0.00     0.029 A 
ATOM     58  C   UNL A   1      46.091  25.430  27.542  1.00  0.00     0.049 A 
ATOM     59  H   UNL A   1      44.314  26.454  28.029  1.00  0.00     0.167 HD
ATOM     60  C   UNL A   1      46.884  27.719  28.121  1.00  0.00     0.074 A 
ATOM     61  C   UNL A   1      47.933  28.702  28.300  1.00  0.00     0.031 C 
ATOM     62  C   UNL A   1      47.100  26.442  27.720  1.00  0.00     0.031 A 
BRANCH  49  63
ATOM     63  C   UNL A   1      42.030  22.923  27.328  1.00  0.00    -0.014 A 
ATOM     64  C   UNL A   1      41.796  22.020  28.378  1.00  0.00     0.009 A 
ATOM     65  C   UNL A   1      41.661  22.554  26.024  1.00  0.00     0.009 A 
ATOM     66  C   UNL A   1      41.235  20.766  28.124  1.00  0.00     0.001 A 
ATOM     67  C   UNL A   1      41.076  21.311  25.777  1.00  0.00     0.001 A 
ATOM     68  C   UNL A   1      40.870  20.416  26.825  1.00  0.00     0.000 A 
ENDBRANCH  49  63
BRANCH  50  69
ATOM     69  C   UNL A   1      45.670  32.039  29.561  1.00  0.00    -0.014 A 
ATOM     70  C   UNL A   1      45.787  33.055  28.599  1.00  0.00     0.009 A 
ATOM     71  C   UNL A   1      46.119  32.297  30.866  1.00  0.00     0.009 A 
ATOM     72  C   UNL A   1      46.375  34.281  28.923  1.00  0.00     0.001 A 
ATOM     73  C   UNL A   1      46.678  33.535  31.197  1.00  0.00     0.001 A 
ATOM     74  C   UNL A   1      46.818  34.521  30.222  1.00  0.00     0.000 A 
ENDBRANCH  50  69
BRANCH  62  75
ATOM     75  C   UNL A   1      48.518  26.059  27.415  1.00  0.00    -0.014 A 
ATOM     76  C   UNL A   1      49.060  26.243  26.135  1.00  0.00     0.009 A 
ATOM     77  C   UNL A   1      49.333  25.554  28.440  1.00  0.00     0.009 A 
ATOM     78  C   UNL A   1      50.387  25.897  25.878  1.00  0.00     0.001 A 
ATOM     79  C   UNL A   1      50.668  25.240  28.189  1.00  0.00     0.001 A 
ATOM     80  C   UNL A   1      51.190  25.402  26.907  1.00  0.00     0.000 A 
ENDBRANCH  62  75
ENDBRANCH  36  37
ENDBRANCH  28  31
ENDBRANCH  26  27
ENDBRANCH  25  26
ENDBRANCH  24  25
ENDBRANCH   1  24
TORSDOF 16
ENDMDL
MODEL 2
REMARK VINA RESULT:     -10.8      1.198      6.021
REMARK SMILES CCN(Cc1ccccn1)C(=O)[C@H]1CC[C@@H](C(=O)NCCCCNC(=O)c2ccc(-c3c4nc(c(-c5ccccc5)c5ccc([nH]5)c(-c5ccccc5)c5nc(c(-c6ccccc6)c6ccc3[nH]6)C=C5)C=C4)cc2)CC1
REMARK SMILES IDX 20 1 19 2 17 3 18 4 16 6 13 7 76 8 14 9 75 10 15 11 11 12
REMARK SMILES IDX 12 13 3 14 2 15 1 16 4 17 5 18 6 19 10 20 7 21 9 22 8 23
REMARK SMILES IDX 21 24 22 25 23 26 24 27 25 28 26 30 27 31 28 32 74 33 29 34
REMARK SMILES IDX 73 35 30 36 31 37 32 38 67 39 33 40 72 41 66 42 68 43 34 44
REMARK SMILES IDX 71 45 65 46 64 47 35 49 57 50 42 51 56 52 43 53 46 54 55 55
REMARK SMILES IDX 69 56 44 57 45 58 54 60 70 61 47 62 36 63 37 64 41 65 38 66
REMARK SMILES IDX 40 67 39 68 58 69 59 70 63 71 60 72 62 73 61 74 48 75 49 76
REMARK SMILES IDX 53 77 50 78 52 79 51 80
REMARK H PARENT 19 5 24 29 68 48 46 59
REMARK Flexibility Score: inf
ROOT
ATOM      1  C   UNL A   1      33.693  27.456  26.373  1.00  0.00     0.116 C 
ENDROOT
BRANCH   1   2
ATOM      2  N   UNL A   1      33.356  27.250  24.920  1.00  0.00    -0.356 N 
ATOM      3  C   UNL A   1      32.588  26.489  24.078  1.00  0.00     0.223 C 
ATOM      4  O   UNL A   1      33.144  25.910  23.135  1.00  0.00    -0.275 OA
ATOM      5  H   UNL A   1      33.873  27.892  24.382  1.00  0.00     0.163 HD
BRANCH   3   6
ATOM      6  C   UNL A   1      31.093  26.639  23.995  1.00  0.00     0.078 C 
ATOM      7  C   UNL A   1      31.145  23.894  24.881  1.00  0.00     0.079 C 
ATOM      8  C   UNL A   1      30.780  24.975  25.915  1.00  0.00     0.014 C 
ATOM      9  C   UNL A   1      30.663  24.223  23.425  1.00  0.00     0.014 C 
ATOM     10  C   UNL A   1      30.415  26.337  25.348  1.00  0.00     0.014 C 
ATOM     11  C   UNL A   1      30.544  25.702  22.967  1.00  0.00     0.014 C 
BRANCH   7  12
ATOM     12  C   UNL A   1      32.481  23.277  25.480  1.00  0.00     0.226 C 
ATOM     13  O   UNL A   1      32.947  23.868  26.472  1.00  0.00    -0.275 OA
BRANCH  12  14
ATOM     14  N   UNL A   1      33.118  22.092  25.094  1.00  0.00    -0.337 N 
BRANCH  14  15
ATOM     15  C   UNL A   1      34.080  22.499  24.025  1.00  0.00     0.116 C 
ATOM     16  C   UNL A   1      35.587  22.344  24.267  1.00  0.00     0.027 C 
ENDBRANCH  14  15
BRANCH  14  17
ATOM     17  C   UNL A   1      32.272  20.707  24.971  1.00  0.00     0.175 C 
BRANCH  17  18
ATOM     18  C   UNL A   1      32.928  19.177  25.118  1.00  0.00     0.060 A 
ATOM     19  C   UNL A   1      34.199  18.859  24.626  1.00  0.00     0.026 A 
ATOM     20  N   UNL A   1      32.168  18.116  25.452  1.00  0.00    -0.259 NA
ATOM     21  C   UNL A   1      34.517  17.519  24.251  1.00  0.00     0.004 A 
ATOM     22  C   UNL A   1      32.529  16.816  25.211  1.00  0.00     0.111 A 
ATOM     23  C   UNL A   1      33.654  16.473  24.523  1.00  0.00     0.020 A 
ENDBRANCH  17  18
ENDBRANCH  14  17
ENDBRANCH  12  14
ENDBRANCH   7  12
ENDBRANCH   3   6
ENDBRANCH   1   2
BRANCH   1  24
ATOM     24  C   UNL A   1      33.209  28.762  27.270  1.00  0.00     0.023 C 
BRANCH  24  25
ATOM     25  C   UNL A   1      32.842  30.390  27.121  1.00  0.00     0.023 C 
BRANCH  25  26
ATOM     26  C   UNL A   1      33.394  31.823  27.621  1.00  0.00     0.116 C 
BRANCH  26  27
ATOM     27  N   UNL A   1      34.762  32.100  28.052  1.00  0.00    -0.352 N 
ATOM     28  C   UNL A   1      35.207  31.696  29.307  1.00  0.00     0.251 C 
ATOM     29  H   UNL A   1      35.375  32.578  27.448  1.00  0.00     0.163 HD
ATOM     30  O   UNL A   1      34.691  32.031  30.332  1.00  0.00    -0.269 OA
BRANCH  28  31
ATOM     31  C   UNL A   1      36.241  30.600  29.254  1.00  0.00     0.039 A 
ATOM     32  C   UNL A   1      36.912  30.466  28.032  1.00  0.00     0.014 A 
ATOM     33  C   UNL A   1      36.738  29.952  30.394  1.00  0.00     0.014 A 
ATOM     34  C   UNL A   1      38.151  29.829  27.982  1.00  0.00     0.010 A 
ATOM     35  C   UNL A   1      37.999  29.358  30.354  1.00  0.00     0.010 A 
ATOM     36  C   UNL A   1      38.732  29.340  29.159  1.00  0.00    -0.014 A 
BRANCH  36  37
ATOM     37  C   UNL A   1      40.132  28.865  29.155  1.00  0.00     0.031 A 
ATOM     38  C   UNL A   1      41.230  29.807  29.537  1.00  0.00     0.074 A 
ATOM     39  C   UNL A   1      40.393  27.603  28.755  1.00  0.00     0.049 A 
ATOM     40  N   UNL A   1      42.517  29.593  29.594  1.00  0.00    -0.248 NA
ATOM     41  C   UNL A   1      40.832  31.184  29.874  1.00  0.00     0.031 C 
ATOM     42  C   UNL A   1      39.388  26.633  28.306  1.00  0.00     0.029 A 
ATOM     43  N   UNL A   1      41.575  26.914  28.663  1.00  0.00    -0.354 N 
ATOM     44  C   UNL A   1      43.082  30.808  29.956  1.00  0.00     0.074 A 
ATOM     45  C   UNL A   1      42.006  31.768  30.062  1.00  0.00     0.031 C 
ATOM     46  C   UNL A   1      39.993  25.468  28.018  1.00  0.00     0.029 A 
ATOM     47  C   UNL A   1      41.427  25.615  28.233  1.00  0.00     0.049 A 
ATOM     48  H   UNL A   1      42.447  27.312  28.884  1.00  0.00     0.167 HD
ATOM     49  C   UNL A   1      44.384  31.087  30.195  1.00  0.00     0.031 A 
ATOM     50  C   UNL A   1      42.352  24.656  28.044  1.00  0.00     0.031 A 
ATOM     51  C   UNL A   1      45.431  30.108  30.103  1.00  0.00     0.049 A 
ATOM     52  C   UNL A   1      43.787  24.989  28.352  1.00  0.00     0.074 A 
ATOM     53  C   UNL A   1      46.776  30.253  30.385  1.00  0.00     0.029 A 
ATOM     54  N   UNL A   1      45.240  28.794  29.698  1.00  0.00    -0.354 N 
ATOM     55  N   UNL A   1      44.296  26.119  28.783  1.00  0.00    -0.248 NA
ATOM     56  C   UNL A   1      44.772  23.916  28.167  1.00  0.00     0.031 C 
ATOM     57  C   UNL A   1      47.408  29.037  30.107  1.00  0.00     0.029 A 
ATOM     58  C   UNL A   1      46.447  28.121  29.704  1.00  0.00     0.049 A 
ATOM     59  H   UNL A   1      44.374  28.401  29.444  1.00  0.00     0.167 HD
ATOM     60  C   UNL A   1      45.653  25.885  28.948  1.00  0.00     0.074 A 
ATOM     61  C   UNL A   1      45.883  24.500  28.592  1.00  0.00     0.031 C 
ATOM     62  C   UNL A   1      46.628  26.737  29.353  1.00  0.00     0.031 A 
BRANCH  49  63
ATOM     63  C   UNL A   1      44.738  32.497  30.572  1.00  0.00    -0.014 A 
ATOM     64  C   UNL A   1      44.754  32.914  31.913  1.00  0.00     0.009 A 
ATOM     65  C   UNL A   1      45.092  33.418  29.573  1.00  0.00     0.009 A 
ATOM     66  C   UNL A   1      45.086  34.230  32.243  1.00  0.00     0.001 A 
ATOM     67  C   UNL A   1      45.449  34.726  29.908  1.00  0.00     0.001 A 
ATOM     68  C   UNL A   1      45.438  35.132  31.241  1.00  0.00     0.000 A 
ENDBRANCH  49  63
BRANCH  50  69
ATOM     69  C   UNL A   1      41.965  23.299  27.565  1.00  0.00    -0.014 A 
ATOM     70  C   UNL A   1      41.984  22.986  26.197  1.00  0.00     0.009 A 
ATOM     71  C   UNL A   1      41.545  22.312  28.472  1.00  0.00     0.009 A 
ATOM     72  C   UNL A   1      41.555  21.735  25.744  1.00  0.00     0.001 A 
ATOM     73  C   UNL A   1      41.147  21.050  28.020  1.00  0.00     0.001 A 
ATOM     74  C   UNL A   1      41.139  20.767  26.656  1.00  0.00     0.000 A 
ENDBRANCH  50  69
BRANCH  62  75
ATOM     75  C   UNL A   1      48.014  26.175  29.465  1.00  0.00    -0.014 A 
ATOM     76  C   UNL A   1      48.843  26.056  28.340  1.00  0.00     0.009 A 
ATOM     77  C   UNL A   1      48.510  25.806  30.725  1.00  0.00     0.009 A 
ATOM     78  C   UNL A   1      50.136  25.548  28.471  1.00  0.00     0.001 A 
ATOM     79  C   UNL A   1      49.813  25.329  30.858  1.00  0.00     0.001 A 
ATOM     80  C   UNL A   1      50.620  25.191  29.730  1.00  0.00     0.000 A 
ENDBRANCH  62  75
ENDBRANCH  36  37
ENDBRANCH  28  31
ENDBRANCH  26  27
ENDBRANCH  25  26
ENDBRANCH  24  25
ENDBRANCH   1  24
TORSDOF 16
ENDMDL
MODEL 3
REMARK VINA RESULT:     -10.8      3.797      7.055
REMARK SMILES CCN(Cc1ccccn1)C(=O)[C@H]1CC[C@@H](C(=O)NCCCCNC(=O)c2ccc(-c3c4nc(c(-c5ccccc5)c5ccc([nH]5)c(-c5ccccc5)c5nc(c(-c6ccccc6)c6ccc3[nH]6)C=C5)C=C4)cc2)CC1
REMARK SMILES IDX 20 1 19 2 17 3 18 4 16 6 13 7 76 8 14 9 75 10 15 11 11 12
REMARK SMILES IDX 12 13 3 14 2 15 1 16 4 17 5 18 6 19 10 20 7 21 9 22 8 23
REMARK SMILES IDX 21 24 22 25 23 26 24 27 25 28 26 30 27 31 28 32 74 33 29 34
REMARK SMILES IDX 73 35 30 36 31 37 32 38 67 39 33 40 72 41 66 42 68 43 34 44
REMARK SMILES IDX 71 45 65 46 64 47 35 49 57 50 42 51 56 52 43 53 46 54 55 55
REMARK SMILES IDX 69 56 44 57 45 58 54 60 70 61 47 62 36 63 37 64 41 65 38 66
REMARK SMILES IDX 40 67 39 68 58 69 59 70 63 71 60 72 62 73 61 74 48 75 49 76
REMARK SMILES IDX 53 77 50 78 52 79 51 80
REMARK H PARENT 19 5 24 29 68 48 46 59
REMARK Flexibility Score: inf
ROOT
ATOM      1  C   UNL A   1      32.704  28.984  25.422  1.00  0.00     0.116 C 
ENDROOT
BRANCH   1   2
ATOM      2  N   UNL A   1      33.083  28.305  24.132  1.00  0.00    -0.356 N 
ATOM      3  C   UNL A   1      32.794  27.220  23.347  1.00  0.00     0.223 C 
ATOM      4  O   UNL A   1      33.722  26.477  23.001  1.00  0.00    -0.275 OA
ATOM      5  H   UNL A   1      33.795  28.827  23.698  1.00  0.00     0.163 HD
BRANCH   3   6
ATOM      6  C   UNL A   1      31.511  27.110  22.566  1.00  0.00     0.078 C 
ATOM      7  C   UNL A   1      31.019  24.942  24.404  1.00  0.00     0.079 C 
ATOM      8  C   UNL A   1      30.274  26.268  24.643  1.00  0.00     0.014 C 
ATOM      9  C   UNL A   1      31.272  24.623  22.890  1.00  0.00     0.014 C 
ATOM     10  C   UNL A   1      30.275  27.247  23.481  1.00  0.00     0.014 C 
ATOM     11  C   UNL A   1      31.448  25.785  21.875  1.00  0.00     0.014 C 
BRANCH   7  12
ATOM     12  C   UNL A   1      31.901  24.796  25.717  1.00  0.00     0.226 C 
ATOM     13  O   UNL A   1      32.099  25.851  26.351  1.00  0.00    -0.275 OA
BRANCH  12  14
ATOM     14  N   UNL A   1      32.374  23.614  26.297  1.00  0.00    -0.337 N 
BRANCH  14  15
ATOM     15  C   UNL A   1      33.864  23.738  26.270  1.00  0.00     0.116 C 
ATOM     16  C   UNL A   1      34.591  23.791  24.920  1.00  0.00     0.027 C 
ENDBRANCH  14  15
BRANCH  14  17
ATOM     17  C   UNL A   1      31.650  22.193  25.973  1.00  0.00     0.175 C 
BRANCH  17  18
ATOM     18  C   UNL A   1      32.226  21.057  24.890  1.00  0.00     0.060 A 
ATOM     19  C   UNL A   1      32.259  21.292  23.510  1.00  0.00     0.026 A 
ATOM     20  N   UNL A   1      32.413  19.774  25.251  1.00  0.00    -0.259 NA
ATOM     21  C   UNL A   1      32.208  20.204  22.589  1.00  0.00     0.004 A 
ATOM     22  C   UNL A   1      32.495  18.737  24.359  1.00  0.00     0.111 A 
ATOM     23  C   UNL A   1      32.300  18.893  23.019  1.00  0.00     0.020 A 
ENDBRANCH  17  18
ENDBRANCH  14  17
ENDBRANCH  12  14
ENDBRANCH   7  12
ENDBRANCH   3   6
ENDBRANCH   1   2
BRANCH   1  24
ATOM     24  C   UNL A   1      31.643  30.251  25.535  1.00  0.00     0.023 C 
BRANCH  24  25
ATOM     25  C   UNL A   1      31.195  31.497  26.563  1.00  0.00     0.023 C 
BRANCH  25  26
ATOM     26  C   UNL A   1      31.447  33.080  26.755  1.00  0.00     0.116 C 
BRANCH  26  27
ATOM     27  N   UNL A   1      32.752  33.716  26.915  1.00  0.00    -0.352 N 
ATOM     28  C   UNL A   1      33.395  33.719  28.149  1.00  0.00     0.251 C 
ATOM     29  H   UNL A   1      33.181  34.148  26.142  1.00  0.00     0.163 HD
ATOM     30  O   UNL A   1      32.917  34.180  29.144  1.00  0.00    -0.269 OA
BRANCH  28  31
ATOM     31  C   UNL A   1      34.639  32.869  28.181  1.00  0.00     0.039 A 
ATOM     32  C   UNL A   1      35.843  33.571  28.322  1.00  0.00     0.014 A 
ATOM     33  C   UNL A   1      34.621  31.479  28.367  1.00  0.00     0.014 A 
ATOM     34  C   UNL A   1      36.978  32.920  28.801  1.00  0.00     0.010 A 
ATOM     35  C   UNL A   1      35.742  30.838  28.892  1.00  0.00     0.010 A 
ATOM     36  C   UNL A   1      36.909  31.568  29.159  1.00  0.00    -0.014 A 
BRANCH  36  37
ATOM     37  C   UNL A   1      38.036  30.929  29.873  1.00  0.00     0.031 A 
ATOM     38  C   UNL A   1      38.260  31.235  31.319  1.00  0.00     0.074 A 
ATOM     39  C   UNL A   1      38.869  30.120  29.185  1.00  0.00     0.049 A 
ATOM     40  N   UNL A   1      39.188  30.787  32.123  1.00  0.00    -0.248 NA
ATOM     41  C   UNL A   1      37.336  32.197  31.943  1.00  0.00     0.031 C 
ATOM     42  C   UNL A   1      38.761  29.813  27.754  1.00  0.00     0.029 A 
ATOM     43  N   UNL A   1      39.967  29.406  29.590  1.00  0.00    -0.354 N 
ATOM     44  C   UNL A   1      38.968  31.422  33.337  1.00  0.00     0.074 A 
ATOM     45  C   UNL A   1      37.851  32.321  33.157  1.00  0.00     0.031 C 
ATOM     46  C   UNL A   1      39.732  28.950  27.411  1.00  0.00     0.029 A 
ATOM     47  C   UNL A   1      40.547  28.665  28.585  1.00  0.00     0.049 A 
ATOM     48  H   UNL A   1      40.309  29.422  30.512  1.00  0.00     0.167 HD
ATOM     49  C   UNL A   1      39.634  31.252  34.502  1.00  0.00     0.031 A 
ATOM     50  C   UNL A   1      41.613  27.844  28.621  1.00  0.00     0.031 A 
ATOM     51  C   UNL A   1      40.729  30.334  34.659  1.00  0.00     0.049 A 
ATOM     52  C   UNL A   1      42.310  27.650  29.941  1.00  0.00     0.074 A 
ATOM     53  C   UNL A   1      41.440  30.026  35.803  1.00  0.00     0.029 A 
ATOM     54  N   UNL A   1      41.268  29.576  33.630  1.00  0.00    -0.354 N 
ATOM     55  N   UNL A   1      42.035  28.189  31.105  1.00  0.00    -0.248 NA
ATOM     56  C   UNL A   1      43.451  26.726  29.959  1.00  0.00     0.031 C 
ATOM     57  C   UNL A   1      42.439  29.111  35.457  1.00  0.00     0.029 A 
ATOM     58  C   UNL A   1      42.315  28.811  34.108  1.00  0.00     0.049 A 
ATOM     59  H   UNL A   1      40.950  29.581  32.698  1.00  0.00     0.167 HD
ATOM     60  C   UNL A   1      42.947  27.648  31.999  1.00  0.00     0.074 A 
ATOM     61  C   UNL A   1      43.769  26.723  31.246  1.00  0.00     0.031 C 
ATOM     62  C   UNL A   1      43.100  27.893  33.324  1.00  0.00     0.031 A 
BRANCH  49  63
ATOM     63  C   UNL A   1      39.198  32.072  35.682  1.00  0.00    -0.014 A 
ATOM     64  C   UNL A   1      39.741  33.345  35.928  1.00  0.00     0.009 A 
ATOM     65  C   UNL A   1      38.207  31.581  36.546  1.00  0.00     0.009 A 
ATOM     66  C   UNL A   1      39.322  34.093  37.031  1.00  0.00     0.001 A 
ATOM     67  C   UNL A   1      37.771  32.343  37.632  1.00  0.00     0.001 A 
ATOM     68  C   UNL A   1      38.335  33.594  37.878  1.00  0.00     0.000 A 
ENDBRANCH  49  63
BRANCH  50  69
ATOM     69  C   UNL A   1      42.076  27.131  27.397  1.00  0.00    -0.014 A 
ATOM     70  C   UNL A   1      41.562  25.867  27.064  1.00  0.00     0.009 A 
ATOM     71  C   UNL A   1      43.057  27.696  26.566  1.00  0.00     0.009 A 
ATOM     72  C   UNL A   1      42.046  25.170  25.953  1.00  0.00     0.001 A 
ATOM     73  C   UNL A   1      43.517  27.011  25.438  1.00  0.00     0.001 A 
ATOM     74  C   UNL A   1      43.022  25.743  25.140  1.00  0.00     0.000 A 
ENDBRANCH  50  69
BRANCH  62  75
ATOM     75  C   UNL A   1      44.169  27.120  34.037  1.00  0.00    -0.014 A 
ATOM     76  C   UNL A   1      45.464  27.638  34.184  1.00  0.00     0.009 A 
ATOM     77  C   UNL A   1      43.856  25.878  34.611  1.00  0.00     0.009 A 
ATOM     78  C   UNL A   1      46.437  26.908  34.867  1.00  0.00     0.001 A 
ATOM     79  C   UNL A   1      44.822  25.167  35.321  1.00  0.00     0.001 A 
ATOM     80  C   UNL A   1      46.113  25.678  35.440  1.00  0.00     0.000 A 
ENDBRANCH  62  75
ENDBRANCH  36  37
ENDBRANCH  28  31
ENDBRANCH  26  27
ENDBRANCH  25  26
ENDBRANCH  24  25
ENDBRANCH   1  24
TORSDOF 16
ENDMDL
