MODEL 1
REMARK VINA RESULT:     -11.3      0.000      0.000
REMARK SMILES COc1ccc(CCNC(=O)c2cccnc2C(=O)NCCCCNC(=O)c2ccc(-c3c4nc(c(-c5ccccc5)c5ccc([nH]5)c(-c5ccccc5)c5nc(c(-c6ccccc6)c6ccc3[nH]6)C=C5)C=C4)cc2)cc1OC
REMARK SMILES IDX 21 1 20 2 18 3 19 4 17 6 12 7 13 8 14 9 16 10 15 11 10 12
REMARK SMILES IDX 9 13 11 15 8 16 7 17 6 18 3 19 4 20 77 21 5 22 76 23 2 24
REMARK SMILES IDX 1 25 78 26 79 27 22 28 23 29 24 30 25 31 26 32 27 34 28 35
REMARK SMILES IDX 29 36 75 37 30 38 74 39 31 40 32 41 33 42 68 43 34 44 73 45
REMARK SMILES IDX 67 46 69 47 35 48 72 49 66 50 65 51 36 53 58 54 43 55 57 56
REMARK SMILES IDX 44 57 47 58 56 59 70 60 45 61 46 62 55 64 71 65 48 66 37 67
REMARK SMILES IDX 38 68 42 69 39 70 41 71 40 72 59 73 60 74 64 75 61 76 63 77
REMARK SMILES IDX 62 78 49 79 50 80 54 81 51 82 53 83 52 84
REMARK H PARENT 20 5 9 14 25 33 69 52 47 63
REMARK Flexibility Score: inf
ROOT
ATOM      1  C   UNL A   1      36.295  23.102  25.933  1.00  0.00     0.116 C 
ENDROOT
BRANCH   1   2
ATOM      2  N   UNL A   1      35.328  22.315  26.650  1.00  0.00    -0.351 N 
ATOM      3  C   UNL A   1      34.000  22.021  26.523  1.00  0.00     0.270 C 
ATOM      4  O   UNL A   1      33.597  21.310  27.457  1.00  0.00    -0.267 OA
ATOM      5  H   UNL A   1      35.726  21.874  27.435  1.00  0.00     0.163 HD
BRANCH   3   6
ATOM      6  C   UNL A   1      33.003  22.397  25.440  1.00  0.00     0.140 A 
ATOM      7  C   UNL A   1      31.864  23.199  25.436  1.00  0.00     0.071 A 
ATOM      8  C   UNL A   1      31.117  23.311  24.240  1.00  0.00     0.018 A 
ATOM      9  C   UNL A   1      31.471  22.599  23.103  1.00  0.00     0.021 A 
ATOM     10  N   UNL A   1      33.336  21.704  24.295  1.00  0.00    -0.250 NA
ATOM     11  C   UNL A   1      32.589  21.807  23.180  1.00  0.00     0.112 A 
BRANCH   7  12
ATOM     12  C   UNL A   1      31.341  24.048  26.507  1.00  0.00     0.253 C 
ATOM     13  N   UNL A   1      31.854  25.304  26.730  1.00  0.00    -0.352 N 
ATOM     14  H   UNL A   1      31.390  25.824  27.424  1.00  0.00     0.163 HD
ATOM     15  O   UNL A   1      30.554  23.566  27.315  1.00  0.00    -0.269 OA
BRANCH  13  16
ATOM     16  C   UNL A   1      32.976  25.984  26.098  1.00  0.00     0.121 C 
BRANCH  16  17
ATOM     17  C   UNL A   1      32.797  27.501  26.002  1.00  0.00     0.057 C 
BRANCH  17  18
ATOM     18  C   UNL A   1      32.008  27.990  24.808  1.00  0.00    -0.042 A 
ATOM     19  C   UNL A   1      30.370  28.762  22.645  1.00  0.00     0.160 A 
ATOM     20  C   UNL A   1      30.426  29.537  23.809  1.00  0.00     0.051 A 
ATOM     21  C   UNL A   1      31.183  27.629  22.526  1.00  0.00     0.160 A 
ATOM     22  C   UNL A   1      31.228  29.144  24.884  1.00  0.00     0.008 A 
ATOM     23  C   UNL A   1      32.001  27.261  23.608  1.00  0.00     0.054 A 
BRANCH  19  24
ATOM     24  O   UNL A   1      29.562  29.169  21.617  1.00  0.00    -0.493 OA
ATOM     25  C   UNL A   1      29.107  30.513  21.786  1.00  0.00     0.278 C 
ENDBRANCH  19  24
BRANCH  21  26
ATOM     26  O   UNL A   1      31.297  26.775  21.460  1.00  0.00    -0.493 OA
ATOM     27  C   UNL A   1      32.268  25.742  21.529  1.00  0.00     0.278 C 
ENDBRANCH  21  26
ENDBRANCH  17  18
ENDBRANCH  16  17
ENDBRANCH  13  16
ENDBRANCH   7  12
ENDBRANCH   3   6
ENDBRANCH   1   2
BRANCH   1  28
ATOM     28  C   UNL A   1      36.690  22.390  24.643  1.00  0.00     0.023 C 
BRANCH  28  29
ATOM     29  C   UNL A   1      37.410  21.060  24.865  1.00  0.00     0.023 C 
BRANCH  29  30
ATOM     30  C   UNL A   1      38.653  21.173  25.738  1.00  0.00     0.116 C 
BRANCH  30  31
ATOM     31  N   UNL A   1      39.536  20.018  25.648  1.00  0.00    -0.352 N 
ATOM     32  C   UNL A   1      40.865  19.932  25.997  1.00  0.00     0.251 C 
ATOM     33  H   UNL A   1      39.132  19.194  25.293  1.00  0.00     0.163 HD
ATOM     34  O   UNL A   1      41.507  18.917  25.780  1.00  0.00    -0.269 OA
BRANCH  32  35
ATOM     35  C   UNL A   1      41.517  21.118  26.591  1.00  0.00     0.039 A 
ATOM     36  C   UNL A   1      42.074  22.074  25.740  1.00  0.00     0.014 A 
ATOM     37  C   UNL A   1      41.504  21.315  27.974  1.00  0.00     0.014 A 
ATOM     38  C   UNL A   1      42.540  23.276  26.274  1.00  0.00     0.010 A 
ATOM     39  C   UNL A   1      41.892  22.543  28.493  1.00  0.00     0.010 A 
ATOM     40  C   UNL A   1      42.406  23.539  27.648  1.00  0.00    -0.014 A 
BRANCH  40  41
ATOM     41  C   UNL A   1      42.780  24.856  28.219  1.00  0.00     0.031 A 
ATOM     42  C   UNL A   1      41.728  25.908  28.437  1.00  0.00     0.074 A 
ATOM     43  C   UNL A   1      44.077  25.133  28.458  1.00  0.00     0.049 A 
ATOM     44  N   UNL A   1      41.871  27.142  28.850  1.00  0.00    -0.248 NA
ATOM     45  C   UNL A   1      40.339  25.539  28.115  1.00  0.00     0.031 C 
ATOM     46  C   UNL A   1      45.200  24.222  28.224  1.00  0.00     0.029 A 
ATOM     47  N   UNL A   1      44.671  26.273  28.940  1.00  0.00    -0.354 N 
ATOM     48  C   UNL A   1      40.601  27.701  28.807  1.00  0.00     0.074 A 
ATOM     49  C   UNL A   1      39.706  26.689  28.292  1.00  0.00     0.031 C 
ATOM     50  C   UNL A   1      46.343  24.830  28.585  1.00  0.00     0.029 A 
ATOM     51  C   UNL A   1      46.038  26.181  29.041  1.00  0.00     0.049 A 
ATOM     52  H   UNL A   1      44.165  27.080  29.189  1.00  0.00     0.167 HD
ATOM     53  C   UNL A   1      40.210  28.941  29.183  1.00  0.00     0.031 A 
ATOM     54  C   UNL A   1      46.946  27.086  29.453  1.00  0.00     0.031 A 
ATOM     55  C   UNL A   1      41.091  29.934  29.735  1.00  0.00     0.049 A 
ATOM     56  C   UNL A   1      46.477  28.442  29.906  1.00  0.00     0.074 A 
ATOM     57  C   UNL A   1      40.773  31.186  30.229  1.00  0.00     0.029 A 
ATOM     58  N   UNL A   1      42.461  29.782  29.870  1.00  0.00    -0.354 N 
ATOM     59  N   UNL A   1      45.258  28.921  29.946  1.00  0.00    -0.248 NA
ATOM     60  C   UNL A   1      47.509  29.373  30.383  1.00  0.00     0.031 C 
ATOM     61  C   UNL A   1      41.959  31.810  30.629  1.00  0.00     0.029 A 
ATOM     62  C   UNL A   1      43.007  30.928  30.424  1.00  0.00     0.049 A 
ATOM     63  H   UNL A   1      42.970  28.981  29.612  1.00  0.00     0.167 HD
ATOM     64  C   UNL A   1      45.374  30.199  30.476  1.00  0.00     0.074 A 
ATOM     65  C   UNL A   1      46.778  30.413  30.759  1.00  0.00     0.031 C 
ATOM     66  C   UNL A   1      44.404  31.117  30.707  1.00  0.00     0.031 A 
BRANCH  53  67
ATOM     67  C   UNL A   1      38.760  29.294  29.016  1.00  0.00    -0.014 A 
ATOM     68  C   UNL A   1      38.263  29.758  27.787  1.00  0.00     0.009 A 
ATOM     69  C   UNL A   1      37.871  29.113  30.086  1.00  0.00     0.009 A 
ATOM     70  C   UNL A   1      36.907  30.059  27.644  1.00  0.00     0.001 A 
ATOM     71  C   UNL A   1      36.512  29.390  29.931  1.00  0.00     0.001 A 
ATOM     72  C   UNL A   1      36.033  29.869  28.712  1.00  0.00     0.000 A 
ENDBRANCH  53  67
BRANCH  54  73
ATOM     73  C   UNL A   1      48.392  26.744  29.473  1.00  0.00    -0.014 A 
ATOM     74  C   UNL A   1      49.204  27.022  28.362  1.00  0.00     0.009 A 
ATOM     75  C   UNL A   1      48.961  26.114  30.589  1.00  0.00     0.009 A 
ATOM     76  C   UNL A   1      50.548  26.643  28.356  1.00  0.00     0.001 A 
ATOM     77  C   UNL A   1      50.312  25.761  30.591  1.00  0.00     0.001 A 
ATOM     78  C   UNL A   1      51.102  26.015  29.470  1.00  0.00     0.000 A 
ENDBRANCH  54  73
BRANCH  66  79
ATOM     79  C   UNL A   1      44.824  32.417  31.327  1.00  0.00    -0.014 A 
ATOM     80  C   UNL A   1      45.174  33.521  30.534  1.00  0.00     0.009 A 
ATOM     81  C   UNL A   1      44.826  32.551  32.724  1.00  0.00     0.009 A 
ATOM     82  C   UNL A   1      45.548  34.726  31.131  1.00  0.00     0.001 A 
ATOM     83  C   UNL A   1      45.175  33.764  33.317  1.00  0.00     0.001 A 
ATOM     84  C   UNL A   1      45.543  34.848  32.521  1.00  0.00     0.000 A 
ENDBRANCH  66  79
ENDBRANCH  40  41
ENDBRANCH  32  35
ENDBRANCH  30  31
ENDBRANCH  29  30
ENDBRANCH  28  29
ENDBRANCH   1  28
TORSDOF 17
ENDMDL
MODEL 2
REMARK VINA RESULT:     -11.2      3.123      8.384
REMARK SMILES COc1ccc(CCNC(=O)c2cccnc2C(=O)NCCCCNC(=O)c2ccc(-c3c4nc(c(-c5ccccc5)c5ccc([nH]5)c(-c5ccccc5)c5nc(c(-c6ccccc6)c6ccc3[nH]6)C=C5)C=C4)cc2)cc1OC
REMARK SMILES IDX 21 1 20 2 18 3 19 4 17 6 12 7 13 8 14 9 16 10 15 11 10 12
REMARK SMILES IDX 9 13 11 15 8 16 7 17 6 18 3 19 4 20 77 21 5 22 76 23 2 24
REMARK SMILES IDX 1 25 78 26 79 27 22 28 23 29 24 30 25 31 26 32 27 34 28 35
REMARK SMILES IDX 29 36 75 37 30 38 74 39 31 40 32 41 33 42 68 43 34 44 73 45
REMARK SMILES IDX 67 46 69 47 35 48 72 49 66 50 65 51 36 53 58 54 43 55 57 56
REMARK SMILES IDX 44 57 47 58 56 59 70 60 45 61 46 62 55 64 71 65 48 66 37 67
REMARK SMILES IDX 38 68 42 69 39 70 41 71 40 72 59 73 60 74 64 75 61 76 63 77
REMARK SMILES IDX 62 78 49 79 50 80 54 81 51 82 53 83 52 84
REMARK H PARENT 20 5 9 14 25 33 69 52 47 63
REMARK Flexibility Score: inf
ROOT
ATOM      1  C   UNL A   1      34.121  28.974  26.982  1.00  0.00     0.116 C 
ENDROOT
BRANCH   1   2
ATOM      2  N   UNL A   1      32.927  28.624  27.703  1.00  0.00    -0.351 N 
ATOM      3  C   UNL A   1      31.743  28.008  27.415  1.00  0.00     0.270 C 
ATOM      4  O   UNL A   1      30.985  27.989  28.398  1.00  0.00    -0.267 OA
ATOM      5  H   UNL A   1      32.975  28.901  28.646  1.00  0.00     0.163 HD
BRANCH   3   6
ATOM      6  C   UNL A   1      31.256  27.348  26.136  1.00  0.00     0.140 A 
ATOM      7  C   UNL A   1      31.036  27.827  24.846  1.00  0.00     0.071 A 
ATOM      8  C   UNL A   1      30.527  26.937  23.870  1.00  0.00     0.018 A 
ATOM      9  C   UNL A   1      30.200  25.628  24.192  1.00  0.00     0.021 A 
ATOM     10  N   UNL A   1      30.926  26.041  26.429  1.00  0.00    -0.250 NA
ATOM     11  C   UNL A   1      30.415  25.227  25.487  1.00  0.00     0.112 A 
BRANCH   7  12
ATOM     12  C   UNL A   1      31.341  29.148  24.297  1.00  0.00     0.253 C 
ATOM     13  N   UNL A   1      32.553  29.406  23.703  1.00  0.00    -0.352 N 
ATOM     14  H   UNL A   1      32.637  30.301  23.302  1.00  0.00     0.163 HD
ATOM     15  O   UNL A   1      30.571  30.076  24.522  1.00  0.00    -0.269 OA
BRANCH  13  16
ATOM     16  C   UNL A   1      33.733  28.561  23.574  1.00  0.00     0.121 C 
BRANCH  16  17
ATOM     17  C   UNL A   1      33.704  27.654  22.342  1.00  0.00     0.057 C 
BRANCH  17  18
ATOM     18  C   UNL A   1      33.589  26.172  22.627  1.00  0.00    -0.042 A 
ATOM     19  C   UNL A   1      33.184  23.456  23.271  1.00  0.00     0.160 A 
ATOM     20  C   UNL A   1      32.783  23.962  22.030  1.00  0.00     0.051 A 
ATOM     21  C   UNL A   1      33.852  24.289  24.177  1.00  0.00     0.160 A 
ATOM     22  C   UNL A   1      32.972  25.310  21.720  1.00  0.00     0.008 A 
ATOM     23  C   UNL A   1      34.055  25.638  23.838  1.00  0.00     0.054 A 
BRANCH  19  24
ATOM     24  O   UNL A   1      32.970  22.132  23.548  1.00  0.00    -0.493 OA
ATOM     25  C   UNL A   1      32.178  21.491  22.548  1.00  0.00     0.278 C 
ENDBRANCH  19  24
BRANCH  21  26
ATOM     26  O   UNL A   1      34.353  23.970  25.413  1.00  0.00    -0.493 OA
ATOM     27  C   UNL A   1      35.755  24.064  25.612  1.00  0.00     0.278 C 
ENDBRANCH  21  26
ENDBRANCH  17  18
ENDBRANCH  16  17
ENDBRANCH  13  16
ENDBRANCH   7  12
ENDBRANCH   3   6
ENDBRANCH   1   2
BRANCH   1  28
ATOM     28  C   UNL A   1      34.490  30.427  27.263  1.00  0.00     0.023 C 
BRANCH  28  29
ATOM     29  C   UNL A   1      33.294  31.314  27.612  1.00  0.00     0.023 C 
BRANCH  29  30
ATOM     30  C   UNL A   1      33.377  32.716  27.023  1.00  0.00     0.116 C 
BRANCH  30  31
ATOM     31  N   UNL A   1      32.752  33.736  27.854  1.00  0.00    -0.352 N 
ATOM     32  C   UNL A   1      33.225  34.289  29.023  1.00  0.00     0.251 C 
ATOM     33  H   UNL A   1      31.882  34.072  27.542  1.00  0.00     0.163 HD
ATOM     34  O   UNL A   1      32.546  35.074  29.666  1.00  0.00    -0.269 OA
BRANCH  32  35
ATOM     35  C   UNL A   1      34.553  33.869  29.516  1.00  0.00     0.039 A 
ATOM     36  C   UNL A   1      34.620  33.022  30.623  1.00  0.00     0.014 A 
ATOM     37  C   UNL A   1      35.713  34.249  28.838  1.00  0.00     0.014 A 
ATOM     38  C   UNL A   1      35.850  32.480  30.996  1.00  0.00     0.010 A 
ATOM     39  C   UNL A   1      36.922  33.646  29.160  1.00  0.00     0.010 A 
ATOM     40  C   UNL A   1      37.002  32.750  30.237  1.00  0.00    -0.014 A 
BRANCH  40  41
ATOM     41  C   UNL A   1      38.295  32.090  30.539  1.00  0.00     0.031 A 
ATOM     42  C   UNL A   1      39.299  32.772  31.428  1.00  0.00     0.074 A 
ATOM     43  C   UNL A   1      38.601  30.921  29.942  1.00  0.00     0.049 A 
ATOM     44  N   UNL A   1      40.511  32.392  31.743  1.00  0.00    -0.248 NA
ATOM     45  C   UNL A   1      38.903  34.065  32.011  1.00  0.00     0.031 C 
ATOM     46  C   UNL A   1      37.742  30.192  29.006  1.00  0.00     0.029 A 
ATOM     47  N   UNL A   1      39.730  30.146  30.027  1.00  0.00    -0.354 N 
ATOM     48  C   UNL A   1      41.030  33.410  32.532  1.00  0.00     0.074 A 
ATOM     49  C   UNL A   1      40.020  34.442  32.615  1.00  0.00     0.031 C 
ATOM     50  C   UNL A   1      38.365  29.066  28.622  1.00  0.00     0.029 A 
ATOM     51  C   UNL A   1      39.678  29.010  29.255  1.00  0.00     0.049 A 
ATOM     52  H   UNL A   1      40.505  30.380  30.587  1.00  0.00     0.167 HD
ATOM     53  C   UNL A   1      42.233  33.473  33.148  1.00  0.00     0.031 A 
ATOM     54  C   UNL A   1      40.587  28.033  29.075  1.00  0.00     0.031 A 
ATOM     55  C   UNL A   1      43.221  32.430  33.100  1.00  0.00     0.049 A 
ATOM     56  C   UNL A   1      41.898  28.108  29.808  1.00  0.00     0.074 A 
ATOM     57  C   UNL A   1      44.432  32.362  33.765  1.00  0.00     0.029 A 
ATOM     58  N   UNL A   1      43.107  31.272  32.349  1.00  0.00    -0.354 N 
ATOM     59  N   UNL A   1      42.335  29.036  30.624  1.00  0.00    -0.248 NA
ATOM     60  C   UNL A   1      42.834  26.993  29.604  1.00  0.00     0.031 C 
ATOM     61  C   UNL A   1      45.071  31.177  33.386  1.00  0.00     0.029 A 
ATOM     62  C   UNL A   1      44.236  30.489  32.521  1.00  0.00     0.049 A 
ATOM     63  H   UNL A   1      42.339  31.039  31.781  1.00  0.00     0.167 HD
ATOM     64  C   UNL A   1      43.583  28.604  31.050  1.00  0.00     0.074 A 
ATOM     65  C   UNL A   1      43.827  27.325  30.418  1.00  0.00     0.031 C 
ATOM     66  C   UNL A   1      44.455  29.215  31.891  1.00  0.00     0.031 A 
BRANCH  53  67
ATOM     67  C   UNL A   1      42.548  34.711  33.936  1.00  0.00    -0.014 A 
ATOM     68  C   UNL A   1      43.121  35.837  33.322  1.00  0.00     0.009 A 
ATOM     69  C   UNL A   1      42.221  34.772  35.300  1.00  0.00     0.009 A 
ATOM     70  C   UNL A   1      43.384  36.988  34.066  1.00  0.00     0.001 A 
ATOM     71  C   UNL A   1      42.462  35.934  36.034  1.00  0.00     0.001 A 
ATOM     72  C   UNL A   1      43.050  37.038  35.418  1.00  0.00     0.000 A 
ENDBRANCH  53  67
BRANCH  54  73
ATOM     73  C   UNL A   1      40.292  26.888  28.175  1.00  0.00    -0.014 A 
ATOM     74  C   UNL A   1      39.541  25.796  28.636  1.00  0.00     0.009 A 
ATOM     75  C   UNL A   1      40.783  26.868  26.861  1.00  0.00     0.009 A 
ATOM     76  C   UNL A   1      39.318  24.692  27.811  1.00  0.00     0.001 A 
ATOM     77  C   UNL A   1      40.535  25.775  26.029  1.00  0.00     0.001 A 
ATOM     78  C   UNL A   1      39.813  24.682  26.508  1.00  0.00     0.000 A 
ENDBRANCH  54  73
BRANCH  66  79
ATOM     79  C   UNL A   1      45.730  28.489  32.201  1.00  0.00    -0.014 A 
ATOM     80  C   UNL A   1      46.890  28.699  31.440  1.00  0.00     0.009 A 
ATOM     81  C   UNL A   1      45.782  27.616  33.298  1.00  0.00     0.009 A 
ATOM     82  C   UNL A   1      48.071  28.024  31.755  1.00  0.00     0.001 A 
ATOM     83  C   UNL A   1      46.970  26.963  33.626  1.00  0.00     0.001 A 
ATOM     84  C   UNL A   1      48.111  27.161  32.850  1.00  0.00     0.000 A 
ENDBRANCH  66  79
ENDBRANCH  40  41
ENDBRANCH  32  35
ENDBRANCH  30  31
ENDBRANCH  29  30
ENDBRANCH  28  29
ENDBRANCH   1  28
TORSDOF 17
ENDMDL
MODEL 3
REMARK VINA RESULT:     -11.1      1.754      2.444
REMARK SMILES COc1ccc(CCNC(=O)c2cccnc2C(=O)NCCCCNC(=O)c2ccc(-c3c4nc(c(-c5ccccc5)c5ccc([nH]5)c(-c5ccccc5)c5nc(c(-c6ccccc6)c6ccc3[nH]6)C=C5)C=C4)cc2)cc1OC
REMARK SMILES IDX 21 1 20 2 18 3 19 4 17 6 12 7 13 8 14 9 16 10 15 11 10 12
REMARK SMILES IDX 9 13 11 15 8 16 7 17 6 18 3 19 4 20 77 21 5 22 76 23 2 24
REMARK SMILES IDX 1 25 78 26 79 27 22 28 23 29 24 30 25 31 26 32 27 34 28 35
REMARK SMILES IDX 29 36 75 37 30 38 74 39 31 40 32 41 33 42 68 43 34 44 73 45
REMARK SMILES IDX 67 46 69 47 35 48 72 49 66 50 65 51 36 53 58 54 43 55 57 56
REMARK SMILES IDX 44 57 47 58 56 59 70 60 45 61 46 62 55 64 71 65 48 66 37 67
REMARK SMILES IDX 38 68 42 69 39 70 41 71 40 72 59 73 60 74 64 75 61 76 63 77
REMARK SMILES IDX 62 78 49 79 50 80 54 81 51 82 53 83 52 84
REMARK H PARENT 20 5 9 14 25 33 69 52 47 63
REMARK Flexibility Score: inf
ROOT
ATOM      1  C   UNL A   1      37.052  22.641  25.630  1.00  0.00     0.116 C 
ENDROOT
BRANCH   1   2
ATOM      2  N   UNL A   1      35.997  22.149  26.475  1.00  0.00    -0.351 N 
ATOM      3  C   UNL A   1      34.699  21.756  26.310  1.00  0.00     0.270 C 
ATOM      4  O   UNL A   1      34.172  21.452  27.392  1.00  0.00    -0.267 OA
ATOM      5  H   UNL A   1      36.283  22.079  27.414  1.00  0.00     0.163 HD
BRANCH   3   6
ATOM      6  C   UNL A   1      33.860  21.616  25.051  1.00  0.00     0.140 A 
ATOM      7  C   UNL A   1      33.479  22.517  24.060  1.00  0.00     0.071 A 
ATOM      8  C   UNL A   1      32.639  22.063  23.016  1.00  0.00     0.018 A 
ATOM      9  C   UNL A   1      32.153  20.763  23.000  1.00  0.00     0.021 A 
ATOM     10  N   UNL A   1      33.367  20.328  25.009  1.00  0.00    -0.250 NA
ATOM     11  C   UNL A   1      32.544  19.933  24.020  1.00  0.00     0.112 A 
BRANCH   7  12
ATOM     12  C   UNL A   1      33.901  23.906  23.876  1.00  0.00     0.253 C 
ATOM     13  N   UNL A   1      33.576  24.874  24.797  1.00  0.00    -0.352 N 
ATOM     14  H   UNL A   1      33.964  25.761  24.622  1.00  0.00     0.163 HD
ATOM     15  O   UNL A   1      34.403  24.237  22.807  1.00  0.00    -0.269 OA
BRANCH  13  16
ATOM     16  C   UNL A   1      32.746  24.790  25.992  1.00  0.00     0.121 C 
BRANCH  16  17
ATOM     17  C   UNL A   1      31.257  25.011  25.720  1.00  0.00     0.057 C 
BRANCH  17  18
ATOM     18  C   UNL A   1      30.909  26.301  25.010  1.00  0.00    -0.042 A 
ATOM     19  C   UNL A   1      30.457  28.688  23.577  1.00  0.00     0.160 A 
ATOM     20  C   UNL A   1      29.897  27.481  23.145  1.00  0.00     0.051 A 
ATOM     21  C   UNL A   1      31.194  28.726  24.767  1.00  0.00     0.160 A 
ATOM     22  C   UNL A   1      30.134  26.298  23.850  1.00  0.00     0.008 A 
ATOM     23  C   UNL A   1      31.404  27.530  25.475  1.00  0.00     0.054 A 
BRANCH  19  24
ATOM     24  O   UNL A   1      30.216  29.827  22.854  1.00  0.00    -0.493 OA
ATOM     25  C   UNL A   1      28.967  29.774  22.163  1.00  0.00     0.278 C 
ENDBRANCH  19  24
BRANCH  21  26
ATOM     26  O   UNL A   1      31.782  29.809  25.367  1.00  0.00    -0.493 OA
ATOM     27  C   UNL A   1      32.136  29.704  26.738  1.00  0.00     0.278 C 
ENDBRANCH  21  26
ENDBRANCH  17  18
ENDBRANCH  16  17
ENDBRANCH  13  16
ENDBRANCH   7  12
ENDBRANCH   3   6
ENDBRANCH   1   2
BRANCH   1  28
ATOM     28  C   UNL A   1      37.332  21.639  24.514  1.00  0.00     0.023 C 
BRANCH  28  29
ATOM     29  C   UNL A   1      37.933  20.320  25.002  1.00  0.00     0.023 C 
BRANCH  29  30
ATOM     30  C   UNL A   1      39.214  20.491  25.809  1.00  0.00     0.116 C 
BRANCH  30  31
ATOM     31  N   UNL A   1      40.060  19.305  25.817  1.00  0.00    -0.352 N 
ATOM     32  C   UNL A   1      41.413  19.226  26.056  1.00  0.00     0.251 C 
ATOM     33  H   UNL A   1      39.607  18.452  25.627  1.00  0.00     0.163 HD
ATOM     34  O   UNL A   1      42.012  18.168  25.939  1.00  0.00    -0.269 OA
BRANCH  32  35
ATOM     35  C   UNL A   1      42.142  20.464  26.404  1.00  0.00     0.039 A 
ATOM     36  C   UNL A   1      42.699  21.226  25.377  1.00  0.00     0.014 A 
ATOM     37  C   UNL A   1      42.203  20.901  27.729  1.00  0.00     0.014 A 
ATOM     38  C   UNL A   1      43.239  22.478  25.669  1.00  0.00     0.010 A 
ATOM     39  C   UNL A   1      42.667  22.180  28.007  1.00  0.00     0.010 A 
ATOM     40  C   UNL A   1      43.182  22.985  26.979  1.00  0.00    -0.014 A 
BRANCH  40  41
ATOM     41  C   UNL A   1      43.638  24.361  27.293  1.00  0.00     0.031 A 
ATOM     42  C   UNL A   1      42.641  25.407  27.711  1.00  0.00     0.074 A 
ATOM     43  C   UNL A   1      44.933  24.690  27.115  1.00  0.00     0.049 A 
ATOM     44  N   UNL A   1      42.835  26.680  27.949  1.00  0.00    -0.248 NA
ATOM     45  C   UNL A   1      41.239  24.977  27.845  1.00  0.00     0.031 C 
ATOM     46  C   UNL A   1      45.985  23.785  26.648  1.00  0.00     0.029 A 
ATOM     47  N   UNL A   1      45.581  25.886  27.295  1.00  0.00    -0.354 N 
ATOM     48  C   UNL A   1      41.580  27.204  28.229  1.00  0.00     0.074 A 
ATOM     49  C   UNL A   1      40.627  26.125  28.093  1.00  0.00     0.031 C 
ATOM     50  C   UNL A   1      47.151  24.451  26.601  1.00  0.00     0.029 A 
ATOM     51  C   UNL A   1      46.923  25.835  27.000  1.00  0.00     0.049 A 
ATOM     52  H   UNL A   1      45.129  26.704  27.606  1.00  0.00     0.167 HD
ATOM     53  C   UNL A   1      41.252  28.467  28.587  1.00  0.00     0.031 A 
ATOM     54  C   UNL A   1      47.864  26.797  27.043  1.00  0.00     0.031 A 
ATOM     55  C   UNL A   1      42.203  29.530  28.764  1.00  0.00     0.049 A 
ATOM     56  C   UNL A   1      47.477  28.181  27.487  1.00  0.00     0.074 A 
ATOM     57  C   UNL A   1      41.978  30.820  29.212  1.00  0.00     0.029 A 
ATOM     58  N   UNL A   1      43.559  29.424  28.505  1.00  0.00    -0.354 N 
ATOM     59  N   UNL A   1      46.299  28.636  27.838  1.00  0.00    -0.248 NA
ATOM     60  C   UNL A   1      48.554  29.179  27.553  1.00  0.00     0.031 C 
ATOM     61  C   UNL A   1      43.196  31.507  29.188  1.00  0.00     0.029 A 
ATOM     62  C   UNL A   1      44.183  30.631  28.767  1.00  0.00     0.049 A 
ATOM     63  H   UNL A   1      44.012  28.611  28.184  1.00  0.00     0.167 HD
ATOM     64  C   UNL A   1      46.499  29.964  28.191  1.00  0.00     0.074 A 
ATOM     65  C   UNL A   1      47.911  30.236  28.030  1.00  0.00     0.031 C 
ATOM     66  C   UNL A   1      45.591  30.879  28.610  1.00  0.00     0.031 A 
BRANCH  53  67
ATOM     67  C   UNL A   1      39.800  28.770  28.820  1.00  0.00    -0.014 A 
ATOM     68  C   UNL A   1      39.204  28.551  30.072  1.00  0.00     0.009 A 
ATOM     69  C   UNL A   1      39.030  29.328  27.787  1.00  0.00     0.009 A 
ATOM     70  C   UNL A   1      37.858  28.860  30.276  1.00  0.00     0.001 A 
ATOM     71  C   UNL A   1      37.692  29.661  28.003  1.00  0.00     0.001 A 
ATOM     72  C   UNL A   1      37.105  29.420  29.245  1.00  0.00     0.000 A 
ENDBRANCH  53  67
BRANCH  54  73
ATOM     73  C   UNL A   1      49.269  26.491  26.671  1.00  0.00    -0.014 A 
ATOM     74  C   UNL A   1      50.190  26.081  27.647  1.00  0.00     0.009 A 
ATOM     75  C   UNL A   1      49.704  26.634  25.345  1.00  0.00     0.009 A 
ATOM     76  C   UNL A   1      51.526  25.855  27.308  1.00  0.00     0.001 A 
ATOM     77  C   UNL A   1      51.034  26.381  25.003  1.00  0.00     0.001 A 
ATOM     78  C   UNL A   1      51.947  26.002  25.987  1.00  0.00     0.000 A 
ENDBRANCH  54  73
BRANCH  66  79
ATOM     79  C   UNL A   1      46.105  32.245  28.958  1.00  0.00    -0.014 A 
ATOM     80  C   UNL A   1      46.140  33.273  28.004  1.00  0.00     0.009 A 
ATOM     81  C   UNL A   1      46.520  32.516  30.271  1.00  0.00     0.009 A 
ATOM     82  C   UNL A   1      46.609  34.541  28.352  1.00  0.00     0.001 A 
ATOM     83  C   UNL A   1      46.963  33.791  30.622  1.00  0.00     0.001 A 
ATOM     84  C   UNL A   1      47.015  34.800  29.661  1.00  0.00     0.000 A 
ENDBRANCH  66  79
ENDBRANCH  40  41
ENDBRANCH  32  35
ENDBRANCH  30  31
ENDBRANCH  29  30
ENDBRANCH  28  29
ENDBRANCH   1  28
TORSDOF 17
ENDMDL
