MODEL 1
REMARK VINA RESULT:     -12.1      0.000      0.000
REMARK SMILES Cc1ccc(-c2nn(CCC(=O)NCCCCNC(=O)c3ccc(-c4c5nc(c(-c6ccccc6)c6ccc([nH]6)c(-c6ccccc6)c6nc(c(-c7ccccc7)c7ccc4[nH]7)C=C6)C=C5)cc3)c(=O)c3noc(C)c23)cc1C
REMARK SMILES IDX 15 1 14 2 13 3 11 4 12 5 10 7 9 8 8 9 6 10 7 11 76 12 71 13
REMARK SMILES IDX 74 14 69 15 72 16 73 17 75 18 70 19 5 20 1 21 2 22 3 23
REMARK SMILES IDX 78 24 4 25 77 26 79 27 16 28 17 29 18 30 19 31 20 33 21 34
REMARK SMILES IDX 22 35 68 36 23 37 67 38 24 39 25 40 26 41 61 42 27 43 66 44
REMARK SMILES IDX 60 45 62 46 28 47 65 48 59 49 58 50 29 52 51 53 36 54 50 55
REMARK SMILES IDX 37 56 40 57 49 58 63 59 38 60 39 61 48 63 64 64 41 65 30 66
REMARK SMILES IDX 31 67 35 68 32 69 34 70 33 71 52 72 53 73 57 74 54 75 56 76
REMARK SMILES IDX 55 77 42 78 43 79 47 80 44 81 46 82 45 83
REMARK H PARENT 13 6 18 32 62 51 40 62
REMARK Flexibility Score: inf
ROOT
ATOM      1  C   UNL A   1      39.973  24.863  26.346  1.00  0.00     0.023 C 
ENDROOT
BRANCH   1   2
ATOM      2  C   UNL A   1      38.989  23.831  26.889  1.00  0.00     0.116 C 
BRANCH   2   3
ATOM      3  N   UNL A   1      39.483  22.488  26.652  1.00  0.00    -0.356 N 
ATOM      4  C   UNL A   1      38.971  21.490  25.877  1.00  0.00     0.221 C 
ATOM      5  O   UNL A   1      39.482  20.371  25.957  1.00  0.00    -0.275 OA
ATOM      6  H   UNL A   1      40.317  22.262  27.123  1.00  0.00     0.163 HD
BRANCH   4   7
ATOM      7  C   UNL A   1      37.843  21.754  24.901  1.00  0.00     0.124 C 
BRANCH   7   8
ATOM      8  C   UNL A   1      36.708  20.738  25.002  1.00  0.00     0.158 C 
BRANCH   8   9
ATOM      9  N   UNL A   1      35.375  21.346  25.034  1.00  0.00    -0.227 N 
ATOM     10  C   UNL A   1      34.186  23.380  25.115  1.00  0.00     0.104 A 
ATOM     11  N   UNL A   1      35.335  22.763  25.045  1.00  0.00    -0.169 NA
ATOM     12  C   UNL A   1      32.985  22.623  25.297  1.00  0.00     0.078 A 
ATOM     13  C   UNL A   1      32.994  21.237  25.098  1.00  0.00     0.183 A 
ATOM     14  C   UNL A   1      31.705  22.915  25.696  1.00  0.00     0.143 A 
ATOM     15  C   UNL A   1      34.235  20.516  24.876  1.00  0.00     0.296 A 
ATOM     16  N   UNL A   1      31.782  20.701  25.280  1.00  0.00    -0.074 NA
ATOM     17  O   UNL A   1      30.972  21.762  25.665  1.00  0.00    -0.360 OA
ATOM     18  C   UNL A   1      30.996  24.117  26.180  1.00  0.00     0.091 C 
ATOM     19  O   UNL A   1      34.288  19.313  24.658  1.00  0.00    -0.265 OA
BRANCH  10  20
ATOM     20  C   UNL A   1      34.053  24.808  24.781  1.00  0.00     0.003 A 
ATOM     21  C   UNL A   1      32.872  28.767  23.576  1.00  0.00     0.044 C 
ATOM     22  C   UNL A   1      33.324  27.404  24.029  1.00  0.00    -0.048 A 
ATOM     23  C   UNL A   1      33.392  26.378  23.075  1.00  0.00     0.004 A 
ATOM     24  C   UNL A   1      33.658  27.127  25.375  1.00  0.00    -0.048 A 
ATOM     25  C   UNL A   1      33.752  25.088  23.446  1.00  0.00     0.011 A 
ATOM     26  C   UNL A   1      34.034  25.818  25.743  1.00  0.00     0.014 A 
ATOM     27  C   UNL A   1      33.560  28.166  26.462  1.00  0.00     0.044 C 
ENDBRANCH  10  20
ENDBRANCH   8   9
ENDBRANCH   7   8
ENDBRANCH   4   7
ENDBRANCH   2   3
ENDBRANCH   1   2
BRANCH   1  28
ATOM     28  C   UNL A   1      41.049  25.376  27.305  1.00  0.00     0.023 C 
BRANCH  28  29
ATOM     29  C   UNL A   1      42.445  25.554  26.698  1.00  0.00     0.116 C 
BRANCH  29  30
ATOM     30  N   UNL A   1      42.486  26.596  25.682  1.00  0.00    -0.352 N 
ATOM     31  C   UNL A   1      42.044  27.889  25.678  1.00  0.00     0.251 C 
ATOM     32  H   UNL A   1      42.913  26.317  24.839  1.00  0.00     0.163 HD
ATOM     33  O   UNL A   1      42.118  28.537  24.635  1.00  0.00    -0.269 OA
BRANCH  31  34
ATOM     34  C   UNL A   1      41.483  28.539  26.876  1.00  0.00     0.039 A 
ATOM     35  C   UNL A   1      40.102  28.777  26.893  1.00  0.00     0.014 A 
ATOM     36  C   UNL A   1      42.289  29.016  27.911  1.00  0.00     0.014 A 
ATOM     37  C   UNL A   1      39.522  29.445  27.968  1.00  0.00     0.010 A 
ATOM     38  C   UNL A   1      41.706  29.679  28.991  1.00  0.00     0.010 A 
ATOM     39  C   UNL A   1      40.320  29.876  29.036  1.00  0.00    -0.014 A 
BRANCH  39  40
ATOM     40  C   UNL A   1      39.625  30.378  30.236  1.00  0.00     0.031 A 
ATOM     41  C   UNL A   1      39.900  29.574  31.472  1.00  0.00     0.074 A 
ATOM     42  C   UNL A   1      39.312  31.685  30.372  1.00  0.00     0.049 A 
ATOM     43  N   UNL A   1      40.978  29.712  32.191  1.00  0.00    -0.248 NA
ATOM     44  C   UNL A   1      39.129  28.372  31.799  1.00  0.00     0.031 C 
ATOM     45  C   UNL A   1      40.195  32.783  29.956  1.00  0.00     0.029 A 
ATOM     46  N   UNL A   1      38.327  32.301  31.109  1.00  0.00    -0.354 N 
ATOM     47  C   UNL A   1      41.058  28.615  33.034  1.00  0.00     0.074 A 
ATOM     48  C   UNL A   1      39.887  27.814  32.757  1.00  0.00     0.031 C 
ATOM     49  C   UNL A   1      39.815  33.906  30.597  1.00  0.00     0.029 A 
ATOM     50  C   UNL A   1      38.594  33.645  31.358  1.00  0.00     0.049 A 
ATOM     51  H   UNL A   1      37.517  31.840  31.427  1.00  0.00     0.167 HD
ATOM     52  C   UNL A   1      42.079  28.431  33.915  1.00  0.00     0.031 A 
ATOM     53  C   UNL A   1      38.207  34.300  32.489  1.00  0.00     0.031 A 
ATOM     54  C   UNL A   1      43.058  29.477  33.941  1.00  0.00     0.049 A 
ATOM     55  C   UNL A   1      39.256  33.806  33.459  1.00  0.00     0.074 A 
ATOM     56  C   UNL A   1      44.320  29.720  33.444  1.00  0.00     0.029 A 
ATOM     57  N   UNL A   1      42.732  30.625  34.619  1.00  0.00    -0.354 N 
ATOM     58  N   UNL A   1      40.498  34.205  33.532  1.00  0.00    -0.248 NA
ATOM     59  C   UNL A   1      38.986  32.527  34.122  1.00  0.00     0.031 C 
ATOM     60  C   UNL A   1      44.460  31.145  33.451  1.00  0.00     0.029 A 
ATOM     61  C   UNL A   1      43.258  31.675  33.918  1.00  0.00     0.049 A 
ATOM     62  H   UNL A   1      42.216  30.682  35.456  1.00  0.00     0.167 HD
ATOM     63  C   UNL A   1      41.220  33.087  33.955  1.00  0.00     0.074 A 
ATOM     64  C   UNL A   1      40.224  32.100  34.329  1.00  0.00     0.031 C 
ATOM     65  C   UNL A   1      42.570  32.943  33.793  1.00  0.00     0.031 A 
BRANCH  52  66
ATOM     66  C   UNL A   1      42.140  27.375  34.950  1.00  0.00    -0.014 A 
ATOM     67  C   UNL A   1      42.634  26.117  34.560  1.00  0.00     0.009 A 
ATOM     68  C   UNL A   1      41.525  27.503  36.200  1.00  0.00     0.009 A 
ATOM     69  C   UNL A   1      42.472  24.999  35.374  1.00  0.00     0.001 A 
ATOM     70  C   UNL A   1      41.378  26.379  37.024  1.00  0.00     0.001 A 
ATOM     71  C   UNL A   1      41.835  25.128  36.603  1.00  0.00     0.000 A 
ENDBRANCH  52  66
BRANCH  53  72
ATOM     72  C   UNL A   1      36.737  34.262  32.791  1.00  0.00    -0.014 A 
ATOM     73  C   UNL A   1      35.855  33.974  31.729  1.00  0.00     0.009 A 
ATOM     74  C   UNL A   1      36.167  34.477  34.053  1.00  0.00     0.009 A 
ATOM     75  C   UNL A   1      34.489  33.768  31.946  1.00  0.00     0.001 A 
ATOM     76  C   UNL A   1      34.804  34.246  34.279  1.00  0.00     0.001 A 
ATOM     77  C   UNL A   1      33.970  33.869  33.230  1.00  0.00     0.000 A 
ENDBRANCH  53  72
BRANCH  65  78
ATOM     78  C   UNL A   1      43.306  34.117  33.232  1.00  0.00    -0.014 A 
ATOM     79  C   UNL A   1      43.852  35.086  34.081  1.00  0.00     0.009 A 
ATOM     80  C   UNL A   1      43.519  34.233  31.847  1.00  0.00     0.009 A 
ATOM     81  C   UNL A   1      44.622  36.128  33.563  1.00  0.00     0.001 A 
ATOM     82  C   UNL A   1      44.307  35.263  31.331  1.00  0.00     0.001 A 
ATOM     83  C   UNL A   1      44.863  36.207  32.191  1.00  0.00     0.000 A 
ENDBRANCH  65  78
ENDBRANCH  39  40
ENDBRANCH  31  34
ENDBRANCH  29  30
ENDBRANCH  28  29
ENDBRANCH   1  28
TORSDOF 14
ENDMDL
MODEL 2
REMARK VINA RESULT:     -11.7      2.990      7.441
REMARK SMILES Cc1ccc(-c2nn(CCC(=O)NCCCCNC(=O)c3ccc(-c4c5nc(c(-c6ccccc6)c6ccc([nH]6)c(-c6ccccc6)c6nc(c(-c7ccccc7)c7ccc4[nH]7)C=C6)C=C5)cc3)c(=O)c3noc(C)c23)cc1C
REMARK SMILES IDX 15 1 14 2 13 3 11 4 12 5 10 7 9 8 8 9 6 10 7 11 76 12 71 13
REMARK SMILES IDX 74 14 69 15 72 16 73 17 75 18 70 19 5 20 1 21 2 22 3 23
REMARK SMILES IDX 78 24 4 25 77 26 79 27 16 28 17 29 18 30 19 31 20 33 21 34
REMARK SMILES IDX 22 35 68 36 23 37 67 38 24 39 25 40 26 41 61 42 27 43 66 44
REMARK SMILES IDX 60 45 62 46 28 47 65 48 59 49 58 50 29 52 51 53 36 54 50 55
REMARK SMILES IDX 37 56 40 57 49 58 63 59 38 60 39 61 48 63 64 64 41 65 30 66
REMARK SMILES IDX 31 67 35 68 32 69 34 70 33 71 52 72 53 73 57 74 54 75 56 76
REMARK SMILES IDX 55 77 42 78 43 79 47 80 44 81 46 82 45 83
REMARK H PARENT 13 6 18 32 62 51 40 62
REMARK Flexibility Score: inf
ROOT
ATOM      1  C   UNL A   1      35.472  21.364  25.401  1.00  0.00     0.023 C 
ENDROOT
BRANCH   1   2
ATOM      2  C   UNL A   1      34.671  21.744  24.160  1.00  0.00     0.116 C 
BRANCH   2   3
ATOM      3  N   UNL A   1      33.271  21.921  24.497  1.00  0.00    -0.356 N 
ATOM      4  C   UNL A   1      32.363  22.820  24.024  1.00  0.00     0.221 C 
ATOM      5  O   UNL A   1      31.265  22.884  24.580  1.00  0.00    -0.275 OA
ATOM      6  H   UNL A   1      32.924  21.294  25.171  1.00  0.00     0.163 HD
BRANCH   4   7
ATOM      7  C   UNL A   1      32.666  23.680  22.814  1.00  0.00     0.124 C 
BRANCH   7   8
ATOM      8  C   UNL A   1      33.681  24.784  23.097  1.00  0.00     0.158 C 
BRANCH   8   9
ATOM      9  N   UNL A   1      33.147  25.884  23.904  1.00  0.00    -0.227 N 
ATOM     10  C   UNL A   1      31.856  27.856  23.858  1.00  0.00     0.104 A 
ATOM     11  N   UNL A   1      32.338  26.824  23.218  1.00  0.00    -0.169 NA
ATOM     12  C   UNL A   1      32.245  28.092  25.216  1.00  0.00     0.078 A 
ATOM     13  C   UNL A   1      32.880  27.082  25.948  1.00  0.00     0.183 A 
ATOM     14  C   UNL A   1      32.194  29.167  26.068  1.00  0.00     0.143 A 
ATOM     15  C   UNL A   1      33.313  25.849  25.313  1.00  0.00     0.296 A 
ATOM     16  N   UNL A   1      33.141  27.465  27.203  1.00  0.00    -0.074 NA
ATOM     17  O   UNL A   1      32.713  28.786  27.273  1.00  0.00    -0.360 OA
ATOM     18  C   UNL A   1      31.781  30.581  25.962  1.00  0.00     0.091 C 
ATOM     19  O   UNL A   1      33.836  24.923  25.919  1.00  0.00    -0.265 OA
BRANCH  10  20
ATOM     20  C   UNL A   1      30.749  28.658  23.313  1.00  0.00     0.003 A 
ATOM     21  C   UNL A   1      27.732  30.650  20.978  1.00  0.00     0.044 C 
ATOM     22  C   UNL A   1      28.757  29.961  21.840  1.00  0.00    -0.048 A 
ATOM     23  C   UNL A   1      30.112  30.226  21.596  1.00  0.00     0.004 A 
ATOM     24  C   UNL A   1      28.397  29.051  22.861  1.00  0.00    -0.048 A 
ATOM     25  C   UNL A   1      31.104  29.580  22.325  1.00  0.00     0.011 A 
ATOM     26  C   UNL A   1      29.408  28.407  23.605  1.00  0.00     0.014 A 
ATOM     27  C   UNL A   1      26.966  28.680  23.145  1.00  0.00     0.044 C 
ENDBRANCH  10  20
ENDBRANCH   8   9
ENDBRANCH   7   8
ENDBRANCH   4   7
ENDBRANCH   2   3
ENDBRANCH   1   2
BRANCH   1  28
ATOM     28  C   UNL A   1      36.298  22.466  26.067  1.00  0.00     0.023 C 
BRANCH  28  29
ATOM     29  C   UNL A   1      37.735  22.616  25.556  1.00  0.00     0.116 C 
BRANCH  29  30
ATOM     30  N   UNL A   1      38.660  21.697  26.206  1.00  0.00    -0.352 N 
ATOM     31  C   UNL A   1      39.820  21.904  26.899  1.00  0.00     0.251 C 
ATOM     32  H   UNL A   1      38.400  20.750  26.132  1.00  0.00     0.163 HD
ATOM     33  O   UNL A   1      40.470  20.927  27.268  1.00  0.00    -0.269 OA
BRANCH  31  34
ATOM     34  C   UNL A   1      40.321  23.251  27.223  1.00  0.00     0.039 A 
ATOM     35  C   UNL A   1      41.653  23.539  26.898  1.00  0.00     0.014 A 
ATOM     36  C   UNL A   1      39.557  24.178  27.935  1.00  0.00     0.014 A 
ATOM     37  C   UNL A   1      42.204  24.772  27.238  1.00  0.00     0.010 A 
ATOM     38  C   UNL A   1      40.107  25.416  28.267  1.00  0.00     0.010 A 
ATOM     39  C   UNL A   1      41.423  25.727  27.901  1.00  0.00    -0.014 A 
BRANCH  39  40
ATOM     40  C   UNL A   1      41.989  27.082  28.038  1.00  0.00     0.031 A 
ATOM     41  C   UNL A   1      40.974  28.177  27.886  1.00  0.00     0.074 A 
ATOM     42  C   UNL A   1      43.082  27.314  28.797  1.00  0.00     0.049 A 
ATOM     43  N   UNL A   1      40.174  28.549  28.844  1.00  0.00    -0.248 NA
ATOM     44  C   UNL A   1      40.599  28.705  26.572  1.00  0.00     0.031 C 
ATOM     45  C   UNL A   1      43.327  26.667  30.092  1.00  0.00     0.029 A 
ATOM     46  N   UNL A   1      44.026  28.313  28.731  1.00  0.00    -0.354 N 
ATOM     47  C   UNL A   1      39.175  29.322  28.275  1.00  0.00     0.074 A 
ATOM     48  C   UNL A   1      39.484  29.394  26.864  1.00  0.00     0.031 C 
ATOM     49  C   UNL A   1      44.229  27.402  30.776  1.00  0.00     0.029 A 
ATOM     50  C   UNL A   1      44.721  28.484  29.925  1.00  0.00     0.049 A 
ATOM     51  H   UNL A   1      44.193  28.851  27.922  1.00  0.00     0.167 HD
ATOM     52  C   UNL A   1      38.156  29.864  28.995  1.00  0.00     0.031 A 
ATOM     53  C   UNL A   1      45.196  29.685  30.363  1.00  0.00     0.031 A 
ATOM     54  C   UNL A   1      38.204  29.610  30.405  1.00  0.00     0.049 A 
ATOM     55  C   UNL A   1      43.923  30.300  30.897  1.00  0.00     0.074 A 
ATOM     56  C   UNL A   1      37.614  28.768  31.321  1.00  0.00     0.029 A 
ATOM     57  N   UNL A   1      39.078  30.364  31.148  1.00  0.00    -0.354 N 
ATOM     58  N   UNL A   1      43.332  30.009  32.024  1.00  0.00    -0.248 NA
ATOM     59  C   UNL A   1      43.078  31.002  29.927  1.00  0.00     0.031 C 
ATOM     60  C   UNL A   1      38.505  28.746  32.442  1.00  0.00     0.029 A 
ATOM     61  C   UNL A   1      39.597  29.548  32.116  1.00  0.00     0.049 A 
ATOM     62  H   UNL A   1      39.291  31.316  31.011  1.00  0.00     0.167 HD
ATOM     63  C   UNL A   1      41.968  30.193  31.784  1.00  0.00     0.074 A 
ATOM     64  C   UNL A   1      41.886  30.834  30.484  1.00  0.00     0.031 C 
ATOM     65  C   UNL A   1      40.977  29.642  32.546  1.00  0.00     0.031 A 
BRANCH  52  66
ATOM     66  C   UNL A   1      37.157  30.827  28.480  1.00  0.00    -0.014 A 
ATOM     67  C   UNL A   1      37.366  32.188  28.767  1.00  0.00     0.009 A 
ATOM     68  C   UNL A   1      35.930  30.429  27.941  1.00  0.00     0.009 A 
ATOM     69  C   UNL A   1      36.356  33.126  28.571  1.00  0.00     0.001 A 
ATOM     70  C   UNL A   1      34.920  31.378  27.729  1.00  0.00     0.001 A 
ATOM     71  C   UNL A   1      35.128  32.719  28.060  1.00  0.00     0.000 A 
ENDBRANCH  52  66
BRANCH  53  72
ATOM     72  C   UNL A   1      46.114  30.403  29.417  1.00  0.00    -0.014 A 
ATOM     73  C   UNL A   1      46.368  31.770  29.658  1.00  0.00     0.009 A 
ATOM     74  C   UNL A   1      46.756  29.819  28.316  1.00  0.00     0.009 A 
ATOM     75  C   UNL A   1      47.325  32.478  28.924  1.00  0.00     0.001 A 
ATOM     76  C   UNL A   1      47.734  30.519  27.596  1.00  0.00     0.001 A 
ATOM     77  C   UNL A   1      48.034  31.840  27.915  1.00  0.00     0.000 A 
ENDBRANCH  53  72
BRANCH  65  78
ATOM     78  C   UNL A   1      41.407  28.899  33.770  1.00  0.00    -0.014 A 
ATOM     79  C   UNL A   1      41.483  29.550  35.007  1.00  0.00     0.009 A 
ATOM     80  C   UNL A   1      41.680  27.521  33.713  1.00  0.00     0.009 A 
ATOM     81  C   UNL A   1      41.790  28.835  36.165  1.00  0.00     0.001 A 
ATOM     82  C   UNL A   1      41.966  26.802  34.875  1.00  0.00     0.001 A 
ATOM     83  C   UNL A   1      42.015  27.460  36.101  1.00  0.00     0.000 A 
ENDBRANCH  65  78
ENDBRANCH  39  40
ENDBRANCH  31  34
ENDBRANCH  29  30
ENDBRANCH  28  29
ENDBRANCH   1  28
TORSDOF 14
ENDMDL
MODEL 3
REMARK VINA RESULT:     -11.4      4.965      9.863
REMARK SMILES Cc1ccc(-c2nn(CCC(=O)NCCCCNC(=O)c3ccc(-c4c5nc(c(-c6ccccc6)c6ccc([nH]6)c(-c6ccccc6)c6nc(c(-c7ccccc7)c7ccc4[nH]7)C=C6)C=C5)cc3)c(=O)c3noc(C)c23)cc1C
REMARK SMILES IDX 15 1 14 2 13 3 11 4 12 5 10 7 9 8 8 9 6 10 7 11 76 12 71 13
REMARK SMILES IDX 74 14 69 15 72 16 73 17 75 18 70 19 5 20 1 21 2 22 3 23
REMARK SMILES IDX 78 24 4 25 77 26 79 27 16 28 17 29 18 30 19 31 20 33 21 34
REMARK SMILES IDX 22 35 68 36 23 37 67 38 24 39 25 40 26 41 61 42 27 43 66 44
REMARK SMILES IDX 60 45 62 46 28 47 65 48 59 49 58 50 29 52 51 53 36 54 50 55
REMARK SMILES IDX 37 56 40 57 49 58 63 59 38 60 39 61 48 63 64 64 41 65 30 66
REMARK SMILES IDX 31 67 35 68 32 69 34 70 33 71 52 72 53 73 57 74 54 75 56 76
REMARK SMILES IDX 55 77 42 78 43 79 47 80 44 81 46 82 45 83
REMARK H PARENT 13 6 18 32 62 51 40 62
REMARK Flexibility Score: inf
ROOT
ATOM      1  C   UNL A   1      44.209  32.928  26.343  1.00  0.00     0.023 C 
ENDROOT
BRANCH   1   2
ATOM      2  C   UNL A   1      45.592  32.441  26.765  1.00  0.00     0.116 C 
BRANCH   2   3
ATOM      3  N   UNL A   1      46.061  31.406  25.862  1.00  0.00    -0.356 N 
ATOM      4  C   UNL A   1      46.013  30.050  25.983  1.00  0.00     0.221 C 
ATOM      5  O   UNL A   1      46.623  29.370  25.155  1.00  0.00    -0.275 OA
ATOM      6  H   UNL A   1      46.476  31.736  25.033  1.00  0.00     0.163 HD
BRANCH   4   7
ATOM      7  C   UNL A   1      45.191  29.386  27.069  1.00  0.00     0.124 C 
BRANCH   7   8
ATOM      8  C   UNL A   1      46.004  29.034  28.312  1.00  0.00     0.158 C 
BRANCH   8   9
ATOM      9  N   UNL A   1      45.717  27.700  28.845  1.00  0.00    -0.227 N 
ATOM     10  C   UNL A   1      44.841  25.571  28.340  1.00  0.00     0.104 A 
ATOM     11  N   UNL A   1      45.163  26.769  27.932  1.00  0.00    -0.169 NA
ATOM     12  C   UNL A   1      44.942  25.245  29.730  1.00  0.00     0.078 A 
ATOM     13  C   UNL A   1      45.658  26.082  30.595  1.00  0.00     0.183 A 
ATOM     14  C   UNL A   1      44.439  24.253  30.534  1.00  0.00     0.143 A 
ATOM     15  C   UNL A   1      46.162  27.370  30.152  1.00  0.00     0.296 A 
ATOM     16  N   UNL A   1      45.674  25.608  31.846  1.00  0.00    -0.074 NA
ATOM     17  O   UNL A   1      44.897  24.456  31.805  1.00  0.00    -0.360 OA
ATOM     18  C   UNL A   1      43.519  23.112  30.355  1.00  0.00     0.091 C 
ATOM     19  O   UNL A   1      46.825  28.117  30.859  1.00  0.00    -0.265 OA
BRANCH  10  20
ATOM     20  C   UNL A   1      44.600  24.469  27.394  1.00  0.00     0.003 A 
ATOM     21  C   UNL A   1      44.199  20.758  25.252  1.00  0.00     0.044 C 
ATOM     22  C   UNL A   1      44.300  22.078  25.968  1.00  0.00    -0.048 A 
ATOM     23  C   UNL A   1      45.576  22.541  26.325  1.00  0.00     0.004 A 
ATOM     24  C   UNL A   1      43.161  22.845  26.306  1.00  0.00    -0.048 A 
ATOM     25  C   UNL A   1      45.727  23.727  27.034  1.00  0.00     0.011 A 
ATOM     26  C   UNL A   1      43.323  24.054  27.016  1.00  0.00     0.014 A 
ATOM     27  C   UNL A   1      41.760  22.387  26.001  1.00  0.00     0.044 C 
ENDBRANCH  10  20
ENDBRANCH   8   9
ENDBRANCH   7   8
ENDBRANCH   4   7
ENDBRANCH   2   3
ENDBRANCH   1   2
BRANCH   1  28
ATOM     28  C   UNL A   1      44.146  33.984  25.238  1.00  0.00     0.023 C 
BRANCH  28  29
ATOM     29  C   UNL A   1      42.982  34.976  25.339  1.00  0.00     0.116 C 
BRANCH  29  30
ATOM     30  N   UNL A   1      43.355  36.211  26.015  1.00  0.00    -0.352 N 
ATOM     31  C   UNL A   1      43.371  36.562  27.336  1.00  0.00     0.251 C 
ATOM     32  H   UNL A   1      43.650  36.927  25.407  1.00  0.00     0.163 HD
ATOM     33  O   UNL A   1      43.641  37.724  27.636  1.00  0.00    -0.269 OA
BRANCH  31  34
ATOM     34  C   UNL A   1      43.080  35.602  28.416  1.00  0.00     0.039 A 
ATOM     35  C   UNL A   1      41.736  35.277  28.643  1.00  0.00     0.014 A 
ATOM     36  C   UNL A   1      44.073  35.118  29.269  1.00  0.00     0.014 A 
ATOM     37  C   UNL A   1      41.392  34.425  29.690  1.00  0.00     0.010 A 
ATOM     38  C   UNL A   1      43.727  34.259  30.313  1.00  0.00     0.010 A 
ATOM     39  C   UNL A   1      42.390  33.891  30.514  1.00  0.00    -0.014 A 
BRANCH  39  40
ATOM     40  C   UNL A   1      41.989  32.834  31.460  1.00  0.00     0.031 A 
ATOM     41  C   UNL A   1      40.551  32.915  31.880  1.00  0.00     0.074 A 
ATOM     42  C   UNL A   1      42.596  31.627  31.465  1.00  0.00     0.049 A 
ATOM     43  N   UNL A   1      39.566  32.466  31.154  1.00  0.00    -0.248 NA
ATOM     44  C   UNL A   1      40.117  33.767  32.990  1.00  0.00     0.031 C 
ATOM     45  C   UNL A   1      43.002  30.914  30.247  1.00  0.00     0.029 A 
ATOM     46  N   UNL A   1      42.735  30.695  32.468  1.00  0.00    -0.354 N 
ATOM     47  C   UNL A   1      38.394  32.993  31.673  1.00  0.00     0.074 A 
ATOM     48  C   UNL A   1      38.786  33.790  32.813  1.00  0.00     0.031 C 
ATOM     49  C   UNL A   1      43.165  29.609  30.548  1.00  0.00     0.029 A 
ATOM     50  C   UNL A   1      43.009  29.417  31.989  1.00  0.00     0.049 A 
ATOM     51  H   UNL A   1      42.650  30.911  33.425  1.00  0.00     0.167 HD
ATOM     52  C   UNL A   1      37.168  32.738  31.139  1.00  0.00     0.031 A 
ATOM     53  C   UNL A   1      42.589  28.272  32.597  1.00  0.00     0.031 A 
ATOM     54  C   UNL A   1      37.164  31.851  30.015  1.00  0.00     0.049 A 
ATOM     55  C   UNL A   1      41.146  28.241  32.148  1.00  0.00     0.074 A 
ATOM     56  C   UNL A   1      37.090  31.927  28.641  1.00  0.00     0.029 A 
ATOM     57  N   UNL A   1      37.286  30.508  30.275  1.00  0.00    -0.354 N 
ATOM     58  N   UNL A   1      40.705  27.896  30.969  1.00  0.00    -0.248 NA
ATOM     59  C   UNL A   1      40.192  29.005  32.957  1.00  0.00     0.031 C 
ATOM     60  C   UNL A   1      37.645  30.696  28.164  1.00  0.00     0.029 A 
ATOM     61  C   UNL A   1      38.055  29.968  29.281  1.00  0.00     0.049 A 
ATOM     62  H   UNL A   1      36.892  30.023  31.037  1.00  0.00     0.167 HD
ATOM     63  C   UNL A   1      39.561  28.670  30.762  1.00  0.00     0.074 A 
ATOM     64  C   UNL A   1      39.286  29.307  32.037  1.00  0.00     0.031 C 
ATOM     65  C   UNL A   1      39.016  28.916  29.532  1.00  0.00     0.031 A 
BRANCH  52  66
ATOM     66  C   UNL A   1      35.873  33.133  31.737  1.00  0.00    -0.014 A 
ATOM     67  C   UNL A   1      35.135  34.131  31.077  1.00  0.00     0.009 A 
ATOM     68  C   UNL A   1      35.478  32.734  33.018  1.00  0.00     0.009 A 
ATOM     69  C   UNL A   1      34.058  34.758  31.699  1.00  0.00     0.001 A 
ATOM     70  C   UNL A   1      34.384  33.355  33.636  1.00  0.00     0.001 A 
ATOM     71  C   UNL A   1      33.688  34.376  32.984  1.00  0.00     0.000 A 
ENDBRANCH  52  66
BRANCH  53  72
ATOM     72  C   UNL A   1      43.000  28.110  34.031  1.00  0.00    -0.014 A 
ATOM     73  C   UNL A   1      41.981  28.045  35.004  1.00  0.00     0.009 A 
ATOM     74  C   UNL A   1      44.322  28.002  34.484  1.00  0.00     0.009 A 
ATOM     75  C   UNL A   1      42.261  27.743  36.340  1.00  0.00     0.001 A 
ATOM     76  C   UNL A   1      44.604  27.674  35.817  1.00  0.00     0.001 A 
ATOM     77  C   UNL A   1      43.573  27.521  36.739  1.00  0.00     0.000 A 
ENDBRANCH  53  72
BRANCH  65  78
ATOM     78  C   UNL A   1      39.635  28.205  28.372  1.00  0.00    -0.014 A 
ATOM     79  C   UNL A   1      40.537  28.866  27.531  1.00  0.00     0.009 A 
ATOM     80  C   UNL A   1      39.373  26.842  28.144  1.00  0.00     0.009 A 
ATOM     81  C   UNL A   1      41.187  28.176  26.507  1.00  0.00     0.001 A 
ATOM     82  C   UNL A   1      40.040  26.146  27.135  1.00  0.00     0.001 A 
ATOM     83  C   UNL A   1      40.952  26.814  26.320  1.00  0.00     0.000 A 
ENDBRANCH  65  78
ENDBRANCH  39  40
ENDBRANCH  31  34
ENDBRANCH  29  30
ENDBRANCH  28  29
ENDBRANCH   1  28
TORSDOF 14
ENDMDL
