MODEL 1
REMARK VINA RESULT:     -10.9      0.000      0.000
REMARK SMILES Cc1cc(OCC(=O)Nc2sccc2C(=O)NCCCCNC(=O)c2ccc(-c3c4nc(c(-c5ccccc5)c5ccc([nH]5)c(-c5ccccc5)c5nc(c(-c6ccccc6)c6ccc3[nH]6)C=C5)C=C4)cc2)ccc1Cl
REMARK SMILES IDX 18 1 17 2 15 3 16 4 14 6 10 7 11 8 12 9 13 10 9 11 7 12 8 13
REMARK SMILES IDX 6 15 5 16 4 17 1 18 2 19 3 20 75 21 74 22 76 23 73 24 19 25
REMARK SMILES IDX 20 26 21 27 22 28 23 29 24 31 25 32 26 33 72 34 27 35 71 36
REMARK SMILES IDX 28 37 29 38 30 39 65 40 31 41 70 42 64 43 66 44 32 45 69 46
REMARK SMILES IDX 63 47 62 48 33 50 55 51 40 52 54 53 41 54 44 55 53 56 67 57
REMARK SMILES IDX 42 58 43 59 52 61 68 62 45 63 34 64 35 65 39 66 36 67 38 68
REMARK SMILES IDX 37 69 56 70 57 71 61 72 58 73 60 74 59 75 46 76 47 77 51 78
REMARK SMILES IDX 48 79 50 80 49 81
REMARK H PARENT 17 5 9 14 22 30 66 49 44 60
REMARK Flexibility Score: inf
ROOT
ATOM      1  C   UNL A   1      35.438  20.909  25.148  1.00  0.00     0.116 C 
ENDROOT
BRANCH   1   2
ATOM      2  N   UNL A   1      34.212  20.140  25.148  1.00  0.00    -0.352 N 
ATOM      3  C   UNL A   1      32.930  20.525  24.822  1.00  0.00     0.254 C 
ATOM      4  O   UNL A   1      32.014  19.789  25.195  1.00  0.00    -0.269 OA
ATOM      5  H   UNL A   1      34.309  19.199  25.421  1.00  0.00     0.163 HD
BRANCH   3   6
ATOM      6  C   UNL A   1      32.628  21.807  24.182  1.00  0.00     0.074 A 
ATOM      7  C   UNL A   1      31.664  22.764  24.449  1.00  0.00     0.108 A 
ATOM      8  S   UNL A   1      31.478  23.880  23.158  1.00  0.00    -0.126 S 
ATOM      9  C   UNL A   1      32.900  23.340  22.397  1.00  0.00     0.068 A 
ATOM     10  C   UNL A   1      33.416  22.241  23.040  1.00  0.00     0.028 A 
BRANCH   7  11
ATOM     11  N   UNL A   1      30.729  23.025  25.418  1.00  0.00    -0.314 N 
ATOM     12  C   UNL A   1      30.589  24.069  26.282  1.00  0.00     0.262 C 
ATOM     13  O   UNL A   1      29.847  23.895  27.259  1.00  0.00    -0.271 OA
ATOM     14  H   UNL A   1      30.034  22.334  25.504  1.00  0.00     0.170 HD
BRANCH  12  15
ATOM     15  C   UNL A   1      31.107  25.480  25.973  1.00  0.00     0.329 C 
BRANCH  15  16
ATOM     16  O   UNL A   1      30.917  26.545  26.864  1.00  0.00    -0.484 OA
BRANCH  16  17
ATOM     17  C   UNL A   1      31.691  27.667  26.792  1.00  0.00     0.120 A 
ATOM     18  C   UNL A   1      31.737  31.481  26.806  1.00  0.00     0.046 C 
ATOM     19  C   UNL A   1      32.203  30.052  26.831  1.00  0.00    -0.029 A 
ATOM     20  C   UNL A   1      31.267  28.994  26.736  1.00  0.00     0.051 A 
ATOM     21  C   UNL A   1      33.563  29.748  27.001  1.00  0.00     0.044 A 
ATOM     22  C   UNL A   1      33.989  28.425  27.008  1.00  0.00     0.024 A 
ATOM     23  Cl  UNL A   1      34.748  30.980  27.244  1.00  0.00    -0.084 Cl
ATOM     24  C   UNL A   1      33.058  27.397  26.885  1.00  0.00     0.048 A 
ENDBRANCH  16  17
ENDBRANCH  15  16
ENDBRANCH  12  15
ENDBRANCH   7  11
ENDBRANCH   3   6
ENDBRANCH   1   2
BRANCH   1  25
ATOM     25  C   UNL A   1      35.560  21.903  26.309  1.00  0.00     0.023 C 
BRANCH  25  26
ATOM     26  C   UNL A   1      35.772  23.374  25.915  1.00  0.00     0.023 C 
BRANCH  26  27
ATOM     27  C   UNL A   1      37.046  23.696  25.127  1.00  0.00     0.116 C 
BRANCH  27  28
ATOM     28  N   UNL A   1      38.161  22.808  25.388  1.00  0.00    -0.352 N 
ATOM     29  C   UNL A   1      39.313  22.992  26.118  1.00  0.00     0.251 C 
ATOM     30  H   UNL A   1      38.080  21.920  24.972  1.00  0.00     0.163 HD
ATOM     31  O   UNL A   1      40.141  22.084  26.159  1.00  0.00    -0.269 OA
BRANCH  29  32
ATOM     32  C   UNL A   1      39.624  24.268  26.819  1.00  0.00     0.039 A 
ATOM     33  C   UNL A   1      39.119  24.436  28.112  1.00  0.00     0.014 A 
ATOM     34  C   UNL A   1      40.312  25.326  26.221  1.00  0.00     0.014 A 
ATOM     35  C   UNL A   1      39.360  25.618  28.825  1.00  0.00     0.010 A 
ATOM     36  C   UNL A   1      40.607  26.488  26.959  1.00  0.00     0.010 A 
ATOM     37  C   UNL A   1      40.141  26.648  28.274  1.00  0.00    -0.014 A 
BRANCH  37  38
ATOM     38  C   UNL A   1      40.467  27.864  29.080  1.00  0.00     0.031 A 
ATOM     39  C   UNL A   1      41.806  28.023  29.760  1.00  0.00     0.074 A 
ATOM     40  C   UNL A   1      39.559  28.855  29.203  1.00  0.00     0.049 A 
ATOM     41  N   UNL A   1      42.255  29.028  30.474  1.00  0.00    -0.248 NA
ATOM     42  C   UNL A   1      42.758  26.912  29.629  1.00  0.00     0.031 C 
ATOM     43  C   UNL A   1      38.214  28.850  28.623  1.00  0.00     0.029 A 
ATOM     44  N   UNL A   1      39.632  30.068  29.850  1.00  0.00    -0.354 N 
ATOM     45  C   UNL A   1      43.536  28.671  30.877  1.00  0.00     0.074 A 
ATOM     46  C   UNL A   1      43.775  27.338  30.366  1.00  0.00     0.031 C 
ATOM     47  C   UNL A   1      37.608  30.015  28.905  1.00  0.00     0.029 A 
ATOM     48  C   UNL A   1      38.500  30.836  29.719  1.00  0.00     0.049 A 
ATOM     49  H   UNL A   1      40.424  30.358  30.359  1.00  0.00     0.167 HD
ATOM     50  C   UNL A   1      44.443  29.386  31.588  1.00  0.00     0.031 A 
ATOM     51  C   UNL A   1      38.203  32.062  30.196  1.00  0.00     0.031 A 
ATOM     52  C   UNL A   1      44.231  30.715  32.100  1.00  0.00     0.049 A 
ATOM     53  C   UNL A   1      39.212  32.815  31.018  1.00  0.00     0.074 A 
ATOM     54  C   UNL A   1      45.116  31.517  32.804  1.00  0.00     0.029 A 
ATOM     55  N   UNL A   1      43.059  31.441  31.966  1.00  0.00    -0.354 N 
ATOM     56  N   UNL A   1      40.434  32.475  31.343  1.00  0.00    -0.248 NA
ATOM     57  C   UNL A   1      38.798  34.131  31.534  1.00  0.00     0.031 C 
ATOM     58  C   UNL A   1      44.465  32.711  33.133  1.00  0.00     0.029 A 
ATOM     59  C   UNL A   1      43.193  32.671  32.591  1.00  0.00     0.049 A 
ATOM     60  H   UNL A   1      42.252  31.128  31.498  1.00  0.00     0.167 HD
ATOM     61  C   UNL A   1      40.943  33.544  32.071  1.00  0.00     0.074 A 
ATOM     62  C   UNL A   1      39.905  34.550  32.129  1.00  0.00     0.031 C 
ATOM     63  C   UNL A   1      42.165  33.676  32.641  1.00  0.00     0.031 A 
BRANCH  50  64
ATOM     64  C   UNL A   1      45.775  28.743  31.858  1.00  0.00    -0.014 A 
ATOM     65  C   UNL A   1      46.853  28.923  30.978  1.00  0.00     0.009 A 
ATOM     66  C   UNL A   1      45.975  28.012  33.039  1.00  0.00     0.009 A 
ATOM     67  C   UNL A   1      48.099  28.361  31.264  1.00  0.00     0.001 A 
ATOM     68  C   UNL A   1      47.228  27.472  33.333  1.00  0.00     0.001 A 
ATOM     69  C   UNL A   1      48.287  27.640  32.443  1.00  0.00     0.000 A 
ENDBRANCH  50  64
BRANCH  51  70
ATOM     70  C   UNL A   1      36.879  32.677  29.911  1.00  0.00    -0.014 A 
ATOM     71  C   UNL A   1      36.732  33.597  28.860  1.00  0.00     0.009 A 
ATOM     72  C   UNL A   1      35.769  32.383  30.717  1.00  0.00     0.009 A 
ATOM     73  C   UNL A   1      35.508  34.235  28.646  1.00  0.00     0.001 A 
ATOM     74  C   UNL A   1      34.540  33.001  30.482  1.00  0.00     0.001 A 
ATOM     75  C   UNL A   1      34.413  33.935  29.454  1.00  0.00     0.000 A 
ENDBRANCH  51  70
BRANCH  63  76
ATOM     76  C   UNL A   1      42.467  34.972  33.341  1.00  0.00    -0.014 A 
ATOM     77  C   UNL A   1      43.103  36.030  32.676  1.00  0.00     0.009 A 
ATOM     78  C   UNL A   1      42.078  35.145  34.680  1.00  0.00     0.009 A 
ATOM     79  C   UNL A   1      43.373  37.225  33.348  1.00  0.00     0.001 A 
ATOM     80  C   UNL A   1      42.326  36.349  35.340  1.00  0.00     0.001 A 
ATOM     81  C   UNL A   1      42.981  37.386  34.676  1.00  0.00     0.000 A 
ENDBRANCH  63  76
ENDBRANCH  37  38
ENDBRANCH  29  32
ENDBRANCH  27  28
ENDBRANCH  26  27
ENDBRANCH  25  26
ENDBRANCH   1  25
TORSDOF 15
ENDMDL
MODEL 2
REMARK VINA RESULT:     -10.8      2.566      6.889
REMARK SMILES Cc1cc(OCC(=O)Nc2sccc2C(=O)NCCCCNC(=O)c2ccc(-c3c4nc(c(-c5ccccc5)c5ccc([nH]5)c(-c5ccccc5)c5nc(c(-c6ccccc6)c6ccc3[nH]6)C=C5)C=C4)cc2)ccc1Cl
REMARK SMILES IDX 18 1 17 2 15 3 16 4 14 6 10 7 11 8 12 9 13 10 9 11 7 12 8 13
REMARK SMILES IDX 6 15 5 16 4 17 1 18 2 19 3 20 75 21 74 22 76 23 73 24 19 25
REMARK SMILES IDX 20 26 21 27 22 28 23 29 24 31 25 32 26 33 72 34 27 35 71 36
REMARK SMILES IDX 28 37 29 38 30 39 65 40 31 41 70 42 64 43 66 44 32 45 69 46
REMARK SMILES IDX 63 47 62 48 33 50 55 51 40 52 54 53 41 54 44 55 53 56 67 57
REMARK SMILES IDX 42 58 43 59 52 61 68 62 45 63 34 64 35 65 39 66 36 67 38 68
REMARK SMILES IDX 37 69 56 70 57 71 61 72 58 73 60 74 59 75 46 76 47 77 51 78
REMARK SMILES IDX 48 79 50 80 49 81
REMARK H PARENT 17 5 9 14 22 30 66 49 44 60
REMARK Flexibility Score: inf
ROOT
ATOM      1  C   UNL A   1      36.374  21.335  25.421  1.00  0.00     0.116 C 
ENDROOT
BRANCH   1   2
ATOM      2  N   UNL A   1      35.536  21.578  26.576  1.00  0.00    -0.352 N 
ATOM      3  C   UNL A   1      34.273  22.121  26.649  1.00  0.00     0.254 C 
ATOM      4  O   UNL A   1      33.895  22.510  27.757  1.00  0.00    -0.269 OA
ATOM      5  H   UNL A   1      35.928  21.313  27.439  1.00  0.00     0.163 HD
BRANCH   3   6
ATOM      6  C   UNL A   1      33.445  22.360  25.465  1.00  0.00     0.074 A 
ATOM      7  C   UNL A   1      32.074  22.314  25.276  1.00  0.00     0.108 A 
ATOM      8  S   UNL A   1      31.646  22.278  23.615  1.00  0.00    -0.126 S 
ATOM      9  C   UNL A   1      33.224  22.685  23.129  1.00  0.00     0.068 A 
ATOM     10  C   UNL A   1      34.081  22.702  24.203  1.00  0.00     0.028 A 
BRANCH   7  11
ATOM     11  N   UNL A   1      30.944  22.186  26.043  1.00  0.00    -0.314 N 
ATOM     12  C   UNL A   1      30.260  23.086  26.803  1.00  0.00     0.262 C 
ATOM     13  O   UNL A   1      29.467  22.630  27.638  1.00  0.00    -0.271 OA
ATOM     14  H   UNL A   1      30.558  21.281  26.044  1.00  0.00     0.170 HD
BRANCH  12  15
ATOM     15  C   UNL A   1      30.256  24.592  26.507  1.00  0.00     0.329 C 
BRANCH  15  16
ATOM     16  O   UNL A   1      31.378  25.394  26.756  1.00  0.00    -0.484 OA
BRANCH  16  17
ATOM     17  C   UNL A   1      32.069  25.973  25.732  1.00  0.00     0.120 A 
ATOM     18  C   UNL A   1      32.245  26.542  21.963  1.00  0.00     0.046 C 
ATOM     19  C   UNL A   1      32.535  26.651  23.434  1.00  0.00    -0.029 A 
ATOM     20  C   UNL A   1      31.826  25.851  24.363  1.00  0.00     0.051 A 
ATOM     21  C   UNL A   1      33.471  27.582  23.909  1.00  0.00     0.044 A 
ATOM     22  C   UNL A   1      33.747  27.667  25.269  1.00  0.00     0.024 A 
ATOM     23  Cl  UNL A   1      34.287  28.675  22.850  1.00  0.00    -0.084 Cl
ATOM     24  C   UNL A   1      33.061  26.853  26.167  1.00  0.00     0.048 A 
ENDBRANCH  16  17
ENDBRANCH  15  16
ENDBRANCH  12  15
ENDBRANCH   7  11
ENDBRANCH   3   6
ENDBRANCH   1   2
BRANCH   1  25
ATOM     25  C   UNL A   1      36.396  19.876  24.952  1.00  0.00     0.023 C 
BRANCH  25  26
ATOM     26  C   UNL A   1      37.781  19.214  24.881  1.00  0.00     0.023 C 
BRANCH  26  27
ATOM     27  C   UNL A   1      38.907  19.889  25.671  1.00  0.00     0.116 C 
BRANCH  27  28
ATOM     28  N   UNL A   1      40.143  19.136  25.729  1.00  0.00    -0.352 N 
ATOM     29  C   UNL A   1      41.414  19.509  26.101  1.00  0.00     0.251 C 
ATOM     30  H   UNL A   1      40.059  18.194  25.455  1.00  0.00     0.163 HD
ATOM     31  O   UNL A   1      42.322  18.682  26.028  1.00  0.00    -0.269 OA
BRANCH  29  32
ATOM     32  C   UNL A   1      41.748  20.890  26.543  1.00  0.00     0.039 A 
ATOM     33  C   UNL A   1      41.608  21.188  27.902  1.00  0.00     0.014 A 
ATOM     34  C   UNL A   1      42.106  21.914  25.662  1.00  0.00     0.014 A 
ATOM     35  C   UNL A   1      41.890  22.473  28.385  1.00  0.00     0.010 A 
ATOM     36  C   UNL A   1      42.449  23.187  26.155  1.00  0.00     0.010 A 
ATOM     37  C   UNL A   1      42.353  23.483  27.525  1.00  0.00    -0.014 A 
BRANCH  37  38
ATOM     38  C   UNL A   1      42.738  24.822  28.067  1.00  0.00     0.031 A 
ATOM     39  C   UNL A   1      41.712  25.908  28.284  1.00  0.00     0.074 A 
ATOM     40  C   UNL A   1      44.025  25.076  28.384  1.00  0.00     0.049 A 
ATOM     41  N   UNL A   1      41.878  27.115  28.772  1.00  0.00    -0.248 NA
ATOM     42  C   UNL A   1      40.326  25.605  27.901  1.00  0.00     0.031 C 
ATOM     43  C   UNL A   1      45.141  24.141  28.220  1.00  0.00     0.029 A 
ATOM     44  N   UNL A   1      44.614  26.198  28.923  1.00  0.00    -0.354 N 
ATOM     45  C   UNL A   1      40.624  27.713  28.750  1.00  0.00     0.074 A 
ATOM     46  C   UNL A   1      39.716  26.753  28.161  1.00  0.00     0.031 C 
ATOM     47  C   UNL A   1      46.265  24.712  28.683  1.00  0.00     0.029 A 
ATOM     48  C   UNL A   1      45.965  26.065  29.142  1.00  0.00     0.049 A 
ATOM     49  H   UNL A   1      44.113  27.019  29.133  1.00  0.00     0.167 HD
ATOM     50  C   UNL A   1      40.251  28.939  29.197  1.00  0.00     0.031 A 
ATOM     51  C   UNL A   1      46.867  26.928  29.651  1.00  0.00     0.031 A 
ATOM     52  C   UNL A   1      41.133  29.907  29.793  1.00  0.00     0.049 A 
ATOM     53  C   UNL A   1      46.432  28.296  30.099  1.00  0.00     0.074 A 
ATOM     54  C   UNL A   1      40.821  31.160  30.299  1.00  0.00     0.029 A 
ATOM     55  N   UNL A   1      42.497  29.738  29.968  1.00  0.00    -0.354 N 
ATOM     56  N   UNL A   1      45.232  28.818  30.113  1.00  0.00    -0.248 NA
ATOM     57  C   UNL A   1      47.484  29.192  30.608  1.00  0.00     0.031 C 
ATOM     58  C   UNL A   1      42.002  31.766  30.740  1.00  0.00     0.029 A 
ATOM     59  C   UNL A   1      43.041  30.870  30.554  1.00  0.00     0.049 A 
ATOM     60  H   UNL A   1      43.003  28.934  29.712  1.00  0.00     0.167 HD
ATOM     61  C   UNL A   1      45.379  30.087  30.661  1.00  0.00     0.074 A 
ATOM     62  C   UNL A   1      46.781  30.252  30.979  1.00  0.00     0.031 C 
ATOM     63  C   UNL A   1      44.432  31.031  30.879  1.00  0.00     0.031 A 
BRANCH  50  64
ATOM     64  C   UNL A   1      38.800  29.312  29.064  1.00  0.00    -0.014 A 
ATOM     65  C   UNL A   1      38.285  29.779  27.845  1.00  0.00     0.009 A 
ATOM     66  C   UNL A   1      37.925  29.125  30.146  1.00  0.00     0.009 A 
ATOM     67  C   UNL A   1      36.927  30.077  27.720  1.00  0.00     0.001 A 
ATOM     68  C   UNL A   1      36.563  29.400  30.010  1.00  0.00     0.001 A 
ATOM     69  C   UNL A   1      36.066  29.883  28.800  1.00  0.00     0.000 A 
ENDBRANCH  50  64
BRANCH  51  70
ATOM     70  C   UNL A   1      48.295  26.531  29.776  1.00  0.00    -0.014 A 
ATOM     71  C   UNL A   1      48.763  25.908  30.944  1.00  0.00     0.009 A 
ATOM     72  C   UNL A   1      49.206  26.817  28.748  1.00  0.00     0.009 A 
ATOM     73  C   UNL A   1      50.119  25.612  31.093  1.00  0.00     0.001 A 
ATOM     74  C   UNL A   1      50.556  26.492  28.887  1.00  0.00     0.001 A 
ATOM     75  C   UNL A   1      51.014  25.901  30.064  1.00  0.00     0.000 A 
ENDBRANCH  51  70
BRANCH  63  76
ATOM     76  C   UNL A   1      44.869  32.314  31.532  1.00  0.00    -0.014 A 
ATOM     77  C   UNL A   1      44.892  32.452  32.927  1.00  0.00     0.009 A 
ATOM     78  C   UNL A   1      45.296  33.388  30.735  1.00  0.00     0.009 A 
ATOM     79  C   UNL A   1      45.302  33.653  33.511  1.00  0.00     0.001 A 
ATOM     80  C   UNL A   1      45.729  34.578  31.322  1.00  0.00     0.001 A 
ATOM     81  C   UNL A   1      45.724  34.713  32.709  1.00  0.00     0.000 A 
ENDBRANCH  63  76
ENDBRANCH  37  38
ENDBRANCH  29  32
ENDBRANCH  27  28
ENDBRANCH  26  27
ENDBRANCH  25  26
ENDBRANCH   1  25
TORSDOF 15
ENDMDL
MODEL 3
REMARK VINA RESULT:     -10.8      3.099      8.071
REMARK SMILES Cc1cc(OCC(=O)Nc2sccc2C(=O)NCCCCNC(=O)c2ccc(-c3c4nc(c(-c5ccccc5)c5ccc([nH]5)c(-c5ccccc5)c5nc(c(-c6ccccc6)c6ccc3[nH]6)C=C5)C=C4)cc2)ccc1Cl
REMARK SMILES IDX 18 1 17 2 15 3 16 4 14 6 10 7 11 8 12 9 13 10 9 11 7 12 8 13
REMARK SMILES IDX 6 15 5 16 4 17 1 18 2 19 3 20 75 21 74 22 76 23 73 24 19 25
REMARK SMILES IDX 20 26 21 27 22 28 23 29 24 31 25 32 26 33 72 34 27 35 71 36
REMARK SMILES IDX 28 37 29 38 30 39 65 40 31 41 70 42 64 43 66 44 32 45 69 46
REMARK SMILES IDX 63 47 62 48 33 50 55 51 40 52 54 53 41 54 44 55 53 56 67 57
REMARK SMILES IDX 42 58 43 59 52 61 68 62 45 63 34 64 35 65 39 66 36 67 38 68
REMARK SMILES IDX 37 69 56 70 57 71 61 72 58 73 60 74 59 75 46 76 47 77 51 78
REMARK SMILES IDX 48 79 50 80 49 81
REMARK H PARENT 17 5 9 14 22 30 66 49 44 60
REMARK Flexibility Score: inf
ROOT
ATOM      1  C   UNL A   1      31.119  26.843  26.261  1.00  0.00     0.116 C 
ENDROOT
BRANCH   1   2
ATOM      2  N   UNL A   1      30.897  25.773  25.311  1.00  0.00    -0.352 N 
ATOM      3  C   UNL A   1      30.295  25.806  24.073  1.00  0.00     0.254 C 
ATOM      4  O   UNL A   1      29.947  24.725  23.592  1.00  0.00    -0.269 OA
ATOM      5  H   UNL A   1      31.226  24.889  25.593  1.00  0.00     0.163 HD
BRANCH   3   6
ATOM      6  C   UNL A   1      29.952  27.057  23.393  1.00  0.00     0.074 A 
ATOM      7  C   UNL A   1      30.722  27.952  22.670  1.00  0.00     0.108 A 
ATOM      8  S   UNL A   1      29.924  29.453  22.431  1.00  0.00    -0.126 S 
ATOM      9  C   UNL A   1      28.434  28.821  22.955  1.00  0.00     0.068 A 
ATOM     10  C   UNL A   1      28.583  27.542  23.435  1.00  0.00     0.028 A 
BRANCH   7  11
ATOM     11  N   UNL A   1      31.996  28.026  22.167  1.00  0.00    -0.314 N 
ATOM     12  C   UNL A   1      32.893  27.057  21.829  1.00  0.00     0.262 C 
ATOM     13  O   UNL A   1      34.075  27.404  21.704  1.00  0.00    -0.271 OA
ATOM     14  H   UNL A   1      32.320  28.944  22.024  1.00  0.00     0.170 HD
BRANCH  12  15
ATOM     15  C   UNL A   1      32.469  25.653  21.377  1.00  0.00     0.329 C 
BRANCH  15  16
ATOM     16  O   UNL A   1      33.379  24.588  21.336  1.00  0.00    -0.484 OA
BRANCH  16  17
ATOM     17  C   UNL A   1      33.467  23.699  22.368  1.00  0.00     0.120 A 
ATOM     18  C   UNL A   1      32.368  20.305  23.718  1.00  0.00     0.046 C 
ATOM     19  C   UNL A   1      33.098  21.611  23.575  1.00  0.00    -0.029 A 
ATOM     20  C   UNL A   1      32.770  22.501  22.524  1.00  0.00     0.051 A 
ATOM     21  C   UNL A   1      34.147  21.940  24.447  1.00  0.00     0.044 A 
ATOM     22  C   UNL A   1      34.808  23.157  24.320  1.00  0.00     0.024 A 
ATOM     23  Cl  UNL A   1      34.685  20.854  25.677  1.00  0.00    -0.084 Cl
ATOM     24  C   UNL A   1      34.454  24.034  23.298  1.00  0.00     0.048 A 
ENDBRANCH  16  17
ENDBRANCH  15  16
ENDBRANCH  12  15
ENDBRANCH   7  11
ENDBRANCH   3   6
ENDBRANCH   1   2
BRANCH   1  25
ATOM     25  C   UNL A   1      32.484  27.529  26.130  1.00  0.00     0.023 C 
BRANCH  25  26
ATOM     26  C   UNL A   1      32.882  28.457  27.289  1.00  0.00     0.023 C 
BRANCH  26  27
ATOM     27  C   UNL A   1      33.821  29.618  26.948  1.00  0.00     0.116 C 
BRANCH  27  28
ATOM     28  N   UNL A   1      33.742  30.747  27.853  1.00  0.00    -0.352 N 
ATOM     29  C   UNL A   1      34.661  31.266  28.736  1.00  0.00     0.251 C 
ATOM     30  H   UNL A   1      32.882  31.226  27.833  1.00  0.00     0.163 HD
ATOM     31  O   UNL A   1      34.338  32.225  29.435  1.00  0.00    -0.269 OA
BRANCH  29  32
ATOM     32  C   UNL A   1      36.018  30.682  28.917  1.00  0.00     0.039 A 
ATOM     33  C   UNL A   1      36.912  30.774  27.845  1.00  0.00     0.014 A 
ATOM     34  C   UNL A   1      36.407  29.979  30.060  1.00  0.00     0.014 A 
ATOM     35  C   UNL A   1      38.201  30.231  27.942  1.00  0.00     0.010 A 
ATOM     36  C   UNL A   1      37.720  29.489  30.180  1.00  0.00     0.010 A 
ATOM     37  C   UNL A   1      38.639  29.615  29.126  1.00  0.00    -0.014 A 
BRANCH  37  38
ATOM     38  C   UNL A   1      40.046  29.123  29.247  1.00  0.00     0.031 A 
ATOM     39  C   UNL A   1      41.130  29.980  29.854  1.00  0.00     0.074 A 
ATOM     40  C   UNL A   1      40.366  27.884  28.818  1.00  0.00     0.049 A 
ATOM     41  N   UNL A   1      42.394  29.692  30.055  1.00  0.00    -0.248 NA
ATOM     42  C   UNL A   1      40.751  31.334  30.282  1.00  0.00     0.031 C 
ATOM     43  C   UNL A   1      39.440  26.936  28.193  1.00  0.00     0.029 A 
ATOM     44  N   UNL A   1      41.561  27.201  28.851  1.00  0.00    -0.354 N 
ATOM     45  C   UNL A   1      42.959  30.824  30.629  1.00  0.00     0.074 A 
ATOM     46  C   UNL A   1      41.911  31.820  30.703  1.00  0.00     0.031 C 
ATOM     47  C   UNL A   1      40.089  25.787  27.941  1.00  0.00     0.029 A 
ATOM     48  C   UNL A   1      41.486  25.925  28.346  1.00  0.00     0.049 A 
ATOM     49  H   UNL A   1      42.393  27.591  29.206  1.00  0.00     0.167 HD
ATOM     50  C   UNL A   1      44.225  31.019  31.076  1.00  0.00     0.031 A 
ATOM     51  C   UNL A   1      42.426  24.968  28.218  1.00  0.00     0.031 A 
ATOM     52  C   UNL A   1      45.282  30.043  31.021  1.00  0.00     0.049 A 
ATOM     53  C   UNL A   1      43.833  25.226  28.683  1.00  0.00     0.074 A 
ATOM     54  C   UNL A   1      46.584  30.158  31.483  1.00  0.00     0.029 A 
ATOM     55  N   UNL A   1      45.165  28.775  30.476  1.00  0.00    -0.354 N 
ATOM     56  N   UNL A   1      44.328  26.288  29.268  1.00  0.00    -0.248 NA
ATOM     57  C   UNL A   1      44.809  24.144  28.474  1.00  0.00     0.031 C 
ATOM     58  C   UNL A   1      47.267  28.975  31.179  1.00  0.00     0.029 A 
ATOM     59  C   UNL A   1      46.376  28.107  30.572  1.00  0.00     0.049 A 
ATOM     60  H   UNL A   1      44.345  28.405  30.078  1.00  0.00     0.167 HD
ATOM     61  C   UNL A   1      45.661  25.989  29.524  1.00  0.00     0.074 A 
ATOM     62  C   UNL A   1      45.895  24.644  29.045  1.00  0.00     0.031 C 
ATOM     63  C   UNL A   1      46.607  26.767  30.105  1.00  0.00     0.031 A 
BRANCH  50  64
ATOM     64  C   UNL A   1      44.548  32.358  31.681  1.00  0.00    -0.014 A 
ATOM     65  C   UNL A   1      44.409  32.577  33.060  1.00  0.00     0.009 A 
ATOM     66  C   UNL A   1      45.066  33.384  30.876  1.00  0.00     0.009 A 
ATOM     67  C   UNL A   1      44.757  33.810  33.617  1.00  0.00     0.001 A 
ATOM     68  C   UNL A   1      45.437  34.606  31.441  1.00  0.00     0.001 A 
ATOM     69  C   UNL A   1      45.276  34.821  32.808  1.00  0.00     0.000 A 
ENDBRANCH  50  64
BRANCH  51  70
ATOM     70  C   UNL A   1      42.079  23.650  27.620  1.00  0.00    -0.014 A 
ATOM     71  C   UNL A   1      41.560  22.619  28.420  1.00  0.00     0.009 A 
ATOM     72  C   UNL A   1      42.309  23.404  26.259  1.00  0.00     0.009 A 
ATOM     73  C   UNL A   1      41.312  21.358  27.873  1.00  0.00     0.001 A 
ATOM     74  C   UNL A   1      42.032  22.151  25.709  1.00  0.00     0.001 A 
ATOM     75  C   UNL A   1      41.545  21.125  26.519  1.00  0.00     0.000 A 
ENDBRANCH  51  70
BRANCH  63  76
ATOM     76  C   UNL A   1      47.973  26.169  30.298  1.00  0.00    -0.014 A 
ATOM     77  C   UNL A   1      48.911  26.140  29.255  1.00  0.00     0.009 A 
ATOM     78  C   UNL A   1      48.337  25.657  31.554  1.00  0.00     0.009 A 
ATOM     79  C   UNL A   1      50.174  25.579  29.457  1.00  0.00     0.001 A 
ATOM     80  C   UNL A   1      49.609  25.121  31.759  1.00  0.00     0.001 A 
ATOM     81  C   UNL A   1      50.524  25.074  30.709  1.00  0.00     0.000 A 
ENDBRANCH  63  76
ENDBRANCH  37  38
ENDBRANCH  29  32
ENDBRANCH  27  28
ENDBRANCH  26  27
ENDBRANCH  25  26
ENDBRANCH   1  25
TORSDOF 15
ENDMDL
