MODEL 1
REMARK VINA RESULT:     -10.6      0.000      0.000
REMARK SMILES CCC[C@@H](C)[C@H](NS(=O)(=O)c1ccc(C)c(C)c1)C(=O)NCCCCNC(=O)c1ccc(-c2c3nc(c(-c4ccccc4)c4ccc([nH]4)c(-c4ccccc4)c4nc(c(-c5ccccc5)c5ccc2[nH]5)C=C4)C=C3)cc1
REMARK SMILES IDX 23 1 22 2 21 3 19 4 20 5 6 7 4 8 5 9 3 10 2 11 1 12 7 13
REMARK SMILES IDX 8 15 9 16 10 17 11 18 12 19 18 20 13 21 16 22 14 23 17 24
REMARK SMILES IDX 15 25 24 26 25 27 26 28 27 29 28 31 29 32 30 33 76 34 31 35
REMARK SMILES IDX 75 36 32 37 33 38 34 39 69 40 35 41 74 42 68 43 70 44 36 45
REMARK SMILES IDX 73 46 67 47 66 48 37 50 59 51 44 52 58 53 45 54 48 55 57 56
REMARK SMILES IDX 71 57 46 58 47 59 56 61 72 62 49 63 38 64 39 65 43 66 40 67
REMARK SMILES IDX 42 68 41 69 60 70 61 71 65 72 62 73 64 74 63 75 50 76 51 77
REMARK SMILES IDX 55 78 52 79 54 80 53 81
REMARK H PARENT 21 6 7 14 26 30 70 49 48 60
REMARK Flexibility Score: inf
ROOT
ATOM      1  C   UNL A   1      32.261  29.944  26.972  1.00  0.00     0.023 C 
ENDROOT
BRANCH   1   2
ATOM      2  C   UNL A   1      33.437  29.496  26.116  1.00  0.00     0.116 C 
BRANCH   2   3
ATOM      3  N   UNL A   1      33.195  29.558  24.684  1.00  0.00    -0.355 N 
ATOM      4  C   UNL A   1      32.734  28.589  23.833  1.00  0.00     0.238 C 
ATOM      5  O   UNL A   1      32.290  28.951  22.739  1.00  0.00    -0.273 OA
ATOM      6  H   UNL A   1      33.393  30.427  24.263  1.00  0.00     0.163 HD
BRANCH   4   7
ATOM      7  C   UNL A   1      32.739  27.099  24.222  1.00  0.00     0.161 C 
BRANCH   7   8
ATOM      8  C   UNL A   1      33.589  26.199  23.262  1.00  0.00     0.013 C 
ATOM      9  C   UNL A   1      32.648  25.581  22.214  1.00  0.00     0.010 C 
BRANCH   8  10
ATOM     10  C   UNL A   1      34.404  25.096  23.978  1.00  0.00     0.005 C 
BRANCH  10  11
ATOM     11  C   UNL A   1      34.611  23.760  23.258  1.00  0.00    -0.003 C 
ATOM     12  C   UNL A   1      35.766  22.954  23.819  1.00  0.00     0.004 C 
ENDBRANCH  10  11
ENDBRANCH   8  10
ENDBRANCH   7   8
BRANCH   7  13
ATOM     13  N   UNL A   1      31.355  26.606  24.402  1.00  0.00    -0.198 NA
ATOM     14  H   UNL A   1      31.169  25.963  23.632  1.00  0.00     0.142 HD
BRANCH  13  15
ATOM     15  S   UNL A   1      30.920  25.804  25.820  1.00  0.00     0.241 S 
ATOM     16  O   UNL A   1      31.601  26.512  26.877  1.00  0.00    -0.207 OA
ATOM     17  O   UNL A   1      29.477  25.680  25.815  1.00  0.00    -0.207 OA
BRANCH  15  18
ATOM     18  C   UNL A   1      31.621  24.174  25.705  1.00  0.00     0.082 A 
ATOM     19  C   UNL A   1      31.150  23.311  24.717  1.00  0.00     0.022 A 
ATOM     20  C   UNL A   1      32.553  23.717  26.642  1.00  0.00     0.025 A 
ATOM     21  C   UNL A   1      31.689  22.031  24.597  1.00  0.00     0.005 A 
ATOM     22  C   UNL A   1      33.075  22.408  26.553  1.00  0.00    -0.047 A 
ATOM     23  C   UNL A   1      32.665  21.570  25.495  1.00  0.00    -0.048 A 
ATOM     24  C   UNL A   1      34.028  21.952  27.626  1.00  0.00     0.044 C 
ATOM     25  C   UNL A   1      33.208  20.179  25.306  1.00  0.00     0.044 C 
ENDBRANCH  15  18
ENDBRANCH  13  15
ENDBRANCH   7  13
ENDBRANCH   4   7
ENDBRANCH   2   3
ENDBRANCH   1   2
BRANCH   1  26
ATOM     26  C   UNL A   1      31.930  31.430  26.875  1.00  0.00     0.023 C 
BRANCH  26  27
ATOM     27  C   UNL A   1      33.003  32.372  27.405  1.00  0.00     0.116 C 
BRANCH  27  28
ATOM     28  N   UNL A   1      32.537  33.740  27.592  1.00  0.00    -0.352 N 
ATOM     29  C   UNL A   1      33.026  34.701  28.446  1.00  0.00     0.251 C 
ATOM     30  H   UNL A   1      31.773  34.013  27.034  1.00  0.00     0.163 HD
ATOM     31  O   UNL A   1      32.476  35.789  28.558  1.00  0.00    -0.269 OA
BRANCH  29  32
ATOM     32  C   UNL A   1      34.210  34.377  29.266  1.00  0.00     0.039 A 
ATOM     33  C   UNL A   1      34.028  33.770  30.510  1.00  0.00     0.014 A 
ATOM     34  C   UNL A   1      35.490  34.586  28.750  1.00  0.00     0.014 A 
ATOM     35  C   UNL A   1      35.139  33.286  31.204  1.00  0.00     0.010 A 
ATOM     36  C   UNL A   1      36.583  34.033  29.404  1.00  0.00     0.010 A 
ATOM     37  C   UNL A   1      36.418  33.373  30.635  1.00  0.00    -0.014 A 
BRANCH  37  38
ATOM     38  C   UNL A   1      37.616  32.800  31.296  1.00  0.00     0.031 A 
ATOM     39  C   UNL A   1      38.308  31.623  30.669  1.00  0.00     0.074 A 
ATOM     40  C   UNL A   1      38.014  33.256  32.500  1.00  0.00     0.049 A 
ATOM     41  N   UNL A   1      39.245  30.854  31.161  1.00  0.00    -0.248 NA
ATOM     42  C   UNL A   1      37.857  31.238  29.320  1.00  0.00     0.031 C 
ATOM     43  C   UNL A   1      37.416  34.377  33.228  1.00  0.00     0.029 A 
ATOM     44  N   UNL A   1      39.010  32.813  33.334  1.00  0.00    -0.354 N 
ATOM     45  C   UNL A   1      39.465  29.874  30.202  1.00  0.00     0.074 A 
ATOM     46  C   UNL A   1      38.541  30.122  29.118  1.00  0.00     0.031 C 
ATOM     47  C   UNL A   1      38.067  34.541  34.392  1.00  0.00     0.029 A 
ATOM     48  C   UNL A   1      39.091  33.510  34.516  1.00  0.00     0.049 A 
ATOM     49  H   UNL A   1      39.611  32.066  33.107  1.00  0.00     0.167 HD
ATOM     50  C   UNL A   1      40.367  28.865  30.215  1.00  0.00     0.031 A 
ATOM     51  C   UNL A   1      39.889  33.326  35.585  1.00  0.00     0.031 A 
ATOM     52  C   UNL A   1      41.307  28.638  31.277  1.00  0.00     0.049 A 
ATOM     53  C   UNL A   1      40.884  32.197  35.577  1.00  0.00     0.074 A 
ATOM     54  C   UNL A   1      42.297  27.675  31.361  1.00  0.00     0.029 A 
ATOM     55  N   UNL A   1      41.378  29.392  32.438  1.00  0.00    -0.354 N 
ATOM     56  N   UNL A   1      41.107  31.301  34.647  1.00  0.00    -0.248 NA
ATOM     57  C   UNL A   1      41.740  32.058  36.765  1.00  0.00     0.031 C 
ATOM     58  C   UNL A   1      42.945  27.823  32.590  1.00  0.00     0.029 A 
ATOM     59  C   UNL A   1      42.390  28.909  33.249  1.00  0.00     0.049 A 
ATOM     60  H   UNL A   1      40.796  30.156  32.654  1.00  0.00     0.167 HD
ATOM     61  C   UNL A   1      42.152  30.518  35.119  1.00  0.00     0.074 A 
ATOM     62  C   UNL A   1      42.520  31.044  36.417  1.00  0.00     0.031 C 
ATOM     63  C   UNL A   1      42.757  29.461  34.527  1.00  0.00     0.031 A 
BRANCH  50  64
ATOM     64  C   UNL A   1      40.369  27.927  29.042  1.00  0.00    -0.014 A 
ATOM     65  C   UNL A   1      41.101  28.217  27.880  1.00  0.00     0.009 A 
ATOM     66  C   UNL A   1      39.648  26.725  29.110  1.00  0.00     0.009 A 
ATOM     67  C   UNL A   1      41.079  27.341  26.795  1.00  0.00     0.001 A 
ATOM     68  C   UNL A   1      39.652  25.837  28.034  1.00  0.00     0.001 A 
ATOM     69  C   UNL A   1      40.358  26.150  26.873  1.00  0.00     0.000 A 
ENDBRANCH  50  64
BRANCH  51  70
ATOM     70  C   UNL A   1      39.792  34.237  36.754  1.00  0.00    -0.014 A 
ATOM     71  C   UNL A   1      40.518  35.438  36.780  1.00  0.00     0.009 A 
ATOM     72  C   UNL A   1      38.983  33.912  37.855  1.00  0.00     0.009 A 
ATOM     73  C   UNL A   1      40.458  36.280  37.892  1.00  0.00     0.001 A 
ATOM     74  C   UNL A   1      38.903  34.769  38.954  1.00  0.00     0.001 A 
ATOM     75  C   UNL A   1      39.648  35.948  38.976  1.00  0.00     0.000 A 
ENDBRANCH  51  70
BRANCH  63  76
ATOM     76  C   UNL A   1      43.922  28.837  35.237  1.00  0.00    -0.014 A 
ATOM     77  C   UNL A   1      43.743  27.786  36.149  1.00  0.00     0.009 A 
ATOM     78  C   UNL A   1      45.224  29.258  34.925  1.00  0.00     0.009 A 
ATOM     79  C   UNL A   1      44.850  27.180  36.747  1.00  0.00     0.001 A 
ATOM     80  C   UNL A   1      46.328  28.635  35.506  1.00  0.00     0.001 A 
ATOM     81  C   UNL A   1      46.140  27.598  36.420  1.00  0.00     0.000 A 
ENDBRANCH  63  76
ENDBRANCH  37  38
ENDBRANCH  29  32
ENDBRANCH  27  28
ENDBRANCH  26  27
ENDBRANCH   1  26
TORSDOF 17
ENDMDL
MODEL 2
REMARK VINA RESULT:     -10.6      0.988      6.018
REMARK SMILES CCC[C@@H](C)[C@H](NS(=O)(=O)c1ccc(C)c(C)c1)C(=O)NCCCCNC(=O)c1ccc(-c2c3nc(c(-c4ccccc4)c4ccc([nH]4)c(-c4ccccc4)c4nc(c(-c5ccccc5)c5ccc2[nH]5)C=C4)C=C3)cc1
REMARK SMILES IDX 23 1 22 2 21 3 19 4 20 5 6 7 4 8 5 9 3 10 2 11 1 12 7 13
REMARK SMILES IDX 8 15 9 16 10 17 11 18 12 19 18 20 13 21 16 22 14 23 17 24
REMARK SMILES IDX 15 25 24 26 25 27 26 28 27 29 28 31 29 32 30 33 76 34 31 35
REMARK SMILES IDX 75 36 32 37 33 38 34 39 69 40 35 41 74 42 68 43 70 44 36 45
REMARK SMILES IDX 73 46 67 47 66 48 37 50 59 51 44 52 58 53 45 54 48 55 57 56
REMARK SMILES IDX 71 57 46 58 47 59 56 61 72 62 49 63 38 64 39 65 43 66 40 67
REMARK SMILES IDX 42 68 41 69 60 70 61 71 65 72 62 73 64 74 63 75 50 76 51 77
REMARK SMILES IDX 55 78 52 79 54 80 53 81
REMARK H PARENT 21 6 7 14 26 30 70 49 48 60
REMARK Flexibility Score: inf
ROOT
ATOM      1  C   UNL A   1      31.873  30.402  26.765  1.00  0.00     0.023 C 
ENDROOT
BRANCH   1   2
ATOM      2  C   UNL A   1      32.346  29.926  25.400  1.00  0.00     0.116 C 
BRANCH   2   3
ATOM      3  N   UNL A   1      31.286  29.762  24.420  1.00  0.00    -0.355 N 
ATOM      4  C   UNL A   1      30.698  28.617  23.951  1.00  0.00     0.238 C 
ATOM      5  O   UNL A   1      29.607  28.723  23.384  1.00  0.00    -0.273 OA
ATOM      6  H   UNL A   1      30.937  30.600  24.036  1.00  0.00     0.163 HD
BRANCH   4   7
ATOM      7  C   UNL A   1      31.354  27.236  24.136  1.00  0.00     0.161 C 
BRANCH   7   8
ATOM      8  C   UNL A   1      32.197  26.767  22.903  1.00  0.00     0.013 C 
ATOM      9  C   UNL A   1      31.449  25.615  22.210  1.00  0.00     0.010 C 
BRANCH   8  10
ATOM     10  C   UNL A   1      33.646  26.344  23.246  1.00  0.00     0.005 C 
BRANCH  10  11
ATOM     11  C   UNL A   1      34.003  26.095  24.715  1.00  0.00    -0.003 C 
ATOM     12  C   UNL A   1      34.788  24.814  24.927  1.00  0.00     0.004 C 
ENDBRANCH  10  11
ENDBRANCH   8  10
ENDBRANCH   7   8
BRANCH   7  13
ATOM     13  N   UNL A   1      30.346  26.238  24.560  1.00  0.00    -0.198 NA
ATOM     14  H   UNL A   1      30.389  25.472  23.888  1.00  0.00     0.142 HD
BRANCH  13  15
ATOM     15  S   UNL A   1      30.437  25.543  26.094  1.00  0.00     0.241 S 
ATOM     16  O   UNL A   1      31.268  26.437  26.865  1.00  0.00    -0.207 OA
ATOM     17  O   UNL A   1      29.082  25.242  26.508  1.00  0.00    -0.207 OA
BRANCH  15  18
ATOM     18  C   UNL A   1      31.314  24.009  25.894  1.00  0.00     0.082 A 
ATOM     19  C   UNL A   1      32.013  23.490  26.982  1.00  0.00     0.022 A 
ATOM     20  C   UNL A   1      31.393  23.375  24.650  1.00  0.00     0.025 A 
ATOM     21  C   UNL A   1      32.700  22.284  26.857  1.00  0.00     0.005 A 
ATOM     22  C   UNL A   1      32.120  22.174  24.503  1.00  0.00    -0.047 A 
ATOM     23  C   UNL A   1      32.748  21.603  25.630  1.00  0.00    -0.048 A 
ATOM     24  C   UNL A   1      32.221  21.570  23.127  1.00  0.00     0.044 C 
ATOM     25  C   UNL A   1      33.504  20.303  25.565  1.00  0.00     0.044 C 
ENDBRANCH  15  18
ENDBRANCH  13  15
ENDBRANCH   7  13
ENDBRANCH   4   7
ENDBRANCH   2   3
ENDBRANCH   1   2
BRANCH   1  26
ATOM     26  C   UNL A   1      31.606  31.901  26.863  1.00  0.00     0.023 C 
BRANCH  26  27
ATOM     27  C   UNL A   1      32.806  32.752  27.259  1.00  0.00     0.116 C 
BRANCH  27  28
ATOM     28  N   UNL A   1      32.457  34.118  27.625  1.00  0.00    -0.352 N 
ATOM     29  C   UNL A   1      33.032  34.920  28.583  1.00  0.00     0.251 C 
ATOM     30  H   UNL A   1      31.712  34.520  27.122  1.00  0.00     0.163 HD
ATOM     31  O   UNL A   1      32.575  36.026  28.842  1.00  0.00    -0.269 OA
BRANCH  29  32
ATOM     32  C   UNL A   1      34.193  34.401  29.331  1.00  0.00     0.039 A 
ATOM     33  C   UNL A   1      33.976  33.687  30.511  1.00  0.00     0.014 A 
ATOM     34  C   UNL A   1      35.478  34.540  28.803  1.00  0.00     0.014 A 
ATOM     35  C   UNL A   1      35.047  33.030  31.120  1.00  0.00     0.010 A 
ATOM     36  C   UNL A   1      36.524  33.819  29.365  1.00  0.00     0.010 A 
ATOM     37  C   UNL A   1      36.318  33.053  30.526  1.00  0.00    -0.014 A 
BRANCH  37  38
ATOM     38  C   UNL A   1      37.466  32.302  31.090  1.00  0.00     0.031 A 
ATOM     39  C   UNL A   1      38.148  32.823  32.324  1.00  0.00     0.074 A 
ATOM     40  C   UNL A   1      37.964  31.230  30.443  1.00  0.00     0.049 A 
ATOM     41  N   UNL A   1      39.270  32.438  32.874  1.00  0.00    -0.248 NA
ATOM     42  C   UNL A   1      37.495  33.952  33.008  1.00  0.00     0.031 C 
ATOM     43  C   UNL A   1      37.411  30.636  29.225  1.00  0.00     0.029 A 
ATOM     44  N   UNL A   1      39.067  30.459  30.716  1.00  0.00    -0.354 N 
ATOM     45  C   UNL A   1      39.478  33.302  33.941  1.00  0.00     0.074 A 
ATOM     46  C   UNL A   1      38.388  34.253  33.939  1.00  0.00     0.031 C 
ATOM     47  C   UNL A   1      38.169  29.587  28.865  1.00  0.00     0.029 A 
ATOM     48  C   UNL A   1      39.287  29.464  29.794  1.00  0.00     0.049 A 
ATOM     49  H   UNL A   1      39.646  30.606  31.499  1.00  0.00     0.167 HD
ATOM     50  C   UNL A   1      40.479  33.298  34.851  1.00  0.00     0.031 A 
ATOM     51  C   UNL A   1      40.286  28.567  29.699  1.00  0.00     0.031 A 
ATOM     52  C   UNL A   1      41.545  32.335  34.873  1.00  0.00     0.049 A 
ATOM     53  C   UNL A   1      41.389  28.581  30.723  1.00  0.00     0.074 A 
ATOM     54  C   UNL A   1      42.578  32.212  35.785  1.00  0.00     0.029 A 
ATOM     55  N   UNL A   1      41.707  31.322  33.941  1.00  0.00    -0.354 N 
ATOM     56  N   UNL A   1      41.552  29.381  31.749  1.00  0.00    -0.248 NA
ATOM     57  C   UNL A   1      42.443  27.566  30.577  1.00  0.00     0.031 C 
ATOM     58  C   UNL A   1      43.388  31.146  35.385  1.00  0.00     0.029 A 
ATOM     59  C   UNL A   1      42.830  30.575  34.251  1.00  0.00     0.049 A 
ATOM     60  H   UNL A   1      41.113  31.157  33.174  1.00  0.00     0.167 HD
ATOM     61  C   UNL A   1      42.702  28.942  32.392  1.00  0.00     0.074 A 
ATOM     62  C   UNL A   1      43.197  27.806  31.642  1.00  0.00     0.031 C 
ATOM     63  C   UNL A   1      43.293  29.433  33.507  1.00  0.00     0.031 A 
BRANCH  50  64
ATOM     64  C   UNL A   1      40.467  34.377  35.896  1.00  0.00    -0.014 A 
ATOM     65  C   UNL A   1      39.754  34.222  37.094  1.00  0.00     0.009 A 
ATOM     66  C   UNL A   1      41.199  35.557  35.687  1.00  0.00     0.009 A 
ATOM     67  C   UNL A   1      39.742  35.243  38.046  1.00  0.00     0.001 A 
ATOM     68  C   UNL A   1      41.209  36.563  36.653  1.00  0.00     0.001 A 
ATOM     69  C   UNL A   1      40.472  36.410  37.827  1.00  0.00     0.000 A 
ENDBRANCH  50  64
BRANCH  51  70
ATOM     70  C   UNL A   1      40.291  27.568  28.600  1.00  0.00    -0.014 A 
ATOM     71  C   UNL A   1      40.908  27.865  27.375  1.00  0.00     0.009 A 
ATOM     72  C   UNL A   1      39.674  26.317  28.761  1.00  0.00     0.009 A 
ATOM     73  C   UNL A   1      40.885  26.942  26.327  1.00  0.00     0.001 A 
ATOM     74  C   UNL A   1      39.676  25.386  27.721  1.00  0.00     0.001 A 
ATOM     75  C   UNL A   1      40.273  25.703  26.501  1.00  0.00     0.000 A 
ENDBRANCH  51  70
BRANCH  63  76
ATOM     76  C   UNL A   1      44.500  28.713  34.031  1.00  0.00    -0.014 A 
ATOM     77  C   UNL A   1      45.797  29.105  33.669  1.00  0.00     0.009 A 
ATOM     78  C   UNL A   1      44.334  27.677  34.964  1.00  0.00     0.009 A 
ATOM     79  C   UNL A   1      46.906  28.459  34.222  1.00  0.00     0.001 A 
ATOM     80  C   UNL A   1      45.442  27.051  35.532  1.00  0.00     0.001 A 
ATOM     81  C   UNL A   1      46.728  27.440  35.157  1.00  0.00     0.000 A 
ENDBRANCH  63  76
ENDBRANCH  37  38
ENDBRANCH  29  32
ENDBRANCH  27  28
ENDBRANCH  26  27
ENDBRANCH   1  26
TORSDOF 17
ENDMDL
MODEL 3
REMARK VINA RESULT:     -10.4      2.275      6.588
REMARK SMILES CCC[C@@H](C)[C@H](NS(=O)(=O)c1ccc(C)c(C)c1)C(=O)NCCCCNC(=O)c1ccc(-c2c3nc(c(-c4ccccc4)c4ccc([nH]4)c(-c4ccccc4)c4nc(c(-c5ccccc5)c5ccc2[nH]5)C=C4)C=C3)cc1
REMARK SMILES IDX 23 1 22 2 21 3 19 4 20 5 6 7 4 8 5 9 3 10 2 11 1 12 7 13
REMARK SMILES IDX 8 15 9 16 10 17 11 18 12 19 18 20 13 21 16 22 14 23 17 24
REMARK SMILES IDX 15 25 24 26 25 27 26 28 27 29 28 31 29 32 30 33 76 34 31 35
REMARK SMILES IDX 75 36 32 37 33 38 34 39 69 40 35 41 74 42 68 43 70 44 36 45
REMARK SMILES IDX 73 46 67 47 66 48 37 50 59 51 44 52 58 53 45 54 48 55 57 56
REMARK SMILES IDX 71 57 46 58 47 59 56 61 72 62 49 63 38 64 39 65 43 66 40 67
REMARK SMILES IDX 42 68 41 69 60 70 61 71 65 72 62 73 64 74 63 75 50 76 51 77
REMARK SMILES IDX 55 78 52 79 54 80 53 81
REMARK H PARENT 21 6 7 14 26 30 70 49 48 60
REMARK Flexibility Score: inf
ROOT
ATOM      1  C   UNL A   1      31.567  30.424  25.650  1.00  0.00     0.023 C 
ENDROOT
BRANCH   1   2
ATOM      2  C   UNL A   1      32.201  29.053  25.464  1.00  0.00     0.116 C 
BRANCH   2   3
ATOM      3  N   UNL A   1      31.256  27.949  25.477  1.00  0.00    -0.355 N 
ATOM      4  C   UNL A   1      30.869  27.118  24.459  1.00  0.00     0.238 C 
ATOM      5  O   UNL A   1      30.322  26.054  24.763  1.00  0.00    -0.273 OA
ATOM      6  H   UNL A   1      30.832  27.771  26.349  1.00  0.00     0.163 HD
BRANCH   4   7
ATOM      7  C   UNL A   1      31.121  27.475  22.982  1.00  0.00     0.161 C 
BRANCH   7   8
ATOM      8  C   UNL A   1      30.002  28.367  22.348  1.00  0.00     0.013 C 
ATOM      9  C   UNL A   1      30.612  29.734  21.991  1.00  0.00     0.010 C 
BRANCH   8  10
ATOM     10  C   UNL A   1      28.749  28.547  23.239  1.00  0.00     0.005 C 
BRANCH  10  11
ATOM     11  C   UNL A   1      27.638  29.483  22.752  1.00  0.00    -0.003 C 
ATOM     12  C   UNL A   1      27.598  30.800  23.502  1.00  0.00     0.004 C 
ENDBRANCH  10  11
ENDBRANCH   8  10
ENDBRANCH   7   8
BRANCH   7  13
ATOM     13  N   UNL A   1      31.401  26.253  22.195  1.00  0.00    -0.198 NA
ATOM     14  H   UNL A   1      30.933  26.369  21.296  1.00  0.00     0.142 HD
BRANCH  13  15
ATOM     15  S   UNL A   1      32.992  25.807  21.861  1.00  0.00     0.241 S 
ATOM     16  O   UNL A   1      33.025  25.566  20.438  1.00  0.00    -0.207 OA
ATOM     17  O   UNL A   1      33.852  26.802  22.469  1.00  0.00    -0.207 OA
BRANCH  15  18
ATOM     18  C   UNL A   1      33.260  24.257  22.690  1.00  0.00     0.082 A 
ATOM     19  C   UNL A   1      32.153  23.488  23.047  1.00  0.00     0.022 A 
ATOM     20  C   UNL A   1      34.542  23.851  23.074  1.00  0.00     0.025 A 
ATOM     21  C   UNL A   1      32.334  22.263  23.688  1.00  0.00     0.005 A 
ATOM     22  C   UNL A   1      34.732  22.632  23.759  1.00  0.00    -0.047 A 
ATOM     23  C   UNL A   1      33.617  21.812  24.035  1.00  0.00    -0.048 A 
ATOM     24  C   UNL A   1      36.127  22.277  24.200  1.00  0.00     0.044 C 
ATOM     25  C   UNL A   1      33.742  20.478  24.722  1.00  0.00     0.044 C 
ENDBRANCH  15  18
ENDBRANCH  13  15
ENDBRANCH   7  13
ENDBRANCH   4   7
ENDBRANCH   2   3
ENDBRANCH   1   2
BRANCH   1  26
ATOM     26  C   UNL A   1      31.848  31.082  26.998  1.00  0.00     0.023 C 
BRANCH  26  27
ATOM     27  C   UNL A   1      32.972  32.109  26.999  1.00  0.00     0.116 C 
BRANCH  27  28
ATOM     28  N   UNL A   1      32.557  33.428  27.457  1.00  0.00    -0.352 N 
ATOM     29  C   UNL A   1      33.171  34.247  28.377  1.00  0.00     0.251 C 
ATOM     30  H   UNL A   1      31.728  33.780  27.058  1.00  0.00     0.163 HD
ATOM     31  O   UNL A   1      32.657  35.301  28.730  1.00  0.00    -0.269 OA
BRANCH  29  32
ATOM     32  C   UNL A   1      34.449  33.807  28.968  1.00  0.00     0.039 A 
ATOM     33  C   UNL A   1      34.435  33.139  30.194  1.00  0.00     0.014 A 
ATOM     34  C   UNL A   1      35.638  33.970  28.253  1.00  0.00     0.014 A 
ATOM     35  C   UNL A   1      35.610  32.551  30.666  1.00  0.00     0.010 A 
ATOM     36  C   UNL A   1      36.784  33.316  28.686  1.00  0.00     0.010 A 
ATOM     37  C   UNL A   1      36.780  32.596  29.893  1.00  0.00    -0.014 A 
BRANCH  37  38
ATOM     38  C   UNL A   1      38.030  31.916  30.314  1.00  0.00     0.031 A 
ATOM     39  C   UNL A   1      38.972  32.623  31.247  1.00  0.00     0.074 A 
ATOM     40  C   UNL A   1      38.372  30.727  29.780  1.00  0.00     0.049 A 
ATOM     41  N   UNL A   1      40.191  32.302  31.593  1.00  0.00    -0.248 NA
ATOM     42  C   UNL A   1      38.487  33.881  31.842  1.00  0.00     0.031 C 
ATOM     43  C   UNL A   1      37.560  29.946  28.846  1.00  0.00     0.029 A 
ATOM     44  N   UNL A   1      39.512  29.977  29.935  1.00  0.00    -0.354 N 
ATOM     45  C   UNL A   1      40.632  33.334  32.410  1.00  0.00     0.074 A 
ATOM     46  C   UNL A   1      39.566  34.309  32.479  1.00  0.00     0.031 C 
ATOM     47  C   UNL A   1      38.221  28.821  28.523  1.00  0.00     0.029 A 
ATOM     48  C   UNL A   1      39.521  28.825  29.185  1.00  0.00     0.049 A 
ATOM     49  H   UNL A   1      40.253  30.240  30.528  1.00  0.00     0.167 HD
ATOM     50  C   UNL A   1      41.813  33.456  33.059  1.00  0.00     0.031 A 
ATOM     51  C   UNL A   1      40.477  27.889  29.035  1.00  0.00     0.031 A 
ATOM     52  C   UNL A   1      42.860  32.472  33.017  1.00  0.00     0.049 A 
ATOM     53  C   UNL A   1      41.783  28.045  29.766  1.00  0.00     0.074 A 
ATOM     54  C   UNL A   1      44.074  32.477  33.681  1.00  0.00     0.029 A 
ATOM     55  N   UNL A   1      42.811  31.303  32.274  1.00  0.00    -0.354 N 
ATOM     56  N   UNL A   1      42.171  29.009  30.565  1.00  0.00    -0.248 NA
ATOM     57  C   UNL A   1      42.780  26.981  29.576  1.00  0.00     0.031 C 
ATOM     58  C   UNL A   1      44.776  31.326  33.313  1.00  0.00     0.029 A 
ATOM     59  C   UNL A   1      43.978  30.582  32.456  1.00  0.00     0.049 A 
ATOM     60  H   UNL A   1      42.059  31.027  31.702  1.00  0.00     0.167 HD
ATOM     61  C   UNL A   1      43.439  28.649  31.003  1.00  0.00     0.074 A 
ATOM     62  C   UNL A   1      43.755  27.379  30.383  1.00  0.00     0.031 C 
ATOM     63  C   UNL A   1      44.265  29.309  31.850  1.00  0.00     0.031 A 
BRANCH  50  64
ATOM     64  C   UNL A   1      42.034  34.704  33.863  1.00  0.00    -0.014 A 
ATOM     65  C   UNL A   1      42.627  35.842  33.294  1.00  0.00     0.009 A 
ATOM     66  C   UNL A   1      41.621  34.752  35.204  1.00  0.00     0.009 A 
ATOM     67  C   UNL A   1      42.838  36.988  34.062  1.00  0.00     0.001 A 
ATOM     68  C   UNL A   1      41.807  35.909  35.961  1.00  0.00     0.001 A 
ATOM     69  C   UNL A   1      42.424  37.022  35.392  1.00  0.00     0.000 A 
ENDBRANCH  50  64
BRANCH  51  70
ATOM     70  C   UNL A   1      40.236  26.710  28.164  1.00  0.00    -0.014 A 
ATOM     71  C   UNL A   1      40.749  26.677  26.858  1.00  0.00     0.009 A 
ATOM     72  C   UNL A   1      39.488  25.615  28.626  1.00  0.00     0.009 A 
ATOM     73  C   UNL A   1      40.496  25.585  26.024  1.00  0.00     0.001 A 
ATOM     74  C   UNL A   1      39.259  24.514  27.799  1.00  0.00     0.001 A 
ATOM     75  C   UNL A   1      39.755  24.504  26.495  1.00  0.00     0.000 A 
ENDBRANCH  51  70
BRANCH  63  76
ATOM     76  C   UNL A   1      45.562  28.650  32.212  1.00  0.00    -0.014 A 
ATOM     77  C   UNL A   1      46.738  28.907  31.491  1.00  0.00     0.009 A 
ATOM     78  C   UNL A   1      45.621  27.821  33.344  1.00  0.00     0.009 A 
ATOM     79  C   UNL A   1      47.946  28.330  31.890  1.00  0.00     0.001 A 
ATOM     80  C   UNL A   1      46.833  27.267  33.753  1.00  0.00     0.001 A 
ATOM     81  C   UNL A   1      47.994  27.519  33.024  1.00  0.00     0.000 A 
ENDBRANCH  63  76
ENDBRANCH  37  38
ENDBRANCH  29  32
ENDBRANCH  27  28
ENDBRANCH  26  27
ENDBRANCH   1  26
TORSDOF 17
ENDMDL
