MODEL 1
REMARK VINA RESULT:     -10.7      0.000      0.000
REMARK SMILES CCC[C@@]1(C(=O)NCCCCNC(=O)c2ccc(-c3c4nc(c(-c5ccccc5)c5ccc([nH]5)c(-c5ccccc5)c5nc(c(-c6ccccc6)c6ccc3[nH]6)C=C5)C=C4)cc2)CCCN(C(=O)CCn2cncn2)C1
REMARK SMILES IDX 8 1 7 2 5 3 6 4 4 6 63 7 76 8 64 9 66 10 65 11 3 12 2 13
REMARK SMILES IDX 1 14 67 15 68 16 69 17 70 18 71 19 72 20 75 21 73 22 74 23
REMARK SMILES IDX 9 24 10 25 11 26 12 27 13 28 14 30 15 31 16 32 62 33 17 34
REMARK SMILES IDX 61 35 18 36 19 37 20 38 55 39 21 40 60 41 54 42 56 43 22 44
REMARK SMILES IDX 59 45 53 46 52 47 23 49 45 50 30 51 44 52 31 53 34 54 43 55
REMARK SMILES IDX 57 56 32 57 33 58 42 60 58 61 35 62 24 63 25 64 29 65 26 66
REMARK SMILES IDX 28 67 27 68 46 69 47 70 51 71 48 72 50 73 49 74 36 75 37 76
REMARK SMILES IDX 41 77 38 78 40 79 39 80
REMARK H PARENT 7 5 12 29 56 48 34 59
REMARK Flexibility Score: inf
ROOT
ATOM      1  C   UNL A   1      34.237  28.766  26.616  1.00  0.00     0.116 C 
ENDROOT
BRANCH   1   2
ATOM      2  N   UNL A   1      34.280  28.998  25.195  1.00  0.00    -0.356 N 
ATOM      3  C   UNL A   1      33.858  28.273  24.128  1.00  0.00     0.228 C 
ATOM      4  O   UNL A   1      34.053  28.835  23.045  1.00  0.00    -0.274 OA
ATOM      5  H   UNL A   1      34.700  29.854  24.949  1.00  0.00     0.163 HD
BRANCH   3   6
ATOM      6  C   UNL A   1      33.233  26.849  24.217  1.00  0.00     0.067 C 
ATOM      7  C   UNL A   1      33.506  26.005  22.920  1.00  0.00     0.020 C 
ATOM      8  C   UNL A   1      31.732  26.994  24.587  1.00  0.00     0.136 C 
ATOM      9  C   UNL A   1      32.319  25.487  22.104  1.00  0.00     0.023 C 
ATOM     10  N   UNL A   1      30.761  26.666  23.530  1.00  0.00    -0.342 N 
ATOM     11  C   UNL A   1      31.015  25.400  22.868  1.00  0.00     0.119 C 
BRANCH   6  12
ATOM     12  C   UNL A   1      34.004  26.031  25.344  1.00  0.00     0.018 C 
BRANCH  12  13
ATOM     13  C   UNL A   1      34.183  24.504  25.340  1.00  0.00    -0.002 C 
ATOM     14  C   UNL A   1      33.013  23.675  25.821  1.00  0.00     0.004 C 
ENDBRANCH  12  13
ENDBRANCH   6  12
BRANCH  10  15
ATOM     15  C   UNL A   1      29.624  27.448  23.385  1.00  0.00     0.224 C 
ATOM     16  O   UNL A   1      28.495  26.989  23.579  1.00  0.00    -0.275 OA
BRANCH  15  17
ATOM     17  C   UNL A   1      29.732  28.907  22.974  1.00  0.00     0.124 C 
BRANCH  17  18
ATOM     18  C   UNL A   1      28.418  29.509  22.485  1.00  0.00     0.156 C 
BRANCH  18  19
ATOM     19  N   UNL A   1      28.424  30.953  22.430  1.00  0.00    -0.252 N 
ATOM     20  C   UNL A   1      28.062  31.771  21.409  1.00  0.00     0.219 A 
ATOM     21  N   UNL A   1      28.841  31.669  23.490  1.00  0.00    -0.160 NA
ATOM     22  N   UNL A   1      28.205  33.024  21.773  1.00  0.00    -0.224 NA
ATOM     23  C   UNL A   1      28.718  32.917  23.032  1.00  0.00     0.246 A 
ENDBRANCH  18  19
ENDBRANCH  17  18
ENDBRANCH  15  17
ENDBRANCH  10  15
ENDBRANCH   3   6
ENDBRANCH   1   2
BRANCH   1  24
ATOM     24  C   UNL A   1      32.914  29.204  27.230  1.00  0.00     0.023 C 
BRANCH  24  25
ATOM     25  C   UNL A   1      32.486  30.643  26.968  1.00  0.00     0.023 C 
BRANCH  25  26
ATOM     26  C   UNL A   1      33.423  31.726  27.488  1.00  0.00     0.116 C 
BRANCH  26  27
ATOM     27  N   UNL A   1      32.789  33.003  27.788  1.00  0.00    -0.352 N 
ATOM     28  C   UNL A   1      33.288  34.081  28.488  1.00  0.00     0.251 C 
ATOM     29  H   UNL A   1      31.875  33.111  27.441  1.00  0.00     0.163 HD
ATOM     30  O   UNL A   1      32.608  35.096  28.615  1.00  0.00    -0.269 OA
BRANCH  28  31
ATOM     31  C   UNL A   1      34.575  33.942  29.198  1.00  0.00     0.039 A 
ATOM     32  C   UNL A   1      34.583  33.236  30.404  1.00  0.00     0.014 A 
ATOM     33  C   UNL A   1      35.772  34.319  28.593  1.00  0.00     0.014 A 
ATOM     34  C   UNL A   1      35.792  32.762  30.912  1.00  0.00     0.010 A 
ATOM     35  C   UNL A   1      36.958  33.747  29.032  1.00  0.00     0.010 A 
ATOM     36  C   UNL A   1      36.975  32.935  30.178  1.00  0.00    -0.014 A 
BRANCH  36  37
ATOM     37  C   UNL A   1      38.229  32.237  30.556  1.00  0.00     0.031 A 
ATOM     38  C   UNL A   1      39.170  32.866  31.544  1.00  0.00     0.074 A 
ATOM     39  C   UNL A   1      38.572  31.092  29.931  1.00  0.00     0.049 A 
ATOM     40  N   UNL A   1      40.362  32.473  31.915  1.00  0.00    -0.248 NA
ATOM     41  C   UNL A   1      38.737  34.132  32.158  1.00  0.00     0.031 C 
ATOM     42  C   UNL A   1      37.787  30.418  28.891  1.00  0.00     0.029 A 
ATOM     43  N   UNL A   1      39.677  30.290  30.076  1.00  0.00    -0.354 N 
ATOM     44  C   UNL A   1      40.834  33.463  32.765  1.00  0.00     0.074 A 
ATOM     45  C   UNL A   1      39.826  34.498  32.815  1.00  0.00     0.031 C 
ATOM     46  C   UNL A   1      38.410  29.284  28.531  1.00  0.00     0.029 A 
ATOM     47  C   UNL A   1      39.654  29.169  29.281  1.00  0.00     0.049 A 
ATOM     48  H   UNL A   1      40.415  30.499  30.692  1.00  0.00     0.167 HD
ATOM     49  C   UNL A   1      41.992  33.499  33.464  1.00  0.00     0.031 A 
ATOM     50  C   UNL A   1      40.535  28.157  29.175  1.00  0.00     0.031 A 
ATOM     51  C   UNL A   1      42.968  32.444  33.458  1.00  0.00     0.049 A 
ATOM     52  C   UNL A   1      41.776  28.179  30.022  1.00  0.00     0.074 A 
ATOM     53  C   UNL A   1      44.137  32.345  34.191  1.00  0.00     0.029 A 
ATOM     54  N   UNL A   1      42.874  31.295  32.690  1.00  0.00    -0.354 N 
ATOM     55  N   UNL A   1      42.178  29.093  30.872  1.00  0.00    -0.248 NA
ATOM     56  C   UNL A   1      42.677  27.024  29.906  1.00  0.00     0.031 C 
ATOM     57  C   UNL A   1      44.762  31.141  33.851  1.00  0.00     0.029 A 
ATOM     58  C   UNL A   1      43.965  30.479  32.931  1.00  0.00     0.049 A 
ATOM     59  H   UNL A   1      42.142  31.091  32.066  1.00  0.00     0.167 HD
ATOM     60  C   UNL A   1      43.364  28.614  31.408  1.00  0.00     0.074 A 
ATOM     61  C   UNL A   1      43.610  27.323  30.799  1.00  0.00     0.031 C 
ATOM     62  C   UNL A   1      44.181  29.193  32.320  1.00  0.00     0.031 A 
BRANCH  49  63
ATOM     63  C   UNL A   1      42.248  34.722  34.298  1.00  0.00    -0.014 A 
ATOM     64  C   UNL A   1      42.899  35.844  33.760  1.00  0.00     0.009 A 
ATOM     65  C   UNL A   1      41.841  34.749  35.641  1.00  0.00     0.009 A 
ATOM     66  C   UNL A   1      43.182  36.950  34.563  1.00  0.00     0.001 A 
ATOM     67  C   UNL A   1      42.100  35.869  36.433  1.00  0.00     0.001 A 
ATOM     68  C   UNL A   1      42.780  36.963  35.899  1.00  0.00     0.000 A 
ENDBRANCH  49  63
BRANCH  50  69
ATOM     69  C   UNL A   1      40.257  27.014  28.269  1.00  0.00    -0.014 A 
ATOM     70  C   UNL A   1      40.731  27.029  26.947  1.00  0.00     0.009 A 
ATOM     71  C   UNL A   1      39.517  25.907  28.711  1.00  0.00     0.009 A 
ATOM     72  C   UNL A   1      40.451  25.971  26.080  1.00  0.00     0.001 A 
ATOM     73  C   UNL A   1      39.257  24.839  27.847  1.00  0.00     0.001 A 
ATOM     74  C   UNL A   1      39.716  24.876  26.531  1.00  0.00     0.000 A 
ENDBRANCH  50  69
BRANCH  62  75
ATOM     75  C   UNL A   1      45.395  28.418  32.738  1.00  0.00    -0.014 A 
ATOM     76  C   UNL A   1      45.354  27.547  33.837  1.00  0.00     0.009 A 
ATOM     77  C   UNL A   1      46.578  28.530  31.994  1.00  0.00     0.009 A 
ATOM     78  C   UNL A   1      46.489  26.820  34.198  1.00  0.00     0.001 A 
ATOM     79  C   UNL A   1      47.705  27.785  32.345  1.00  0.00     0.001 A 
ATOM     80  C   UNL A   1      47.661  26.936  33.451  1.00  0.00     0.000 A 
ENDBRANCH  62  75
ENDBRANCH  36  37
ENDBRANCH  28  31
ENDBRANCH  26  27
ENDBRANCH  25  26
ENDBRANCH  24  25
ENDBRANCH   1  24
TORSDOF 17
ENDMDL
MODEL 2
REMARK VINA RESULT:     -10.5      3.638      8.866
REMARK SMILES CCC[C@@]1(C(=O)NCCCCNC(=O)c2ccc(-c3c4nc(c(-c5ccccc5)c5ccc([nH]5)c(-c5ccccc5)c5nc(c(-c6ccccc6)c6ccc3[nH]6)C=C5)C=C4)cc2)CCCN(C(=O)CCn2cncn2)C1
REMARK SMILES IDX 8 1 7 2 5 3 6 4 4 6 63 7 76 8 64 9 66 10 65 11 3 12 2 13
REMARK SMILES IDX 1 14 67 15 68 16 69 17 70 18 71 19 72 20 75 21 73 22 74 23
REMARK SMILES IDX 9 24 10 25 11 26 12 27 13 28 14 30 15 31 16 32 62 33 17 34
REMARK SMILES IDX 61 35 18 36 19 37 20 38 55 39 21 40 60 41 54 42 56 43 22 44
REMARK SMILES IDX 59 45 53 46 52 47 23 49 45 50 30 51 44 52 31 53 34 54 43 55
REMARK SMILES IDX 57 56 32 57 33 58 42 60 58 61 35 62 24 63 25 64 29 65 26 66
REMARK SMILES IDX 28 67 27 68 46 69 47 70 51 71 48 72 50 73 49 74 36 75 37 76
REMARK SMILES IDX 41 77 38 78 40 79 39 80
REMARK H PARENT 7 5 12 29 56 48 34 59
REMARK Flexibility Score: inf
ROOT
ATOM      1  C   UNL A   1      35.095  23.645  24.837  1.00  0.00     0.116 C 
ENDROOT
BRANCH   1   2
ATOM      2  N   UNL A   1      34.642  23.803  23.478  1.00  0.00    -0.356 N 
ATOM      3  C   UNL A   1      33.739  24.633  22.897  1.00  0.00     0.228 C 
ATOM      4  O   UNL A   1      33.647  24.479  21.675  1.00  0.00    -0.274 OA
ATOM      5  H   UNL A   1      35.074  23.186  22.845  1.00  0.00     0.163 HD
BRANCH   3   6
ATOM      6  C   UNL A   1      32.850  25.653  23.669  1.00  0.00     0.067 C 
ATOM      7  C   UNL A   1      33.703  26.602  24.586  1.00  0.00     0.020 C 
ATOM      8  C   UNL A   1      31.737  24.868  24.415  1.00  0.00     0.136 C 
ATOM      9  C   UNL A   1      33.444  26.613  26.094  1.00  0.00     0.023 C 
ATOM     10  N   UNL A   1      31.845  24.810  25.882  1.00  0.00    -0.342 N 
ATOM     11  C   UNL A   1      32.081  26.099  26.506  1.00  0.00     0.119 C 
BRANCH   6  12
ATOM     12  C   UNL A   1      32.206  26.658  22.616  1.00  0.00     0.018 C 
BRANCH  12  13
ATOM     13  C   UNL A   1      32.302  28.190  22.706  1.00  0.00    -0.002 C 
ATOM     14  C   UNL A   1      31.012  28.967  22.574  1.00  0.00     0.004 C 
ENDBRANCH  12  13
ENDBRANCH   6  12
BRANCH  10  15
ATOM     15  C   UNL A   1      31.533  23.630  26.541  1.00  0.00     0.224 C 
ATOM     16  O   UNL A   1      30.568  23.554  27.308  1.00  0.00    -0.275 OA
BRANCH  15  17
ATOM     17  C   UNL A   1      32.377  22.382  26.344  1.00  0.00     0.124 C 
BRANCH  17  18
ATOM     18  C   UNL A   1      31.837  21.435  25.277  1.00  0.00     0.156 C 
BRANCH  18  19
ATOM     19  N   UNL A   1      32.663  20.268  25.065  1.00  0.00    -0.252 N 
ATOM     20  C   UNL A   1      33.973  20.200  24.715  1.00  0.00     0.219 A 
ATOM     21  N   UNL A   1      32.141  19.036  25.203  1.00  0.00    -0.160 NA
ATOM     22  N   UNL A   1      34.346  18.943  24.638  1.00  0.00    -0.224 NA
ATOM     23  C   UNL A   1      33.192  18.267  24.904  1.00  0.00     0.246 A 
ENDBRANCH  18  19
ENDBRANCH  17  18
ENDBRANCH  15  17
ENDBRANCH  10  15
ENDBRANCH   3   6
ENDBRANCH   1   2
BRANCH   1  24
ATOM     24  C   UNL A   1      36.613  23.567  24.930  1.00  0.00     0.023 C 
BRANCH  24  25
ATOM     25  C   UNL A   1      37.232  22.180  24.809  1.00  0.00     0.023 C 
BRANCH  25  26
ATOM     26  C   UNL A   1      38.309  21.835  25.832  1.00  0.00     0.116 C 
BRANCH  26  27
ATOM     27  N   UNL A   1      39.020  20.588  25.587  1.00  0.00    -0.352 N 
ATOM     28  C   UNL A   1      40.292  20.220  25.969  1.00  0.00     0.251 C 
ATOM     29  H   UNL A   1      38.521  19.912  25.075  1.00  0.00     0.163 HD
ATOM     30  O   UNL A   1      40.716  19.101  25.692  1.00  0.00    -0.269 OA
BRANCH  28  31
ATOM     31  C   UNL A   1      41.179  21.232  26.579  1.00  0.00     0.039 A 
ATOM     32  C   UNL A   1      41.822  22.135  25.729  1.00  0.00     0.014 A 
ATOM     33  C   UNL A   1      41.214  21.414  27.960  1.00  0.00     0.014 A 
ATOM     34  C   UNL A   1      42.354  23.311  26.255  1.00  0.00     0.010 A 
ATOM     35  C   UNL A   1      41.636  22.636  28.467  1.00  0.00     0.010 A 
ATOM     36  C   UNL A   1      42.180  23.611  27.615  1.00  0.00    -0.014 A 
BRANCH  36  37
ATOM     37  C   UNL A   1      42.508  24.952  28.161  1.00  0.00     0.031 A 
ATOM     38  C   UNL A   1      43.915  25.267  28.582  1.00  0.00     0.074 A 
ATOM     39  C   UNL A   1      41.521  25.846  28.376  1.00  0.00     0.049 A 
ATOM     40  N   UNL A   1      44.378  26.333  29.183  1.00  0.00    -0.248 NA
ATOM     41  C   UNL A   1      44.928  24.225  28.342  1.00  0.00     0.031 C 
ATOM     42  C   UNL A   1      40.099  25.635  28.088  1.00  0.00     0.029 A 
ATOM     43  N   UNL A   1      41.564  27.117  28.893  1.00  0.00    -0.354 N 
ATOM     44  C   UNL A   1      45.717  26.069  29.433  1.00  0.00     0.074 A 
ATOM     45  C   UNL A   1      45.981  24.727  28.966  1.00  0.00     0.031 C 
ATOM     46  C   UNL A   1      39.416  26.752  28.387  1.00  0.00     0.029 A 
ATOM     47  C   UNL A   1      40.341  27.744  28.922  1.00  0.00     0.049 A 
ATOM     48  H   UNL A   1      42.393  27.539  29.213  1.00  0.00     0.167 HD
ATOM     49  C   UNL A   1      46.653  26.880  29.979  1.00  0.00     0.031 A 
ATOM     50  C   UNL A   1      40.004  28.982  29.327  1.00  0.00     0.031 A 
ATOM     51  C   UNL A   1      46.404  28.234  30.391  1.00  0.00     0.049 A 
ATOM     52  C   UNL A   1      41.077  29.893  29.855  1.00  0.00     0.074 A 
ATOM     53  C   UNL A   1      47.300  29.166  30.881  1.00  0.00     0.029 A 
ATOM     54  N   UNL A   1      45.164  28.852  30.340  1.00  0.00    -0.354 N 
ATOM     55  N   UNL A   1      42.354  29.651  30.023  1.00  0.00    -0.248 NA
ATOM     56  C   UNL A   1      40.663  31.251  30.233  1.00  0.00     0.031 C 
ATOM     57  C   UNL A   1      46.597  30.346  31.147  1.00  0.00     0.029 A 
ATOM     58  C   UNL A   1      45.271  30.155  30.790  1.00  0.00     0.049 A 
ATOM     59  H   UNL A   1      44.333  28.426  30.031  1.00  0.00     0.167 HD
ATOM     60  C   UNL A   1      42.901  30.831  30.506  1.00  0.00     0.074 A 
ATOM     61  C   UNL A   1      41.820  31.793  30.588  1.00  0.00     0.031 C 
ATOM     62  C   UNL A   1      44.183  31.095  30.854  1.00  0.00     0.031 A 
BRANCH  49  63
ATOM     63  C   UNL A   1      48.034  26.312  30.145  1.00  0.00    -0.014 A 
ATOM     64  C   UNL A   1      48.428  25.701  31.347  1.00  0.00     0.009 A 
ATOM     65  C   UNL A   1      48.956  26.397  29.091  1.00  0.00     0.009 A 
ATOM     66  C   UNL A   1      49.732  25.231  31.508  1.00  0.00     0.001 A 
ATOM     67  C   UNL A   1      50.251  25.898  29.245  1.00  0.00     0.001 A 
ATOM     68  C   UNL A   1      50.642  25.328  30.456  1.00  0.00     0.000 A 
ENDBRANCH  49  63
BRANCH  50  69
ATOM     69  C   UNL A   1      38.601  29.453  29.208  1.00  0.00    -0.014 A 
ATOM     70  C   UNL A   1      37.721  29.332  30.296  1.00  0.00     0.009 A 
ATOM     71  C   UNL A   1      38.130  30.020  28.014  1.00  0.00     0.009 A 
ATOM     72  C   UNL A   1      36.392  29.748  30.183  1.00  0.00     0.001 A 
ATOM     73  C   UNL A   1      36.806  30.456  27.912  1.00  0.00     0.001 A 
ATOM     74  C   UNL A   1      35.937  30.312  28.993  1.00  0.00     0.000 A 
ENDBRANCH  50  69
BRANCH  62  75
ATOM     75  C   UNL A   1      44.490  32.487  31.320  1.00  0.00    -0.014 A 
ATOM     76  C   UNL A   1      44.849  33.493  30.411  1.00  0.00     0.009 A 
ATOM     77  C   UNL A   1      44.374  32.803  32.682  1.00  0.00     0.009 A 
ATOM     78  C   UNL A   1      45.112  34.787  30.862  1.00  0.00     0.001 A 
ATOM     79  C   UNL A   1      44.617  34.103  33.127  1.00  0.00     0.001 A 
ATOM     80  C   UNL A   1      44.992  35.091  32.218  1.00  0.00     0.000 A 
ENDBRANCH  62  75
ENDBRANCH  36  37
ENDBRANCH  28  31
ENDBRANCH  26  27
ENDBRANCH  25  26
ENDBRANCH  24  25
ENDBRANCH   1  24
TORSDOF 17
ENDMDL
MODEL 3
REMARK VINA RESULT:     -10.5      4.546      9.499
REMARK SMILES CCC[C@@]1(C(=O)NCCCCNC(=O)c2ccc(-c3c4nc(c(-c5ccccc5)c5ccc([nH]5)c(-c5ccccc5)c5nc(c(-c6ccccc6)c6ccc3[nH]6)C=C5)C=C4)cc2)CCCN(C(=O)CCn2cncn2)C1
REMARK SMILES IDX 8 1 7 2 5 3 6 4 4 6 63 7 76 8 64 9 66 10 65 11 3 12 2 13
REMARK SMILES IDX 1 14 67 15 68 16 69 17 70 18 71 19 72 20 75 21 73 22 74 23
REMARK SMILES IDX 9 24 10 25 11 26 12 27 13 28 14 30 15 31 16 32 62 33 17 34
REMARK SMILES IDX 61 35 18 36 19 37 20 38 55 39 21 40 60 41 54 42 56 43 22 44
REMARK SMILES IDX 59 45 53 46 52 47 23 49 45 50 30 51 44 52 31 53 34 54 43 55
REMARK SMILES IDX 57 56 32 57 33 58 42 60 58 61 35 62 24 63 25 64 29 65 26 66
REMARK SMILES IDX 28 67 27 68 46 69 47 70 51 71 48 72 50 73 49 74 36 75 37 76
REMARK SMILES IDX 41 77 38 78 40 79 39 80
REMARK H PARENT 7 5 12 29 56 48 34 59
REMARK Flexibility Score: inf
ROOT
ATOM      1  C   UNL A   1      36.525  21.766  25.093  1.00  0.00     0.116 C 
ENDROOT
BRANCH   1   2
ATOM      2  N   UNL A   1      35.780  21.897  26.320  1.00  0.00    -0.356 N 
ATOM      3  C   UNL A   1      34.645  22.567  26.644  1.00  0.00     0.228 C 
ATOM      4  O   UNL A   1      34.300  22.407  27.819  1.00  0.00    -0.274 OA
ATOM      5  H   UNL A   1      36.173  21.401  27.074  1.00  0.00     0.163 HD
BRANCH   3   6
ATOM      6  C   UNL A   1      33.859  23.497  25.672  1.00  0.00     0.067 C 
ATOM      7  C   UNL A   1      32.512  24.004  26.304  1.00  0.00     0.020 C 
ATOM      8  C   UNL A   1      33.696  22.762  24.314  1.00  0.00     0.136 C 
ATOM      9  C   UNL A   1      31.191  23.672  25.609  1.00  0.00     0.023 C 
ATOM     10  N   UNL A   1      32.338  22.309  23.972  1.00  0.00    -0.342 N 
ATOM     11  C   UNL A   1      31.317  23.327  24.140  1.00  0.00     0.119 C 
BRANCH   6  12
ATOM     12  C   UNL A   1      34.691  24.840  25.478  1.00  0.00     0.018 C 
BRANCH  12  13
ATOM     13  C   UNL A   1      34.066  26.213  25.180  1.00  0.00    -0.002 C 
ATOM     14  C   UNL A   1      33.612  26.467  23.760  1.00  0.00     0.004 C 
ENDBRANCH  12  13
ENDBRANCH   6  12
BRANCH  10  15
ATOM     15  C   UNL A   1      32.166  21.075  23.360  1.00  0.00     0.224 C 
ATOM     16  O   UNL A   1      31.899  20.982  22.159  1.00  0.00    -0.275 OA
BRANCH  15  17
ATOM     17  C   UNL A   1      32.298  19.787  24.156  1.00  0.00     0.124 C 
BRANCH  17  18
ATOM     18  C   UNL A   1      32.653  18.571  23.306  1.00  0.00     0.156 C 
BRANCH  18  19
ATOM     19  N   UNL A   1      32.872  17.368  24.076  1.00  0.00    -0.252 N 
ATOM     20  C   UNL A   1      33.675  16.309  23.797  1.00  0.00     0.219 A 
ATOM     21  N   UNL A   1      32.225  17.183  25.240  1.00  0.00    -0.160 NA
ATOM     22  N   UNL A   1      33.596  15.427  24.766  1.00  0.00    -0.224 NA
ATOM     23  C   UNL A   1      32.674  15.979  25.605  1.00  0.00     0.246 A 
ENDBRANCH  18  19
ENDBRANCH  17  18
ENDBRANCH  15  17
ENDBRANCH  10  15
ENDBRANCH   3   6
ENDBRANCH   1   2
BRANCH   1  24
ATOM     24  C   UNL A   1      37.988  21.426  25.344  1.00  0.00     0.023 C 
BRANCH  24  25
ATOM     25  C   UNL A   1      38.452  20.045  24.899  1.00  0.00     0.023 C 
BRANCH  25  26
ATOM     26  C   UNL A   1      39.135  19.192  25.963  1.00  0.00     0.116 C 
BRANCH  26  27
ATOM     27  N   UNL A   1      40.540  18.901  25.716  1.00  0.00    -0.352 N 
ATOM     28  C   UNL A   1      41.655  19.641  26.045  1.00  0.00     0.251 C 
ATOM     29  H   UNL A   1      40.719  18.054  25.247  1.00  0.00     0.163 HD
ATOM     30  O   UNL A   1      42.775  19.214  25.778  1.00  0.00    -0.269 OA
BRANCH  28  31
ATOM     31  C   UNL A   1      41.478  21.005  26.585  1.00  0.00     0.039 A 
ATOM     32  C   UNL A   1      41.490  21.165  27.973  1.00  0.00     0.014 A 
ATOM     33  C   UNL A   1      41.507  22.117  25.745  1.00  0.00     0.014 A 
ATOM     34  C   UNL A   1      41.701  22.432  28.515  1.00  0.00     0.010 A 
ATOM     35  C   UNL A   1      41.836  23.355  26.280  1.00  0.00     0.010 A 
ATOM     36  C   UNL A   1      41.969  23.519  27.668  1.00  0.00    -0.014 A 
BRANCH  36  37
ATOM     37  C   UNL A   1      42.441  24.820  28.205  1.00  0.00     0.031 A 
ATOM     38  C   UNL A   1      41.456  25.917  28.488  1.00  0.00     0.074 A 
ATOM     39  C   UNL A   1      43.764  25.048  28.335  1.00  0.00     0.049 A 
ATOM     40  N   UNL A   1      41.679  27.155  28.848  1.00  0.00    -0.248 NA
ATOM     41  C   UNL A   1      40.032  25.596  28.290  1.00  0.00     0.031 C 
ATOM     42  C   UNL A   1      44.833  24.095  28.016  1.00  0.00     0.029 A 
ATOM     43  N   UNL A   1      44.440  26.162  28.769  1.00  0.00    -0.354 N 
ATOM     44  C   UNL A   1      40.434  27.767  28.874  1.00  0.00     0.074 A 
ATOM     45  C   UNL A   1      39.467  26.783  28.444  1.00  0.00     0.031 C 
ATOM     46  C   UNL A   1      46.021  24.647  28.311  1.00  0.00     0.029 A 
ATOM     47  C   UNL A   1      45.805  26.002  28.802  1.00  0.00     0.049 A 
ATOM     48  H   UNL A   1      43.989  26.996  29.032  1.00  0.00     0.167 HD
ATOM     49  C   UNL A   1      40.118  29.029  29.246  1.00  0.00     0.031 A 
ATOM     50  C   UNL A   1      46.774  26.852  29.190  1.00  0.00     0.031 A 
ATOM     51  C   UNL A   1      41.072  29.989  29.727  1.00  0.00     0.049 A 
ATOM     52  C   UNL A   1      46.391  28.221  29.677  1.00  0.00     0.074 A 
ATOM     53  C   UNL A   1      40.846  31.267  30.206  1.00  0.00     0.029 A 
ATOM     54  N   UNL A   1      42.437  29.764  29.808  1.00  0.00    -0.354 N 
ATOM     55  N   UNL A   1      45.200  28.763  29.758  1.00  0.00    -0.248 NA
ATOM     56  C   UNL A   1      47.483  29.087  30.140  1.00  0.00     0.031 C 
ATOM     57  C   UNL A   1      42.080  31.824  30.558  1.00  0.00     0.029 A 
ATOM     58  C   UNL A   1      43.067  30.880  30.328  1.00  0.00     0.049 A 
ATOM     59  H   UNL A   1      42.890  28.934  29.534  1.00  0.00     0.167 HD
ATOM     60  C   UNL A   1      45.397  30.025  30.300  1.00  0.00     0.074 A 
ATOM     61  C   UNL A   1      46.818  30.161  30.544  1.00  0.00     0.031 C 
ATOM     62  C   UNL A   1      44.482  30.987  30.570  1.00  0.00     0.031 A 
BRANCH  49  63
ATOM     63  C   UNL A   1      38.672  29.426  29.153  1.00  0.00    -0.014 A 
ATOM     64  C   UNL A   1      37.809  29.287  30.253  1.00  0.00     0.009 A 
ATOM     65  C   UNL A   1      38.163  29.936  27.949  1.00  0.00     0.009 A 
ATOM     66  C   UNL A   1      36.455  29.604  30.133  1.00  0.00     0.001 A 
ATOM     67  C   UNL A   1      36.815  30.280  27.842  1.00  0.00     0.001 A 
ATOM     68  C   UNL A   1      35.959  30.103  28.929  1.00  0.00     0.000 A 
ENDBRANCH  49  63
BRANCH  50  69
ATOM     69  C   UNL A   1      48.195  26.420  29.183  1.00  0.00    -0.014 A 
ATOM     70  C   UNL A   1      48.740  25.769  30.301  1.00  0.00     0.009 A 
ATOM     71  C   UNL A   1      49.015  26.657  28.069  1.00  0.00     0.009 A 
ATOM     72  C   UNL A   1      50.083  25.385  30.314  1.00  0.00     0.001 A 
ATOM     73  C   UNL A   1      50.352  26.250  28.076  1.00  0.00     0.001 A 
ATOM     74  C   UNL A   1      50.887  25.623  29.201  1.00  0.00     0.000 A 
ENDBRANCH  50  69
BRANCH  62  75
ATOM     75  C   UNL A   1      44.989  32.255  31.190  1.00  0.00    -0.014 A 
ATOM     76  C   UNL A   1      45.378  33.344  30.396  1.00  0.00     0.009 A 
ATOM     77  C   UNL A   1      45.035  32.373  32.587  1.00  0.00     0.009 A 
ATOM     78  C   UNL A   1      45.829  34.522  30.993  1.00  0.00     0.001 A 
ATOM     79  C   UNL A   1      45.466  33.560  33.180  1.00  0.00     0.001 A 
ATOM     80  C   UNL A   1      45.869  34.630  32.383  1.00  0.00     0.000 A 
ENDBRANCH  62  75
ENDBRANCH  36  37
ENDBRANCH  28  31
ENDBRANCH  26  27
ENDBRANCH  25  26
ENDBRANCH  24  25
ENDBRANCH   1  24
TORSDOF 17
ENDMDL
