MODEL 1
REMARK VINA RESULT:      -8.7      0.000      0.000
REMARK SMILES O=C(NCCCCNC(=O)c1ccc(-c2c3nc(c(-c4ccccc4)c4ccc([nH]4)c(-c4ccccc4)c4nc(c(-c5ccccc5)c5ccc2[nH]5)C=C4)C=C3)cc1)c1ccc(-c2ccc(S(=O)(=O)[O-])cc2)cc1
REMARK SMILES IDX 5 1 4 2 3 3 1 4 2 5 59 7 60 8 74 9 61 10 73 11 62 12 63 13
REMARK SMILES IDX 64 14 72 15 65 16 71 17 66 18 67 19 68 20 69 21 70 22 6 23
REMARK SMILES IDX 7 24 8 25 9 26 10 28 11 29 12 30 58 31 13 32 57 33 14 34
REMARK SMILES IDX 15 35 16 36 51 37 17 38 56 39 50 40 52 41 18 42 55 43 49 44
REMARK SMILES IDX 48 45 19 47 41 48 26 49 40 50 27 51 30 52 39 53 53 54 28 55
REMARK SMILES IDX 29 56 38 58 54 59 31 60 20 61 21 62 25 63 22 64 24 65 23 66
REMARK SMILES IDX 42 67 43 68 47 69 44 70 46 71 45 72 32 73 33 74 37 75 34 76
REMARK SMILES IDX 36 77 35 78
REMARK H PARENT 3 6 8 27 52 46 30 57
REMARK Flexibility Score: inf
ROOT
ATOM      1  C   UNL A   1      42.785  23.047  27.376  1.00  0.00     0.023 C 
ENDROOT
BRANCH   1   2
ATOM      2  C   UNL A   1      44.310  23.025  27.329  1.00  0.00     0.116 C 
BRANCH   2   3
ATOM      3  N   UNL A   1      44.819  22.826  25.982  1.00  0.00    -0.352 N 
ATOM      4  O   UNL A   1      45.379  23.409  23.876  1.00  0.00    -0.269 OA
ATOM      5  C   UNL A   1      45.127  23.760  25.024  1.00  0.00     0.251 C 
ATOM      6  H   UNL A   1      44.961  21.888  25.718  1.00  0.00     0.163 HD
BRANCH   5   7
ATOM      7  C   UNL A   1      45.134  25.193  25.374  1.00  0.00     0.039 A 
ATOM      8  C   UNL A   1      46.291  25.806  25.861  1.00  0.00     0.014 A 
ATOM      9  C   UNL A   1      43.969  25.937  25.187  1.00  0.00     0.014 A 
ATOM     10  C   UNL A   1      46.257  27.149  26.237  1.00  0.00     0.009 A 
ATOM     11  C   UNL A   1      43.944  27.285  25.555  1.00  0.00     0.009 A 
ATOM     12  C   UNL A   1      45.081  27.909  26.101  1.00  0.00    -0.018 A 
BRANCH  12  13
ATOM     13  C   UNL A   1      45.042  29.320  26.514  1.00  0.00    -0.018 A 
ATOM     14  C   UNL A   1      46.225  30.075  26.611  1.00  0.00     0.010 A 
ATOM     15  C   UNL A   1      43.823  29.951  26.822  1.00  0.00     0.010 A 
ATOM     16  C   UNL A   1      46.191  31.419  26.991  1.00  0.00     0.020 A 
ATOM     17  C   UNL A   1      43.778  31.294  27.204  1.00  0.00     0.020 A 
ATOM     18  C   UNL A   1      44.966  32.020  27.281  1.00  0.00     0.054 A 
BRANCH  18  19
ATOM     19  S   UNL A   1      44.954  33.730  27.732  1.00  0.00     0.124 S 
ATOM     20  O   UNL A   1      43.586  34.101  28.021  1.00  0.00    -0.237 OA
ATOM     21  O   UNL A   1      46.017  33.943  28.688  1.00  0.00    -0.237 OA
ATOM     22  O   UNL A   1      45.388  34.543  26.407  1.00  0.00    -0.744 OA
ENDBRANCH  18  19
ENDBRANCH  12  13
ENDBRANCH   5   7
ENDBRANCH   2   3
ENDBRANCH   1   2
BRANCH   1  23
ATOM     23  C   UNL A   1      42.089  21.926  26.601  1.00  0.00     0.023 C 
BRANCH  23  24
ATOM     24  C   UNL A   1      40.792  21.407  27.213  1.00  0.00     0.116 C 
BRANCH  24  25
ATOM     25  N   UNL A   1      39.636  21.599  26.355  1.00  0.00    -0.352 N 
ATOM     26  C   UNL A   1      38.895  22.733  26.127  1.00  0.00     0.251 C 
ATOM     27  H   UNL A   1      39.338  20.798  25.865  1.00  0.00     0.163 HD
ATOM     28  O   UNL A   1      37.879  22.666  25.441  1.00  0.00    -0.269 OA
BRANCH  26  29
ATOM     29  C   UNL A   1      39.292  24.027  26.725  1.00  0.00     0.039 A 
ATOM     30  C   UNL A   1      38.918  24.295  28.046  1.00  0.00     0.014 A 
ATOM     31  C   UNL A   1      40.000  24.987  25.994  1.00  0.00     0.014 A 
ATOM     32  C   UNL A   1      39.294  25.499  28.647  1.00  0.00     0.010 A 
ATOM     33  C   UNL A   1      40.434  26.156  26.616  1.00  0.00     0.010 A 
ATOM     34  C   UNL A   1      40.074  26.431  27.944  1.00  0.00    -0.014 A 
BRANCH  34  35
ATOM     35  C   UNL A   1      40.484  27.713  28.570  1.00  0.00     0.031 A 
ATOM     36  C   UNL A   1      41.894  27.892  29.065  1.00  0.00     0.074 A 
ATOM     37  C   UNL A   1      39.587  28.706  28.726  1.00  0.00     0.049 A 
ATOM     38  N   UNL A   1      42.433  28.918  29.676  1.00  0.00    -0.248 NA
ATOM     39  C   UNL A   1      42.815  26.761  28.869  1.00  0.00     0.031 C 
ATOM     40  C   UNL A   1      38.179  28.651  28.328  1.00  0.00     0.029 A 
ATOM     41  N   UNL A   1      39.730  29.958  29.271  1.00  0.00    -0.354 N 
ATOM     42  C   UNL A   1      43.746  28.551  29.945  1.00  0.00     0.074 A 
ATOM     43  C   UNL A   1      43.909  27.191  29.481  1.00  0.00     0.031 C 
ATOM     44  C   UNL A   1      37.594  29.825  28.621  1.00  0.00     0.029 A 
ATOM     45  C   UNL A   1      38.574  30.702  29.252  1.00  0.00     0.049 A 
ATOM     46  H   UNL A   1      40.579  30.292  29.641  1.00  0.00     0.167 HD
ATOM     47  C   UNL A   1      44.737  29.285  30.504  1.00  0.00     0.031 A 
ATOM     48  C   UNL A   1      38.334  31.953  29.691  1.00  0.00     0.031 A 
ATOM     49  C   UNL A   1      44.588  30.642  30.956  1.00  0.00     0.049 A 
ATOM     50  C   UNL A   1      39.457  32.752  30.291  1.00  0.00     0.074 A 
ATOM     51  C   UNL A   1      45.538  31.474  31.524  1.00  0.00     0.029 A 
ATOM     52  N   UNL A   1      43.413  31.371  30.878  1.00  0.00    -0.354 N 
ATOM     53  N   UNL A   1      40.703  32.401  30.501  1.00  0.00    -0.248 NA
ATOM     54  C   UNL A   1      39.144  34.131  30.691  1.00  0.00     0.031 C 
ATOM     55  C   UNL A   1      44.930  32.700  31.811  1.00  0.00     0.029 A 
ATOM     56  C   UNL A   1      43.615  32.645  31.381  1.00  0.00     0.049 A 
ATOM     57  H   UNL A   1      42.560  31.033  30.520  1.00  0.00     0.167 HD
ATOM     58  C   UNL A   1      41.329  33.526  31.023  1.00  0.00     0.074 A 
ATOM     59  C   UNL A   1      40.330  34.573  31.084  1.00  0.00     0.031 C 
ATOM     60  C   UNL A   1      42.616  33.679  31.419  1.00  0.00     0.031 A 
BRANCH  47  61
ATOM     61  C   UNL A   1      46.082  28.629  30.642  1.00  0.00    -0.014 A 
ATOM     62  C   UNL A   1      47.035  28.719  29.615  1.00  0.00     0.009 A 
ATOM     63  C   UNL A   1      46.413  27.940  31.819  1.00  0.00     0.009 A 
ATOM     64  C   UNL A   1      48.281  28.102  29.748  1.00  0.00     0.001 A 
ATOM     65  C   UNL A   1      47.670  27.348  31.961  1.00  0.00     0.001 A 
ATOM     66  C   UNL A   1      48.598  27.421  30.923  1.00  0.00     0.000 A 
ENDBRANCH  47  61
BRANCH  48  67
ATOM     67  C   UNL A   1      36.978  32.546  29.557  1.00  0.00    -0.014 A 
ATOM     68  C   UNL A   1      36.050  32.447  30.605  1.00  0.00     0.009 A 
ATOM     69  C   UNL A   1      36.595  33.184  28.368  1.00  0.00     0.009 A 
ATOM     70  C   UNL A   1      34.753  32.939  30.450  1.00  0.00     0.001 A 
ATOM     71  C   UNL A   1      35.305  33.702  28.226  1.00  0.00     0.001 A 
ATOM     72  C   UNL A   1      34.382  33.567  29.262  1.00  0.00     0.000 A 
ENDBRANCH  48  67
BRANCH  60  73
ATOM     73  C   UNL A   1      43.028  35.043  31.894  1.00  0.00    -0.014 A 
ATOM     74  C   UNL A   1      43.625  35.971  31.027  1.00  0.00     0.009 A 
ATOM     75  C   UNL A   1      42.798  35.406  33.230  1.00  0.00     0.009 A 
ATOM     76  C   UNL A   1      44.022  37.223  31.502  1.00  0.00     0.001 A 
ATOM     77  C   UNL A   1      43.170  36.669  33.694  1.00  0.00     0.001 A 
ATOM     78  C   UNL A   1      43.792  37.571  32.833  1.00  0.00     0.000 A 
ENDBRANCH  60  73
ENDBRANCH  34  35
ENDBRANCH  26  29
ENDBRANCH  24  25
ENDBRANCH  23  24
ENDBRANCH   1  23
TORSDOF 13
ENDMDL
MODEL 2
REMARK VINA RESULT:      -8.7      5.136     10.266
REMARK SMILES O=C(NCCCCNC(=O)c1ccc(-c2c3nc(c(-c4ccccc4)c4ccc([nH]4)c(-c4ccccc4)c4nc(c(-c5ccccc5)c5ccc2[nH]5)C=C4)C=C3)cc1)c1ccc(-c2ccc(S(=O)(=O)[O-])cc2)cc1
REMARK SMILES IDX 5 1 4 2 3 3 1 4 2 5 59 7 60 8 74 9 61 10 73 11 62 12 63 13
REMARK SMILES IDX 64 14 72 15 65 16 71 17 66 18 67 19 68 20 69 21 70 22 6 23
REMARK SMILES IDX 7 24 8 25 9 26 10 28 11 29 12 30 58 31 13 32 57 33 14 34
REMARK SMILES IDX 15 35 16 36 51 37 17 38 56 39 50 40 52 41 18 42 55 43 49 44
REMARK SMILES IDX 48 45 19 47 41 48 26 49 40 50 27 51 30 52 39 53 53 54 28 55
REMARK SMILES IDX 29 56 38 58 54 59 31 60 20 61 21 62 25 63 22 64 24 65 23 66
REMARK SMILES IDX 42 67 43 68 47 69 44 70 46 71 45 72 32 73 33 74 37 75 34 76
REMARK SMILES IDX 36 77 35 78
REMARK H PARENT 3 6 8 27 52 46 30 57
REMARK Flexibility Score: inf
ROOT
ATOM      1  C   UNL A   1      36.285  20.850  24.591  1.00  0.00     0.023 C 
ENDROOT
BRANCH   1   2
ATOM      2  C   UNL A   1      35.113  20.832  25.569  1.00  0.00     0.116 C 
BRANCH   2   3
ATOM      3  N   UNL A   1      34.166  19.769  25.277  1.00  0.00    -0.352 N 
ATOM      4  O   UNL A   1      32.146  18.857  24.857  1.00  0.00    -0.269 OA
ATOM      5  C   UNL A   1      32.852  19.859  24.892  1.00  0.00     0.251 C 
ATOM      6  H   UNL A   1      34.517  18.854  25.370  1.00  0.00     0.163 HD
BRANCH   5   7
ATOM      7  C   UNL A   1      32.281  21.174  24.538  1.00  0.00     0.039 A 
ATOM      8  C   UNL A   1      32.321  21.641  23.222  1.00  0.00     0.014 A 
ATOM      9  C   UNL A   1      31.677  21.935  25.538  1.00  0.00     0.014 A 
ATOM     10  C   UNL A   1      31.823  22.910  22.923  1.00  0.00     0.009 A 
ATOM     11  C   UNL A   1      31.171  23.201  25.230  1.00  0.00     0.009 A 
ATOM     12  C   UNL A   1      31.250  23.717  23.923  1.00  0.00    -0.018 A 
BRANCH  12  13
ATOM     13  C   UNL A   1      30.744  25.061  23.609  1.00  0.00    -0.018 A 
ATOM     14  C   UNL A   1      29.516  25.509  24.129  1.00  0.00     0.010 A 
ATOM     15  C   UNL A   1      31.474  25.934  22.782  1.00  0.00     0.010 A 
ATOM     16  C   UNL A   1      29.037  26.789  23.844  1.00  0.00     0.020 A 
ATOM     17  C   UNL A   1      31.003  27.218  22.489  1.00  0.00     0.020 A 
ATOM     18  C   UNL A   1      29.787  27.637  23.028  1.00  0.00     0.054 A 
BRANCH  18  19
ATOM     19  S   UNL A   1      29.168  29.262  22.708  1.00  0.00     0.124 S 
ATOM     20  O   UNL A   1      27.752  29.149  22.436  1.00  0.00    -0.237 OA
ATOM     21  O   UNL A   1      29.677  30.140  23.737  1.00  0.00    -0.237 OA
ATOM     22  O   UNL A   1      29.870  29.743  21.337  1.00  0.00    -0.744 OA
ENDBRANCH  18  19
ENDBRANCH  12  13
ENDBRANCH   5   7
ENDBRANCH   2   3
ENDBRANCH   1   2
BRANCH   1  23
ATOM     23  C   UNL A   1      37.397  19.841  24.882  1.00  0.00     0.023 C 
BRANCH  23  24
ATOM     24  C   UNL A   1      38.565  20.366  25.710  1.00  0.00     0.116 C 
BRANCH  24  25
ATOM     25  N   UNL A   1      39.706  19.467  25.728  1.00  0.00    -0.352 N 
ATOM     26  C   UNL A   1      41.012  19.719  26.068  1.00  0.00     0.251 C 
ATOM     27  H   UNL A   1      39.515  18.540  25.455  1.00  0.00     0.163 HD
ATOM     28  O   UNL A   1      41.859  18.843  25.915  1.00  0.00    -0.269 OA
BRANCH  26  29
ATOM     29  C   UNL A   1      41.415  21.045  26.589  1.00  0.00     0.039 A 
ATOM     30  C   UNL A   1      41.328  21.276  27.965  1.00  0.00     0.014 A 
ATOM     31  C   UNL A   1      41.846  22.067  25.737  1.00  0.00     0.014 A 
ATOM     32  C   UNL A   1      41.718  22.510  28.491  1.00  0.00     0.010 A 
ATOM     33  C   UNL A   1      42.301  23.272  26.270  1.00  0.00     0.010 A 
ATOM     34  C   UNL A   1      42.229  23.512  27.650  1.00  0.00    -0.014 A 
BRANCH  34  35
ATOM     35  C   UNL A   1      42.651  24.827  28.195  1.00  0.00     0.031 A 
ATOM     36  C   UNL A   1      41.634  25.916  28.406  1.00  0.00     0.074 A 
ATOM     37  C   UNL A   1      43.950  25.059  28.470  1.00  0.00     0.049 A 
ATOM     38  N   UNL A   1      41.811  27.143  28.830  1.00  0.00    -0.248 NA
ATOM     39  C   UNL A   1      40.237  25.593  28.073  1.00  0.00     0.031 C 
ATOM     40  C   UNL A   1      45.044  24.106  28.276  1.00  0.00     0.029 A 
ATOM     41  N   UNL A   1      44.568  26.178  28.969  1.00  0.00    -0.354 N 
ATOM     42  C   UNL A   1      40.555  27.736  28.805  1.00  0.00     0.074 A 
ATOM     43  C   UNL A   1      39.634  26.756  28.273  1.00  0.00     0.031 C 
ATOM     44  C   UNL A   1      46.196  24.673  28.673  1.00  0.00     0.029 A 
ATOM     45  C   UNL A   1      45.926  26.035  29.121  1.00  0.00     0.049 A 
ATOM     46  H   UNL A   1      44.085  27.006  29.196  1.00  0.00     0.167 HD
ATOM     47  C   UNL A   1      40.191  28.976  29.211  1.00  0.00     0.031 A 
ATOM     48  C   UNL A   1      46.850  26.904  29.574  1.00  0.00     0.031 A 
ATOM     49  C   UNL A   1      41.096  29.952  29.753  1.00  0.00     0.049 A 
ATOM     50  C   UNL A   1      46.417  28.268  30.035  1.00  0.00     0.074 A 
ATOM     51  C   UNL A   1      40.820  31.232  30.205  1.00  0.00     0.029 A 
ATOM     52  N   UNL A   1      42.455  29.750  29.929  1.00  0.00    -0.354 N 
ATOM     53  N   UNL A   1      45.217  28.797  30.040  1.00  0.00    -0.248 NA
ATOM     54  C   UNL A   1      47.465  29.145  30.577  1.00  0.00     0.031 C 
ATOM     55  C   UNL A   1      42.018  31.812  30.634  1.00  0.00     0.029 A 
ATOM     56  C   UNL A   1      43.030  30.878  30.489  1.00  0.00     0.049 A 
ATOM     57  H   UNL A   1      42.941  28.927  29.691  1.00  0.00     0.167 HD
ATOM     58  C   UNL A   1      45.361  30.053  30.618  1.00  0.00     0.074 A 
ATOM     59  C   UNL A   1      46.760  30.198  30.963  1.00  0.00     0.031 C 
ATOM     60  C   UNL A   1      44.420  31.001  30.842  1.00  0.00     0.031 A 
BRANCH  47  61
ATOM     61  C   UNL A   1      38.736  29.337  29.094  1.00  0.00    -0.014 A 
ATOM     62  C   UNL A   1      38.211  29.825  27.887  1.00  0.00     0.009 A 
ATOM     63  C   UNL A   1      37.877  29.163  30.190  1.00  0.00     0.009 A 
ATOM     64  C   UNL A   1      36.860  30.163  27.788  1.00  0.00     0.001 A 
ATOM     65  C   UNL A   1      36.520  29.476  30.080  1.00  0.00     0.001 A 
ATOM     66  C   UNL A   1      36.015  29.985  28.883  1.00  0.00     0.000 A 
ENDBRANCH  47  61
BRANCH  48  67
ATOM     67  C   UNL A   1      48.281  26.509  29.643  1.00  0.00    -0.014 A 
ATOM     68  C   UNL A   1      49.148  26.776  28.572  1.00  0.00     0.009 A 
ATOM     69  C   UNL A   1      48.778  25.830  30.766  1.00  0.00     0.009 A 
ATOM     70  C   UNL A   1      50.473  26.338  28.608  1.00  0.00     0.001 A 
ATOM     71  C   UNL A   1      50.112  25.418  30.811  1.00  0.00     0.001 A 
ATOM     72  C   UNL A   1      50.954  25.661  29.727  1.00  0.00     0.000 A 
ENDBRANCH  48  67
BRANCH  60  73
ATOM     73  C   UNL A   1      44.862  32.252  31.545  1.00  0.00    -0.014 A 
ATOM     74  C   UNL A   1      45.318  33.371  30.832  1.00  0.00     0.009 A 
ATOM     75  C   UNL A   1      44.803  32.313  32.947  1.00  0.00     0.009 A 
ATOM     76  C   UNL A   1      45.747  34.512  31.513  1.00  0.00     0.001 A 
ATOM     77  C   UNL A   1      45.206  33.466  33.622  1.00  0.00     0.001 A 
ATOM     78  C   UNL A   1      45.688  34.560  32.906  1.00  0.00     0.000 A 
ENDBRANCH  60  73
ENDBRANCH  34  35
ENDBRANCH  26  29
ENDBRANCH  24  25
ENDBRANCH  23  24
ENDBRANCH   1  23
TORSDOF 13
ENDMDL
MODEL 3
REMARK VINA RESULT:      -8.6      3.907      9.609
REMARK SMILES O=C(NCCCCNC(=O)c1ccc(-c2c3nc(c(-c4ccccc4)c4ccc([nH]4)c(-c4ccccc4)c4nc(c(-c5ccccc5)c5ccc2[nH]5)C=C4)C=C3)cc1)c1ccc(-c2ccc(S(=O)(=O)[O-])cc2)cc1
REMARK SMILES IDX 5 1 4 2 3 3 1 4 2 5 59 7 60 8 74 9 61 10 73 11 62 12 63 13
REMARK SMILES IDX 64 14 72 15 65 16 71 17 66 18 67 19 68 20 69 21 70 22 6 23
REMARK SMILES IDX 7 24 8 25 9 26 10 28 11 29 12 30 58 31 13 32 57 33 14 34
REMARK SMILES IDX 15 35 16 36 51 37 17 38 56 39 50 40 52 41 18 42 55 43 49 44
REMARK SMILES IDX 48 45 19 47 41 48 26 49 40 50 27 51 30 52 39 53 53 54 28 55
REMARK SMILES IDX 29 56 38 58 54 59 31 60 20 61 21 62 25 63 22 64 24 65 23 66
REMARK SMILES IDX 42 67 43 68 47 69 44 70 46 71 45 72 32 73 33 74 37 75 34 76
REMARK SMILES IDX 36 77 35 78
REMARK H PARENT 3 6 8 27 52 46 30 57
REMARK Flexibility Score: inf
ROOT
ATOM      1  C   UNL A   1      36.622  33.197  30.089  1.00  0.00     0.023 C 
ENDROOT
BRANCH   1   2
ATOM      2  C   UNL A   1      37.029  34.088  31.258  1.00  0.00     0.116 C 
BRANCH   2   3
ATOM      3  N   UNL A   1      36.085  34.019  32.361  1.00  0.00    -0.352 N 
ATOM      4  O   UNL A   1      35.086  33.122  34.173  1.00  0.00    -0.269 OA
ATOM      5  C   UNL A   1      36.057  33.152  33.425  1.00  0.00     0.251 C 
ATOM      6  H   UNL A   1      35.363  34.687  32.341  1.00  0.00     0.163 HD
BRANCH   5   7
ATOM      7  C   UNL A   1      37.192  32.239  33.656  1.00  0.00     0.039 A 
ATOM      8  C   UNL A   1      37.142  30.911  33.225  1.00  0.00     0.014 A 
ATOM      9  C   UNL A   1      38.332  32.730  34.293  1.00  0.00     0.014 A 
ATOM     10  C   UNL A   1      38.207  30.052  33.503  1.00  0.00     0.009 A 
ATOM     11  C   UNL A   1      39.399  31.867  34.560  1.00  0.00     0.009 A 
ATOM     12  C   UNL A   1      39.348  30.512  34.185  1.00  0.00    -0.018 A 
BRANCH  12  13
ATOM     13  C   UNL A   1      40.461  29.601  34.493  1.00  0.00    -0.018 A 
ATOM     14  C   UNL A   1      40.764  28.521  33.644  1.00  0.00     0.010 A 
ATOM     15  C   UNL A   1      41.250  29.786  35.643  1.00  0.00     0.010 A 
ATOM     16  C   UNL A   1      41.828  27.661  33.927  1.00  0.00     0.020 A 
ATOM     17  C   UNL A   1      42.315  28.930  35.936  1.00  0.00     0.020 A 
ATOM     18  C   UNL A   1      42.599  27.875  35.070  1.00  0.00     0.054 A 
BRANCH  18  19
ATOM     19  S   UNL A   1      43.956  26.785  35.385  1.00  0.00     0.124 S 
ATOM     20  O   UNL A   1      44.089  25.905  34.245  1.00  0.00    -0.237 OA
ATOM     21  O   UNL A   1      45.062  27.583  35.863  1.00  0.00    -0.237 OA
ATOM     22  O   UNL A   1      43.508  25.867  36.634  1.00  0.00    -0.744 OA
ENDBRANCH  18  19
ENDBRANCH  12  13
ENDBRANCH   5   7
ENDBRANCH   2   3
ENDBRANCH   1   2
BRANCH   1  23
ATOM     23  C   UNL A   1      35.177  33.356  29.614  1.00  0.00     0.023 C 
BRANCH  23  24
ATOM     24  C   UNL A   1      34.945  33.154  28.120  1.00  0.00     0.116 C 
BRANCH  24  25
ATOM     25  N   UNL A   1      34.064  32.039  27.822  1.00  0.00    -0.352 N 
ATOM     26  C   UNL A   1      34.336  30.693  27.791  1.00  0.00     0.251 C 
ATOM     27  H   UNL A   1      33.134  32.283  27.610  1.00  0.00     0.163 HD
ATOM     28  O   UNL A   1      33.473  29.907  27.409  1.00  0.00    -0.269 OA
BRANCH  26  29
ATOM     29  C   UNL A   1      35.669  30.183  28.184  1.00  0.00     0.039 A 
ATOM     30  C   UNL A   1      36.701  30.215  27.240  1.00  0.00     0.014 A 
ATOM     31  C   UNL A   1      35.906  29.650  29.455  1.00  0.00     0.014 A 
ATOM     32  C   UNL A   1      37.976  29.760  27.584  1.00  0.00     0.010 A 
ATOM     33  C   UNL A   1      37.194  29.262  29.819  1.00  0.00     0.010 A 
ATOM     34  C   UNL A   1      38.239  29.300  28.884  1.00  0.00    -0.014 A 
BRANCH  34  35
ATOM     35  C   UNL A   1      39.590  28.816  29.266  1.00  0.00     0.031 A 
ATOM     36  C   UNL A   1      40.492  29.685  30.100  1.00  0.00     0.074 A 
ATOM     37  C   UNL A   1      40.023  27.614  28.839  1.00  0.00     0.049 A 
ATOM     38  N   UNL A   1      41.720  29.460  30.501  1.00  0.00    -0.248 NA
ATOM     39  C   UNL A   1      39.955  30.989  30.521  1.00  0.00     0.031 C 
ATOM     40  C   UNL A   1      39.266  26.688  27.994  1.00  0.00     0.029 A 
ATOM     41  N   UNL A   1      41.214  26.967  29.058  1.00  0.00    -0.354 N 
ATOM     42  C   UNL A   1      42.101  30.594  31.207  1.00  0.00     0.074 A 
ATOM     43  C   UNL A   1      40.998  31.528  31.135  1.00  0.00     0.031 C 
ATOM     44  C   UNL A   1      40.002  25.584  27.784  1.00  0.00     0.029 A 
ATOM     45  C   UNL A   1      41.290  25.735  28.454  1.00  0.00     0.049 A 
ATOM     46  H   UNL A   1      41.945  27.350  29.595  1.00  0.00     0.167 HD
ATOM     47  C   UNL A   1      43.253  30.832  31.878  1.00  0.00     0.031 A 
ATOM     48  C   UNL A   1      42.285  24.827  28.445  1.00  0.00     0.031 A 
ATOM     49  C   UNL A   1      44.348  29.905  31.966  1.00  0.00     0.049 A 
ATOM     50  C   UNL A   1      43.547  25.109  29.213  1.00  0.00     0.074 A 
ATOM     51  C   UNL A   1      45.553  30.050  32.633  1.00  0.00     0.029 A 
ATOM     52  N   UNL A   1      44.366  28.652  31.375  1.00  0.00    -0.354 N 
ATOM     53  N   UNL A   1      43.873  26.171  29.908  1.00  0.00    -0.248 NA
ATOM     54  C   UNL A   1      44.567  24.051  29.215  1.00  0.00     0.031 C 
ATOM     55  C   UNL A   1      46.309  28.891  32.428  1.00  0.00     0.029 A 
ATOM     56  C   UNL A   1      45.556  28.010  31.669  1.00  0.00     0.049 A 
ATOM     57  H   UNL A   1      43.640  28.274  30.827  1.00  0.00     0.167 HD
ATOM     58  C   UNL A   1      45.119  25.895  30.458  1.00  0.00     0.074 A 
ATOM     59  C   UNL A   1      45.481  24.560  30.027  1.00  0.00     0.031 C 
ATOM     60  C   UNL A   1      45.894  26.676  31.248  1.00  0.00     0.031 A 
BRANCH  47  61
ATOM     61  C   UNL A   1      43.375  32.152  32.586  1.00  0.00    -0.014 A 
ATOM     62  C   UNL A   1      43.869  33.283  31.917  1.00  0.00     0.009 A 
ATOM     63  C   UNL A   1      42.968  32.275  33.923  1.00  0.00     0.009 A 
ATOM     64  C   UNL A   1      43.985  34.505  32.583  1.00  0.00     0.001 A 
ATOM     65  C   UNL A   1      43.059  33.505  34.579  1.00  0.00     0.001 A 
ATOM     66  C   UNL A   1      43.576  34.615  33.912  1.00  0.00     0.000 A 
ENDBRANCH  47  61
BRANCH  48  67
ATOM     67  C   UNL A   1      42.126  23.548  27.706  1.00  0.00    -0.014 A 
ATOM     68  C   UNL A   1      41.548  22.431  28.328  1.00  0.00     0.009 A 
ATOM     69  C   UNL A   1      42.584  23.428  26.385  1.00  0.00     0.009 A 
ATOM     70  C   UNL A   1      41.467  21.210  27.657  1.00  0.00     0.001 A 
ATOM     71  C   UNL A   1      42.476  22.213  25.705  1.00  0.00     0.001 A 
ATOM     72  C   UNL A   1      41.929  21.102  26.346  1.00  0.00     0.000 A 
ENDBRANCH  48  67
BRANCH  60  73
ATOM     73  C   UNL A   1      47.181  26.083  31.745  1.00  0.00    -0.014 A 
ATOM     74  C   UNL A   1      47.267  25.470  33.004  1.00  0.00     0.009 A 
ATOM     75  C   UNL A   1      48.322  26.127  30.928  1.00  0.00     0.009 A 
ATOM     76  C   UNL A   1      48.483  24.948  33.452  1.00  0.00     0.001 A 
ATOM     77  C   UNL A   1      49.528  25.580  31.368  1.00  0.00     0.001 A 
ATOM     78  C   UNL A   1      49.611  25.002  32.633  1.00  0.00     0.000 A 
ENDBRANCH  60  73
ENDBRANCH  34  35
ENDBRANCH  26  29
ENDBRANCH  24  25
ENDBRANCH  23  24
ENDBRANCH   1  23
TORSDOF 13
ENDMDL
