MODEL 1
REMARK VINA RESULT:      -8.9      0.000      0.000
REMARK SMILES COc1cc(/C=C2/SC(=S)N(C3CCCCC3)C2=O)ccc1O[C@@H](C)C(=O)NCCCCNC(=O)c1ccc(-c2c3nc(c(-c4ccccc4)c4ccc([nH]4)c(-c4ccccc4)c4nc(c(-c5ccccc5)c5ccc2[nH]5)C=C4)C=C3)cc1
REMARK SMILES IDX 29 1 28 2 26 3 27 4 24 6 25 7 23 8 22 9 3 10 4 11 5 12 21 13
REMARK SMILES IDX 20 14 2 15 1 16 6 17 7 18 8 19 18 20 9 21 11 22 19 23 10 24
REMARK SMILES IDX 12 25 13 26 17 27 14 28 16 29 15 30 30 31 31 32 32 33 33 34
REMARK SMILES IDX 34 35 35 37 36 38 37 39 83 40 38 41 82 42 39 43 40 44 41 45
REMARK SMILES IDX 76 46 42 47 81 48 75 49 77 50 43 51 80 52 74 53 73 54 44 56
REMARK SMILES IDX 66 57 51 58 65 59 52 60 55 61 64 62 78 63 53 64 54 65 63 67
REMARK SMILES IDX 79 68 56 69 45 70 46 71 50 72 47 73 49 74 48 75 67 76 68 77
REMARK SMILES IDX 72 78 69 79 71 80 70 81 57 82 58 83 62 84 59 85 61 86 60 87
REMARK H PARENT 28 5 33 36 77 55 55 66
REMARK Flexibility Score: inf
ROOT
ATOM      1  C   UNL A   1      35.018  33.439  33.974  1.00  0.00     0.116 C 
ENDROOT
BRANCH   1   2
ATOM      2  N   UNL A   1      36.186  34.217  34.307  1.00  0.00    -0.353 N 
ATOM      3  C   UNL A   1      37.499  34.167  34.003  1.00  0.00     0.260 C 
ATOM      4  O   UNL A   1      38.090  35.233  34.265  1.00  0.00    -0.271 OA
ATOM      5  H   UNL A   1      35.972  34.970  34.903  1.00  0.00     0.163 HD
BRANCH   3   6
ATOM      6  C   UNL A   1      38.350  32.994  33.361  1.00  0.00     0.259 C 
ATOM      7  C   UNL A   1      38.501  33.292  31.855  1.00  0.00     0.064 C 
BRANCH   6   8
ATOM      8  O   UNL A   1      38.572  31.607  33.465  1.00  0.00    -0.477 OA
BRANCH   8   9
ATOM      9  C   UNL A   1      39.670  31.148  34.103  1.00  0.00     0.162 A 
ATOM     10  C   UNL A   1      39.610  30.571  35.373  1.00  0.00     0.161 A 
ATOM     11  C   UNL A   1      40.780  30.079  35.970  1.00  0.00     0.058 A 
ATOM     12  C   UNL A   1      41.998  30.106  35.266  1.00  0.00    -0.020 A 
ATOM     13  C   UNL A   1      40.832  31.029  33.350  1.00  0.00     0.051 A 
ATOM     14  C   UNL A   1      41.973  30.463  33.914  1.00  0.00     0.012 A 
BRANCH  10  15
ATOM     15  O   UNL A   1      38.392  30.337  35.956  1.00  0.00    -0.493 OA
ATOM     16  C   UNL A   1      37.942  31.389  36.800  1.00  0.00     0.278 C 
ENDBRANCH  10  15
BRANCH  12  17
ATOM     17  C   UNL A   1      43.265  29.762  35.941  1.00  0.00     0.029 C 
ATOM     18  C   UNL A   1      43.962  28.612  35.840  1.00  0.00     0.081 C 
ATOM     19  S   UNL A   1      45.460  28.375  36.664  1.00  0.00    -0.054 SA
ATOM     20  C   UNL A   1      43.659  27.377  35.049  1.00  0.00     0.266 C 
ATOM     21  C   UNL A   1      45.657  26.724  36.079  1.00  0.00     0.148 C 
ATOM     22  N   UNL A   1      44.595  26.376  35.270  1.00  0.00    -0.290 N 
ATOM     23  O   UNL A   1      42.711  27.260  34.285  1.00  0.00    -0.268 OA
ATOM     24  S   UNL A   1      46.989  25.825  36.528  1.00  0.00    -0.052 S 
BRANCH  22  25
ATOM     25  C   UNL A   1      44.333  25.060  34.634  1.00  0.00     0.092 C 
ATOM     26  C   UNL A   1      45.121  24.813  33.338  1.00  0.00     0.025 C 
ATOM     27  C   UNL A   1      44.421  23.889  35.627  1.00  0.00     0.025 C 
ATOM     28  C   UNL A   1      44.756  23.466  32.711  1.00  0.00     0.002 C 
ATOM     29  C   UNL A   1      44.065  22.562  34.961  1.00  0.00     0.002 C 
ATOM     30  C   UNL A   1      44.904  22.321  33.709  1.00  0.00     0.000 C 
ENDBRANCH  22  25
ENDBRANCH  12  17
ENDBRANCH   8   9
ENDBRANCH   6   8
ENDBRANCH   3   6
ENDBRANCH   1   2
BRANCH   1  31
ATOM     31  C   UNL A   1      34.623  33.555  32.507  1.00  0.00     0.023 C 
BRANCH  31  32
ATOM     32  C   UNL A   1      34.934  32.338  31.636  1.00  0.00     0.023 C 
BRANCH  32  33
ATOM     33  C   UNL A   1      35.348  32.611  30.194  1.00  0.00     0.116 C 
BRANCH  33  34
ATOM     34  N   UNL A   1      34.458  32.063  29.184  1.00  0.00    -0.352 N 
ATOM     35  C   UNL A   1      34.658  30.969  28.367  1.00  0.00     0.251 C 
ATOM     36  H   UNL A   1      33.601  32.533  29.066  1.00  0.00     0.163 HD
ATOM     37  O   UNL A   1      33.806  30.644  27.546  1.00  0.00    -0.269 OA
BRANCH  35  38
ATOM     38  C   UNL A   1      35.936  30.221  28.450  1.00  0.00     0.039 A 
ATOM     39  C   UNL A   1      36.824  30.265  27.373  1.00  0.00     0.014 A 
ATOM     40  C   UNL A   1      36.291  29.545  29.620  1.00  0.00     0.014 A 
ATOM     41  C   UNL A   1      38.107  29.721  27.509  1.00  0.00     0.010 A 
ATOM     42  C   UNL A   1      37.595  29.088  29.785  1.00  0.00     0.010 A 
ATOM     43  C   UNL A   1      38.524  29.178  28.737  1.00  0.00    -0.014 A 
BRANCH  43  44
ATOM     44  C   UNL A   1      39.922  28.717  28.955  1.00  0.00     0.031 A 
ATOM     45  C   UNL A   1      40.961  29.664  29.499  1.00  0.00     0.074 A 
ATOM     46  C   UNL A   1      40.289  27.474  28.582  1.00  0.00     0.049 A 
ATOM     47  N   UNL A   1      42.243  29.470  29.680  1.00  0.00    -0.248 NA
ATOM     48  C   UNL A   1      40.505  31.018  29.849  1.00  0.00     0.031 C 
ATOM     49  C   UNL A   1      39.407  26.470  27.979  1.00  0.00     0.029 A 
ATOM     50  N   UNL A   1      41.508  26.844  28.647  1.00  0.00    -0.354 N 
ATOM     51  C   UNL A   1      42.749  30.682  30.134  1.00  0.00     0.074 A 
ATOM     52  C   UNL A   1      41.646  31.618  30.150  1.00  0.00     0.031 C 
ATOM     53  C   UNL A   1      40.105  25.343  27.764  1.00  0.00     0.029 A 
ATOM     54  C   UNL A   1      41.488  25.551  28.179  1.00  0.00     0.049 A 
ATOM     55  H   UNL A   1      42.319  27.277  28.996  1.00  0.00     0.167 HD
ATOM     56  C   UNL A   1      44.009  30.988  30.525  1.00  0.00     0.031 A 
ATOM     57  C   UNL A   1      42.471  24.634  28.097  1.00  0.00     0.031 A 
ATOM     58  C   UNL A   1      45.102  30.055  30.546  1.00  0.00     0.049 A 
ATOM     59  C   UNL A   1      43.850  24.981  28.580  1.00  0.00     0.074 A 
ATOM     60  C   UNL A   1      46.398  30.253  30.991  1.00  0.00     0.029 A 
ATOM     61  N   UNL A   1      45.025  28.742  30.110  1.00  0.00    -0.354 N 
ATOM     62  N   UNL A   1      44.292  26.113  29.072  1.00  0.00    -0.248 NA
ATOM     63  C   UNL A   1      44.862  23.917  28.511  1.00  0.00     0.031 C 
ATOM     64  C   UNL A   1      47.114  29.067  30.795  1.00  0.00     0.029 A 
ATOM     65  C   UNL A   1      46.252  28.120  30.268  1.00  0.00     0.049 A 
ATOM     66  H   UNL A   1      44.218  28.314  29.742  1.00  0.00     0.167 HD
ATOM     67  C   UNL A   1      45.623  25.887  29.401  1.00  0.00     0.074 A 
ATOM     68  C   UNL A   1      45.913  24.509  29.065  1.00  0.00     0.031 C 
ATOM     69  C   UNL A   1      46.524  26.747  29.936  1.00  0.00     0.031 A 
BRANCH  56  70
ATOM     70  C   UNL A   1      44.266  32.401  30.971  1.00  0.00    -0.014 A 
ATOM     71  C   UNL A   1      44.130  32.773  32.318  1.00  0.00     0.009 A 
ATOM     72  C   UNL A   1      44.668  33.368  30.037  1.00  0.00     0.009 A 
ATOM     73  C   UNL A   1      44.347  34.094  32.714  1.00  0.00     0.001 A 
ATOM     74  C   UNL A   1      44.914  34.681  30.440  1.00  0.00     0.001 A 
ATOM     75  C   UNL A   1      44.742  35.047  31.774  1.00  0.00     0.000 A 
ENDBRANCH  56  70
BRANCH  57  76
ATOM     76  C   UNL A   1      42.178  23.274  27.574  1.00  0.00    -0.014 A 
ATOM     77  C   UNL A   1      41.580  22.311  28.402  1.00  0.00     0.009 A 
ATOM     78  C   UNL A   1      42.504  22.926  26.255  1.00  0.00     0.009 A 
ATOM     79  C   UNL A   1      41.340  21.020  27.928  1.00  0.00     0.001 A 
ATOM     80  C   UNL A   1      42.240  21.640  25.775  1.00  0.00     0.001 A 
ATOM     81  C   UNL A   1      41.667  20.687  26.615  1.00  0.00     0.000 A 
ENDBRANCH  57  76
BRANCH  69  82
ATOM     82  C   UNL A   1      47.894  26.208  30.233  1.00  0.00    -0.014 A 
ATOM     83  C   UNL A   1      48.245  25.775  31.521  1.00  0.00     0.009 A 
ATOM     84  C   UNL A   1      48.837  26.104  29.198  1.00  0.00     0.009 A 
ATOM     85  C   UNL A   1      49.526  25.278  31.772  1.00  0.00     0.001 A 
ATOM     86  C   UNL A   1      50.107  25.582  29.448  1.00  0.00     0.001 A 
ATOM     87  C   UNL A   1      50.452  25.179  30.736  1.00  0.00     0.000 A 
ENDBRANCH  69  82
ENDBRANCH  43  44
ENDBRANCH  35  38
ENDBRANCH  33  34
ENDBRANCH  32  33
ENDBRANCH  31  32
ENDBRANCH   1  31
TORSDOF 16
ENDMDL
MODEL 2
REMARK VINA RESULT:      -8.7      4.729     10.650
REMARK SMILES COc1cc(/C=C2/SC(=S)N(C3CCCCC3)C2=O)ccc1O[C@@H](C)C(=O)NCCCCNC(=O)c1ccc(-c2c3nc(c(-c4ccccc4)c4ccc([nH]4)c(-c4ccccc4)c4nc(c(-c5ccccc5)c5ccc2[nH]5)C=C4)C=C3)cc1
REMARK SMILES IDX 29 1 28 2 26 3 27 4 24 6 25 7 23 8 22 9 3 10 4 11 5 12 21 13
REMARK SMILES IDX 20 14 2 15 1 16 6 17 7 18 8 19 18 20 9 21 11 22 19 23 10 24
REMARK SMILES IDX 12 25 13 26 17 27 14 28 16 29 15 30 30 31 31 32 32 33 33 34
REMARK SMILES IDX 34 35 35 37 36 38 37 39 83 40 38 41 82 42 39 43 40 44 41 45
REMARK SMILES IDX 76 46 42 47 81 48 75 49 77 50 43 51 80 52 74 53 73 54 44 56
REMARK SMILES IDX 66 57 51 58 65 59 52 60 55 61 64 62 78 63 53 64 54 65 63 67
REMARK SMILES IDX 79 68 56 69 45 70 46 71 50 72 47 73 49 74 48 75 67 76 68 77
REMARK SMILES IDX 72 78 69 79 71 80 70 81 57 82 58 83 62 84 59 85 61 86 60 87
REMARK H PARENT 28 5 33 36 77 55 55 66
REMARK Flexibility Score: inf
ROOT
ATOM      1  C   UNL A   1      39.655  23.120  26.472  1.00  0.00     0.116 C 
ENDROOT
BRANCH   1   2
ATOM      2  N   UNL A   1      40.015  24.461  26.080  1.00  0.00    -0.353 N 
ATOM      3  C   UNL A   1      40.319  25.606  26.723  1.00  0.00     0.260 C 
ATOM      4  O   UNL A   1      40.872  26.438  25.980  1.00  0.00    -0.271 OA
ATOM      5  H   UNL A   1      40.045  24.565  25.103  1.00  0.00     0.163 HD
BRANCH   3   6
ATOM      6  C   UNL A   1      40.099  26.009  28.241  1.00  0.00     0.259 C 
ATOM      7  C   UNL A   1      38.891  25.209  28.770  1.00  0.00     0.064 C 
BRANCH   6   8
ATOM      8  O   UNL A   1      40.198  27.108  29.116  1.00  0.00    -0.477 OA
BRANCH   8   9
ATOM      9  C   UNL A   1      39.271  28.089  29.070  1.00  0.00     0.162 A 
ATOM     10  C   UNL A   1      38.515  28.455  30.185  1.00  0.00     0.161 A 
ATOM     11  C   UNL A   1      37.593  29.507  30.086  1.00  0.00     0.058 A 
ATOM     12  C   UNL A   1      37.476  30.235  28.887  1.00  0.00    -0.020 A 
ATOM     13  C   UNL A   1      39.273  28.905  27.945  1.00  0.00     0.051 A 
ATOM     14  C   UNL A   1      38.416  30.001  27.878  1.00  0.00     0.012 A 
BRANCH  10  15
ATOM     15  O   UNL A   1      38.795  27.902  31.408  1.00  0.00    -0.493 OA
ATOM     16  C   UNL A   1      38.049  28.461  32.481  1.00  0.00     0.278 C 
ENDBRANCH  10  15
BRANCH  12  17
ATOM     17  C   UNL A   1      36.391  31.219  28.707  1.00  0.00     0.029 C 
ATOM     18  C   UNL A   1      35.201  31.025  28.102  1.00  0.00     0.081 C 
ATOM     19  S   UNL A   1      34.010  32.270  28.009  1.00  0.00    -0.054 SA
ATOM     20  C   UNL A   1      34.652  29.797  27.444  1.00  0.00     0.266 C 
ATOM     21  C   UNL A   1      32.876  31.280  27.091  1.00  0.00     0.148 C 
ATOM     22  N   UNL A   1      33.408  30.027  26.872  1.00  0.00    -0.290 N 
ATOM     23  O   UNL A   1      35.217  28.713  27.421  1.00  0.00    -0.268 OA
ATOM     24  S   UNL A   1      31.403  31.906  26.618  1.00  0.00    -0.052 S 
BRANCH  22  25
ATOM     25  C   UNL A   1      32.817  28.915  26.084  1.00  0.00     0.092 C 
ATOM     26  C   UNL A   1      31.675  28.171  26.795  1.00  0.00     0.025 C 
ATOM     27  C   UNL A   1      32.467  29.326  24.644  1.00  0.00     0.025 C 
ATOM     28  C   UNL A   1      31.156  27.007  25.949  1.00  0.00     0.002 C 
ATOM     29  C   UNL A   1      31.939  28.141  23.837  1.00  0.00     0.002 C 
ATOM     30  C   UNL A   1      30.771  27.459  24.543  1.00  0.00     0.000 C 
ENDBRANCH  22  25
ENDBRANCH  12  17
ENDBRANCH   8   9
ENDBRANCH   6   8
ENDBRANCH   3   6
ENDBRANCH   1   2
BRANCH   1  31
ATOM     31  C   UNL A   1      40.842  22.306  26.970  1.00  0.00     0.023 C 
BRANCH  31  32
ATOM     32  C   UNL A   1      40.973  20.897  26.393  1.00  0.00     0.023 C 
BRANCH  32  33
ATOM     33  C   UNL A   1      42.310  20.191  26.593  1.00  0.00     0.116 C 
BRANCH  33  34
ATOM     34  N   UNL A   1      43.059  19.934  25.375  1.00  0.00    -0.352 N 
ATOM     35  C   UNL A   1      43.991  20.741  24.754  1.00  0.00     0.251 C 
ATOM     36  H   UNL A   1      42.878  19.072  24.935  1.00  0.00     0.163 HD
ATOM     37  O   UNL A   1      44.527  20.379  23.711  1.00  0.00    -0.269 OA
BRANCH  35  38
ATOM     38  C   UNL A   1      44.300  22.072  25.329  1.00  0.00     0.039 A 
ATOM     39  C   UNL A   1      45.146  22.158  26.437  1.00  0.00     0.014 A 
ATOM     40  C   UNL A   1      43.820  23.237  24.725  1.00  0.00     0.014 A 
ATOM     41  C   UNL A   1      45.593  23.411  26.873  1.00  0.00     0.010 A 
ATOM     42  C   UNL A   1      44.338  24.473  25.101  1.00  0.00     0.010 A 
ATOM     43  C   UNL A   1      45.238  24.577  26.173  1.00  0.00    -0.014 A 
BRANCH  43  44
ATOM     44  C   UNL A   1      45.805  25.907  26.527  1.00  0.00     0.031 A 
ATOM     45  C   UNL A   1      47.183  26.297  26.059  1.00  0.00     0.074 A 
ATOM     46  C   UNL A   1      45.124  26.734  27.346  1.00  0.00     0.049 A 
ATOM     47  N   UNL A   1      47.876  27.374  26.333  1.00  0.00    -0.248 NA
ATOM     48  C   UNL A   1      47.890  25.333  25.202  1.00  0.00     0.031 C 
ATOM     49  C   UNL A   1      43.808  26.462  27.931  1.00  0.00     0.029 A 
ATOM     50  N   UNL A   1      45.451  27.976  27.837  1.00  0.00    -0.354 N 
ATOM     51  C   UNL A   1      49.105  27.202  25.709  1.00  0.00     0.074 A 
ATOM     52  C   UNL A   1      49.083  25.896  25.088  1.00  0.00     0.031 C 
ATOM     53  C   UNL A   1      43.427  27.517  28.670  1.00  0.00     0.029 A 
ATOM     54  C   UNL A   1      44.481  28.525  28.641  1.00  0.00     0.049 A 
ATOM     55  H   UNL A   1      46.300  28.428  27.631  1.00  0.00     0.167 HD
ATOM     56  C   UNL A   1      50.153  28.058  25.637  1.00  0.00     0.031 A 
ATOM     57  C   UNL A   1      44.441  29.710  29.281  1.00  0.00     0.031 A 
ATOM     58  C   UNL A   1      50.170  29.372  26.220  1.00  0.00     0.049 A 
ATOM     59  C   UNL A   1      45.595  30.662  29.148  1.00  0.00     0.074 A 
ATOM     60  C   UNL A   1      51.158  30.338  26.141  1.00  0.00     0.029 A 
ATOM     61  N   UNL A   1      49.147  29.907  26.985  1.00  0.00    -0.354 N 
ATOM     62  N   UNL A   1      46.721  30.509  28.495  1.00  0.00    -0.248 NA
ATOM     63  C   UNL A   1      45.463  31.959  29.828  1.00  0.00     0.031 C 
ATOM     64  C   UNL A   1      50.745  31.448  26.885  1.00  0.00     0.029 A 
ATOM     65  C   UNL A   1      49.481  31.188  27.391  1.00  0.00     0.049 A 
ATOM     66  H   UNL A   1      48.306  29.445  27.208  1.00  0.00     0.167 HD
ATOM     67  C   UNL A   1      47.416  31.701  28.658  1.00  0.00     0.074 A 
ATOM     68  C   UNL A   1      46.582  32.570  29.461  1.00  0.00     0.031 C 
ATOM     69  C   UNL A   1      48.639  32.043  28.183  1.00  0.00     0.031 A 
BRANCH  56  70
ATOM     70  C   UNL A   1      51.370  27.592  24.886  1.00  0.00    -0.014 A 
ATOM     71  C   UNL A   1      51.509  27.832  23.509  1.00  0.00     0.009 A 
ATOM     72  C   UNL A   1      52.398  26.923  25.567  1.00  0.00     0.009 A 
ATOM     73  C   UNL A   1      52.633  27.372  22.821  1.00  0.00     0.001 A 
ATOM     74  C   UNL A   1      53.535  26.491  24.881  1.00  0.00     0.001 A 
ATOM     75  C   UNL A   1      53.647  26.705  23.508  1.00  0.00     0.000 A 
ENDBRANCH  56  70
BRANCH  57  76
ATOM     76  C   UNL A   1      43.243  30.087  30.075  1.00  0.00    -0.014 A 
ATOM     77  C   UNL A   1      43.122  29.675  31.412  1.00  0.00     0.009 A 
ATOM     78  C   UNL A   1      42.212  30.847  29.504  1.00  0.00     0.009 A 
ATOM     79  C   UNL A   1      41.981  29.992  32.151  1.00  0.00     0.001 A 
ATOM     80  C   UNL A   1      41.082  31.184  30.254  1.00  0.00     0.001 A 
ATOM     81  C   UNL A   1      40.964  30.749  31.574  1.00  0.00     0.000 A 
ENDBRANCH  57  76
BRANCH  69  82
ATOM     82  C   UNL A   1      49.127  33.432  28.481  1.00  0.00    -0.014 A 
ATOM     83  C   UNL A   1      49.903  33.705  29.619  1.00  0.00     0.009 A 
ATOM     84  C   UNL A   1      48.829  34.476  27.591  1.00  0.00     0.009 A 
ATOM     85  C   UNL A   1      50.343  35.005  29.875  1.00  0.00     0.001 A 
ATOM     86  C   UNL A   1      49.294  35.769  27.838  1.00  0.00     0.001 A 
ATOM     87  C   UNL A   1      50.042  36.033  28.983  1.00  0.00     0.000 A 
ENDBRANCH  69  82
ENDBRANCH  43  44
ENDBRANCH  35  38
ENDBRANCH  33  34
ENDBRANCH  32  33
ENDBRANCH  31  32
ENDBRANCH   1  31
TORSDOF 16
ENDMDL
MODEL 3
REMARK VINA RESULT:      -8.5      2.918      5.268
REMARK SMILES COc1cc(/C=C2/SC(=S)N(C3CCCCC3)C2=O)ccc1O[C@@H](C)C(=O)NCCCCNC(=O)c1ccc(-c2c3nc(c(-c4ccccc4)c4ccc([nH]4)c(-c4ccccc4)c4nc(c(-c5ccccc5)c5ccc2[nH]5)C=C4)C=C3)cc1
REMARK SMILES IDX 29 1 28 2 26 3 27 4 24 6 25 7 23 8 22 9 3 10 4 11 5 12 21 13
REMARK SMILES IDX 20 14 2 15 1 16 6 17 7 18 8 19 18 20 9 21 11 22 19 23 10 24
REMARK SMILES IDX 12 25 13 26 17 27 14 28 16 29 15 30 30 31 31 32 32 33 33 34
REMARK SMILES IDX 34 35 35 37 36 38 37 39 83 40 38 41 82 42 39 43 40 44 41 45
REMARK SMILES IDX 76 46 42 47 81 48 75 49 77 50 43 51 80 52 74 53 73 54 44 56
REMARK SMILES IDX 66 57 51 58 65 59 52 60 55 61 64 62 78 63 53 64 54 65 63 67
REMARK SMILES IDX 79 68 56 69 45 70 46 71 50 72 47 73 49 74 48 75 67 76 68 77
REMARK SMILES IDX 72 78 69 79 71 80 70 81 57 82 58 83 62 84 59 85 61 86 60 87
REMARK H PARENT 28 5 33 36 77 55 55 66
REMARK Flexibility Score: inf
ROOT
ATOM      1  C   UNL A   1      39.244  34.276  29.798  1.00  0.00     0.116 C 
ENDROOT
BRANCH   1   2
ATOM      2  N   UNL A   1      39.784  34.219  31.134  1.00  0.00    -0.353 N 
ATOM      3  C   UNL A   1      40.996  34.406  31.694  1.00  0.00     0.260 C 
ATOM      4  O   UNL A   1      40.932  34.561  32.929  1.00  0.00    -0.271 OA
ATOM      5  H   UNL A   1      39.099  33.988  31.801  1.00  0.00     0.163 HD
BRANCH   3   6
ATOM      6  C   UNL A   1      42.429  34.476  31.018  1.00  0.00     0.259 C 
ATOM      7  C   UNL A   1      43.320  35.374  31.900  1.00  0.00     0.064 C 
BRANCH   6   8
ATOM      8  O   UNL A   1      43.054  34.497  29.757  1.00  0.00    -0.477 OA
BRANCH   8   9
ATOM      9  C   UNL A   1      43.196  33.350  29.059  1.00  0.00     0.162 A 
ATOM     10  C   UNL A   1      43.995  33.265  27.916  1.00  0.00     0.161 A 
ATOM     11  C   UNL A   1      44.132  32.036  27.254  1.00  0.00     0.058 A 
ATOM     12  C   UNL A   1      43.523  30.879  27.775  1.00  0.00    -0.020 A 
ATOM     13  C   UNL A   1      42.731  32.186  29.658  1.00  0.00     0.051 A 
ATOM     14  C   UNL A   1      42.939  30.954  29.043  1.00  0.00     0.012 A 
BRANCH  10  15
ATOM     15  O   UNL A   1      44.769  34.334  27.547  1.00  0.00    -0.493 OA
ATOM     16  C   UNL A   1      44.983  34.437  26.145  1.00  0.00     0.278 C 
ENDBRANCH  10  15
BRANCH  12  17
ATOM     17  C   UNL A   1      43.506  29.624  26.999  1.00  0.00     0.029 C 
ATOM     18  C   UNL A   1      44.454  28.665  26.971  1.00  0.00     0.081 C 
ATOM     19  S   UNL A   1      44.268  27.223  26.041  1.00  0.00    -0.054 SA
ATOM     20  C   UNL A   1      45.769  28.599  27.684  1.00  0.00     0.266 C 
ATOM     21  C   UNL A   1      45.852  26.589  26.487  1.00  0.00     0.148 C 
ATOM     22  N   UNL A   1      46.495  27.470  27.331  1.00  0.00    -0.290 N 
ATOM     23  O   UNL A   1      46.159  29.429  28.494  1.00  0.00    -0.268 OA
ATOM     24  S   UNL A   1      46.369  25.119  25.891  1.00  0.00    -0.052 S 
BRANCH  22  25
ATOM     25  C   UNL A   1      47.870  27.358  27.882  1.00  0.00     0.092 C 
ATOM     26  C   UNL A   1      48.085  26.152  28.811  1.00  0.00     0.025 C 
ATOM     27  C   UNL A   1      48.958  27.492  26.803  1.00  0.00     0.025 C 
ATOM     28  C   UNL A   1      49.504  26.135  29.384  1.00  0.00     0.002 C 
ATOM     29  C   UNL A   1      50.358  27.455  27.412  1.00  0.00     0.002 C 
ATOM     30  C   UNL A   1      50.557  26.218  28.283  1.00  0.00     0.000 C 
ENDBRANCH  22  25
ENDBRANCH  12  17
ENDBRANCH   8   9
ENDBRANCH   6   8
ENDBRANCH   3   6
ENDBRANCH   1   2
BRANCH   1  31
ATOM     31  C   UNL A   1      38.132  33.262  29.562  1.00  0.00     0.023 C 
BRANCH  31  32
ATOM     32  C   UNL A   1      36.811  33.830  29.043  1.00  0.00     0.023 C 
BRANCH  32  33
ATOM     33  C   UNL A   1      35.531  33.210  29.592  1.00  0.00     0.116 C 
BRANCH  33  34
ATOM     34  N   UNL A   1      34.671  32.591  28.598  1.00  0.00    -0.352 N 
ATOM     35  C   UNL A   1      34.786  31.342  28.023  1.00  0.00     0.251 C 
ATOM     36  H   UNL A   1      33.906  33.133  28.295  1.00  0.00     0.163 HD
ATOM     37  O   UNL A   1      33.976  30.972  27.177  1.00  0.00    -0.269 OA
BRANCH  35  38
ATOM     38  C   UNL A   1      35.926  30.471  28.394  1.00  0.00     0.039 A 
ATOM     39  C   UNL A   1      37.049  30.425  27.563  1.00  0.00     0.014 A 
ATOM     40  C   UNL A   1      35.920  29.763  29.598  1.00  0.00     0.014 A 
ATOM     41  C   UNL A   1      38.202  29.757  27.991  1.00  0.00     0.010 A 
ATOM     42  C   UNL A   1      37.095  29.178  30.061  1.00  0.00     0.010 A 
ATOM     43  C   UNL A   1      38.255  29.175  29.270  1.00  0.00    -0.014 A 
BRANCH  43  44
ATOM     44  C   UNL A   1      39.507  28.577  29.808  1.00  0.00     0.031 A 
ATOM     45  C   UNL A   1      40.235  29.234  30.952  1.00  0.00     0.074 A 
ATOM     46  C   UNL A   1      40.047  27.493  29.214  1.00  0.00     0.049 A 
ATOM     47  N   UNL A   1      41.379  28.908  31.502  1.00  0.00    -0.248 NA
ATOM     48  C   UNL A   1      39.614  30.436  31.530  1.00  0.00     0.031 C 
ATOM     49  C   UNL A   1      39.489  26.790  28.054  1.00  0.00     0.029 A 
ATOM     50  N   UNL A   1      41.195  26.795  29.500  1.00  0.00    -0.354 N 
ATOM     51  C   UNL A   1      41.626  29.880  32.464  1.00  0.00     0.074 A 
ATOM     52  C   UNL A   1      40.542  30.834  32.387  1.00  0.00     0.031 C 
ATOM     53  C   UNL A   1      40.276  25.745  27.753  1.00  0.00     0.029 A 
ATOM     54  C   UNL A   1      41.410  25.720  28.671  1.00  0.00     0.049 A 
ATOM     55  H   UNL A   1      41.806  27.042  30.230  1.00  0.00     0.167 HD
ATOM     56  C   UNL A   1      42.648  29.963  33.349  1.00  0.00     0.031 A 
ATOM     57  C   UNL A   1      42.404  24.812  28.653  1.00  0.00     0.031 A 
ATOM     58  C   UNL A   1      43.711  29.000  33.456  1.00  0.00     0.049 A 
ATOM     59  C   UNL A   1      43.503  24.898  29.674  1.00  0.00     0.074 A 
ATOM     60  C   UNL A   1      44.752  28.962  34.367  1.00  0.00     0.029 A 
ATOM     61  N   UNL A   1      43.862  27.900  32.628  1.00  0.00    -0.354 N 
ATOM     62  N   UNL A   1      43.682  25.785  30.622  1.00  0.00    -0.248 NA
ATOM     63  C   UNL A   1      44.528  23.845  29.632  1.00  0.00     0.031 C 
ATOM     64  C   UNL A   1      45.553  27.853  34.070  1.00  0.00     0.029 A 
ATOM     65  C   UNL A   1      44.984  27.179  33.002  1.00  0.00     0.049 A 
ATOM     66  H   UNL A   1      43.261  27.664  31.884  1.00  0.00     0.167 HD
ATOM     67  C   UNL A   1      44.820  25.380  31.308  1.00  0.00     0.074 A 
ATOM     68  C   UNL A   1      45.282  24.161  30.677  1.00  0.00     0.031 C 
ATOM     69  C   UNL A   1      45.427  25.966  32.369  1.00  0.00     0.031 A 
BRANCH  56  70
ATOM     70  C   UNL A   1      42.657  31.143  34.280  1.00  0.00    -0.014 A 
ATOM     71  C   UNL A   1      43.427  32.284  33.999  1.00  0.00     0.009 A 
ATOM     72  C   UNL A   1      41.870  31.124  35.442  1.00  0.00     0.009 A 
ATOM     73  C   UNL A   1      43.445  33.362  34.886  1.00  0.00     0.001 A 
ATOM     74  C   UNL A   1      41.866  32.216  36.311  1.00  0.00     0.001 A 
ATOM     75  C   UNL A   1      42.661  33.329  36.040  1.00  0.00     0.000 A 
ENDBRANCH  56  70
BRANCH  57  76
ATOM     76  C   UNL A   1      42.388  23.708  27.658  1.00  0.00    -0.014 A 
ATOM     77  C   UNL A   1      41.848  22.458  27.998  1.00  0.00     0.009 A 
ATOM     78  C   UNL A   1      42.920  23.891  26.374  1.00  0.00     0.009 A 
ATOM     79  C   UNL A   1      41.866  21.405  27.080  1.00  0.00     0.001 A 
ATOM     80  C   UNL A   1      42.914  22.843  25.449  1.00  0.00     0.001 A 
ATOM     81  C   UNL A   1      42.396  21.600  25.807  1.00  0.00     0.000 A 
ENDBRANCH  57  76
BRANCH  69  82
ATOM     82  C   UNL A   1      46.630  25.271  32.942  1.00  0.00    -0.014 A 
ATOM     83  C   UNL A   1      47.930  25.601  32.527  1.00  0.00     0.009 A 
ATOM     84  C   UNL A   1      46.458  24.294  33.935  1.00  0.00     0.009 A 
ATOM     85  C   UNL A   1      49.032  24.941  33.073  1.00  0.00     0.001 A 
ATOM     86  C   UNL A   1      47.564  23.655  34.497  1.00  0.00     0.001 A 
ATOM     87  C   UNL A   1      48.848  23.972  34.059  1.00  0.00     0.000 A 
ENDBRANCH  69  82
ENDBRANCH  43  44
ENDBRANCH  35  38
ENDBRANCH  33  34
ENDBRANCH  32  33
ENDBRANCH  31  32
ENDBRANCH   1  31
TORSDOF 16
ENDMDL
