MODEL 1
REMARK VINA RESULT:     -12.3      0.000      0.000
REMARK SMILES O=C(NCCCCNC(=O)[C@H]1CCCC[C@H]1C(=O)N1CCN(S(=O)(=O)c2ccc(F)cc2)CC1)c1ccc(-c2c3nc(c(-c4ccccc4)c4ccc([nH]4)c(-c4ccccc4)c4nc(c(-c5ccccc5)c5ccc2[nH]5)C=C4)C=C3)cc1
REMARK SMILES IDX 6 1 5 2 4 3 3 4 1 5 2 6 35 8 36 9 82 10 37 11 81 12 38 13
REMARK SMILES IDX 39 14 40 15 75 16 41 17 80 18 74 19 76 20 42 21 79 22 73 23
REMARK SMILES IDX 72 24 43 26 65 27 50 28 64 29 51 30 54 31 63 32 77 33 52 34
REMARK SMILES IDX 53 35 62 37 78 38 55 39 44 40 45 41 49 42 46 43 48 44 47 45
REMARK SMILES IDX 66 46 67 47 71 48 68 49 70 50 69 51 56 52 57 53 61 54 58 55
REMARK SMILES IDX 60 56 59 57 7 58 8 59 9 60 10 62 11 63 12 64 16 65 13 66
REMARK SMILES IDX 15 67 14 68 17 69 18 70 19 71 20 72 34 73 21 74 33 75 22 76
REMARK SMILES IDX 23 77 24 78 25 79 26 80 27 81 32 82 28 83 31 84 29 85 30 86
REMARK H PARENT 3 7 76 25 54 36 8 61
REMARK Flexibility Score: inf
ROOT
ATOM      1  C   UNL A   1      38.556  22.781  26.159  1.00  0.00     0.023 C 
ENDROOT
BRANCH   1   2
ATOM      2  C   UNL A   1      38.879  21.436  25.525  1.00  0.00     0.023 C 
BRANCH   2   3
ATOM      3  C   UNL A   1      39.388  20.387  26.500  1.00  0.00     0.116 C 
BRANCH   3   4
ATOM      4  N   UNL A   1      40.374  19.471  25.948  1.00  0.00    -0.352 N 
ATOM      5  O   UNL A   1      42.486  18.850  25.375  1.00  0.00    -0.269 OA
ATOM      6  C   UNL A   1      41.735  19.671  25.881  1.00  0.00     0.251 C 
ATOM      7  H   UNL A   1      40.034  18.621  25.587  1.00  0.00     0.163 HD
BRANCH   6   8
ATOM      8  C   UNL A   1      42.251  20.952  26.395  1.00  0.00     0.039 A 
ATOM      9  C   UNL A   1      42.283  21.177  27.775  1.00  0.00     0.014 A 
ATOM     10  C   UNL A   1      42.533  21.973  25.487  1.00  0.00     0.014 A 
ATOM     11  C   UNL A   1      42.464  22.471  28.243  1.00  0.00     0.010 A 
ATOM     12  C   UNL A   1      42.809  23.250  25.969  1.00  0.00     0.010 A 
ATOM     13  C   UNL A   1      42.750  23.517  27.346  1.00  0.00    -0.014 A 
BRANCH  13  14
ATOM     14  C   UNL A   1      43.082  24.865  27.869  1.00  0.00     0.031 A 
ATOM     15  C   UNL A   1      42.016  25.872  28.194  1.00  0.00     0.074 A 
ATOM     16  C   UNL A   1      44.383  25.180  28.016  1.00  0.00     0.049 A 
ATOM     17  N   UNL A   1      42.152  27.112  28.595  1.00  0.00    -0.248 NA
ATOM     18  C   UNL A   1      40.617  25.444  28.040  1.00  0.00     0.031 C 
ATOM     19  C   UNL A   1      45.506  24.284  27.727  1.00  0.00     0.029 A 
ATOM     20  N   UNL A   1      44.982  26.335  28.447  1.00  0.00    -0.354 N 
ATOM     21  C   UNL A   1      40.864  27.619  28.717  1.00  0.00     0.074 A 
ATOM     22  C   UNL A   1      39.958  26.559  28.326  1.00  0.00     0.031 C 
ATOM     23  C   UNL A   1      46.654  24.906  28.026  1.00  0.00     0.029 A 
ATOM     24  C   UNL A   1      46.353  26.267  28.446  1.00  0.00     0.049 A 
ATOM     25  H   UNL A   1      44.478  27.132  28.729  1.00  0.00     0.167 HD
ATOM     26  C   UNL A   1      40.477  28.855  29.116  1.00  0.00     0.031 A 
ATOM     27  C   UNL A   1      47.275  27.206  28.717  1.00  0.00     0.031 A 
ATOM     28  C   UNL A   1      41.390  29.907  29.490  1.00  0.00     0.049 A 
ATOM     29  C   UNL A   1      46.818  28.580  29.102  1.00  0.00     0.074 A 
ATOM     30  C   UNL A   1      41.097  31.183  29.943  1.00  0.00     0.029 A 
ATOM     31  N   UNL A   1      42.773  29.810  29.445  1.00  0.00    -0.354 N 
ATOM     32  N   UNL A   1      45.596  29.032  29.249  1.00  0.00    -0.248 NA
ATOM     33  C   UNL A   1      47.868  29.571  29.361  1.00  0.00     0.031 C 
ATOM     34  C   UNL A   1      42.300  31.877  30.107  1.00  0.00     0.029 A 
ATOM     35  C   UNL A   1      43.346  31.012  29.828  1.00  0.00     0.049 A 
ATOM     36  H   UNL A   1      43.275  29.006  29.178  1.00  0.00     0.167 HD
ATOM     37  C   UNL A   1      45.730  30.356  29.641  1.00  0.00     0.074 A 
ATOM     38  C   UNL A   1      47.152  30.625  29.729  1.00  0.00     0.031 C 
ATOM     39  C   UNL A   1      44.762  31.268  29.901  1.00  0.00     0.031 A 
BRANCH  26  40
ATOM     40  C   UNL A   1      39.002  29.156  29.136  1.00  0.00    -0.014 A 
ATOM     41  C   UNL A   1      38.241  29.031  30.310  1.00  0.00     0.009 A 
ATOM     42  C   UNL A   1      38.371  29.624  27.971  1.00  0.00     0.009 A 
ATOM     43  C   UNL A   1      36.877  29.333  30.307  1.00  0.00     0.001 A 
ATOM     44  C   UNL A   1      37.014  29.954  27.978  1.00  0.00     0.001 A 
ATOM     45  C   UNL A   1      36.265  29.800  29.143  1.00  0.00     0.000 A 
ENDBRANCH  26  40
BRANCH  27  46
ATOM     46  C   UNL A   1      48.718  26.875  28.607  1.00  0.00    -0.014 A 
ATOM     47  C   UNL A   1      49.419  26.366  29.709  1.00  0.00     0.009 A 
ATOM     48  C   UNL A   1      49.397  27.044  27.389  1.00  0.00     0.009 A 
ATOM     49  C   UNL A   1      50.776  26.058  29.601  1.00  0.00     0.001 A 
ATOM     50  C   UNL A   1      50.745  26.701  27.274  1.00  0.00     0.001 A 
ATOM     51  C   UNL A   1      51.436  26.219  28.384  1.00  0.00     0.000 A 
ENDBRANCH  27  46
BRANCH  39  52
ATOM     52  C   UNL A   1      45.216  32.632  30.344  1.00  0.00    -0.014 A 
ATOM     53  C   UNL A   1      45.434  33.667  29.422  1.00  0.00     0.009 A 
ATOM     54  C   UNL A   1      45.410  32.888  31.712  1.00  0.00     0.009 A 
ATOM     55  C   UNL A   1      45.877  34.918  29.856  1.00  0.00     0.001 A 
ATOM     56  C   UNL A   1      45.819  34.149  32.145  1.00  0.00     0.001 A 
ATOM     57  C   UNL A   1      46.063  35.159  31.217  1.00  0.00     0.000 A 
ENDBRANCH  39  52
ENDBRANCH  13  14
ENDBRANCH   6   8
ENDBRANCH   3   4
ENDBRANCH   2   3
ENDBRANCH   1   2
BRANCH   1  58
ATOM     58  C   UNL A   1      37.319  23.433  25.569  1.00  0.00     0.116 C 
BRANCH  58  59
ATOM     59  N   UNL A   1      36.118  23.099  26.295  1.00  0.00    -0.356 N 
ATOM     60  C   UNL A   1      35.194  22.137  26.072  1.00  0.00     0.223 C 
ATOM     61  H   UNL A   1      35.943  23.662  27.083  1.00  0.00     0.163 HD
ATOM     62  O   UNL A   1      34.435  21.880  27.014  1.00  0.00    -0.275 OA
BRANCH  60  63
ATOM     63  C   UNL A   1      34.989  21.423  24.739  1.00  0.00     0.091 C 
ATOM     64  C   UNL A   1      34.546  19.983  25.034  1.00  0.00     0.014 C 
ATOM     65  C   UNL A   1      34.211  22.045  23.574  1.00  0.00     0.091 C 
ATOM     66  C   UNL A   1      33.116  19.940  25.522  1.00  0.00     0.001 C 
ATOM     67  C   UNL A   1      32.744  21.475  23.438  1.00  0.00     0.014 C 
ATOM     68  C   UNL A   1      32.155  20.543  24.514  1.00  0.00     0.001 C 
BRANCH  65  69
ATOM     69  C   UNL A   1      34.195  23.574  23.247  1.00  0.00     0.226 C 
ATOM     70  O   UNL A   1      35.268  24.069  22.864  1.00  0.00    -0.275 OA
ATOM     71  N   UNL A   1      33.115  24.422  23.371  1.00  0.00    -0.340 N 
ATOM     72  C   UNL A   1      33.212  25.774  22.790  1.00  0.00     0.136 C 
ATOM     73  C   UNL A   1      31.902  24.281  24.170  1.00  0.00     0.136 C 
ATOM     74  C   UNL A   1      31.983  26.129  21.936  1.00  0.00     0.124 C 
ATOM     75  C   UNL A   1      30.651  24.535  23.311  1.00  0.00     0.124 C 
ATOM     76  N   UNL A   1      30.669  25.852  22.603  1.00  0.00    -0.194 NA
BRANCH  76  77
ATOM     77  S   UNL A   1      29.922  27.184  23.340  1.00  0.00     0.243 S 
ATOM     78  O   UNL A   1      29.878  28.252  22.361  1.00  0.00    -0.207 OA
ATOM     79  O   UNL A   1      28.720  26.705  23.980  1.00  0.00    -0.207 OA
BRANCH  77  80
ATOM     80  C   UNL A   1      31.059  27.665  24.632  1.00  0.00     0.082 A 
ATOM     81  C   UNL A   1      31.940  28.732  24.417  1.00  0.00     0.025 A 
ATOM     82  C   UNL A   1      31.020  27.027  25.880  1.00  0.00     0.025 A 
ATOM     83  C   UNL A   1      32.851  29.097  25.409  1.00  0.00     0.040 A 
ATOM     84  C   UNL A   1      31.904  27.429  26.887  1.00  0.00     0.040 A 
ATOM     85  C   UNL A   1      32.823  28.444  26.636  1.00  0.00     0.123 A 
ATOM     86  F   UNL A   1      33.687  28.808  27.592  1.00  0.00    -0.207 F 
ENDBRANCH  77  80
ENDBRANCH  76  77
ENDBRANCH  65  69
ENDBRANCH  60  63
ENDBRANCH  58  59
ENDBRANCH   1  58
TORSDOF 14
ENDMDL
MODEL 2
REMARK VINA RESULT:     -12.2      0.509      5.690
REMARK SMILES O=C(NCCCCNC(=O)[C@H]1CCCC[C@H]1C(=O)N1CCN(S(=O)(=O)c2ccc(F)cc2)CC1)c1ccc(-c2c3nc(c(-c4ccccc4)c4ccc([nH]4)c(-c4ccccc4)c4nc(c(-c5ccccc5)c5ccc2[nH]5)C=C4)C=C3)cc1
REMARK SMILES IDX 6 1 5 2 4 3 3 4 1 5 2 6 35 8 36 9 82 10 37 11 81 12 38 13
REMARK SMILES IDX 39 14 40 15 75 16 41 17 80 18 74 19 76 20 42 21 79 22 73 23
REMARK SMILES IDX 72 24 43 26 65 27 50 28 64 29 51 30 54 31 63 32 77 33 52 34
REMARK SMILES IDX 53 35 62 37 78 38 55 39 44 40 45 41 49 42 46 43 48 44 47 45
REMARK SMILES IDX 66 46 67 47 71 48 68 49 70 50 69 51 56 52 57 53 61 54 58 55
REMARK SMILES IDX 60 56 59 57 7 58 8 59 9 60 10 62 11 63 12 64 16 65 13 66
REMARK SMILES IDX 15 67 14 68 17 69 18 70 19 71 20 72 34 73 21 74 33 75 22 76
REMARK SMILES IDX 23 77 24 78 25 79 26 80 27 81 32 82 28 83 31 84 29 85 30 86
REMARK H PARENT 3 7 76 25 54 36 8 61
REMARK Flexibility Score: inf
ROOT
ATOM      1  C   UNL A   1      38.603  22.842  26.131  1.00  0.00     0.023 C 
ENDROOT
BRANCH   1   2
ATOM      2  C   UNL A   1      38.868  21.454  25.565  1.00  0.00     0.023 C 
BRANCH   2   3
ATOM      3  C   UNL A   1      39.435  20.464  26.569  1.00  0.00     0.116 C 
BRANCH   3   4
ATOM      4  N   UNL A   1      40.429  19.549  26.026  1.00  0.00    -0.352 N 
ATOM      5  O   UNL A   1      42.546  18.934  25.467  1.00  0.00    -0.269 OA
ATOM      6  C   UNL A   1      41.789  19.755  25.964  1.00  0.00     0.251 C 
ATOM      7  H   UNL A   1      40.094  18.696  25.669  1.00  0.00     0.163 HD
BRANCH   6   8
ATOM      8  C   UNL A   1      42.297  21.041  26.474  1.00  0.00     0.039 A 
ATOM      9  C   UNL A   1      42.291  21.288  27.850  1.00  0.00     0.014 A 
ATOM     10  C   UNL A   1      42.610  22.046  25.558  1.00  0.00     0.014 A 
ATOM     11  C   UNL A   1      42.465  22.588  28.302  1.00  0.00     0.010 A 
ATOM     12  C   UNL A   1      42.879  23.330  26.027  1.00  0.00     0.010 A 
ATOM     13  C   UNL A   1      42.782  23.618  27.399  1.00  0.00    -0.014 A 
BRANCH  13  14
ATOM     14  C   UNL A   1      43.106  24.972  27.910  1.00  0.00     0.031 A 
ATOM     15  C   UNL A   1      44.513  25.374  28.252  1.00  0.00     0.074 A 
ATOM     16  C   UNL A   1      42.088  25.836  28.094  1.00  0.00     0.049 A 
ATOM     17  N   UNL A   1      44.943  26.497  28.770  1.00  0.00    -0.248 NA
ATOM     18  C   UNL A   1      45.575  24.389  27.992  1.00  0.00     0.031 C 
ATOM     19  C   UNL A   1      40.680  25.554  27.802  1.00  0.00     0.029 A 
ATOM     20  N   UNL A   1      42.080  27.122  28.566  1.00  0.00    -0.354 N 
ATOM     21  C   UNL A   1      46.316  26.349  28.923  1.00  0.00     0.074 A 
ATOM     22  C   UNL A   1      46.646  25.015  28.461  1.00  0.00     0.031 C 
ATOM     23  C   UNL A   1      39.950  26.646  28.061  1.00  0.00     0.029 A 
ATOM     24  C   UNL A   1      40.822  27.672  28.616  1.00  0.00     0.049 A 
ATOM     25  H   UNL A   1      42.893  27.603  28.841  1.00  0.00     0.167 HD
ATOM     26  C   UNL A   1      47.215  27.241  29.404  1.00  0.00     0.031 A 
ATOM     27  C   UNL A   1      40.405  28.858  29.089  1.00  0.00     0.031 A 
ATOM     28  C   UNL A   1      46.872  28.561  29.873  1.00  0.00     0.049 A 
ATOM     29  C   UNL A   1      41.415  29.803  29.666  1.00  0.00     0.074 A 
ATOM     30  C   UNL A   1      47.714  29.554  30.347  1.00  0.00     0.029 A 
ATOM     31  N   UNL A   1      45.583  29.069  29.938  1.00  0.00    -0.354 N 
ATOM     32  N   UNL A   1      42.714  29.661  29.768  1.00  0.00    -0.248 NA
ATOM     33  C   UNL A   1      40.898  31.072  30.192  1.00  0.00     0.031 C 
ATOM     34  C   UNL A   1      46.928  30.635  30.759  1.00  0.00     0.029 A 
ATOM     35  C   UNL A   1      45.603  30.347  30.475  1.00  0.00     0.049 A 
ATOM     36  H   UNL A   1      44.772  28.593  29.646  1.00  0.00     0.167 HD
ATOM     37  C   UNL A   1      43.175  30.833  30.349  1.00  0.00     0.074 A 
ATOM     38  C   UNL A   1      42.018  31.683  30.555  1.00  0.00     0.031 C 
ATOM     39  C   UNL A   1      44.443  31.176  30.683  1.00  0.00     0.031 A 
BRANCH  26  40
ATOM     40  C   UNL A   1      48.656  26.812  29.486  1.00  0.00    -0.014 A 
ATOM     41  C   UNL A   1      49.559  27.062  28.440  1.00  0.00     0.009 A 
ATOM     42  C   UNL A   1      49.133  26.192  30.653  1.00  0.00     0.009 A 
ATOM     43  C   UNL A   1      50.896  26.669  28.547  1.00  0.00     0.001 A 
ATOM     44  C   UNL A   1      50.476  25.827  30.769  1.00  0.00     0.001 A 
ATOM     45  C   UNL A   1      51.355  26.057  29.713  1.00  0.00     0.000 A 
ENDBRANCH  26  40
BRANCH  27  46
ATOM     46  C   UNL A   1      38.960  29.198  29.053  1.00  0.00    -0.014 A 
ATOM     47  C   UNL A   1      38.380  29.723  27.890  1.00  0.00     0.009 A 
ATOM     48  C   UNL A   1      38.148  28.976  30.178  1.00  0.00     0.009 A 
ATOM     49  C   UNL A   1      37.022  30.043  27.862  1.00  0.00     0.001 A 
ATOM     50  C   UNL A   1      36.783  29.264  30.135  1.00  0.00     0.001 A 
ATOM     51  C   UNL A   1      36.224  29.808  28.980  1.00  0.00     0.000 A 
ENDBRANCH  27  46
BRANCH  39  52
ATOM     52  C   UNL A   1      44.643  32.545  31.273  1.00  0.00    -0.014 A 
ATOM     53  C   UNL A   1      44.868  33.666  30.461  1.00  0.00     0.009 A 
ATOM     54  C   UNL A   1      44.586  32.714  32.666  1.00  0.00     0.009 A 
ATOM     55  C   UNL A   1      45.073  34.923  31.034  1.00  0.00     0.001 A 
ATOM     56  C   UNL A   1      44.757  33.977  33.233  1.00  0.00     0.001 A 
ATOM     57  C   UNL A   1      45.012  35.078  32.419  1.00  0.00     0.000 A 
ENDBRANCH  39  52
ENDBRANCH  13  14
ENDBRANCH   6   8
ENDBRANCH   3   4
ENDBRANCH   2   3
ENDBRANCH   1   2
BRANCH   1  58
ATOM     58  C   UNL A   1      37.329  23.468  25.593  1.00  0.00     0.116 C 
BRANCH  58  59
ATOM     59  N   UNL A   1      36.160  23.070  26.339  1.00  0.00    -0.356 N 
ATOM     60  C   UNL A   1      35.265  22.082  26.110  1.00  0.00     0.223 C 
ATOM     61  H   UNL A   1      35.986  23.604  27.147  1.00  0.00     0.163 HD
ATOM     62  O   UNL A   1      34.541  21.771  27.064  1.00  0.00    -0.275 OA
BRANCH  60  63
ATOM     63  C   UNL A   1      35.050  21.400  24.762  1.00  0.00     0.091 C 
ATOM     64  C   UNL A   1      34.623  19.949  25.026  1.00  0.00     0.014 C 
ATOM     65  C   UNL A   1      34.252  22.044  23.623  1.00  0.00     0.091 C 
ATOM     66  C   UNL A   1      33.200  19.880  25.530  1.00  0.00     0.001 C 
ATOM     67  C   UNL A   1      32.789  21.464  23.491  1.00  0.00     0.014 C 
ATOM     68  C   UNL A   1      32.222  20.500  24.550  1.00  0.00     0.001 C 
BRANCH  65  69
ATOM     69  C   UNL A   1      34.218  23.581  23.335  1.00  0.00     0.226 C 
ATOM     70  O   UNL A   1      35.293  24.104  22.998  1.00  0.00    -0.275 OA
ATOM     71  N   UNL A   1      33.120  24.407  23.448  1.00  0.00    -0.340 N 
ATOM     72  C   UNL A   1      33.210  25.775  22.905  1.00  0.00     0.136 C 
ATOM     73  C   UNL A   1      31.885  24.223  24.205  1.00  0.00     0.136 C 
ATOM     74  C   UNL A   1      32.001  26.132  22.023  1.00  0.00     0.124 C 
ATOM     75  C   UNL A   1      30.657  24.479  23.315  1.00  0.00     0.124 C 
ATOM     76  N   UNL A   1      30.673  25.814  22.642  1.00  0.00    -0.194 NA
BRANCH  76  77
ATOM     77  S   UNL A   1      29.879  27.113  23.389  1.00  0.00     0.243 S 
ATOM     78  O   UNL A   1      29.787  28.183  22.415  1.00  0.00    -0.207 OA
ATOM     79  O   UNL A   1      28.702  26.585  24.037  1.00  0.00    -0.207 OA
BRANCH  77  80
ATOM     80  C   UNL A   1      31.006  27.633  24.676  1.00  0.00     0.082 A 
ATOM     81  C   UNL A   1      31.853  28.726  24.453  1.00  0.00     0.025 A 
ATOM     82  C   UNL A   1      30.992  26.998  25.926  1.00  0.00     0.025 A 
ATOM     83  C   UNL A   1      32.756  29.122  25.441  1.00  0.00     0.040 A 
ATOM     84  C   UNL A   1      31.867  27.430  26.928  1.00  0.00     0.040 A 
ATOM     85  C   UNL A   1      32.754  28.472  26.670  1.00  0.00     0.123 A 
ATOM     86  F   UNL A   1      33.609  28.866  27.622  1.00  0.00    -0.207 F 
ENDBRANCH  77  80
ENDBRANCH  76  77
ENDBRANCH  65  69
ENDBRANCH  60  63
ENDBRANCH  58  59
ENDBRANCH   1  58
TORSDOF 14
ENDMDL
MODEL 3
REMARK VINA RESULT:     -12.1      3.939      9.168
REMARK SMILES O=C(NCCCCNC(=O)[C@H]1CCCC[C@H]1C(=O)N1CCN(S(=O)(=O)c2ccc(F)cc2)CC1)c1ccc(-c2c3nc(c(-c4ccccc4)c4ccc([nH]4)c(-c4ccccc4)c4nc(c(-c5ccccc5)c5ccc2[nH]5)C=C4)C=C3)cc1
REMARK SMILES IDX 6 1 5 2 4 3 3 4 1 5 2 6 35 8 36 9 82 10 37 11 81 12 38 13
REMARK SMILES IDX 39 14 40 15 75 16 41 17 80 18 74 19 76 20 42 21 79 22 73 23
REMARK SMILES IDX 72 24 43 26 65 27 50 28 64 29 51 30 54 31 63 32 77 33 52 34
REMARK SMILES IDX 53 35 62 37 78 38 55 39 44 40 45 41 49 42 46 43 48 44 47 45
REMARK SMILES IDX 66 46 67 47 71 48 68 49 70 50 69 51 56 52 57 53 61 54 58 55
REMARK SMILES IDX 60 56 59 57 7 58 8 59 9 60 10 62 11 63 12 64 16 65 13 66
REMARK SMILES IDX 15 67 14 68 17 69 18 70 19 71 20 72 34 73 21 74 33 75 22 76
REMARK SMILES IDX 23 77 24 78 25 79 26 80 27 81 32 82 28 83 31 84 29 85 30 86
REMARK H PARENT 3 7 76 25 54 36 8 61
REMARK Flexibility Score: inf
ROOT
ATOM      1  C   UNL A   1      34.129  30.356  27.653  1.00  0.00     0.023 C 
ENDROOT
BRANCH   1   2
ATOM      2  C   UNL A   1      32.967  31.336  27.578  1.00  0.00     0.023 C 
BRANCH   2   3
ATOM      3  C   UNL A   1      33.349  32.728  27.098  1.00  0.00     0.116 C 
BRANCH   3   4
ATOM      4  N   UNL A   1      32.722  33.816  27.832  1.00  0.00    -0.352 N 
ATOM      5  O   UNL A   1      32.625  35.369  29.492  1.00  0.00    -0.269 OA
ATOM      6  C   UNL A   1      33.239  34.476  28.924  1.00  0.00     0.251 C 
ATOM      7  H   UNL A   1      31.839  34.112  27.514  1.00  0.00     0.163 HD
BRANCH   6   8
ATOM      8  C   UNL A   1      34.549  34.024  29.424  1.00  0.00     0.039 A 
ATOM      9  C   UNL A   1      35.708  34.355  28.717  1.00  0.00     0.014 A 
ATOM     10  C   UNL A   1      34.583  33.130  30.495  1.00  0.00     0.014 A 
ATOM     11  C   UNL A   1      36.886  33.678  28.998  1.00  0.00     0.010 A 
ATOM     12  C   UNL A   1      35.792  32.526  30.834  1.00  0.00     0.010 A 
ATOM     13  C   UNL A   1      36.946  32.773  30.073  1.00  0.00    -0.014 A 
BRANCH  13  14
ATOM     14  C   UNL A   1      38.244  32.165  30.453  1.00  0.00     0.031 A 
ATOM     15  C   UNL A   1      38.719  30.872  29.853  1.00  0.00     0.074 A 
ATOM     16  C   UNL A   1      38.985  32.793  31.388  1.00  0.00     0.049 A 
ATOM     17  N   UNL A   1      39.797  30.184  30.133  1.00  0.00    -0.248 NA
ATOM     18  C   UNL A   1      37.873  30.263  28.815  1.00  0.00     0.031 C 
ATOM     19  C   UNL A   1      38.622  34.052  32.045  1.00  0.00     0.029 A 
ATOM     20  N   UNL A   1      40.192  32.463  31.945  1.00  0.00    -0.354 N 
ATOM     21  C   UNL A   1      39.750  29.052  29.328  1.00  0.00     0.074 A 
ATOM     22  C   UNL A   1      38.523  29.135  28.562  1.00  0.00     0.031 C 
ATOM     23  C   UNL A   1      39.603  34.408  32.884  1.00  0.00     0.029 A 
ATOM     24  C   UNL A   1      40.619  33.366  32.887  1.00  0.00     0.049 A 
ATOM     25  H   UNL A   1      40.702  31.659  31.694  1.00  0.00     0.167 HD
ATOM     26  C   UNL A   1      40.647  28.040  29.239  1.00  0.00     0.031 A 
ATOM     27  C   UNL A   1      41.692  33.344  33.696  1.00  0.00     0.031 A 
ATOM     28  C   UNL A   1      41.859  27.963  30.017  1.00  0.00     0.049 A 
ATOM     29  C   UNL A   1      42.637  32.184  33.614  1.00  0.00     0.074 A 
ATOM     30  C   UNL A   1      42.850  26.996  29.975  1.00  0.00     0.029 A 
ATOM     31  N   UNL A   1      42.240  28.880  30.984  1.00  0.00    -0.354 N 
ATOM     32  N   UNL A   1      42.597  31.142  32.821  1.00  0.00    -0.248 NA
ATOM     33  C   UNL A   1      43.776  32.202  34.539  1.00  0.00     0.031 C 
ATOM     34  C   UNL A   1      43.795  27.294  30.962  1.00  0.00     0.029 A 
ATOM     35  C   UNL A   1      43.433  28.486  31.569  1.00  0.00     0.049 A 
ATOM     36  H   UNL A   1      41.737  29.693  31.222  1.00  0.00     0.167 HD
ATOM     37  C   UNL A   1      43.718  30.388  33.134  1.00  0.00     0.074 A 
ATOM     38  C   UNL A   1      44.429  31.107  34.174  1.00  0.00     0.031 C 
ATOM     39  C   UNL A   1      44.123  29.206  32.610  1.00  0.00     0.031 A 
BRANCH  26  40
ATOM     40  C   UNL A   1      40.337  26.909  28.293  1.00  0.00    -0.014 A 
ATOM     41  C   UNL A   1      39.545  25.818  28.686  1.00  0.00     0.009 A 
ATOM     42  C   UNL A   1      40.803  26.962  26.969  1.00  0.00     0.009 A 
ATOM     43  C   UNL A   1      39.257  24.790  27.785  1.00  0.00     0.001 A 
ATOM     44  C   UNL A   1      40.488  25.948  26.062  1.00  0.00     0.001 A 
ATOM     45  C   UNL A   1      39.724  24.857  26.472  1.00  0.00     0.000 A 
ENDBRANCH  26  40
BRANCH  27  46
ATOM     46  C   UNL A   1      41.906  34.449  34.664  1.00  0.00    -0.014 A 
ATOM     47  C   UNL A   1      42.653  35.579  34.302  1.00  0.00     0.009 A 
ATOM     48  C   UNL A   1      41.344  34.389  35.950  1.00  0.00     0.009 A 
ATOM     49  C   UNL A   1      42.853  36.615  35.216  1.00  0.00     0.001 A 
ATOM     50  C   UNL A   1      41.516  35.442  36.849  1.00  0.00     0.001 A 
ATOM     51  C   UNL A   1      42.281  36.548  36.485  1.00  0.00     0.000 A 
ENDBRANCH  27  46
BRANCH  39  52
ATOM     52  C   UNL A   1      45.414  28.638  33.130  1.00  0.00    -0.014 A 
ATOM     53  C   UNL A   1      46.648  28.979  32.556  1.00  0.00     0.009 A 
ATOM     54  C   UNL A   1      45.394  27.763  34.229  1.00  0.00     0.009 A 
ATOM     55  C   UNL A   1      47.832  28.421  33.044  1.00  0.00     0.001 A 
ATOM     56  C   UNL A   1      46.581  27.235  34.736  1.00  0.00     0.001 A 
ATOM     57  C   UNL A   1      47.798  27.555  34.136  1.00  0.00     0.000 A 
ENDBRANCH  39  52
ENDBRANCH  13  14
ENDBRANCH   6   8
ENDBRANCH   3   4
ENDBRANCH   2   3
ENDBRANCH   1   2
BRANCH   1  58
ATOM     58  C   UNL A   1      33.742  28.945  27.249  1.00  0.00     0.116 C 
BRANCH  58  59
ATOM     59  N   UNL A   1      34.068  28.656  25.874  1.00  0.00    -0.356 N 
ATOM     60  C   UNL A   1      33.294  28.676  24.764  1.00  0.00     0.223 C 
ATOM     61  H   UNL A   1      35.006  28.404  25.717  1.00  0.00     0.163 HD
ATOM     62  O   UNL A   1      33.893  28.682  23.681  1.00  0.00    -0.275 OA
BRANCH  60  63
ATOM     63  C   UNL A   1      31.770  28.616  24.767  1.00  0.00     0.091 C 
ATOM     64  C   UNL A   1      31.263  29.335  23.509  1.00  0.00     0.014 C 
ATOM     65  C   UNL A   1      30.989  27.329  25.056  1.00  0.00     0.091 C 
ATOM     66  C   UNL A   1      31.507  28.506  22.269  1.00  0.00     0.001 C 
ATOM     67  C   UNL A   1      30.431  26.639  23.750  1.00  0.00     0.014 C 
ATOM     68  C   UNL A   1      30.833  27.149  22.353  1.00  0.00     0.001 C 
BRANCH  65  69
ATOM     69  C   UNL A   1      31.463  26.221  26.054  1.00  0.00     0.226 C 
ATOM     70  O   UNL A   1      31.084  26.339  27.231  1.00  0.00    -0.275 OA
ATOM     71  N   UNL A   1      32.279  25.151  25.755  1.00  0.00    -0.340 N 
ATOM     72  C   UNL A   1      32.424  24.077  26.754  1.00  0.00     0.136 C 
ATOM     73  C   UNL A   1      33.212  24.967  24.648  1.00  0.00     0.136 C 
ATOM     74  C   UNL A   1      32.232  22.680  26.139  1.00  0.00     0.124 C 
ATOM     75  C   UNL A   1      32.973  23.616  23.953  1.00  0.00     0.124 C 
ATOM     76  N   UNL A   1      33.018  22.447  24.884  1.00  0.00    -0.194 NA
BRANCH  76  77
ATOM     77  S   UNL A   1      34.483  21.615  25.077  1.00  0.00     0.243 S 
ATOM     78  O   UNL A   1      35.409  22.132  24.088  1.00  0.00    -0.207 OA
ATOM     79  O   UNL A   1      34.805  21.627  26.484  1.00  0.00    -0.207 OA
BRANCH  77  80
ATOM     80  C   UNL A   1      34.090  19.927  24.636  1.00  0.00     0.082 A 
ATOM     81  C   UNL A   1      32.803  19.613  24.181  1.00  0.00     0.025 A 
ATOM     82  C   UNL A   1      35.083  18.938  24.674  1.00  0.00     0.025 A 
ATOM     83  C   UNL A   1      32.479  18.294  23.861  1.00  0.00     0.040 A 
ATOM     84  C   UNL A   1      34.763  17.627  24.308  1.00  0.00     0.040 A 
ATOM     85  C   UNL A   1      33.462  17.313  23.925  1.00  0.00     0.123 A 
ATOM     86  F   UNL A   1      33.152  16.052  23.601  1.00  0.00    -0.207 F 
ENDBRANCH  77  80
ENDBRANCH  76  77
ENDBRANCH  65  69
ENDBRANCH  60  63
ENDBRANCH  58  59
ENDBRANCH   1  58
TORSDOF 14
ENDMDL
