MODEL 1
REMARK VINA RESULT:     -10.7      0.000      0.000
REMARK SMILES O=C(NCCCCNC(=O)c1cccc2cccc([S@](=O)c3ccccc3CO)c12)c1ccc(-c2c3nc(c(-c4ccccc4)c4ccc([nH]4)c(-c4ccccc4)c4nc(c(-c5ccccc5)c5ccc2[nH]5)C=C4)C=C3)cc1
REMARK SMILES IDX 6 1 5 2 4 3 3 4 1 5 2 6 31 8 32 9 78 10 33 11 77 12 34 13
REMARK SMILES IDX 35 14 36 15 71 16 37 17 76 18 70 19 72 20 38 21 75 22 69 23
REMARK SMILES IDX 68 24 39 26 61 27 46 28 60 29 47 30 50 31 59 32 73 33 48 34
REMARK SMILES IDX 49 35 58 37 74 38 51 39 40 40 41 41 45 42 42 43 44 44 43 45
REMARK SMILES IDX 62 46 63 47 67 48 64 49 66 50 65 51 52 52 53 53 57 54 54 55
REMARK SMILES IDX 56 56 55 57 7 58 8 59 9 60 10 62 11 63 12 64 30 65 13 66
REMARK SMILES IDX 15 67 19 68 14 69 16 70 18 71 17 72 20 73 21 74 22 75 23 76
REMARK SMILES IDX 27 77 24 78 26 79 25 80 28 81 29 82
REMARK H PARENT 3 7 72 25 50 36 8 61 29 83
REMARK Flexibility Score: inf
ROOT
ATOM      1  C   UNL A   1      34.054  24.195  25.688  1.00  0.00     0.023 C 
ENDROOT
BRANCH   1   2
ATOM      2  C   UNL A   1      35.362  23.709  26.303  1.00  0.00     0.023 C 
BRANCH   2   3
ATOM      3  C   UNL A   1      36.629  24.048  25.529  1.00  0.00     0.116 C 
BRANCH   3   4
ATOM      4  N   UNL A   1      37.637  22.998  25.555  1.00  0.00    -0.352 N 
ATOM      5  O   UNL A   1      39.663  22.064  25.918  1.00  0.00    -0.269 OA
ATOM      6  C   UNL A   1      38.921  23.027  26.061  1.00  0.00     0.251 C 
ATOM      7  H   UNL A   1      37.364  22.143  25.150  1.00  0.00     0.163 HD
BRANCH   6   8
ATOM      8  C   UNL A   1      39.416  24.243  26.748  1.00  0.00     0.039 A 
ATOM      9  C   UNL A   1      39.162  24.450  28.103  1.00  0.00     0.014 A 
ATOM     10  C   UNL A   1      40.128  25.201  26.018  1.00  0.00     0.014 A 
ATOM     11  C   UNL A   1      39.446  25.684  28.675  1.00  0.00     0.010 A 
ATOM     12  C   UNL A   1      40.508  26.404  26.626  1.00  0.00     0.010 A 
ATOM     13  C   UNL A   1      40.130  26.674  27.949  1.00  0.00    -0.014 A 
BRANCH  13  14
ATOM     14  C   UNL A   1      40.471  27.948  28.635  1.00  0.00     0.031 A 
ATOM     15  C   UNL A   1      39.464  29.055  28.797  1.00  0.00     0.074 A 
ATOM     16  C   UNL A   1      41.691  28.064  29.196  1.00  0.00     0.049 A 
ATOM     17  N   UNL A   1      39.578  30.176  29.469  1.00  0.00    -0.248 NA
ATOM     18  C   UNL A   1      38.168  28.895  28.119  1.00  0.00     0.031 C 
ATOM     19  C   UNL A   1      42.762  27.068  29.094  1.00  0.00     0.029 A 
ATOM     20  N   UNL A   1      42.223  29.041  29.999  1.00  0.00    -0.354 N 
ATOM     21  C   UNL A   1      38.380  30.856  29.285  1.00  0.00     0.074 A 
ATOM     22  C   UNL A   1      37.561  30.036  28.417  1.00  0.00     0.031 C 
ATOM     23  C   UNL A   1      43.788  27.446  29.869  1.00  0.00     0.029 A 
ATOM     24  C   UNL A   1      43.475  28.735  30.471  1.00  0.00     0.049 A 
ATOM     25  H   UNL A   1      41.752  29.878  30.215  1.00  0.00     0.167 HD
ATOM     26  C   UNL A   1      37.995  32.050  29.798  1.00  0.00     0.031 A 
ATOM     27  C   UNL A   1      44.289  29.413  31.300  1.00  0.00     0.031 A 
ATOM     28  C   UNL A   1      38.808  32.866  30.664  1.00  0.00     0.049 A 
ATOM     29  C   UNL A   1      43.834  30.728  31.857  1.00  0.00     0.074 A 
ATOM     30  C   UNL A   1      38.499  34.089  31.238  1.00  0.00     0.029 A 
ATOM     31  N   UNL A   1      40.087  32.539  31.088  1.00  0.00    -0.354 N 
ATOM     32  N   UNL A   1      42.692  31.345  31.682  1.00  0.00    -0.248 NA
ATOM     33  C   UNL A   1      44.781  31.437  32.726  1.00  0.00     0.031 C 
ATOM     34  C   UNL A   1      39.607  34.519  31.977  1.00  0.00     0.029 A 
ATOM     35  C   UNL A   1      40.587  33.543  31.902  1.00  0.00     0.049 A 
ATOM     36  H   UNL A   1      40.568  31.716  30.845  1.00  0.00     0.167 HD
ATOM     37  C   UNL A   1      42.783  32.518  32.416  1.00  0.00     0.074 A 
ATOM     38  C   UNL A   1      44.075  32.506  33.071  1.00  0.00     0.031 C 
ATOM     39  C   UNL A   1      41.880  33.523  32.529  1.00  0.00     0.031 A 
BRANCH  26  40
ATOM     40  C   UNL A   1      36.632  32.562  29.426  1.00  0.00    -0.014 A 
ATOM     41  C   UNL A   1      36.428  33.288  28.242  1.00  0.00     0.009 A 
ATOM     42  C   UNL A   1      35.525  32.258  30.234  1.00  0.00     0.009 A 
ATOM     43  C   UNL A   1      35.147  33.718  27.887  1.00  0.00     0.001 A 
ATOM     44  C   UNL A   1      34.242  32.669  29.866  1.00  0.00     0.001 A 
ATOM     45  C   UNL A   1      34.055  33.404  28.696  1.00  0.00     0.000 A 
ENDBRANCH  26  40
BRANCH  27  46
ATOM     46  C   UNL A   1      45.626  28.860  31.636  1.00  0.00    -0.014 A 
ATOM     47  C   UNL A   1      45.799  28.026  32.750  1.00  0.00     0.009 A 
ATOM     48  C   UNL A   1      46.736  29.159  30.830  1.00  0.00     0.009 A 
ATOM     49  C   UNL A   1      47.063  27.519  33.061  1.00  0.00     0.001 A 
ATOM     50  C   UNL A   1      47.990  28.625  31.125  1.00  0.00     0.001 A 
ATOM     51  C   UNL A   1      48.155  27.814  32.245  1.00  0.00     0.000 A 
ENDBRANCH  27  46
BRANCH  39  52
ATOM     52  C   UNL A   1      42.275  34.685  33.394  1.00  0.00    -0.014 A 
ATOM     53  C   UNL A   1      41.903  34.737  34.746  1.00  0.00     0.009 A 
ATOM     54  C   UNL A   1      43.025  35.739  32.850  1.00  0.00     0.009 A 
ATOM     55  C   UNL A   1      42.241  35.844  35.528  1.00  0.00     0.001 A 
ATOM     56  C   UNL A   1      43.382  36.832  33.641  1.00  0.00     0.001 A 
ATOM     57  C   UNL A   1      42.980  36.889  34.975  1.00  0.00     0.000 A 
ENDBRANCH  39  52
ENDBRANCH  13  14
ENDBRANCH   6   8
ENDBRANCH   3   4
ENDBRANCH   2   3
ENDBRANCH   1   2
BRANCH   1  58
ATOM     58  C   UNL A   1      33.830  25.704  25.702  1.00  0.00     0.116 C 
BRANCH  58  59
ATOM     59  N   UNL A   1      34.093  26.359  24.429  1.00  0.00    -0.352 N 
ATOM     60  C   UNL A   1      34.000  27.698  24.110  1.00  0.00     0.251 C 
ATOM     61  H   UNL A   1      34.377  25.766  23.697  1.00  0.00     0.163 HD
ATOM     62  O   UNL A   1      34.368  28.126  23.021  1.00  0.00    -0.269 OA
BRANCH  60  63
ATOM     63  C   UNL A   1      33.570  28.644  25.152  1.00  0.00     0.048 A 
ATOM     64  C   UNL A   1      34.446  28.653  26.263  1.00  0.00     0.014 A 
ATOM     65  C   UNL A   1      32.417  29.506  25.054  1.00  0.00     0.011 A 
ATOM     66  C   UNL A   1      34.189  29.452  27.356  1.00  0.00     0.001 A 
ATOM     67  C   UNL A   1      32.236  30.347  26.202  1.00  0.00    -0.016 A 
ATOM     68  C   UNL A   1      31.420  29.659  24.009  1.00  0.00     0.052 A 
ATOM     69  C   UNL A   1      33.089  30.291  27.319  1.00  0.00     0.009 A 
ATOM     70  C   UNL A   1      31.190  31.276  26.284  1.00  0.00     0.009 A 
ATOM     71  C   UNL A   1      30.374  30.607  24.151  1.00  0.00     0.019 A 
ATOM     72  C   UNL A   1      30.270  31.420  25.264  1.00  0.00     0.002 A 
BRANCH  68  73
ATOM     73  S   UNL A   1      31.195  28.681  22.496  1.00  0.00     0.086 S 
ATOM     74  O   UNL A   1      30.055  29.228  21.707  1.00  0.00    -0.249 OA
BRANCH  73  75
ATOM     75  C   UNL A   1      30.789  27.027  23.163  1.00  0.00     0.049 A 
ATOM     76  C   UNL A   1      30.152  26.899  24.416  1.00  0.00     0.018 A 
ATOM     77  C   UNL A   1      31.300  25.846  22.570  1.00  0.00    -0.006 A 
ATOM     78  C   UNL A   1      30.052  25.672  25.081  1.00  0.00     0.001 A 
ATOM     79  C   UNL A   1      31.206  24.618  23.269  1.00  0.00     0.007 A 
ATOM     80  C   UNL A   1      30.597  24.531  24.515  1.00  0.00     0.000 A 
BRANCH  77  81
ATOM     81  C   UNL A   1      32.004  25.782  21.236  1.00  0.00     0.192 C 
BRANCH  81  82
ATOM     82  O   UNL A   1      33.411  25.677  21.430  1.00  0.00    -0.392 OA
ATOM     83  H   UNL A   1      33.857  26.393  20.952  1.00  0.00     0.211 HD
ENDBRANCH  81  82
ENDBRANCH  77  81
ENDBRANCH  73  75
ENDBRANCH  68  73
ENDBRANCH  60  63
ENDBRANCH  58  59
ENDBRANCH   1  58
TORSDOF 15
ENDMDL
MODEL 2
REMARK VINA RESULT:     -10.6      0.814      5.861
REMARK SMILES O=C(NCCCCNC(=O)c1cccc2cccc([S@](=O)c3ccccc3CO)c12)c1ccc(-c2c3nc(c(-c4ccccc4)c4ccc([nH]4)c(-c4ccccc4)c4nc(c(-c5ccccc5)c5ccc2[nH]5)C=C4)C=C3)cc1
REMARK SMILES IDX 6 1 5 2 4 3 3 4 1 5 2 6 31 8 32 9 78 10 33 11 77 12 34 13
REMARK SMILES IDX 35 14 36 15 71 16 37 17 76 18 70 19 72 20 38 21 75 22 69 23
REMARK SMILES IDX 68 24 39 26 61 27 46 28 60 29 47 30 50 31 59 32 73 33 48 34
REMARK SMILES IDX 49 35 58 37 74 38 51 39 40 40 41 41 45 42 42 43 44 44 43 45
REMARK SMILES IDX 62 46 63 47 67 48 64 49 66 50 65 51 52 52 53 53 57 54 54 55
REMARK SMILES IDX 56 56 55 57 7 58 8 59 9 60 10 62 11 63 12 64 30 65 13 66
REMARK SMILES IDX 15 67 19 68 14 69 16 70 18 71 17 72 20 73 21 74 22 75 23 76
REMARK SMILES IDX 27 77 24 78 26 79 25 80 28 81 29 82
REMARK H PARENT 3 7 72 25 50 36 8 61 29 83
REMARK Flexibility Score: inf
ROOT
ATOM      1  C   UNL A   1      33.869  24.284  25.657  1.00  0.00     0.023 C 
ENDROOT
BRANCH   1   2
ATOM      2  C   UNL A   1      35.101  23.742  24.939  1.00  0.00     0.023 C 
BRANCH   2   3
ATOM      3  C   UNL A   1      36.443  24.067  25.580  1.00  0.00     0.116 C 
BRANCH   3   4
ATOM      4  N   UNL A   1      37.391  22.962  25.563  1.00  0.00    -0.352 N 
ATOM      5  O   UNL A   1      39.367  21.908  25.865  1.00  0.00    -0.269 OA
ATOM      6  C   UNL A   1      38.684  22.908  26.042  1.00  0.00     0.251 C 
ATOM      7  H   UNL A   1      37.061  22.132  25.148  1.00  0.00     0.163 HD
BRANCH   6   8
ATOM      8  C   UNL A   1      39.262  24.080  26.741  1.00  0.00     0.039 A 
ATOM      9  C   UNL A   1      39.056  24.268  28.107  1.00  0.00     0.014 A 
ATOM     10  C   UNL A   1      40.003  25.017  26.012  1.00  0.00     0.014 A 
ATOM     11  C   UNL A   1      39.421  25.471  28.698  1.00  0.00     0.010 A 
ATOM     12  C   UNL A   1      40.462  26.184  26.636  1.00  0.00     0.010 A 
ATOM     13  C   UNL A   1      40.136  26.442  27.975  1.00  0.00    -0.014 A 
BRANCH  13  14
ATOM     14  C   UNL A   1      40.562  27.680  28.679  1.00  0.00     0.031 A 
ATOM     15  C   UNL A   1      41.993  27.909  29.083  1.00  0.00     0.074 A 
ATOM     16  C   UNL A   1      39.645  28.648  28.877  1.00  0.00     0.049 A 
ATOM     17  N   UNL A   1      42.536  28.985  29.602  1.00  0.00    -0.248 NA
ATOM     18  C   UNL A   1      42.937  26.797  28.892  1.00  0.00     0.031 C 
ATOM     19  C   UNL A   1      38.221  28.539  28.546  1.00  0.00     0.029 A 
ATOM     20  N   UNL A   1      39.776  29.926  29.357  1.00  0.00    -0.354 N 
ATOM     21  C   UNL A   1      43.875  28.676  29.809  1.00  0.00     0.074 A 
ATOM     22  C   UNL A   1      44.059  27.304  29.385  1.00  0.00     0.031 C 
ATOM     23  C   UNL A   1      37.629  29.723  28.756  1.00  0.00     0.029 A 
ATOM     24  C   UNL A   1      38.613  30.654  29.294  1.00  0.00     0.049 A 
ATOM     25  H   UNL A   1      40.621  30.286  29.711  1.00  0.00     0.167 HD
ATOM     26  C   UNL A   1      44.862  29.465  30.298  1.00  0.00     0.031 A 
ATOM     27  C   UNL A   1      38.359  31.931  29.630  1.00  0.00     0.031 A 
ATOM     28  C   UNL A   1      44.682  30.832  30.718  1.00  0.00     0.049 A 
ATOM     29  C   UNL A   1      39.472  32.781  30.163  1.00  0.00     0.074 A 
ATOM     30  C   UNL A   1      45.625  31.712  31.224  1.00  0.00     0.029 A 
ATOM     31  N   UNL A   1      43.479  31.520  30.676  1.00  0.00    -0.354 N 
ATOM     32  N   UNL A   1      40.733  32.473  30.336  1.00  0.00    -0.248 NA
ATOM     33  C   UNL A   1      39.123  34.155  30.546  1.00  0.00     0.031 C 
ATOM     34  C   UNL A   1      44.984  32.919  31.522  1.00  0.00     0.029 A 
ATOM     35  C   UNL A   1      43.652  32.807  31.159  1.00  0.00     0.049 A 
ATOM     36  H   UNL A   1      42.628  31.148  30.350  1.00  0.00     0.167 HD
ATOM     37  C   UNL A   1      41.330  33.614  30.852  1.00  0.00     0.074 A 
ATOM     38  C   UNL A   1      40.302  34.632  30.924  1.00  0.00     0.031 C 
ATOM     39  C   UNL A   1      42.615  33.799  31.242  1.00  0.00     0.031 A 
BRANCH  26  40
ATOM     40  C   UNL A   1      46.236  28.867  30.425  1.00  0.00    -0.014 A 
ATOM     41  C   UNL A   1      46.615  28.156  31.574  1.00  0.00     0.009 A 
ATOM     42  C   UNL A   1      47.139  28.957  29.354  1.00  0.00     0.009 A 
ATOM     43  C   UNL A   1      47.879  27.568  31.658  1.00  0.00     0.001 A 
ATOM     44  C   UNL A   1      48.394  28.349  29.430  1.00  0.00     0.001 A 
ATOM     45  C   UNL A   1      48.765  27.659  30.584  1.00  0.00     0.000 A 
ENDBRANCH  26  40
BRANCH  27  46
ATOM     46  C   UNL A   1      36.984  32.471  29.483  1.00  0.00    -0.014 A 
ATOM     47  C   UNL A   1      36.077  32.432  30.552  1.00  0.00     0.009 A 
ATOM     48  C   UNL A   1      36.577  33.043  28.267  1.00  0.00     0.009 A 
ATOM     49  C   UNL A   1      34.784  32.937  30.400  1.00  0.00     0.001 A 
ATOM     50  C   UNL A   1      35.295  33.575  28.127  1.00  0.00     0.001 A 
ATOM     51  C   UNL A   1      34.396  33.513  29.190  1.00  0.00     0.000 A 
ENDBRANCH  27  46
BRANCH  39  52
ATOM     52  C   UNL A   1      42.963  35.156  31.781  1.00  0.00    -0.014 A 
ATOM     53  C   UNL A   1      43.564  36.125  30.962  1.00  0.00     0.009 A 
ATOM     54  C   UNL A   1      42.689  35.467  33.121  1.00  0.00     0.009 A 
ATOM     55  C   UNL A   1      43.921  37.368  31.489  1.00  0.00     0.001 A 
ATOM     56  C   UNL A   1      43.026  36.720  33.637  1.00  0.00     0.001 A 
ATOM     57  C   UNL A   1      43.651  37.665  32.824  1.00  0.00     0.000 A 
ENDBRANCH  39  52
ENDBRANCH  13  14
ENDBRANCH   6   8
ENDBRANCH   3   4
ENDBRANCH   2   3
ENDBRANCH   1   2
BRANCH   1  58
ATOM     58  C   UNL A   1      33.739  25.804  25.704  1.00  0.00     0.116 C 
BRANCH  58  59
ATOM     59  N   UNL A   1      34.069  26.470  24.453  1.00  0.00    -0.352 N 
ATOM     60  C   UNL A   1      34.030  27.816  24.153  1.00  0.00     0.251 C 
ATOM     61  H   UNL A   1      34.359  25.880  23.720  1.00  0.00     0.163 HD
ATOM     62  O   UNL A   1      34.451  28.250  23.085  1.00  0.00    -0.269 OA
BRANCH  60  63
ATOM     63  C   UNL A   1      33.594  28.759  25.196  1.00  0.00     0.048 A 
ATOM     64  C   UNL A   1      34.478  28.787  26.299  1.00  0.00     0.014 A 
ATOM     65  C   UNL A   1      32.426  29.602  25.104  1.00  0.00     0.011 A 
ATOM     66  C   UNL A   1      34.218  29.585  27.392  1.00  0.00     0.001 A 
ATOM     67  C   UNL A   1      32.241  30.444  26.251  1.00  0.00    -0.016 A 
ATOM     68  C   UNL A   1      31.417  29.735  24.067  1.00  0.00     0.052 A 
ATOM     69  C   UNL A   1      33.104  30.406  27.361  1.00  0.00     0.009 A 
ATOM     70  C   UNL A   1      31.181  31.356  26.339  1.00  0.00     0.009 A 
ATOM     71  C   UNL A   1      30.358  30.666  24.215  1.00  0.00     0.019 A 
ATOM     72  C   UNL A   1      30.250  31.481  25.326  1.00  0.00     0.002 A 
BRANCH  68  73
ATOM     73  S   UNL A   1      31.196  28.748  22.560  1.00  0.00     0.086 S 
ATOM     74  O   UNL A   1      30.079  29.310  21.749  1.00  0.00    -0.249 OA
BRANCH  73  75
ATOM     75  C   UNL A   1      30.747  27.108  23.235  1.00  0.00     0.049 A 
ATOM     76  C   UNL A   1      30.112  27.003  24.491  1.00  0.00     0.018 A 
ATOM     77  C   UNL A   1      31.222  25.911  22.644  1.00  0.00    -0.006 A 
ATOM     78  C   UNL A   1      29.982  25.781  25.162  1.00  0.00     0.001 A 
ATOM     79  C   UNL A   1      31.097  24.689  23.348  1.00  0.00     0.007 A 
ATOM     80  C   UNL A   1      30.492  24.624  24.598  1.00  0.00     0.000 A 
BRANCH  77  81
ATOM     81  C   UNL A   1      31.917  25.823  21.307  1.00  0.00     0.192 C 
BRANCH  81  82
ATOM     82  O   UNL A   1      33.329  25.898  21.484  1.00  0.00    -0.392 OA
ATOM     83  H   UNL A   1      33.772  25.610  20.672  1.00  0.00     0.211 HD
ENDBRANCH  81  82
ENDBRANCH  77  81
ENDBRANCH  73  75
ENDBRANCH  68  73
ENDBRANCH  60  63
ENDBRANCH  58  59
ENDBRANCH   1  58
TORSDOF 15
ENDMDL
MODEL 3
REMARK VINA RESULT:     -10.4      3.367      8.064
REMARK SMILES O=C(NCCCCNC(=O)c1cccc2cccc([S@](=O)c3ccccc3CO)c12)c1ccc(-c2c3nc(c(-c4ccccc4)c4ccc([nH]4)c(-c4ccccc4)c4nc(c(-c5ccccc5)c5ccc2[nH]5)C=C4)C=C3)cc1
REMARK SMILES IDX 6 1 5 2 4 3 3 4 1 5 2 6 31 8 32 9 78 10 33 11 77 12 34 13
REMARK SMILES IDX 35 14 36 15 71 16 37 17 76 18 70 19 72 20 38 21 75 22 69 23
REMARK SMILES IDX 68 24 39 26 61 27 46 28 60 29 47 30 50 31 59 32 73 33 48 34
REMARK SMILES IDX 49 35 58 37 74 38 51 39 40 40 41 41 45 42 42 43 44 44 43 45
REMARK SMILES IDX 62 46 63 47 67 48 64 49 66 50 65 51 52 52 53 53 57 54 54 55
REMARK SMILES IDX 56 56 55 57 7 58 8 59 9 60 10 62 11 63 12 64 30 65 13 66
REMARK SMILES IDX 15 67 19 68 14 69 16 70 18 71 17 72 20 73 21 74 22 75 23 76
REMARK SMILES IDX 27 77 24 78 26 79 25 80 28 81 29 82
REMARK H PARENT 3 7 72 25 50 36 8 61 29 83
REMARK Flexibility Score: inf
ROOT
ATOM      1  C   UNL A   1      31.999  28.952  27.389  1.00  0.00     0.023 C 
ENDROOT
BRANCH   1   2
ATOM      2  C   UNL A   1      32.771  30.089  26.727  1.00  0.00     0.023 C 
BRANCH   2   3
ATOM      3  C   UNL A   1      34.157  30.371  27.291  1.00  0.00     0.116 C 
BRANCH   3   4
ATOM      4  N   UNL A   1      34.150  31.176  28.504  1.00  0.00    -0.352 N 
ATOM      5  O   UNL A   1      34.900  31.963  30.485  1.00  0.00    -0.269 OA
ATOM      6  C   UNL A   1      35.115  31.295  29.483  1.00  0.00     0.251 C 
ATOM      7  H   UNL A   1      33.337  31.712  28.648  1.00  0.00     0.163 HD
BRANCH   6   8
ATOM      8  C   UNL A   1      36.405  30.579  29.338  1.00  0.00     0.039 A 
ATOM      9  C   UNL A   1      36.984  29.926  30.425  1.00  0.00     0.014 A 
ATOM     10  C   UNL A   1      37.056  30.581  28.099  1.00  0.00     0.014 A 
ATOM     11  C   UNL A   1      38.284  29.446  30.327  1.00  0.00     0.010 A 
ATOM     12  C   UNL A   1      38.325  30.003  27.975  1.00  0.00     0.010 A 
ATOM     13  C   UNL A   1      38.970  29.469  29.100  1.00  0.00    -0.014 A 
BRANCH  13  14
ATOM     14  C   UNL A   1      40.332  28.878  29.038  1.00  0.00     0.031 A 
ATOM     15  C   UNL A   1      40.557  27.448  28.625  1.00  0.00     0.074 A 
ATOM     16  C   UNL A   1      41.387  29.681  29.279  1.00  0.00     0.049 A 
ATOM     17  N   UNL A   1      41.692  26.824  28.415  1.00  0.00    -0.248 NA
ATOM     18  C   UNL A   1      39.368  26.606  28.427  1.00  0.00     0.031 C 
ATOM     19  C   UNL A   1      41.300  31.081  29.705  1.00  0.00     0.029 A 
ATOM     20  N   UNL A   1      42.735  29.457  29.156  1.00  0.00    -0.354 N 
ATOM     21  C   UNL A   1      41.354  25.520  28.074  1.00  0.00     0.074 A 
ATOM     22  C   UNL A   1      39.911  25.433  28.130  1.00  0.00     0.031 C 
ATOM     23  C   UNL A   1      42.530  31.611  29.730  1.00  0.00     0.029 A 
ATOM     24  C   UNL A   1      43.497  30.576  29.384  1.00  0.00     0.049 A 
ATOM     25  H   UNL A   1      43.118  28.579  28.926  1.00  0.00     0.167 HD
ATOM     26  C   UNL A   1      42.172  24.493  27.737  1.00  0.00     0.031 A 
ATOM     27  C   UNL A   1      44.827  30.758  29.323  1.00  0.00     0.031 A 
ATOM     28  C   UNL A   1      43.609  24.579  27.678  1.00  0.00     0.049 A 
ATOM     29  C   UNL A   1      45.706  29.605  28.941  1.00  0.00     0.074 A 
ATOM     30  C   UNL A   1      44.520  23.591  27.342  1.00  0.00     0.029 A 
ATOM     31  N   UNL A   1      44.345  25.721  27.955  1.00  0.00    -0.354 N 
ATOM     32  N   UNL A   1      45.365  28.385  28.609  1.00  0.00    -0.248 NA
ATOM     33  C   UNL A   1      47.152  29.857  28.927  1.00  0.00     0.031 C 
ATOM     34  C   UNL A   1      45.808  24.125  27.453  1.00  0.00     0.029 A 
ATOM     35  C   UNL A   1      45.698  25.458  27.813  1.00  0.00     0.049 A 
ATOM     36  H   UNL A   1      43.961  26.589  28.215  1.00  0.00     0.167 HD
ATOM     37  C   UNL A   1      46.554  27.720  28.349  1.00  0.00     0.074 A 
ATOM     38  C   UNL A   1      47.621  28.684  28.522  1.00  0.00     0.031 C 
ATOM     39  C   UNL A   1      46.746  26.423  28.008  1.00  0.00     0.031 A 
BRANCH  26  40
ATOM     40  C   UNL A   1      41.533  23.170  27.418  1.00  0.00    -0.014 A 
ATOM     41  C   UNL A   1      40.838  22.972  26.214  1.00  0.00     0.009 A 
ATOM     42  C   UNL A   1      41.686  22.088  28.299  1.00  0.00     0.009 A 
ATOM     43  C   UNL A   1      40.289  21.723  25.912  1.00  0.00     0.001 A 
ATOM     44  C   UNL A   1      41.156  20.835  27.985  1.00  0.00     0.001 A 
ATOM     45  C   UNL A   1      40.454  20.655  26.794  1.00  0.00     0.000 A 
ENDBRANCH  26  40
BRANCH  27  46
ATOM     46  C   UNL A   1      45.405  32.087  29.647  1.00  0.00    -0.014 A 
ATOM     47  C   UNL A   1      45.614  33.045  28.644  1.00  0.00     0.009 A 
ATOM     48  C   UNL A   1      45.740  32.406  30.972  1.00  0.00     0.009 A 
ATOM     49  C   UNL A   1      46.166  34.288  28.960  1.00  0.00     0.001 A 
ATOM     50  C   UNL A   1      46.263  33.660  31.290  1.00  0.00     0.001 A 
ATOM     51  C   UNL A   1      46.484  34.597  30.282  1.00  0.00     0.000 A 
ENDBRANCH  27  46
BRANCH  39  52
ATOM     52  C   UNL A   1      48.168  25.986  27.805  1.00  0.00    -0.014 A 
ATOM     53  C   UNL A   1      48.906  25.422  28.857  1.00  0.00     0.009 A 
ATOM     54  C   UNL A   1      48.774  26.141  26.549  1.00  0.00     0.009 A 
ATOM     55  C   UNL A   1      50.241  25.060  28.665  1.00  0.00     0.001 A 
ATOM     56  C   UNL A   1      50.102  25.755  26.356  1.00  0.00     0.001 A 
ATOM     57  C   UNL A   1      50.837  25.225  27.416  1.00  0.00     0.000 A 
ENDBRANCH  39  52
ENDBRANCH  13  14
ENDBRANCH   6   8
ENDBRANCH   3   4
ENDBRANCH   2   3
ENDBRANCH   1   2
BRANCH   1  58
ATOM     58  C   UNL A   1      32.260  27.556  26.832  1.00  0.00     0.116 C 
BRANCH  58  59
ATOM     59  N   UNL A   1      31.162  26.620  27.026  1.00  0.00    -0.352 N 
ATOM     60  C   UNL A   1      30.462  25.899  26.081  1.00  0.00     0.251 C 
ATOM     61  H   UNL A   1      30.881  26.482  27.960  1.00  0.00     0.163 HD
ATOM     62  O   UNL A   1      29.633  25.054  26.401  1.00  0.00    -0.269 OA
BRANCH  60  63
ATOM     63  C   UNL A   1      30.818  26.063  24.662  1.00  0.00     0.048 A 
ATOM     64  C   UNL A   1      30.147  27.155  24.063  1.00  0.00     0.014 A 
ATOM     65  C   UNL A   1      31.774  25.245  23.956  1.00  0.00     0.011 A 
ATOM     66  C   UNL A   1      30.326  27.445  22.728  1.00  0.00     0.001 A 
ATOM     67  C   UNL A   1      31.951  25.632  22.586  1.00  0.00    -0.016 A 
ATOM     68  C   UNL A   1      32.569  24.109  24.387  1.00  0.00     0.052 A 
ATOM     69  C   UNL A   1      31.225  26.684  22.000  1.00  0.00     0.009 A 
ATOM     70  C   UNL A   1      32.859  24.979  21.741  1.00  0.00     0.009 A 
ATOM     71  C   UNL A   1      33.464  23.477  23.485  1.00  0.00     0.019 A 
ATOM     72  C   UNL A   1      33.623  23.917  22.185  1.00  0.00     0.002 A 
BRANCH  68  73
ATOM     73  S   UNL A   1      32.514  23.214  25.966  1.00  0.00     0.086 S 
ATOM     74  O   UNL A   1      32.750  24.162  27.091  1.00  0.00    -0.249 OA
BRANCH  73  75
ATOM     75  C   UNL A   1      33.912  22.046  25.796  1.00  0.00     0.049 A 
ATOM     76  C   UNL A   1      35.236  22.479  26.026  1.00  0.00     0.018 A 
ATOM     77  C   UNL A   1      33.738  20.766  25.215  1.00  0.00    -0.006 A 
ATOM     78  C   UNL A   1      36.347  21.708  25.664  1.00  0.00     0.001 A 
ATOM     79  C   UNL A   1      34.876  20.010  24.839  1.00  0.00     0.007 A 
ATOM     80  C   UNL A   1      36.167  20.478  25.053  1.00  0.00     0.000 A 
BRANCH  77  81
ATOM     81  C   UNL A   1      32.405  20.131  24.903  1.00  0.00     0.192 C 
BRANCH  81  82
ATOM     82  O   UNL A   1      32.201  18.989  25.730  1.00  0.00    -0.392 OA
ATOM     83  H   UNL A   1      32.302  18.184  25.201  1.00  0.00     0.211 HD
ENDBRANCH  81  82
ENDBRANCH  77  81
ENDBRANCH  73  75
ENDBRANCH  68  73
ENDBRANCH  60  63
ENDBRANCH  58  59
ENDBRANCH   1  58
TORSDOF 15
ENDMDL
