MODEL 1
REMARK VINA RESULT:     -12.2      0.000      0.000
REMARK SMILES Cc1ccc(C(=O)NCCCCNC(=O)c2ccc(-c3c4nc(c(-c5ccccc5)c5ccc([nH]5)c(-c5ccccc5)c5nc(c(-c6ccccc6)c6ccc3[nH]6)C=C5)C=C4)cc2)c(Oc2cccc(F)c2C(N)=O)c1
REMARK SMILES IDX 10 1 9 2 8 3 6 4 7 5 5 7 1 8 2 9 3 10 76 11 4 12 64 13 65 14
REMARK SMILES IDX 66 15 67 16 72 17 68 18 70 19 69 20 71 21 73 22 74 23 75 24
REMARK SMILES IDX 11 27 12 28 13 29 14 30 15 32 16 33 17 34 63 35 18 36 62 37
REMARK SMILES IDX 19 38 20 39 21 40 56 41 22 42 61 43 55 44 57 45 23 46 60 47
REMARK SMILES IDX 54 48 53 49 24 51 46 52 31 53 45 54 32 55 35 56 44 57 58 58
REMARK SMILES IDX 33 59 34 60 43 62 59 63 36 64 25 65 26 66 30 67 27 68 29 69
REMARK SMILES IDX 28 70 47 71 48 72 52 73 49 74 51 75 50 76 37 77 38 78 42 79
REMARK SMILES IDX 39 80 41 81 40 82
REMARK H PARENT 8 6 74 25 74 26 13 31 57 50 35 61
REMARK Flexibility Score: inf
ROOT
ATOM      1  C   UNL A   1      31.761  28.830  26.497  1.00  0.00     0.023 C 
ENDROOT
BRANCH   1   2
ATOM      2  C   UNL A   1      32.571  27.534  26.532  1.00  0.00     0.116 C 
BRANCH   2   3
ATOM      3  N   UNL A   1      31.822  26.322  26.781  1.00  0.00    -0.352 N 
ATOM      4  C   UNL A   1      32.034  24.990  26.492  1.00  0.00     0.255 C 
ATOM      5  O   UNL A   1      31.228  24.203  27.001  1.00  0.00    -0.269 OA
ATOM      6  H   UNL A   1      30.976  26.483  27.259  1.00  0.00     0.163 HD
BRANCH   4   7
ATOM      7  C   UNL A   1      33.064  24.421  25.562  1.00  0.00     0.082 A 
ATOM      8  C   UNL A   1      36.403  22.848  23.267  1.00  0.00     0.044 C 
ATOM      9  C   UNL A   1      35.266  23.416  24.062  1.00  0.00    -0.047 A 
ATOM     10  C   UNL A   1      35.430  23.775  25.398  1.00  0.00     0.004 A 
ATOM     11  C   UNL A   1      34.027  23.633  23.459  1.00  0.00     0.051 A 
ATOM     12  C   UNL A   1      34.347  24.278  26.130  1.00  0.00     0.018 A 
ATOM     13  C   UNL A   1      32.924  24.092  24.204  1.00  0.00     0.140 A 
BRANCH  13  14
ATOM     14  O   UNL A   1      31.744  24.322  23.557  1.00  0.00    -0.456 OA
BRANCH  14  15
ATOM     15  C   UNL A   1      31.213  25.597  23.463  1.00  0.00     0.143 A 
ATOM     16  C   UNL A   1      29.867  25.602  23.883  1.00  0.00     0.048 A 
ATOM     17  C   UNL A   1      31.777  26.773  22.924  1.00  0.00     0.117 A 
ATOM     18  C   UNL A   1      29.086  26.751  23.800  1.00  0.00     0.007 A 
ATOM     19  C   UNL A   1      30.960  27.912  22.834  1.00  0.00     0.139 A 
ATOM     20  C   UNL A   1      29.634  27.907  23.265  1.00  0.00     0.040 A 
ATOM     21  F   UNL A   1      31.419  29.045  22.282  1.00  0.00    -0.206 F 
BRANCH  17  22
ATOM     22  C   UNL A   1      33.176  27.001  22.483  1.00  0.00     0.255 C 
ATOM     23  N   UNL A   1      34.027  27.741  23.249  1.00  0.00    -0.365 N 
ATOM     24  O   UNL A   1      33.587  26.506  21.438  1.00  0.00    -0.269 OA
ATOM     25  H   UNL A   1      33.710  28.144  24.090  1.00  0.00     0.159 HD
ATOM     26  H   UNL A   1      34.959  27.875  22.961  1.00  0.00     0.159 HD
ENDBRANCH  17  22
ENDBRANCH  14  15
ENDBRANCH  13  14
ENDBRANCH   4   7
ENDBRANCH   2   3
ENDBRANCH   1   2
BRANCH   1  27
ATOM     27  C   UNL A   1      32.303  29.996  27.309  1.00  0.00     0.023 C 
BRANCH  27  28
ATOM     28  C   UNL A   1      33.569  30.634  26.763  1.00  0.00     0.116 C 
BRANCH  28  29
ATOM     29  N   UNL A   1      34.182  31.674  27.570  1.00  0.00    -0.352 N 
ATOM     30  C   UNL A   1      35.232  31.589  28.478  1.00  0.00     0.251 C 
ATOM     31  H   UNL A   1      33.796  32.573  27.459  1.00  0.00     0.163 HD
ATOM     32  O   UNL A   1      35.503  32.566  29.159  1.00  0.00    -0.269 OA
BRANCH  30  33
ATOM     33  C   UNL A   1      36.128  30.391  28.524  1.00  0.00     0.039 A 
ATOM     34  C   UNL A   1      36.247  29.703  29.744  1.00  0.00     0.014 A 
ATOM     35  C   UNL A   1      37.002  30.077  27.494  1.00  0.00     0.014 A 
ATOM     36  C   UNL A   1      37.386  28.941  30.003  1.00  0.00     0.010 A 
ATOM     37  C   UNL A   1      38.192  29.461  27.787  1.00  0.00     0.010 A 
ATOM     38  C   UNL A   1      38.408  28.945  29.064  1.00  0.00    -0.014 A 
BRANCH  38  39
ATOM     39  C   UNL A   1      39.771  28.506  29.297  1.00  0.00     0.031 A 
ATOM     40  C   UNL A   1      40.185  27.169  28.839  1.00  0.00     0.074 A 
ATOM     41  C   UNL A   1      40.670  29.443  29.669  1.00  0.00     0.049 A 
ATOM     42  N   UNL A   1      41.318  26.627  29.121  1.00  0.00    -0.248 NA
ATOM     43  C   UNL A   1      39.309  26.298  28.054  1.00  0.00     0.031 C 
ATOM     44  C   UNL A   1      42.123  29.411  29.537  1.00  0.00     0.029 A 
ATOM     45  N   UNL A   1      40.421  30.566  30.464  1.00  0.00    -0.354 N 
ATOM     46  C   UNL A   1      41.452  25.533  28.300  1.00  0.00     0.074 A 
ATOM     47  C   UNL A   1      40.135  25.286  27.772  1.00  0.00     0.031 C 
ATOM     48  C   UNL A   1      42.656  30.273  30.421  1.00  0.00     0.029 A 
ATOM     49  C   UNL A   1      41.565  30.732  31.270  1.00  0.00     0.049 A 
ATOM     50  H   UNL A   1      39.612  31.127  30.462  1.00  0.00     0.167 HD
ATOM     51  C   UNL A   1      42.702  25.071  28.030  1.00  0.00     0.031 A 
ATOM     52  C   UNL A   1      41.497  30.497  32.616  1.00  0.00     0.031 A 
ATOM     53  C   UNL A   1      43.687  25.664  28.933  1.00  0.00     0.049 A 
ATOM     54  C   UNL A   1      42.391  29.364  33.077  1.00  0.00     0.074 A 
ATOM     55  C   UNL A   1      44.657  26.638  28.775  1.00  0.00     0.029 A 
ATOM     56  N   UNL A   1      43.533  25.478  30.305  1.00  0.00    -0.354 N 
ATOM     57  N   UNL A   1      42.821  28.408  32.300  1.00  0.00    -0.248 NA
ATOM     58  C   UNL A   1      42.853  29.215  34.454  1.00  0.00     0.031 C 
ATOM     59  C   UNL A   1      44.984  27.133  30.069  1.00  0.00     0.029 A 
ATOM     60  C   UNL A   1      44.256  26.420  31.007  1.00  0.00     0.049 A 
ATOM     61  H   UNL A   1      42.984  24.772  30.717  1.00  0.00     0.167 HD
ATOM     62  C   UNL A   1      43.603  27.548  33.022  1.00  0.00     0.074 A 
ATOM     63  C   UNL A   1      43.591  28.093  34.368  1.00  0.00     0.031 C 
ATOM     64  C   UNL A   1      44.196  26.453  32.463  1.00  0.00     0.031 A 
BRANCH  51  65
ATOM     65  C   UNL A   1      43.066  24.276  26.796  1.00  0.00    -0.014 A 
ATOM     66  C   UNL A   1      42.742  22.908  26.740  1.00  0.00     0.009 A 
ATOM     67  C   UNL A   1      43.831  24.766  25.719  1.00  0.00     0.009 A 
ATOM     68  C   UNL A   1      43.169  22.084  25.687  1.00  0.00     0.001 A 
ATOM     69  C   UNL A   1      44.238  23.956  24.648  1.00  0.00     0.001 A 
ATOM     70  C   UNL A   1      43.915  22.610  24.637  1.00  0.00     0.000 A 
ENDBRANCH  51  65
BRANCH  52  71
ATOM     71  C   UNL A   1      40.154  30.801  33.197  1.00  0.00    -0.014 A 
ATOM     72  C   UNL A   1      39.695  32.134  33.163  1.00  0.00     0.009 A 
ATOM     73  C   UNL A   1      39.217  29.779  33.404  1.00  0.00     0.009 A 
ATOM     74  C   UNL A   1      38.326  32.423  33.195  1.00  0.00     0.001 A 
ATOM     75  C   UNL A   1      37.849  30.076  33.461  1.00  0.00     0.001 A 
ATOM     76  C   UNL A   1      37.402  31.388  33.311  1.00  0.00     0.000 A 
ENDBRANCH  52  71
BRANCH  64  77
ATOM     77  C   UNL A   1      44.838  25.324  33.230  1.00  0.00    -0.014 A 
ATOM     78  C   UNL A   1      44.150  24.183  33.668  1.00  0.00     0.009 A 
ATOM     79  C   UNL A   1      46.240  25.323  33.398  1.00  0.00     0.009 A 
ATOM     80  C   UNL A   1      44.822  23.122  34.290  1.00  0.00     0.001 A 
ATOM     81  C   UNL A   1      46.919  24.246  33.972  1.00  0.00     0.001 A 
ATOM     82  C   UNL A   1      46.206  23.150  34.434  1.00  0.00     0.000 A 
ENDBRANCH  64  77
ENDBRANCH  38  39
ENDBRANCH  30  33
ENDBRANCH  28  29
ENDBRANCH  27  28
ENDBRANCH   1  27
TORSDOF 14
ENDMDL
MODEL 2
REMARK VINA RESULT:     -12.2      1.619      3.039
REMARK SMILES Cc1ccc(C(=O)NCCCCNC(=O)c2ccc(-c3c4nc(c(-c5ccccc5)c5ccc([nH]5)c(-c5ccccc5)c5nc(c(-c6ccccc6)c6ccc3[nH]6)C=C5)C=C4)cc2)c(Oc2cccc(F)c2C(N)=O)c1
REMARK SMILES IDX 10 1 9 2 8 3 6 4 7 5 5 7 1 8 2 9 3 10 76 11 4 12 64 13 65 14
REMARK SMILES IDX 66 15 67 16 72 17 68 18 70 19 69 20 71 21 73 22 74 23 75 24
REMARK SMILES IDX 11 27 12 28 13 29 14 30 15 32 16 33 17 34 63 35 18 36 62 37
REMARK SMILES IDX 19 38 20 39 21 40 56 41 22 42 61 43 55 44 57 45 23 46 60 47
REMARK SMILES IDX 54 48 53 49 24 51 46 52 31 53 45 54 32 55 35 56 44 57 58 58
REMARK SMILES IDX 33 59 34 60 43 62 59 63 36 64 25 65 26 66 30 67 27 68 29 69
REMARK SMILES IDX 28 70 47 71 48 72 52 73 49 74 51 75 50 76 37 77 38 78 42 79
REMARK SMILES IDX 39 80 41 81 40 82
REMARK H PARENT 8 6 74 25 74 26 13 31 57 50 35 61
REMARK Flexibility Score: inf
ROOT
ATOM      1  C   UNL A   1      33.261  28.289  26.426  1.00  0.00     0.023 C 
ENDROOT
BRANCH   1   2
ATOM      2  C   UNL A   1      31.858  28.092  26.999  1.00  0.00     0.116 C 
BRANCH   2   3
ATOM      3  N   UNL A   1      31.411  26.723  27.128  1.00  0.00    -0.352 N 
ATOM      4  C   UNL A   1      31.513  25.604  26.329  1.00  0.00     0.255 C 
ATOM      5  O   UNL A   1      31.130  24.548  26.844  1.00  0.00    -0.269 OA
ATOM      6  H   UNL A   1      30.926  26.554  27.969  1.00  0.00     0.163 HD
BRANCH   4   7
ATOM      7  C   UNL A   1      31.944  25.557  24.892  1.00  0.00     0.082 A 
ATOM      8  C   UNL A   1      32.670  25.487  20.607  1.00  0.00     0.044 C 
ATOM      9  C   UNL A   1      32.401  25.488  22.083  1.00  0.00    -0.047 A 
ATOM     10  C   UNL A   1      31.127  25.749  22.582  1.00  0.00     0.004 A 
ATOM     11  C   UNL A   1      33.422  25.186  22.983  1.00  0.00     0.051 A 
ATOM     12  C   UNL A   1      30.903  25.772  23.965  1.00  0.00     0.018 A 
ATOM     13  C   UNL A   1      33.213  25.257  24.373  1.00  0.00     0.140 A 
BRANCH  13  14
ATOM     14  O   UNL A   1      34.237  24.915  25.209  1.00  0.00    -0.456 OA
BRANCH  14  15
ATOM     15  C   UNL A   1      34.861  23.682  25.116  1.00  0.00     0.143 A 
ATOM     16  C   UNL A   1      36.245  23.846  24.905  1.00  0.00     0.048 A 
ATOM     17  C   UNL A   1      34.303  22.387  25.087  1.00  0.00     0.117 A 
ATOM     18  C   UNL A   1      37.081  22.753  24.691  1.00  0.00     0.007 A 
ATOM     19  C   UNL A   1      35.166  21.305  24.850  1.00  0.00     0.139 A 
ATOM     20  C   UNL A   1      36.535  21.479  24.656  1.00  0.00     0.040 A 
ATOM     21  F   UNL A   1      34.690  20.053  24.757  1.00  0.00    -0.206 F 
BRANCH  17  22
ATOM     22  C   UNL A   1      32.896  21.989  25.343  1.00  0.00     0.255 C 
ATOM     23  N   UNL A   1      32.465  21.763  26.617  1.00  0.00    -0.365 N 
ATOM     24  O   UNL A   1      32.101  21.882  24.414  1.00  0.00    -0.269 OA
ATOM     25  H   UNL A   1      33.092  21.845  27.371  1.00  0.00     0.159 HD
ATOM     26  H   UNL A   1      31.526  21.516  26.783  1.00  0.00     0.159 HD
ENDBRANCH  17  22
ENDBRANCH  14  15
ENDBRANCH  13  14
ENDBRANCH   4   7
ENDBRANCH   2   3
ENDBRANCH   1   2
BRANCH   1  27
ATOM     27  C   UNL A   1      33.775  29.719  26.351  1.00  0.00     0.023 C 
BRANCH  27  28
ATOM     28  C   UNL A   1      33.558  30.553  27.601  1.00  0.00     0.116 C 
BRANCH  28  29
ATOM     29  N   UNL A   1      34.446  31.685  27.799  1.00  0.00    -0.352 N 
ATOM     30  C   UNL A   1      35.762  31.711  28.246  1.00  0.00     0.251 C 
ATOM     31  H   UNL A   1      34.057  32.565  27.586  1.00  0.00     0.163 HD
ATOM     32  O   UNL A   1      36.286  32.791  28.474  1.00  0.00    -0.269 OA
BRANCH  30  33
ATOM     33  C   UNL A   1      36.593  30.468  28.299  1.00  0.00     0.039 A 
ATOM     34  C   UNL A   1      36.610  29.737  29.499  1.00  0.00     0.014 A 
ATOM     35  C   UNL A   1      37.506  30.140  27.306  1.00  0.00     0.014 A 
ATOM     36  C   UNL A   1      37.693  28.908  29.792  1.00  0.00     0.010 A 
ATOM     37  C   UNL A   1      38.645  29.455  27.642  1.00  0.00     0.010 A 
ATOM     38  C   UNL A   1      38.763  28.888  28.910  1.00  0.00    -0.014 A 
BRANCH  38  39
ATOM     39  C   UNL A   1      40.088  28.372  29.200  1.00  0.00     0.031 A 
ATOM     40  C   UNL A   1      40.481  27.057  28.665  1.00  0.00     0.074 A 
ATOM     41  C   UNL A   1      40.993  29.235  29.709  1.00  0.00     0.049 A 
ATOM     42  N   UNL A   1      41.568  26.444  28.980  1.00  0.00    -0.248 NA
ATOM     43  C   UNL A   1      39.632  26.290  27.753  1.00  0.00     0.031 C 
ATOM     44  C   UNL A   1      42.450  29.148  29.676  1.00  0.00     0.029 A 
ATOM     45  N   UNL A   1      40.732  30.302  30.573  1.00  0.00    -0.354 N 
ATOM     46  C   UNL A   1      41.719  25.413  28.084  1.00  0.00     0.074 A 
ATOM     47  C   UNL A   1      40.435  25.268  27.448  1.00  0.00     0.031 C 
ATOM     48  C   UNL A   1      42.951  29.914  30.662  1.00  0.00     0.029 A 
ATOM     49  C   UNL A   1      41.820  30.353  31.467  1.00  0.00     0.049 A 
ATOM     50  H   UNL A   1      39.948  30.898  30.561  1.00  0.00     0.167 HD
ATOM     51  C   UNL A   1      42.967  24.918  27.865  1.00  0.00     0.031 A 
ATOM     52  C   UNL A   1      41.645  30.018  32.782  1.00  0.00     0.031 A 
ATOM     53  C   UNL A   1      43.906  25.393  28.880  1.00  0.00     0.049 A 
ATOM     54  C   UNL A   1      42.458  28.813  33.210  1.00  0.00     0.074 A 
ATOM     55  C   UNL A   1      44.922  26.332  28.869  1.00  0.00     0.029 A 
ATOM     56  N   UNL A   1      43.645  25.108  30.218  1.00  0.00    -0.354 N 
ATOM     57  N   UNL A   1      42.905  27.902  32.389  1.00  0.00    -0.248 NA
ATOM     58  C   UNL A   1      42.812  28.535  34.599  1.00  0.00     0.031 C 
ATOM     59  C   UNL A   1      45.173  26.710  30.218  1.00  0.00     0.029 A 
ATOM     60  C   UNL A   1      44.352  25.959  31.042  1.00  0.00     0.049 A 
ATOM     61  H   UNL A   1      43.040  24.397  30.532  1.00  0.00     0.167 HD
ATOM     62  C   UNL A   1      43.598  26.953  33.093  1.00  0.00     0.074 A 
ATOM     63  C   UNL A   1      43.510  27.392  34.474  1.00  0.00     0.031 C 
ATOM     64  C   UNL A   1      44.188  25.881  32.488  1.00  0.00     0.031 A 
BRANCH  51  65
ATOM     65  C   UNL A   1      43.387  24.206  26.598  1.00  0.00    -0.014 A 
ATOM     66  C   UNL A   1      42.823  22.954  26.294  1.00  0.00     0.009 A 
ATOM     67  C   UNL A   1      44.413  24.638  25.735  1.00  0.00     0.009 A 
ATOM     68  C   UNL A   1      43.267  22.181  25.210  1.00  0.00     0.001 A 
ATOM     69  C   UNL A   1      44.844  23.885  24.633  1.00  0.00     0.001 A 
ATOM     70  C   UNL A   1      44.276  22.649  24.376  1.00  0.00     0.000 A 
ENDBRANCH  51  65
BRANCH  52  71
ATOM     71  C   UNL A   1      40.276  30.335  33.291  1.00  0.00    -0.014 A 
ATOM     72  C   UNL A   1      39.915  31.690  33.444  1.00  0.00     0.009 A 
ATOM     73  C   UNL A   1      39.255  29.375  33.244  1.00  0.00     0.009 A 
ATOM     74  C   UNL A   1      38.573  32.083  33.409  1.00  0.00     0.001 A 
ATOM     75  C   UNL A   1      37.912  29.772  33.236  1.00  0.00     0.001 A 
ATOM     76  C   UNL A   1      37.573  31.124  33.272  1.00  0.00     0.000 A 
ENDBRANCH  52  71
BRANCH  64  77
ATOM     77  C   UNL A   1      44.727  24.667  33.204  1.00  0.00    -0.014 A 
ATOM     78  C   UNL A   1      46.034  24.566  33.701  1.00  0.00     0.009 A 
ATOM     79  C   UNL A   1      43.838  23.620  33.536  1.00  0.00     0.009 A 
ATOM     80  C   UNL A   1      46.445  23.451  34.444  1.00  0.00     0.001 A 
ATOM     81  C   UNL A   1      44.231  22.532  34.318  1.00  0.00     0.001 A 
ATOM     82  C   UNL A   1      45.543  22.440  34.760  1.00  0.00     0.000 A 
ENDBRANCH  64  77
ENDBRANCH  38  39
ENDBRANCH  30  33
ENDBRANCH  28  29
ENDBRANCH  27  28
ENDBRANCH   1  27
TORSDOF 14
ENDMDL
MODEL 3
REMARK VINA RESULT:     -12.0      1.484      3.004
REMARK SMILES Cc1ccc(C(=O)NCCCCNC(=O)c2ccc(-c3c4nc(c(-c5ccccc5)c5ccc([nH]5)c(-c5ccccc5)c5nc(c(-c6ccccc6)c6ccc3[nH]6)C=C5)C=C4)cc2)c(Oc2cccc(F)c2C(N)=O)c1
REMARK SMILES IDX 10 1 9 2 8 3 6 4 7 5 5 7 1 8 2 9 3 10 76 11 4 12 64 13 65 14
REMARK SMILES IDX 66 15 67 16 72 17 68 18 70 19 69 20 71 21 73 22 74 23 75 24
REMARK SMILES IDX 11 27 12 28 13 29 14 30 15 32 16 33 17 34 63 35 18 36 62 37
REMARK SMILES IDX 19 38 20 39 21 40 56 41 22 42 61 43 55 44 57 45 23 46 60 47
REMARK SMILES IDX 54 48 53 49 24 51 46 52 31 53 45 54 32 55 35 56 44 57 58 58
REMARK SMILES IDX 33 59 34 60 43 62 59 63 36 64 25 65 26 66 30 67 27 68 29 69
REMARK SMILES IDX 28 70 47 71 48 72 52 73 49 74 51 75 50 76 37 77 38 78 42 79
REMARK SMILES IDX 39 80 41 81 40 82
REMARK H PARENT 8 6 74 25 74 26 13 31 57 50 35 61
REMARK Flexibility Score: inf
ROOT
ATOM      1  C   UNL A   1      34.278  28.318  26.654  1.00  0.00     0.023 C 
ENDROOT
BRANCH   1   2
ATOM      2  C   UNL A   1      33.484  27.212  25.960  1.00  0.00     0.116 C 
BRANCH   2   3
ATOM      3  N   UNL A   1      33.758  27.019  24.553  1.00  0.00    -0.352 N 
ATOM      4  C   UNL A   1      33.076  27.328  23.394  1.00  0.00     0.255 C 
ATOM      5  O   UNL A   1      33.701  27.139  22.345  1.00  0.00    -0.269 OA
ATOM      6  H   UNL A   1      34.618  26.569  24.385  1.00  0.00     0.163 HD
BRANCH   4   7
ATOM      7  C   UNL A   1      31.646  27.768  23.278  1.00  0.00     0.082 A 
ATOM      8  C   UNL A   1      27.674  29.525  23.117  1.00  0.00     0.044 C 
ATOM      9  C   UNL A   1      29.046  28.925  23.202  1.00  0.00    -0.047 A 
ATOM     10  C   UNL A   1      30.154  29.706  23.522  1.00  0.00     0.004 A 
ATOM     11  C   UNL A   1      29.229  27.558  22.998  1.00  0.00     0.051 A 
ATOM     12  C   UNL A   1      31.431  29.132  23.569  1.00  0.00     0.018 A 
ATOM     13  C   UNL A   1      30.515  26.986  22.996  1.00  0.00     0.140 A 
BRANCH  13  14
ATOM     14  O   UNL A   1      30.634  25.637  22.828  1.00  0.00    -0.456 OA
BRANCH  14  15
ATOM     15  C   UNL A   1      31.085  24.822  23.853  1.00  0.00     0.143 A 
ATOM     16  C   UNL A   1      30.448  25.158  25.066  1.00  0.00     0.048 A 
ATOM     17  C   UNL A   1      32.111  23.854  23.853  1.00  0.00     0.117 A 
ATOM     18  C   UNL A   1      30.795  24.538  26.263  1.00  0.00     0.007 A 
ATOM     19  C   UNL A   1      32.454  23.260  25.078  1.00  0.00     0.139 A 
ATOM     20  C   UNL A   1      31.808  23.592  26.269  1.00  0.00     0.040 A 
ATOM     21  F   UNL A   1      33.457  22.372  25.155  1.00  0.00    -0.206 F 
BRANCH  17  22
ATOM     22  C   UNL A   1      32.862  23.313  22.692  1.00  0.00     0.255 C 
ATOM     23  N   UNL A   1      32.381  22.240  22.001  1.00  0.00    -0.365 N 
ATOM     24  O   UNL A   1      33.908  23.840  22.328  1.00  0.00    -0.269 OA
ATOM     25  H   UNL A   1      31.542  21.809  22.282  1.00  0.00     0.159 HD
ATOM     26  H   UNL A   1      32.873  21.896  21.220  1.00  0.00     0.159 HD
ENDBRANCH  17  22
ENDBRANCH  14  15
ENDBRANCH  13  14
ENDBRANCH   4   7
ENDBRANCH   2   3
ENDBRANCH   1   2
BRANCH   1  27
ATOM     27  C   UNL A   1      33.823  29.747  26.401  1.00  0.00     0.023 C 
BRANCH  27  28
ATOM     28  C   UNL A   1      33.608  30.590  27.647  1.00  0.00     0.116 C 
BRANCH  28  29
ATOM     29  N   UNL A   1      34.516  31.705  27.851  1.00  0.00    -0.352 N 
ATOM     30  C   UNL A   1      35.832  31.706  28.298  1.00  0.00     0.251 C 
ATOM     31  H   UNL A   1      34.143  32.592  27.643  1.00  0.00     0.163 HD
ATOM     32  O   UNL A   1      36.374  32.775  28.533  1.00  0.00    -0.269 OA
BRANCH  30  33
ATOM     33  C   UNL A   1      36.641  30.448  28.345  1.00  0.00     0.039 A 
ATOM     34  C   UNL A   1      36.651  29.714  29.543  1.00  0.00     0.014 A 
ATOM     35  C   UNL A   1      37.543  30.107  27.347  1.00  0.00     0.014 A 
ATOM     36  C   UNL A   1      37.720  28.865  29.830  1.00  0.00     0.010 A 
ATOM     37  C   UNL A   1      38.672  29.400  27.676  1.00  0.00     0.010 A 
ATOM     38  C   UNL A   1      38.786  28.829  28.942  1.00  0.00    -0.014 A 
BRANCH  38  39
ATOM     39  C   UNL A   1      40.103  28.289  29.225  1.00  0.00     0.031 A 
ATOM     40  C   UNL A   1      40.452  26.947  28.730  1.00  0.00     0.074 A 
ATOM     41  C   UNL A   1      41.040  29.146  29.685  1.00  0.00     0.049 A 
ATOM     42  N   UNL A   1      41.529  26.317  29.045  1.00  0.00    -0.248 NA
ATOM     43  C   UNL A   1      39.565  26.170  27.863  1.00  0.00     0.031 C 
ATOM     44  C   UNL A   1      42.493  29.020  29.627  1.00  0.00     0.029 A 
ATOM     45  N   UNL A   1      40.823  30.249  30.516  1.00  0.00    -0.354 N 
ATOM     46  C   UNL A   1      41.635  25.251  28.185  1.00  0.00     0.074 A 
ATOM     47  C   UNL A   1      40.335  25.117  27.579  1.00  0.00     0.031 C 
ATOM     48  C   UNL A   1      43.033  29.806  30.575  1.00  0.00     0.029 A 
ATOM     49  C   UNL A   1      41.930  30.303  31.386  1.00  0.00     0.049 A 
ATOM     50  H   UNL A   1      40.054  30.864  30.497  1.00  0.00     0.167 HD
ATOM     51  C   UNL A   1      42.866  24.717  27.959  1.00  0.00     0.031 A 
ATOM     52  C   UNL A   1      41.773  30.019  32.715  1.00  0.00     0.031 A 
ATOM     53  C   UNL A   1      43.837  25.203  28.938  1.00  0.00     0.049 A 
ATOM     54  C   UNL A   1      42.564  28.809  33.171  1.00  0.00     0.074 A 
ATOM     55  C   UNL A   1      44.876  26.114  28.874  1.00  0.00     0.029 A 
ATOM     56  N   UNL A   1      43.596  24.971  30.290  1.00  0.00    -0.354 N 
ATOM     57  N   UNL A   1      42.971  27.858  32.374  1.00  0.00    -0.248 NA
ATOM     58  C   UNL A   1      42.939  28.572  34.561  1.00  0.00     0.031 C 
ATOM     59  C   UNL A   1      45.164  26.532  30.204  1.00  0.00     0.029 A 
ATOM     60  C   UNL A   1      44.341  25.832  31.069  1.00  0.00     0.049 A 
ATOM     61  H   UNL A   1      42.980  24.288  30.640  1.00  0.00     0.167 HD
ATOM     62  C   UNL A   1      43.654  26.917  33.097  1.00  0.00     0.074 A 
ATOM     63  C   UNL A   1      43.605  27.407  34.463  1.00  0.00     0.031 C 
ATOM     64  C   UNL A   1      44.204  25.809  32.521  1.00  0.00     0.031 A 
BRANCH  51  65
ATOM     65  C   UNL A   1      43.242  23.949  26.710  1.00  0.00    -0.014 A 
ATOM     66  C   UNL A   1      43.056  22.556  26.678  1.00  0.00     0.009 A 
ATOM     67  C   UNL A   1      43.896  24.503  25.593  1.00  0.00     0.009 A 
ATOM     68  C   UNL A   1      43.508  21.769  25.607  1.00  0.00     0.001 A 
ATOM     69  C   UNL A   1      44.326  23.728  24.506  1.00  0.00     0.001 A 
ATOM     70  C   UNL A   1      44.141  22.356  24.518  1.00  0.00     0.000 A 
ENDBRANCH  51  65
BRANCH  52  71
ATOM     71  C   UNL A   1      40.424  30.389  33.239  1.00  0.00    -0.014 A 
ATOM     72  C   UNL A   1      40.081  31.756  33.302  1.00  0.00     0.009 A 
ATOM     73  C   UNL A   1      39.392  29.441  33.292  1.00  0.00     0.009 A 
ATOM     74  C   UNL A   1      38.743  32.163  33.278  1.00  0.00     0.001 A 
ATOM     75  C   UNL A   1      38.053  29.854  33.293  1.00  0.00     0.001 A 
ATOM     76  C   UNL A   1      37.730  31.209  33.240  1.00  0.00     0.000 A 
ENDBRANCH  52  71
BRANCH  64  77
ATOM     77  C   UNL A   1      44.726  24.608  33.269  1.00  0.00    -0.014 A 
ATOM     78  C   UNL A   1      46.049  24.476  33.714  1.00  0.00     0.009 A 
ATOM     79  C   UNL A   1      43.813  23.614  33.686  1.00  0.00     0.009 A 
ATOM     80  C   UNL A   1      46.449  23.380  34.490  1.00  0.00     0.001 A 
ATOM     81  C   UNL A   1      44.198  22.547  34.501  1.00  0.00     0.001 A 
ATOM     82  C   UNL A   1      45.523  22.421  34.890  1.00  0.00     0.000 A 
ENDBRANCH  64  77
ENDBRANCH  38  39
ENDBRANCH  30  33
ENDBRANCH  28  29
ENDBRANCH  27  28
ENDBRANCH   1  27
TORSDOF 14
ENDMDL
