MODEL 1
REMARK VINA RESULT:     -11.6      0.000      0.000
REMARK SMILES Cc1ncccc1C(=O)Nc1ccccc1C(=O)NCCCCNC(=O)c1ccc(-c2c3nc(c(-c4ccccc4)c4ccc([nH]4)c(-c4ccccc4)c4nc(c(-c5ccccc5)c5ccc2[nH]5)C=C4)C=C3)cc1
REMARK SMILES IDX 21 1 20 2 19 3 17 4 18 5 16 7 11 8 12 9 13 10 15 11 14 12
REMARK SMILES IDX 10 13 8 14 9 15 7 17 1 18 2 19 3 20 4 21 6 22 5 23 22 24
REMARK SMILES IDX 23 25 24 26 25 27 26 29 27 30 28 31 74 32 29 33 73 34 30 35
REMARK SMILES IDX 31 36 32 37 67 38 33 39 72 40 66 41 68 42 34 43 71 44 65 45
REMARK SMILES IDX 64 46 35 48 57 49 42 50 56 51 43 52 46 53 55 54 69 55 44 56
REMARK SMILES IDX 45 57 54 59 70 60 47 61 36 62 37 63 41 64 38 65 40 66 39 67
REMARK SMILES IDX 58 68 59 69 63 70 60 71 62 72 61 73 48 74 49 75 53 76 50 77
REMARK SMILES IDX 52 78 51 79
REMARK H PARENT 19 6 10 16 24 28 68 47 46 58
REMARK Flexibility Score: inf
ROOT
ATOM      1  C   UNL A   1      33.315  27.458  25.109  1.00  0.00     0.023 C 
ENDROOT
BRANCH   1   2
ATOM      2  C   UNL A   1      33.930  26.073  24.926  1.00  0.00     0.116 C 
BRANCH   2   3
ATOM      3  N   UNL A   1      33.726  25.500  23.610  1.00  0.00    -0.352 N 
ATOM      4  C   UNL A   1      34.066  24.260  23.121  1.00  0.00     0.253 C 
ATOM      5  O   UNL A   1      33.796  24.011  21.947  1.00  0.00    -0.269 OA
ATOM      6  H   UNL A   1      33.273  26.090  22.967  1.00  0.00     0.163 HD
BRANCH   4   7
ATOM      7  C   UNL A   1      34.838  23.263  23.915  1.00  0.00     0.063 A 
ATOM      8  C   UNL A   1      34.411  22.569  25.059  1.00  0.00     0.054 A 
ATOM      9  C   UNL A   1      35.364  21.863  25.820  1.00  0.00     0.027 A 
ATOM     10  C   UNL A   1      36.674  21.698  25.373  1.00  0.00     0.002 A 
ATOM     11  C   UNL A   1      36.160  23.061  23.461  1.00  0.00     0.016 A 
ATOM     12  C   UNL A   1      37.063  22.267  24.170  1.00  0.00     0.001 A 
BRANCH   8  13
ATOM     13  N   UNL A   1      33.099  22.431  25.544  1.00  0.00    -0.321 N 
ATOM     14  C   UNL A   1      32.113  21.500  25.334  1.00  0.00     0.257 C 
ATOM     15  O   UNL A   1      30.983  21.759  25.755  1.00  0.00    -0.269 OA
ATOM     16  H   UNL A   1      32.834  23.149  26.163  1.00  0.00     0.170 HD
BRANCH  14  17
ATOM     17  C   UNL A   1      32.323  20.198  24.670  1.00  0.00     0.061 A 
ATOM     18  C   UNL A   1      31.955  21.009  22.268  1.00  0.00     0.067 C 
ATOM     19  C   UNL A   1      32.260  19.962  23.296  1.00  0.00     0.050 A 
ATOM     20  N   UNL A   1      32.521  18.734  22.765  1.00  0.00    -0.261 NA
ATOM     21  C   UNL A   1      32.891  17.740  23.601  1.00  0.00     0.111 A 
ATOM     22  C   UNL A   1      32.767  19.154  25.498  1.00  0.00     0.017 A 
ATOM     23  C   UNL A   1      33.047  17.904  24.962  1.00  0.00     0.021 A 
ENDBRANCH  14  17
ENDBRANCH   8  13
ENDBRANCH   4   7
ENDBRANCH   2   3
ENDBRANCH   1   2
BRANCH   1  24
ATOM     24  C   UNL A   1      34.076  28.426  26.018  1.00  0.00     0.023 C 
BRANCH  24  25
ATOM     25  C   UNL A   1      33.396  28.818  27.328  1.00  0.00     0.116 C 
BRANCH  25  26
ATOM     26  N   UNL A   1      33.564  30.218  27.692  1.00  0.00    -0.352 N 
ATOM     27  C   UNL A   1      34.661  30.877  28.202  1.00  0.00     0.251 C 
ATOM     28  H   UNL A   1      32.769  30.781  27.550  1.00  0.00     0.163 HD
ATOM     29  O   UNL A   1      34.581  32.051  28.536  1.00  0.00    -0.269 OA
BRANCH  27  30
ATOM     30  C   UNL A   1      35.933  30.145  28.394  1.00  0.00     0.039 A 
ATOM     31  C   UNL A   1      36.870  30.143  27.358  1.00  0.00     0.014 A 
ATOM     32  C   UNL A   1      36.216  29.499  29.598  1.00  0.00     0.014 A 
ATOM     33  C   UNL A   1      38.135  29.590  27.571  1.00  0.00     0.010 A 
ATOM     34  C   UNL A   1      37.501  29.019  29.836  1.00  0.00     0.010 A 
ATOM     35  C   UNL A   1      38.481  29.077  28.833  1.00  0.00    -0.014 A 
BRANCH  35  36
ATOM     36  C   UNL A   1      39.868  28.635  29.133  1.00  0.00     0.031 A 
ATOM     37  C   UNL A   1      40.836  29.567  29.806  1.00  0.00     0.074 A 
ATOM     38  C   UNL A   1      40.282  27.418  28.726  1.00  0.00     0.049 A 
ATOM     39  N   UNL A   1      42.104  29.383  30.079  1.00  0.00    -0.248 NA
ATOM     40  C   UNL A   1      40.323  30.889  30.200  1.00  0.00     0.031 C 
ATOM     41  C   UNL A   1      39.461  26.432  28.019  1.00  0.00     0.029 A 
ATOM     42  N   UNL A   1      41.505  26.804  28.843  1.00  0.00    -0.354 N 
ATOM     43  C   UNL A   1      42.541  30.567  30.658  1.00  0.00     0.074 A 
ATOM     44  C   UNL A   1      41.418  31.480  30.652  1.00  0.00     0.031 C 
ATOM     45  C   UNL A   1      40.193  25.329  27.792  1.00  0.00     0.029 A 
ATOM     46  C   UNL A   1      41.544  25.542  28.299  1.00  0.00     0.049 A 
ATOM     47  H   UNL A   1      42.281  27.228  29.275  1.00  0.00     0.167 HD
ATOM     48  C   UNL A   1      43.761  30.865  31.168  1.00  0.00     0.031 A 
ATOM     49  C   UNL A   1      42.554  24.656  28.212  1.00  0.00     0.031 A 
ATOM     50  C   UNL A   1      44.875  29.957  31.192  1.00  0.00     0.049 A 
ATOM     51  C   UNL A   1      43.899  25.013  28.782  1.00  0.00     0.074 A 
ATOM     52  C   UNL A   1      46.131  30.148  31.739  1.00  0.00     0.029 A 
ATOM     53  N   UNL A   1      44.866  28.682  30.646  1.00  0.00    -0.354 N 
ATOM     54  N   UNL A   1      44.274  26.114  29.387  1.00  0.00    -0.248 NA
ATOM     55  C   UNL A   1      44.957  23.998  28.665  1.00  0.00     0.031 C 
ATOM     56  C   UNL A   1      46.898  29.006  31.486  1.00  0.00     0.029 A 
ATOM     57  C   UNL A   1      46.102  28.084  30.826  1.00  0.00     0.049 A 
ATOM     58  H   UNL A   1      44.096  28.265  30.196  1.00  0.00     0.167 HD
ATOM     59  C   UNL A   1      45.599  25.913  29.748  1.00  0.00     0.074 A 
ATOM     60  C   UNL A   1      45.959  24.580  29.309  1.00  0.00     0.031 C 
ATOM     61  C   UNL A   1      46.444  26.757  30.388  1.00  0.00     0.031 A 
BRANCH  48  62
ATOM     62  C   UNL A   1      43.949  32.239  31.747  1.00  0.00    -0.014 A 
ATOM     63  C   UNL A   1      44.393  33.307  30.951  1.00  0.00     0.009 A 
ATOM     64  C   UNL A   1      43.644  32.478  33.095  1.00  0.00     0.009 A 
ATOM     65  C   UNL A   1      44.562  34.578  31.502  1.00  0.00     0.001 A 
ATOM     66  C   UNL A   1      43.786  33.757  33.637  1.00  0.00     0.001 A 
ATOM     67  C   UNL A   1      44.253  34.803  32.843  1.00  0.00     0.000 A 
ENDBRANCH  48  62
BRANCH  49  68
ATOM     68  C   UNL A   1      42.336  23.330  27.576  1.00  0.00    -0.014 A 
ATOM     69  C   UNL A   1      42.649  23.134  26.222  1.00  0.00     0.009 A 
ATOM     70  C   UNL A   1      41.796  22.263  28.309  1.00  0.00     0.009 A 
ATOM     71  C   UNL A   1      42.395  21.905  25.607  1.00  0.00     0.001 A 
ATOM     72  C   UNL A   1      41.571  21.027  27.699  1.00  0.00     0.001 A 
ATOM     73  C   UNL A   1      41.860  20.853  26.347  1.00  0.00     0.000 A 
ENDBRANCH  49  68
BRANCH  61  74
ATOM     74  C   UNL A   1      47.826  26.251  30.688  1.00  0.00    -0.014 A 
ATOM     75  C   UNL A   1      48.824  26.228  29.702  1.00  0.00     0.009 A 
ATOM     76  C   UNL A   1      48.143  25.829  31.989  1.00  0.00     0.009 A 
ATOM     77  C   UNL A   1      50.105  25.762  30.006  1.00  0.00     0.001 A 
ATOM     78  C   UNL A   1      49.431  25.389  32.296  1.00  0.00     0.001 A 
ATOM     79  C   UNL A   1      50.408  25.349  31.303  1.00  0.00     0.000 A 
ENDBRANCH  61  74
ENDBRANCH  35  36
ENDBRANCH  27  30
ENDBRANCH  25  26
ENDBRANCH  24  25
ENDBRANCH   1  24
TORSDOF 13
ENDMDL
MODEL 2
REMARK VINA RESULT:     -11.5      1.378      2.824
REMARK SMILES Cc1ncccc1C(=O)Nc1ccccc1C(=O)NCCCCNC(=O)c1ccc(-c2c3nc(c(-c4ccccc4)c4ccc([nH]4)c(-c4ccccc4)c4nc(c(-c5ccccc5)c5ccc2[nH]5)C=C4)C=C3)cc1
REMARK SMILES IDX 21 1 20 2 19 3 17 4 18 5 16 7 11 8 12 9 13 10 15 11 14 12
REMARK SMILES IDX 10 13 8 14 9 15 7 17 1 18 2 19 3 20 4 21 6 22 5 23 22 24
REMARK SMILES IDX 23 25 24 26 25 27 26 29 27 30 28 31 74 32 29 33 73 34 30 35
REMARK SMILES IDX 31 36 32 37 67 38 33 39 72 40 66 41 68 42 34 43 71 44 65 45
REMARK SMILES IDX 64 46 35 48 57 49 42 50 56 51 43 52 46 53 55 54 69 55 44 56
REMARK SMILES IDX 45 57 54 59 70 60 47 61 36 62 37 63 41 64 38 65 40 66 39 67
REMARK SMILES IDX 58 68 59 69 63 70 60 71 62 72 61 73 48 74 49 75 53 76 50 77
REMARK SMILES IDX 52 78 51 79
REMARK H PARENT 19 6 10 16 24 28 68 47 46 58
REMARK Flexibility Score: inf
ROOT
ATOM      1  C   UNL A   1      33.582  29.255  24.739  1.00  0.00     0.023 C 
ENDROOT
BRANCH   1   2
ATOM      2  C   UNL A   1      33.603  28.530  23.397  1.00  0.00     0.116 C 
BRANCH   2   3
ATOM      3  N   UNL A   1      32.361  28.616  22.654  1.00  0.00    -0.352 N 
ATOM      4  C   UNL A   1      31.204  27.882  22.772  1.00  0.00     0.253 C 
ATOM      5  O   UNL A   1      30.279  28.138  22.003  1.00  0.00    -0.269 OA
ATOM      6  H   UNL A   1      32.343  29.310  21.956  1.00  0.00     0.163 HD
BRANCH   4   7
ATOM      7  C   UNL A   1      31.071  26.730  23.707  1.00  0.00     0.063 A 
ATOM      8  C   UNL A   1      31.243  25.368  23.413  1.00  0.00     0.054 A 
ATOM      9  C   UNL A   1      30.826  24.410  24.359  1.00  0.00     0.027 A 
ATOM     10  C   UNL A   1      30.411  24.784  25.636  1.00  0.00     0.002 A 
ATOM     11  C   UNL A   1      30.677  27.090  25.015  1.00  0.00     0.016 A 
ATOM     12  C   UNL A   1      30.373  26.126  25.978  1.00  0.00     0.001 A 
BRANCH   8  13
ATOM     13  N   UNL A   1      31.848  24.800  22.278  1.00  0.00    -0.321 N 
ATOM     14  C   UNL A   1      32.975  24.038  22.096  1.00  0.00     0.257 C 
ATOM     15  O   UNL A   1      33.358  23.853  20.938  1.00  0.00    -0.269 OA
ATOM     16  H   UNL A   1      31.363  24.987  21.442  1.00  0.00     0.170 HD
BRANCH  14  17
ATOM     17  C   UNL A   1      33.735  23.398  23.188  1.00  0.00     0.061 A 
ATOM     18  C   UNL A   1      32.432  21.193  23.226  1.00  0.00     0.067 C 
ATOM     19  C   UNL A   1      33.507  22.121  23.702  1.00  0.00     0.050 A 
ATOM     20  N   UNL A   1      34.296  21.589  24.679  1.00  0.00    -0.261 NA
ATOM     21  C   UNL A   1      35.348  22.313  25.118  1.00  0.00     0.111 A 
ATOM     22  C   UNL A   1      34.873  24.094  23.630  1.00  0.00     0.017 A 
ATOM     23  C   UNL A   1      35.688  23.551  24.614  1.00  0.00     0.021 A 
ENDBRANCH  14  17
ENDBRANCH   8  13
ENDBRANCH   4   7
ENDBRANCH   2   3
ENDBRANCH   1   2
BRANCH   1  24
ATOM     24  C   UNL A   1      33.930  28.416  25.971  1.00  0.00     0.023 C 
BRANCH  24  25
ATOM     25  C   UNL A   1      33.272  28.821  27.289  1.00  0.00     0.116 C 
BRANCH  25  26
ATOM     26  N   UNL A   1      33.439  30.226  27.632  1.00  0.00    -0.352 N 
ATOM     27  C   UNL A   1      34.538  30.895  28.122  1.00  0.00     0.251 C 
ATOM     28  H   UNL A   1      32.641  30.784  27.492  1.00  0.00     0.163 HD
ATOM     29  O   UNL A   1      34.458  32.073  28.441  1.00  0.00    -0.269 OA
BRANCH  27  30
ATOM     30  C   UNL A   1      35.815  30.171  28.310  1.00  0.00     0.039 A 
ATOM     31  C   UNL A   1      36.743  30.163  27.265  1.00  0.00     0.014 A 
ATOM     32  C   UNL A   1      36.111  29.537  29.517  1.00  0.00     0.014 A 
ATOM     33  C   UNL A   1      38.013  29.617  27.473  1.00  0.00     0.010 A 
ATOM     34  C   UNL A   1      37.400  29.065  29.749  1.00  0.00     0.010 A 
ATOM     35  C   UNL A   1      38.372  29.117  28.737  1.00  0.00    -0.014 A 
BRANCH  35  36
ATOM     36  C   UNL A   1      39.763  28.684  29.029  1.00  0.00     0.031 A 
ATOM     37  C   UNL A   1      40.737  29.631  29.671  1.00  0.00     0.074 A 
ATOM     38  C   UNL A   1      40.174  27.459  28.641  1.00  0.00     0.049 A 
ATOM     39  N   UNL A   1      42.008  29.455  29.933  1.00  0.00    -0.248 NA
ATOM     40  C   UNL A   1      40.226  30.960  30.044  1.00  0.00     0.031 C 
ATOM     41  C   UNL A   1      39.347  26.458  27.965  1.00  0.00     0.029 A 
ATOM     42  N   UNL A   1      41.400  26.851  28.756  1.00  0.00    -0.354 N 
ATOM     43  C   UNL A   1      42.450  30.652  30.483  1.00  0.00     0.074 A 
ATOM     44  C   UNL A   1      41.325  31.562  30.471  1.00  0.00     0.031 C 
ATOM     45  C   UNL A   1      40.078  25.352  27.751  1.00  0.00     0.029 A 
ATOM     46  C   UNL A   1      41.435  25.578  28.237  1.00  0.00     0.049 A 
ATOM     47  H   UNL A   1      42.181  27.285  29.170  1.00  0.00     0.167 HD
ATOM     48  C   UNL A   1      43.675  30.961  30.971  1.00  0.00     0.031 A 
ATOM     49  C   UNL A   1      42.446  24.692  28.156  1.00  0.00     0.031 A 
ATOM     50  C   UNL A   1      44.791  30.056  31.000  1.00  0.00     0.049 A 
ATOM     51  C   UNL A   1      43.797  25.063  28.702  1.00  0.00     0.074 A 
ATOM     52  C   UNL A   1      46.054  30.261  31.529  1.00  0.00     0.029 A 
ATOM     53  N   UNL A   1      44.779  28.771  30.480  1.00  0.00    -0.354 N 
ATOM     54  N   UNL A   1      44.177  26.176  29.280  1.00  0.00    -0.248 NA
ATOM     55  C   UNL A   1      44.856  24.048  28.593  1.00  0.00     0.031 C 
ATOM     56  C   UNL A   1      46.820  29.115  31.289  1.00  0.00     0.029 A 
ATOM     57  C   UNL A   1      46.018  28.179  30.657  1.00  0.00     0.049 A 
ATOM     58  H   UNL A   1      44.004  28.343  30.048  1.00  0.00     0.167 HD
ATOM     59  C   UNL A   1      45.507  25.985  29.629  1.00  0.00     0.074 A 
ATOM     60  C   UNL A   1      45.864  24.645  29.212  1.00  0.00     0.031 C 
ATOM     61  C   UNL A   1      46.358  26.844  30.242  1.00  0.00     0.031 A 
BRANCH  48  62
ATOM     62  C   UNL A   1      43.868  32.347  31.520  1.00  0.00    -0.014 A 
ATOM     63  C   UNL A   1      43.617  32.632  32.873  1.00  0.00     0.009 A 
ATOM     64  C   UNL A   1      44.342  33.371  30.687  1.00  0.00     0.009 A 
ATOM     65  C   UNL A   1      43.803  33.924  33.370  1.00  0.00     0.001 A 
ATOM     66  C   UNL A   1      44.554  34.655  31.193  1.00  0.00     0.001 A 
ATOM     67  C   UNL A   1      44.276  34.932  32.530  1.00  0.00     0.000 A 
ENDBRANCH  48  62
BRANCH  49  68
ATOM     68  C   UNL A   1      42.223  23.354  27.549  1.00  0.00    -0.014 A 
ATOM     69  C   UNL A   1      41.607  22.333  28.289  1.00  0.00     0.009 A 
ATOM     70  C   UNL A   1      42.642  23.082  26.237  1.00  0.00     0.009 A 
ATOM     71  C   UNL A   1      41.445  21.058  27.740  1.00  0.00     0.001 A 
ATOM     72  C   UNL A   1      42.452  21.816  25.681  1.00  0.00     0.001 A 
ATOM     73  C   UNL A   1      41.864  20.802  26.436  1.00  0.00     0.000 A 
ENDBRANCH  49  68
BRANCH  61  74
ATOM     74  C   UNL A   1      47.744  26.347  30.535  1.00  0.00    -0.014 A 
ATOM     75  C   UNL A   1      48.092  25.859  31.803  1.00  0.00     0.009 A 
ATOM     76  C   UNL A   1      48.705  26.329  29.511  1.00  0.00     0.009 A 
ATOM     77  C   UNL A   1      49.384  25.392  32.050  1.00  0.00     0.001 A 
ATOM     78  C   UNL A   1      49.988  25.836  29.753  1.00  0.00     0.001 A 
ATOM     79  C   UNL A   1      50.328  25.376  31.024  1.00  0.00     0.000 A 
ENDBRANCH  61  74
ENDBRANCH  35  36
ENDBRANCH  27  30
ENDBRANCH  25  26
ENDBRANCH  24  25
ENDBRANCH   1  24
TORSDOF 13
ENDMDL
MODEL 3
REMARK VINA RESULT:     -11.4      2.583      7.825
REMARK SMILES Cc1ncccc1C(=O)Nc1ccccc1C(=O)NCCCCNC(=O)c1ccc(-c2c3nc(c(-c4ccccc4)c4ccc([nH]4)c(-c4ccccc4)c4nc(c(-c5ccccc5)c5ccc2[nH]5)C=C4)C=C3)cc1
REMARK SMILES IDX 21 1 20 2 19 3 17 4 18 5 16 7 11 8 12 9 13 10 15 11 14 12
REMARK SMILES IDX 10 13 8 14 9 15 7 17 1 18 2 19 3 20 4 21 6 22 5 23 22 24
REMARK SMILES IDX 23 25 24 26 25 27 26 29 27 30 28 31 74 32 29 33 73 34 30 35
REMARK SMILES IDX 31 36 32 37 67 38 33 39 72 40 66 41 68 42 34 43 71 44 65 45
REMARK SMILES IDX 64 46 35 48 57 49 42 50 56 51 43 52 46 53 55 54 69 55 44 56
REMARK SMILES IDX 45 57 54 59 70 60 47 61 36 62 37 63 41 64 38 65 40 66 39 67
REMARK SMILES IDX 58 68 59 69 63 70 60 71 62 72 61 73 48 74 49 75 53 76 50 77
REMARK SMILES IDX 52 78 51 79
REMARK H PARENT 19 6 10 16 24 28 68 47 46 58
REMARK Flexibility Score: inf
ROOT
ATOM      1  C   UNL A   1      35.529  21.950  26.508  1.00  0.00     0.023 C 
ENDROOT
BRANCH   1   2
ATOM      2  C   UNL A   1      34.128  21.929  27.114  1.00  0.00     0.116 C 
BRANCH   2   3
ATOM      3  N   UNL A   1      33.244  20.938  26.535  1.00  0.00    -0.352 N 
ATOM      4  C   UNL A   1      32.558  20.950  25.342  1.00  0.00     0.253 C 
ATOM      5  O   UNL A   1      31.848  19.981  25.077  1.00  0.00    -0.269 OA
ATOM      6  H   UNL A   1      33.113  20.129  27.081  1.00  0.00     0.163 HD
BRANCH   4   7
ATOM      7  C   UNL A   1      32.557  22.123  24.424  1.00  0.00     0.063 A 
ATOM      8  C   UNL A   1      31.605  23.153  24.358  1.00  0.00     0.054 A 
ATOM      9  C   UNL A   1      31.632  24.034  23.258  1.00  0.00     0.027 A 
ATOM     10  C   UNL A   1      32.677  24.012  22.335  1.00  0.00     0.002 A 
ATOM     11  C   UNL A   1      33.623  22.133  23.498  1.00  0.00     0.016 A 
ATOM     12  C   UNL A   1      33.696  23.083  22.478  1.00  0.00     0.001 A 
BRANCH   8  13
ATOM     13  N   UNL A   1      30.616  23.475  25.303  1.00  0.00    -0.321 N 
ATOM     14  C   UNL A   1      30.317  24.621  25.997  1.00  0.00     0.257 C 
ATOM     15  O   UNL A   1      29.498  24.536  26.916  1.00  0.00    -0.269 OA
ATOM     16  H   UNL A   1      30.013  22.725  25.510  1.00  0.00     0.170 HD
BRANCH  14  17
ATOM     17  C   UNL A   1      30.883  25.951  25.695  1.00  0.00     0.061 A 
ATOM     18  C   UNL A   1      29.146  26.640  23.943  1.00  0.00     0.067 C 
ATOM     19  C   UNL A   1      30.367  26.870  24.781  1.00  0.00     0.050 A 
ATOM     20  N   UNL A   1      30.927  28.101  24.604  1.00  0.00    -0.261 NA
ATOM     21  C   UNL A   1      31.983  28.440  25.374  1.00  0.00     0.111 A 
ATOM     22  C   UNL A   1      31.945  26.364  26.516  1.00  0.00     0.017 A 
ATOM     23  C   UNL A   1      32.511  27.621  26.351  1.00  0.00     0.021 A 
ENDBRANCH  14  17
ENDBRANCH   8  13
ENDBRANCH   4   7
ENDBRANCH   2   3
ENDBRANCH   1   2
BRANCH   1  24
ATOM     24  C   UNL A   1      36.060  23.317  26.070  1.00  0.00     0.023 C 
BRANCH  24  25
ATOM     25  C   UNL A   1      37.214  23.320  25.070  1.00  0.00     0.116 C 
BRANCH  25  26
ATOM     26  N   UNL A   1      38.364  22.531  25.483  1.00  0.00    -0.352 N 
ATOM     27  C   UNL A   1      39.462  22.888  26.236  1.00  0.00     0.251 C 
ATOM     28  H   UNL A   1      38.357  21.595  25.178  1.00  0.00     0.163 HD
ATOM     29  O   UNL A   1      40.383  22.102  26.403  1.00  0.00    -0.269 OA
BRANCH  27  30
ATOM     30  C   UNL A   1      39.549  24.251  26.806  1.00  0.00     0.039 A 
ATOM     31  C   UNL A   1      39.007  24.486  28.072  1.00  0.00     0.014 A 
ATOM     32  C   UNL A   1      40.190  25.279  26.115  1.00  0.00     0.014 A 
ATOM     33  C   UNL A   1      39.211  25.721  28.693  1.00  0.00     0.010 A 
ATOM     34  C   UNL A   1      40.460  26.480  26.764  1.00  0.00     0.010 A 
ATOM     35  C   UNL A   1      39.991  26.708  28.067  1.00  0.00    -0.014 A 
BRANCH  35  36
ATOM     36  C   UNL A   1      40.359  27.963  28.773  1.00  0.00     0.031 A 
ATOM     37  C   UNL A   1      41.698  28.098  29.442  1.00  0.00     0.074 A 
ATOM     38  C   UNL A   1      39.452  28.956  28.882  1.00  0.00     0.049 A 
ATOM     39  N   UNL A   1      42.163  29.085  30.165  1.00  0.00    -0.248 NA
ATOM     40  C   UNL A   1      42.627  26.965  29.304  1.00  0.00     0.031 C 
ATOM     41  C   UNL A   1      38.098  28.938  28.322  1.00  0.00     0.029 A 
ATOM     42  N   UNL A   1      39.533  30.176  29.509  1.00  0.00    -0.354 N 
ATOM     43  C   UNL A   1      43.427  28.686  30.581  1.00  0.00     0.074 A 
ATOM     44  C   UNL A   1      43.636  27.348  30.072  1.00  0.00     0.031 C 
ATOM     45  C   UNL A   1      37.488  30.100  28.606  1.00  0.00     0.029 A 
ATOM     46  C   UNL A   1      38.388  30.929  29.400  1.00  0.00     0.049 A 
ATOM     47  H   UNL A   1      40.335  30.482  29.991  1.00  0.00     0.167 HD
ATOM     48  C   UNL A   1      44.341  29.376  31.305  1.00  0.00     0.031 A 
ATOM     49  C   UNL A   1      38.093  32.149  29.887  1.00  0.00     0.031 A 
ATOM     50  C   UNL A   1      44.146  30.712  31.799  1.00  0.00     0.049 A 
ATOM     51  C   UNL A   1      39.123  32.891  30.692  1.00  0.00     0.074 A 
ATOM     52  C   UNL A   1      45.036  31.514  32.492  1.00  0.00     0.029 A 
ATOM     53  N   UNL A   1      42.978  31.445  31.652  1.00  0.00    -0.354 N 
ATOM     54  N   UNL A   1      40.339  32.524  31.017  1.00  0.00    -0.248 NA
ATOM     55  C   UNL A   1      38.743  34.223  31.187  1.00  0.00     0.031 C 
ATOM     56  C   UNL A   1      44.393  32.716  32.803  1.00  0.00     0.029 A 
ATOM     57  C   UNL A   1      43.119  32.682  32.258  1.00  0.00     0.049 A 
ATOM     58  H   UNL A   1      42.169  31.132  31.187  1.00  0.00     0.167 HD
ATOM     59  C   UNL A   1      40.877  33.588  31.728  1.00  0.00     0.074 A 
ATOM     60  C   UNL A   1      39.863  34.621  31.773  1.00  0.00     0.031 C 
ATOM     61  C   UNL A   1      42.104  33.701  32.292  1.00  0.00     0.031 A 
BRANCH  48  62
ATOM     62  C   UNL A   1      45.645  28.690  31.603  1.00  0.00    -0.014 A 
ATOM     63  C   UNL A   1      46.748  28.827  30.745  1.00  0.00     0.009 A 
ATOM     64  C   UNL A   1      45.785  27.930  32.773  1.00  0.00     0.009 A 
ATOM     65  C   UNL A   1      47.954  28.186  31.035  1.00  0.00     0.001 A 
ATOM     66  C   UNL A   1      47.000  27.313  33.076  1.00  0.00     0.001 A 
ATOM     67  C   UNL A   1      48.080  27.434  32.203  1.00  0.00     0.000 A 
ENDBRANCH  48  62
BRANCH  49  68
ATOM     68  C   UNL A   1      36.766  32.763  29.617  1.00  0.00    -0.014 A 
ATOM     69  C   UNL A   1      35.782  32.794  30.618  1.00  0.00     0.009 A 
ATOM     70  C   UNL A   1      36.468  33.301  28.356  1.00  0.00     0.009 A 
ATOM     71  C   UNL A   1      34.516  33.322  30.351  1.00  0.00     0.001 A 
ATOM     72  C   UNL A   1      35.211  33.854  28.101  1.00  0.00     0.001 A 
ATOM     73  C   UNL A   1      34.234  33.854  29.094  1.00  0.00     0.000 A 
ENDBRANCH  49  68
BRANCH  61  74
ATOM     74  C   UNL A   1      42.432  34.999  32.972  1.00  0.00    -0.014 A 
ATOM     75  C   UNL A   1      41.956  35.289  34.259  1.00  0.00     0.009 A 
ATOM     76  C   UNL A   1      43.264  35.929  32.327  1.00  0.00     0.009 A 
ATOM     77  C   UNL A   1      42.281  36.499  34.875  1.00  0.00     0.001 A 
ATOM     78  C   UNL A   1      43.610  37.125  32.957  1.00  0.00     0.001 A 
ATOM     79  C   UNL A   1      43.112  37.412  34.226  1.00  0.00     0.000 A 
ENDBRANCH  61  74
ENDBRANCH  35  36
ENDBRANCH  27  30
ENDBRANCH  25  26
ENDBRANCH  24  25
ENDBRANCH   1  24
TORSDOF 13
ENDMDL
