MODEL 1
REMARK VINA RESULT:      -9.7      0.000      0.000
REMARK SMILES C=CC[N@@H+](CC(=O)NCCCCNC(=O)c1ccc(-c2c3nc(c(-c4ccccc4)c4ccc([nH]4)c(-c4ccccc4)c4nc(c(-c5ccccc5)c5ccc2[nH]5)C=C4)C=C3)cc1)[C@@H]1CC[N@@H+](C(C)C)C1
REMARK SMILES IDX 10 1 9 2 8 3 6 4 7 5 5 7 4 8 3 10 2 11 1 12 64 13 65 14
REMARK SMILES IDX 71 15 66 16 67 17 68 19 69 20 70 21 11 22 12 23 13 24 14 25
REMARK SMILES IDX 15 27 16 28 17 29 63 30 18 31 62 32 19 33 20 34 21 35 56 36
REMARK SMILES IDX 22 37 61 38 55 39 57 40 23 41 60 42 54 43 53 44 24 46 46 47
REMARK SMILES IDX 31 48 45 49 32 50 35 51 44 52 58 53 33 54 34 55 43 57 59 58
REMARK SMILES IDX 36 59 25 60 26 61 30 62 27 63 29 64 28 65 47 66 48 67 52 68
REMARK SMILES IDX 49 69 51 70 50 71 37 72 38 73 42 74 39 75 41 76 40 77
REMARK H PARENT 8 6 4 9 67 18 13 26 57 45 35 56
REMARK Flexibility Score: inf
ROOT
ATOM      1  C   UNL A   1      31.824  30.584  26.621  1.00  0.00     0.023 C 
ENDROOT
BRANCH   1   2
ATOM      2  C   UNL A   1      33.271  30.161  26.904  1.00  0.00     0.116 C 
BRANCH   2   3
ATOM      3  N   UNL A   1      33.378  28.726  27.038  1.00  0.00    -0.351 N 
ATOM      4  C   UNL A   1      33.596  27.762  26.098  1.00  0.00     0.275 C 
ATOM      5  O   UNL A   1      33.611  26.593  26.500  1.00  0.00    -0.269 OA
ATOM      6  H   UNL A   1      33.277  28.388  27.958  1.00  0.00     0.163 HD
BRANCH   4   7
ATOM      7  C   UNL A   1      33.832  28.084  24.605  1.00  0.00     0.364 C 
BRANCH   7   8
ATOM      8  N   UNL A   1      32.713  27.759  23.663  1.00  0.00    -0.317 N 
ATOM      9  H   UNL A   1      32.312  26.843  23.865  1.00  0.00     0.349 HD
BRANCH   8  10
ATOM     10  C   UNL A   1      33.207  27.550  22.315  1.00  0.00     0.291 C 
BRANCH  10  11
ATOM     11  C   UNL A   1      32.805  26.322  21.561  1.00  0.00     0.025 C 
ATOM     12  C   UNL A   1      32.879  25.094  22.102  1.00  0.00     0.010 C 
ENDBRANCH  10  11
ENDBRANCH   8  10
BRANCH   8  13
ATOM     13  C   UNL A   1      31.530  28.616  23.896  1.00  0.00     0.246 C 
ATOM     14  C   UNL A   1      30.414  27.772  24.509  1.00  0.00     0.132 C 
ATOM     15  C   UNL A   1      30.791  29.338  22.746  1.00  0.00     0.328 C 
ATOM     16  C   UNL A   1      29.536  27.417  23.326  1.00  0.00     0.269 C 
ATOM     17  N   UNL A   1      29.572  28.577  22.430  1.00  0.00    -0.328 N 
ATOM     18  H   UNL A   1      29.624  28.264  21.460  1.00  0.00     0.348 HD
BRANCH  17  19
ATOM     19  C   UNL A   1      28.328  29.362  22.390  1.00  0.00     0.177 C 
ATOM     20  C   UNL A   1      27.128  28.741  23.119  1.00  0.00     0.075 C 
ATOM     21  C   UNL A   1      28.580  30.787  22.896  1.00  0.00     0.075 C 
ENDBRANCH  17  19
ENDBRANCH   8  13
ENDBRANCH   7   8
ENDBRANCH   4   7
ENDBRANCH   2   3
ENDBRANCH   1   2
BRANCH   1  22
ATOM     22  C   UNL A   1      31.477  32.038  26.872  1.00  0.00     0.023 C 
BRANCH  22  23
ATOM     23  C   UNL A   1      32.665  32.923  27.192  1.00  0.00     0.116 C 
BRANCH  23  24
ATOM     24  N   UNL A   1      32.321  34.234  27.726  1.00  0.00    -0.352 N 
ATOM     25  C   UNL A   1      32.961  34.939  28.722  1.00  0.00     0.251 C 
ATOM     26  H   UNL A   1      31.534  34.670  27.326  1.00  0.00     0.163 HD
ATOM     27  O   UNL A   1      32.523  36.010  29.115  1.00  0.00    -0.269 OA
BRANCH  25  28
ATOM     28  C   UNL A   1      34.166  34.348  29.340  1.00  0.00     0.039 A 
ATOM     29  C   UNL A   1      34.023  33.500  30.439  1.00  0.00     0.014 A 
ATOM     30  C   UNL A   1      35.423  34.571  28.776  1.00  0.00     0.014 A 
ATOM     31  C   UNL A   1      35.142  32.827  30.933  1.00  0.00     0.010 A 
ATOM     32  C   UNL A   1      36.502  33.804  29.181  1.00  0.00     0.010 A 
ATOM     33  C   UNL A   1      36.383  32.952  30.288  1.00  0.00    -0.014 A 
BRANCH  33  34
ATOM     34  C   UNL A   1      37.598  32.274  30.797  1.00  0.00     0.031 A 
ATOM     35  C   UNL A   1      38.257  32.797  32.047  1.00  0.00     0.074 A 
ATOM     36  C   UNL A   1      38.139  31.247  30.116  1.00  0.00     0.049 A 
ATOM     37  N   UNL A   1      39.362  32.404  32.625  1.00  0.00    -0.248 NA
ATOM     38  C   UNL A   1      37.612  33.945  32.709  1.00  0.00     0.031 C 
ATOM     39  C   UNL A   1      37.630  30.689  28.862  1.00  0.00     0.029 A 
ATOM     40  N   UNL A   1      39.248  30.488  30.391  1.00  0.00    -0.354 N 
ATOM     41  C   UNL A   1      39.558  33.279  33.687  1.00  0.00     0.074 A 
ATOM     42  C   UNL A   1      38.504  34.262  33.632  1.00  0.00     0.031 C 
ATOM     43  C   UNL A   1      38.398  29.648  28.500  1.00  0.00     0.029 A 
ATOM     44  C   UNL A   1      39.471  29.489  29.476  1.00  0.00     0.049 A 
ATOM     45  H   UNL A   1      39.830  30.645  31.170  1.00  0.00     0.167 HD
ATOM     46  C   UNL A   1      40.508  33.245  34.650  1.00  0.00     0.031 A 
ATOM     47  C   UNL A   1      40.428  28.542  29.441  1.00  0.00     0.031 A 
ATOM     48  C   UNL A   1      41.525  32.235  34.733  1.00  0.00     0.049 A 
ATOM     49  C   UNL A   1      41.446  28.494  30.548  1.00  0.00     0.074 A 
ATOM     50  C   UNL A   1      42.497  32.065  35.701  1.00  0.00     0.029 A 
ATOM     51  N   UNL A   1      41.686  31.212  33.812  1.00  0.00    -0.354 N 
ATOM     52  N   UNL A   1      41.579  29.287  31.584  1.00  0.00    -0.248 NA
ATOM     53  C   UNL A   1      42.430  27.405  30.491  1.00  0.00     0.031 C 
ATOM     54  C   UNL A   1      43.269  30.953  35.349  1.00  0.00     0.029 A 
ATOM     55  C   UNL A   1      42.745  30.406  34.188  1.00  0.00     0.049 A 
ATOM     56  H   UNL A   1      41.130  31.079  33.011  1.00  0.00     0.167 HD
ATOM     57  C   UNL A   1      42.637  28.773  32.322  1.00  0.00     0.074 A 
ATOM     58  C   UNL A   1      43.101  27.593  31.620  1.00  0.00     0.031 C 
ATOM     59  C   UNL A   1      43.177  29.231  33.477  1.00  0.00     0.031 A 
BRANCH  46  60
ATOM     60  C   UNL A   1      40.471  34.331  35.690  1.00  0.00    -0.014 A 
ATOM     61  C   UNL A   1      41.255  35.489  35.561  1.00  0.00     0.009 A 
ATOM     62  C   UNL A   1      39.643  34.194  36.814  1.00  0.00     0.009 A 
ATOM     63  C   UNL A   1      41.248  36.465  36.559  1.00  0.00     0.001 A 
ATOM     64  C   UNL A   1      39.613  35.187  37.795  1.00  0.00     0.001 A 
ATOM     65  C   UNL A   1      40.424  36.315  37.673  1.00  0.00     0.000 A 
ENDBRANCH  46  60
BRANCH  47  66
ATOM     66  C   UNL A   1      40.440  27.530  28.354  1.00  0.00    -0.014 A 
ATOM     67  C   UNL A   1      41.164  27.764  27.175  1.00  0.00     0.009 A 
ATOM     68  C   UNL A   1      39.726  26.329  28.483  1.00  0.00     0.009 A 
ATOM     69  C   UNL A   1      41.148  26.832  26.134  1.00  0.00     0.001 A 
ATOM     70  C   UNL A   1      39.732  25.387  27.452  1.00  0.00     0.001 A 
ATOM     71  C   UNL A   1      40.434  25.643  26.275  1.00  0.00     0.000 A 
ENDBRANCH  47  66
BRANCH  59  72
ATOM     72  C   UNL A   1      44.291  28.426  34.080  1.00  0.00    -0.014 A 
ATOM     73  C   UNL A   1      45.635  28.698  33.783  1.00  0.00     0.009 A 
ATOM     74  C   UNL A   1      43.986  27.404  34.994  1.00  0.00     0.009 A 
ATOM     75  C   UNL A   1      46.651  27.939  34.364  1.00  0.00     0.001 A 
ATOM     76  C   UNL A   1      45.006  26.666  35.595  1.00  0.00     0.001 A 
ATOM     77  C   UNL A   1      46.336  26.927  35.271  1.00  0.00     0.000 A 
ENDBRANCH  59  72
ENDBRANCH  33  34
ENDBRANCH  25  28
ENDBRANCH  23  24
ENDBRANCH  22  23
ENDBRANCH   1  22
TORSDOF 16
ENDMDL
MODEL 2
REMARK VINA RESULT:      -9.7      3.962      6.023
REMARK SMILES C=CC[N@@H+](CC(=O)NCCCCNC(=O)c1ccc(-c2c3nc(c(-c4ccccc4)c4ccc([nH]4)c(-c4ccccc4)c4nc(c(-c5ccccc5)c5ccc2[nH]5)C=C4)C=C3)cc1)[C@@H]1CC[N@@H+](C(C)C)C1
REMARK SMILES IDX 10 1 9 2 8 3 6 4 7 5 5 7 4 8 3 10 2 11 1 12 64 13 65 14
REMARK SMILES IDX 71 15 66 16 67 17 68 19 69 20 70 21 11 22 12 23 13 24 14 25
REMARK SMILES IDX 15 27 16 28 17 29 63 30 18 31 62 32 19 33 20 34 21 35 56 36
REMARK SMILES IDX 22 37 61 38 55 39 57 40 23 41 60 42 54 43 53 44 24 46 46 47
REMARK SMILES IDX 31 48 45 49 32 50 35 51 44 52 58 53 33 54 34 55 43 57 59 58
REMARK SMILES IDX 36 59 25 60 26 61 30 62 27 63 29 64 28 65 47 66 48 67 52 68
REMARK SMILES IDX 49 69 51 70 50 71 37 72 38 73 42 74 39 75 41 76 40 77
REMARK H PARENT 8 6 4 9 67 18 13 26 57 45 35 56
REMARK Flexibility Score: inf
ROOT
ATOM      1  C   UNL A   1      32.348  26.668  26.224  1.00  0.00     0.023 C 
ENDROOT
BRANCH   1   2
ATOM      2  C   UNL A   1      33.687  26.123  25.713  1.00  0.00     0.116 C 
BRANCH   2   3
ATOM      3  N   UNL A   1      33.603  25.756  24.317  1.00  0.00    -0.351 N 
ATOM      4  C   UNL A   1      34.217  24.754  23.627  1.00  0.00     0.275 C 
ATOM      5  O   UNL A   1      33.978  24.692  22.415  1.00  0.00    -0.269 OA
ATOM      6  H   UNL A   1      33.005  26.322  23.777  1.00  0.00     0.163 HD
BRANCH   4   7
ATOM      7  C   UNL A   1      35.152  23.723  24.297  1.00  0.00     0.364 C 
BRANCH   7   8
ATOM      8  N   UNL A   1      34.496  22.655  25.118  1.00  0.00    -0.317 N 
ATOM      9  H   UNL A   1      33.497  22.831  25.227  1.00  0.00     0.349 HD
BRANCH   8  10
ATOM     10  C   UNL A   1      34.936  22.710  26.500  1.00  0.00     0.291 C 
BRANCH  10  11
ATOM     11  C   UNL A   1      33.939  22.533  27.602  1.00  0.00     0.025 C 
ATOM     12  C   UNL A   1      32.636  22.819  27.441  1.00  0.00     0.010 C 
ENDBRANCH  10  11
ENDBRANCH   8  10
BRANCH   8  13
ATOM     13  C   UNL A   1      34.453  21.359  24.405  1.00  0.00     0.246 C 
ATOM     14  C   UNL A   1      33.017  21.075  23.969  1.00  0.00     0.132 C 
ATOM     15  C   UNL A   1      34.852  20.028  25.081  1.00  0.00     0.328 C 
ATOM     16  C   UNL A   1      32.489  20.146  25.044  1.00  0.00     0.269 C 
ATOM     17  N   UNL A   1      33.623  19.311  25.452  1.00  0.00    -0.328 N 
ATOM     18  H   UNL A   1      33.611  19.182  26.464  1.00  0.00     0.348 HD
BRANCH  17  19
ATOM     19  C   UNL A   1      33.546  17.911  25.006  1.00  0.00     0.177 C 
ATOM     20  C   UNL A   1      32.209  17.485  24.382  1.00  0.00     0.075 C 
ATOM     21  C   UNL A   1      34.705  17.591  24.053  1.00  0.00     0.075 C 
ENDBRANCH  17  19
ENDBRANCH   8  13
ENDBRANCH   7   8
ENDBRANCH   4   7
ENDBRANCH   2   3
ENDBRANCH   1   2
BRANCH   1  22
ATOM     22  C   UNL A   1      32.311  28.136  26.604  1.00  0.00     0.023 C 
BRANCH  22  23
ATOM     23  C   UNL A   1      33.556  28.637  27.306  1.00  0.00     0.116 C 
BRANCH  23  24
ATOM     24  N   UNL A   1      33.486  30.021  27.755  1.00  0.00    -0.352 N 
ATOM     25  C   UNL A   1      34.492  30.787  28.302  1.00  0.00     0.251 C 
ATOM     26  H   UNL A   1      32.612  30.463  27.655  1.00  0.00     0.163 HD
ATOM     27  O   UNL A   1      34.274  31.924  28.694  1.00  0.00    -0.269 OA
BRANCH  25  28
ATOM     28  C   UNL A   1      35.834  30.186  28.451  1.00  0.00     0.039 A 
ATOM     29  C   UNL A   1      36.744  30.277  27.396  1.00  0.00     0.014 A 
ATOM     30  C   UNL A   1      36.212  29.607  29.664  1.00  0.00     0.014 A 
ATOM     31  C   UNL A   1      38.055  29.840  27.585  1.00  0.00     0.010 A 
ATOM     32  C   UNL A   1      37.542  29.298  29.890  1.00  0.00     0.010 A 
ATOM     33  C   UNL A   1      38.470  29.375  28.843  1.00  0.00    -0.014 A 
BRANCH  33  34
ATOM     34  C   UNL A   1      39.846  28.879  29.076  1.00  0.00     0.031 A 
ATOM     35  C   UNL A   1      40.852  29.792  29.730  1.00  0.00     0.074 A 
ATOM     36  C   UNL A   1      40.210  27.655  28.652  1.00  0.00     0.049 A 
ATOM     37  N   UNL A   1      42.122  29.592  29.963  1.00  0.00    -0.248 NA
ATOM     38  C   UNL A   1      40.373  31.127  30.133  1.00  0.00     0.031 C 
ATOM     39  C   UNL A   1      39.346  26.700  27.953  1.00  0.00     0.029 A 
ATOM     40  N   UNL A   1      41.413  27.003  28.751  1.00  0.00    -0.354 N 
ATOM     41  C   UNL A   1      42.595  30.783  30.500  1.00  0.00     0.074 A 
ATOM     42  C   UNL A   1      41.499  31.721  30.492  1.00  0.00     0.031 C 
ATOM     43  C   UNL A   1      40.035  25.569  27.726  1.00  0.00     0.029 A 
ATOM     44  C   UNL A   1      41.394  25.731  28.232  1.00  0.00     0.049 A 
ATOM     45  H   UNL A   1      42.214  27.408  29.155  1.00  0.00     0.167 HD
ATOM     46  C   UNL A   1      43.823  31.062  30.995  1.00  0.00     0.031 A 
ATOM     47  C   UNL A   1      42.364  24.799  28.185  1.00  0.00     0.031 A 
ATOM     48  C   UNL A   1      44.896  30.111  31.050  1.00  0.00     0.049 A 
ATOM     49  C   UNL A   1      43.707  25.115  28.784  1.00  0.00     0.074 A 
ATOM     50  C   UNL A   1      46.160  30.264  31.590  1.00  0.00     0.029 A 
ATOM     51  N   UNL A   1      44.821  28.818  30.556  1.00  0.00    -0.354 N 
ATOM     52  N   UNL A   1      44.120  26.223  29.351  1.00  0.00    -0.248 NA
ATOM     53  C   UNL A   1      44.709  24.040  28.759  1.00  0.00     0.031 C 
ATOM     54  C   UNL A   1      46.862  29.070  31.395  1.00  0.00     0.029 A 
ATOM     55  C   UNL A   1      46.017  28.161  30.777  1.00  0.00     0.049 A 
ATOM     56  H   UNL A   1      44.032  28.426  30.116  1.00  0.00     0.167 HD
ATOM     57  C   UNL A   1      45.415  25.969  29.781  1.00  0.00     0.074 A 
ATOM     58  C   UNL A   1      45.714  24.597  29.421  1.00  0.00     0.031 C 
ATOM     59  C   UNL A   1      46.282  26.793  30.420  1.00  0.00     0.031 A 
BRANCH  46  60
ATOM     60  C   UNL A   1      44.050  32.451  31.524  1.00  0.00    -0.014 A 
ATOM     61  C   UNL A   1      43.796  32.768  32.869  1.00  0.00     0.009 A 
ATOM     62  C   UNL A   1      44.522  33.457  30.667  1.00  0.00     0.009 A 
ATOM     63  C   UNL A   1      43.965  34.074  33.334  1.00  0.00     0.001 A 
ATOM     64  C   UNL A   1      44.720  34.756  31.143  1.00  0.00     0.001 A 
ATOM     65  C   UNL A   1      44.430  35.065  32.471  1.00  0.00     0.000 A 
ENDBRANCH  46  60
BRANCH  47  66
ATOM     66  C   UNL A   1      42.089  23.462  27.598  1.00  0.00    -0.014 A 
ATOM     67  C   UNL A   1      42.440  23.185  26.268  1.00  0.00     0.009 A 
ATOM     68  C   UNL A   1      41.471  22.458  28.358  1.00  0.00     0.009 A 
ATOM     69  C   UNL A   1      42.149  21.942  25.700  1.00  0.00     0.001 A 
ATOM     70  C   UNL A   1      41.205  21.206  27.797  1.00  0.00     0.001 A 
ATOM     71  C   UNL A   1      41.535  20.953  26.466  1.00  0.00     0.000 A 
ENDBRANCH  47  66
BRANCH  59  72
ATOM     72  C   UNL A   1      47.611  26.216  30.815  1.00  0.00    -0.014 A 
ATOM     73  C   UNL A   1      47.844  25.739  32.114  1.00  0.00     0.009 A 
ATOM     74  C   UNL A   1      48.630  26.113  29.856  1.00  0.00     0.009 A 
ATOM     75  C   UNL A   1      49.086  25.201  32.453  1.00  0.00     0.001 A 
ATOM     76  C   UNL A   1      49.861  25.548  30.189  1.00  0.00     0.001 A 
ATOM     77  C   UNL A   1      50.091  25.103  31.490  1.00  0.00     0.000 A 
ENDBRANCH  59  72
ENDBRANCH  33  34
ENDBRANCH  25  28
ENDBRANCH  23  24
ENDBRANCH  22  23
ENDBRANCH   1  22
TORSDOF 16
ENDMDL
MODEL 3
REMARK VINA RESULT:      -9.6      4.212      9.200
REMARK SMILES C=CC[N@@H+](CC(=O)NCCCCNC(=O)c1ccc(-c2c3nc(c(-c4ccccc4)c4ccc([nH]4)c(-c4ccccc4)c4nc(c(-c5ccccc5)c5ccc2[nH]5)C=C4)C=C3)cc1)[C@@H]1CC[N@@H+](C(C)C)C1
REMARK SMILES IDX 10 1 9 2 8 3 6 4 7 5 5 7 4 8 3 10 2 11 1 12 64 13 65 14
REMARK SMILES IDX 71 15 66 16 67 17 68 19 69 20 70 21 11 22 12 23 13 24 14 25
REMARK SMILES IDX 15 27 16 28 17 29 63 30 18 31 62 32 19 33 20 34 21 35 56 36
REMARK SMILES IDX 22 37 61 38 55 39 57 40 23 41 60 42 54 43 53 44 24 46 46 47
REMARK SMILES IDX 31 48 45 49 32 50 35 51 44 52 58 53 33 54 34 55 43 57 59 58
REMARK SMILES IDX 36 59 25 60 26 61 30 62 27 63 29 64 28 65 47 66 48 67 52 68
REMARK SMILES IDX 49 69 51 70 50 71 37 72 38 73 42 74 39 75 41 76 40 77
REMARK H PARENT 8 6 4 9 67 18 13 26 57 45 35 56
REMARK Flexibility Score: inf
ROOT
ATOM      1  C   UNL A   1      37.426  21.561  24.569  1.00  0.00     0.023 C 
ENDROOT
BRANCH   1   2
ATOM      2  C   UNL A   1      37.536  22.669  25.623  1.00  0.00     0.116 C 
BRANCH   2   3
ATOM      3  N   UNL A   1      36.300  22.816  26.358  1.00  0.00    -0.351 N 
ATOM      4  C   UNL A   1      35.136  23.439  26.016  1.00  0.00     0.275 C 
ATOM      5  O   UNL A   1      34.237  23.433  26.865  1.00  0.00    -0.269 OA
ATOM      6  H   UNL A   1      36.297  22.399  27.250  1.00  0.00     0.163 HD
BRANCH   4   7
ATOM      7  C   UNL A   1      34.914  24.109  24.642  1.00  0.00     0.364 C 
BRANCH   7   8
ATOM      8  N   UNL A   1      33.572  23.913  24.007  1.00  0.00    -0.317 N 
ATOM      9  H   UNL A   1      32.849  23.748  24.709  1.00  0.00     0.349 HD
BRANCH   8  10
ATOM     10  C   UNL A   1      33.520  22.669  23.262  1.00  0.00     0.291 C 
BRANCH  10  11
ATOM     11  C   UNL A   1      33.219  21.389  23.977  1.00  0.00     0.025 C 
ATOM     12  C   UNL A   1      32.174  21.265  24.813  1.00  0.00     0.010 C 
ENDBRANCH  10  11
ENDBRANCH   8  10
BRANCH   8  13
ATOM     13  C   UNL A   1      33.060  25.162  23.401  1.00  0.00     0.246 C 
ATOM     14  C   UNL A   1      33.718  26.358  24.089  1.00  0.00     0.132 C 
ATOM     15  C   UNL A   1      31.566  25.551  23.442  1.00  0.00     0.328 C 
ATOM     16  C   UNL A   1      32.688  26.800  25.110  1.00  0.00     0.269 C 
ATOM     17  N   UNL A   1      31.379  26.561  24.496  1.00  0.00    -0.328 N 
ATOM     18  H   UNL A   1      30.732  26.190  25.193  1.00  0.00     0.348 HD
BRANCH  17  19
ATOM     19  C   UNL A   1      30.660  27.778  24.088  1.00  0.00     0.177 C 
ATOM     20  C   UNL A   1      31.253  29.101  24.595  1.00  0.00     0.075 C 
ATOM     21  C   UNL A   1      30.498  27.816  22.563  1.00  0.00     0.075 C 
ENDBRANCH  17  19
ENDBRANCH   8  13
ENDBRANCH   7   8
ENDBRANCH   4   7
ENDBRANCH   2   3
ENDBRANCH   1   2
BRANCH   1  22
ATOM     22  C   UNL A   1      37.977  20.201  24.949  1.00  0.00     0.023 C 
BRANCH  22  23
ATOM     23  C   UNL A   1      39.050  20.233  26.018  1.00  0.00     0.116 C 
BRANCH  23  24
ATOM     24  N   UNL A   1      40.174  19.337  25.778  1.00  0.00    -0.352 N 
ATOM     25  C   UNL A   1      41.515  19.586  25.977  1.00  0.00     0.251 C 
ATOM     26  H   UNL A   1      39.948  18.444  25.432  1.00  0.00     0.163 HD
ATOM     27  O   UNL A   1      42.360  18.758  25.673  1.00  0.00    -0.269 OA
BRANCH  25  28
ATOM     28  C   UNL A   1      41.914  20.901  26.522  1.00  0.00     0.039 A 
ATOM     29  C   UNL A   1      42.249  21.932  25.643  1.00  0.00     0.014 A 
ATOM     30  C   UNL A   1      41.872  21.129  27.899  1.00  0.00     0.014 A 
ATOM     31  C   UNL A   1      42.484  23.211  26.148  1.00  0.00     0.010 A 
ATOM     32  C   UNL A   1      41.975  22.422  28.382  1.00  0.00     0.010 A 
ATOM     33  C   UNL A   1      42.319  23.471  27.518  1.00  0.00    -0.014 A 
BRANCH  33  34
ATOM     34  C   UNL A   1      42.583  24.809  28.095  1.00  0.00     0.031 A 
ATOM     35  C   UNL A   1      43.983  25.152  28.536  1.00  0.00     0.074 A 
ATOM     36  C   UNL A   1      41.575  25.681  28.282  1.00  0.00     0.049 A 
ATOM     37  N   UNL A   1      44.423  26.231  29.130  1.00  0.00    -0.248 NA
ATOM     38  C   UNL A   1      45.018  24.124  28.322  1.00  0.00     0.031 C 
ATOM     39  C   UNL A   1      40.168  25.445  27.953  1.00  0.00     0.029 A 
ATOM     40  N   UNL A   1      41.586  26.952  28.800  1.00  0.00    -0.354 N 
ATOM     41  C   UNL A   1      45.766  25.991  29.390  1.00  0.00     0.074 A 
ATOM     42  C   UNL A   1      46.053  24.645  28.959  1.00  0.00     0.031 C 
ATOM     43  C   UNL A   1      39.459  26.550  28.236  1.00  0.00     0.029 A 
ATOM     44  C   UNL A   1      40.354  27.558  28.795  1.00  0.00     0.049 A 
ATOM     45  H   UNL A   1      42.400  27.388  29.142  1.00  0.00     0.167 HD
ATOM     46  C   UNL A   1      46.693  26.831  29.907  1.00  0.00     0.031 A 
ATOM     47  C   UNL A   1      39.994  28.794  29.186  1.00  0.00     0.031 A 
ATOM     48  C   UNL A   1      46.418  28.187  30.287  1.00  0.00     0.049 A 
ATOM     49  C   UNL A   1      41.050  29.728  29.713  1.00  0.00     0.074 A 
ATOM     50  C   UNL A   1      47.294  29.148  30.758  1.00  0.00     0.029 A 
ATOM     51  N   UNL A   1      45.165  28.778  30.222  1.00  0.00    -0.354 N 
ATOM     52  N   UNL A   1      42.331  29.511  29.891  1.00  0.00    -0.248 NA
ATOM     53  C   UNL A   1      40.613  31.084  30.069  1.00  0.00     0.031 C 
ATOM     54  C   UNL A   1      46.564  30.314  31.008  1.00  0.00     0.029 A 
ATOM     55  C   UNL A   1      45.244  30.092  30.646  1.00  0.00     0.049 A 
ATOM     56  H   UNL A   1      44.344  28.329  29.917  1.00  0.00     0.167 HD
ATOM     57  C   UNL A   1      42.860  30.712  30.345  1.00  0.00     0.074 A 
ATOM     58  C   UNL A   1      41.761  31.656  30.402  1.00  0.00     0.031 C 
ATOM     59  C   UNL A   1      44.138  31.012  30.681  1.00  0.00     0.031 A 
BRANCH  46  60
ATOM     60  C   UNL A   1      48.089  26.296  30.072  1.00  0.00    -0.014 A 
ATOM     61  C   UNL A   1      49.008  26.321  29.009  1.00  0.00     0.009 A 
ATOM     62  C   UNL A   1      48.490  25.757  31.303  1.00  0.00     0.009 A 
ATOM     63  C   UNL A   1      50.284  25.775  29.163  1.00  0.00     0.001 A 
ATOM     64  C   UNL A   1      49.778  25.240  31.464  1.00  0.00     0.001 A 
ATOM     65  C   UNL A   1      50.669  25.239  30.391  1.00  0.00     0.000 A 
ENDBRANCH  46  60
BRANCH  47  66
ATOM     66  C   UNL A   1      38.585  29.244  29.046  1.00  0.00    -0.014 A 
ATOM     67  C   UNL A   1      37.710  29.187  30.143  1.00  0.00     0.009 A 
ATOM     68  C   UNL A   1      38.103  29.725  27.820  1.00  0.00     0.009 A 
ATOM     69  C   UNL A   1      36.374  29.573  30.007  1.00  0.00     0.001 A 
ATOM     70  C   UNL A   1      36.774  30.135  27.693  1.00  0.00     0.001 A 
ATOM     71  C   UNL A   1      35.908  30.048  28.783  1.00  0.00     0.000 A 
ENDBRANCH  47  66
BRANCH  59  72
ATOM     72  C   UNL A   1      44.426  32.428  31.089  1.00  0.00    -0.014 A 
ATOM     73  C   UNL A   1      44.764  33.407  30.144  1.00  0.00     0.009 A 
ATOM     74  C   UNL A   1      44.313  32.791  32.440  1.00  0.00     0.009 A 
ATOM     75  C   UNL A   1      45.020  34.718  30.550  1.00  0.00     0.001 A 
ATOM     76  C   UNL A   1      44.540  34.108  32.840  1.00  0.00     0.001 A 
ATOM     77  C   UNL A   1      44.903  35.068  31.896  1.00  0.00     0.000 A 
ENDBRANCH  59  72
ENDBRANCH  33  34
ENDBRANCH  25  28
ENDBRANCH  23  24
ENDBRANCH  22  23
ENDBRANCH   1  22
TORSDOF 16
ENDMDL
