MODEL 1
REMARK VINA RESULT:     -10.0      0.000      0.000
REMARK SMILES CN(CC(=O)NCCCCNC(=O)c1ccc(-c2c3nc(c(-c4ccccc4)c4ccc([nH]4)c(-c4ccccc4)c4nc(c(-c5ccccc5)c5ccc2[nH]5)C=C4)C=C3)cc1)C(=O)c1ccccn1
REMARK SMILES IDX 8 1 7 2 6 3 4 4 5 5 3 7 2 8 1 9 62 10 63 11 64 12 65 13
REMARK SMILES IDX 69 14 66 15 68 16 67 17 9 18 10 19 11 20 12 21 13 23 14 24
REMARK SMILES IDX 15 25 61 26 16 27 60 28 17 29 18 30 19 31 54 32 20 33 59 34
REMARK SMILES IDX 53 35 55 36 21 37 58 38 52 39 51 40 22 42 44 43 29 44 43 45
REMARK SMILES IDX 30 46 33 47 42 48 56 49 31 50 32 51 41 53 57 54 34 55 23 56
REMARK SMILES IDX 24 57 28 58 25 59 27 60 26 61 45 62 46 63 50 64 47 65 49 66
REMARK SMILES IDX 48 67 35 68 36 69 40 70 37 71 39 72 38 73
REMARK H PARENT 6 6 11 22 55 41 33 52
REMARK Flexibility Score: inf
ROOT
ATOM      1  C   UNL A   1      36.520  20.090  24.994  1.00  0.00     0.023 C 
ENDROOT
BRANCH   1   2
ATOM      2  C   UNL A   1      36.080  21.540  25.181  1.00  0.00     0.116 C 
BRANCH   2   3
ATOM      3  N   UNL A   1      35.534  21.813  26.493  1.00  0.00    -0.355 N 
ATOM      4  C   UNL A   1      34.372  22.438  26.841  1.00  0.00     0.239 C 
ATOM      5  O   UNL A   1      33.999  22.304  28.011  1.00  0.00    -0.273 OA
ATOM      6  H   UNL A   1      36.083  21.501  27.247  1.00  0.00     0.163 HD
BRANCH   4   7
ATOM      7  C   UNL A   1      33.480  23.157  25.812  1.00  0.00     0.219 C 
BRANCH   7   8
ATOM      8  N   UNL A   1      32.405  22.356  25.216  1.00  0.00    -0.331 N 
ATOM      9  C   UNL A   1      31.036  22.610  25.637  1.00  0.00     0.147 C 
BRANCH   8  10
ATOM     10  C   UNL A   1      32.557  21.589  24.048  1.00  0.00     0.272 C 
ATOM     11  O   UNL A   1      32.639  22.100  22.931  1.00  0.00    -0.267 OA
BRANCH  10  12
ATOM     12  C   UNL A   1      32.633  20.106  24.154  1.00  0.00     0.128 A 
ATOM     13  C   UNL A   1      32.848  19.502  25.386  1.00  0.00     0.034 A 
ATOM     14  N   UNL A   1      32.470  19.424  22.992  1.00  0.00    -0.251 NA
ATOM     15  C   UNL A   1      32.942  18.115  25.424  1.00  0.00     0.004 A 
ATOM     16  C   UNL A   1      32.527  18.078  23.073  1.00  0.00     0.112 A 
ATOM     17  C   UNL A   1      32.772  17.387  24.250  1.00  0.00     0.020 A 
ENDBRANCH  10  12
ENDBRANCH   8  10
ENDBRANCH   7   8
ENDBRANCH   4   7
ENDBRANCH   2   3
ENDBRANCH   1   2
BRANCH   1  18
ATOM     18  C   UNL A   1      37.991  19.890  24.623  1.00  0.00     0.023 C 
BRANCH  18  19
ATOM     19  C   UNL A   1      38.996  20.084  25.753  1.00  0.00     0.116 C 
BRANCH  19  20
ATOM     20  N   UNL A   1      40.029  19.062  25.799  1.00  0.00    -0.352 N 
ATOM     21  C   UNL A   1      41.371  19.196  26.066  1.00  0.00     0.251 C 
ATOM     22  H   UNL A   1      39.724  18.144  25.613  1.00  0.00     0.163 HD
ATOM     23  O   UNL A   1      42.114  18.221  25.984  1.00  0.00    -0.269 OA
BRANCH  21  24
ATOM     24  C   UNL A   1      41.930  20.520  26.411  1.00  0.00     0.039 A 
ATOM     25  C   UNL A   1      42.333  21.368  25.376  1.00  0.00     0.014 A 
ATOM     26  C   UNL A   1      42.041  20.936  27.741  1.00  0.00     0.014 A 
ATOM     27  C   UNL A   1      42.776  22.660  25.668  1.00  0.00     0.010 A 
ATOM     28  C   UNL A   1      42.418  22.246  28.027  1.00  0.00     0.010 A 
ATOM     29  C   UNL A   1      42.783  23.123  26.994  1.00  0.00    -0.014 A 
BRANCH  29  30
ATOM     30  C   UNL A   1      43.154  24.524  27.319  1.00  0.00     0.031 A 
ATOM     31  C   UNL A   1      44.596  24.951  27.304  1.00  0.00     0.074 A 
ATOM     32  C   UNL A   1      42.200  25.395  27.700  1.00  0.00     0.049 A 
ATOM     33  N   UNL A   1      45.118  26.108  27.627  1.00  0.00    -0.248 NA
ATOM     34  C   UNL A   1      45.583  23.938  26.896  1.00  0.00     0.031 C 
ATOM     35  C   UNL A   1      40.769  25.098  27.794  1.00  0.00     0.029 A 
ATOM     36  N   UNL A   1      42.293  26.709  28.089  1.00  0.00    -0.354 N 
ATOM     37  C   UNL A   1      46.491  25.956  27.479  1.00  0.00     0.074 A 
ATOM     38  C   UNL A   1      46.725  24.584  27.084  1.00  0.00     0.031 C 
ATOM     39  C   UNL A   1      40.116  26.204  28.190  1.00  0.00     0.029 A 
ATOM     40  C   UNL A   1      41.084  27.273  28.414  1.00  0.00     0.049 A 
ATOM     41  H   UNL A   1      43.146  27.198  28.129  1.00  0.00     0.167 HD
ATOM     42  C   UNL A   1      47.468  26.879  27.641  1.00  0.00     0.031 A 
ATOM     43  C   UNL A   1      40.786  28.511  28.853  1.00  0.00     0.031 A 
ATOM     44  C   UNL A   1      47.238  28.247  28.024  1.00  0.00     0.049 A 
ATOM     45  C   UNL A   1      41.890  29.513  29.039  1.00  0.00     0.074 A 
ATOM     46  C   UNL A   1      48.160  29.271  28.158  1.00  0.00     0.029 A 
ATOM     47  N   UNL A   1      45.998  28.780  28.338  1.00  0.00    -0.354 N 
ATOM     48  N   UNL A   1      43.177  29.372  28.832  1.00  0.00    -0.248 NA
ATOM     49  C   UNL A   1      41.498  30.850  29.510  1.00  0.00     0.031 C 
ATOM     50  C   UNL A   1      47.483  30.413  28.600  1.00  0.00     0.029 A 
ATOM     51  C   UNL A   1      46.133  30.113  28.689  1.00  0.00     0.049 A 
ATOM     52  H   UNL A   1      45.148  28.285  28.315  1.00  0.00     0.167 HD
ATOM     53  C   UNL A   1      43.744  30.607  29.119  1.00  0.00     0.074 A 
ATOM     54  C   UNL A   1      42.660  31.488  29.502  1.00  0.00     0.031 C 
ATOM     55  C   UNL A   1      45.047  30.977  29.069  1.00  0.00     0.031 A 
BRANCH  42  56
ATOM     56  C   UNL A   1      48.885  26.430  27.410  1.00  0.00    -0.014 A 
ATOM     57  C   UNL A   1      49.458  26.461  26.129  1.00  0.00     0.009 A 
ATOM     58  C   UNL A   1      49.667  25.999  28.493  1.00  0.00     0.009 A 
ATOM     59  C   UNL A   1      50.772  26.031  25.931  1.00  0.00     0.001 A 
ATOM     60  C   UNL A   1      50.989  25.597  28.297  1.00  0.00     0.001 A 
ATOM     61  C   UNL A   1      51.537  25.603  27.014  1.00  0.00     0.000 A 
ENDBRANCH  42  56
BRANCH  43  62
ATOM     62  C   UNL A   1      39.375  28.881  29.133  1.00  0.00    -0.014 A 
ATOM     63  C   UNL A   1      38.825  28.673  30.407  1.00  0.00     0.009 A 
ATOM     64  C   UNL A   1      38.570  29.442  28.129  1.00  0.00     0.009 A 
ATOM     65  C   UNL A   1      37.490  28.995  30.663  1.00  0.00     0.001 A 
ATOM     66  C   UNL A   1      37.243  29.789  28.397  1.00  0.00     0.001 A 
ATOM     67  C   UNL A   1      36.703  29.557  29.660  1.00  0.00     0.000 A 
ENDBRANCH  43  62
BRANCH  55  68
ATOM     68  C   UNL A   1      45.368  32.406  29.402  1.00  0.00    -0.014 A 
ATOM     69  C   UNL A   1      45.272  33.420  28.436  1.00  0.00     0.009 A 
ATOM     70  C   UNL A   1      45.733  32.749  30.714  1.00  0.00     0.009 A 
ATOM     71  C   UNL A   1      45.567  34.744  28.772  1.00  0.00     0.001 A 
ATOM     72  C   UNL A   1      45.999  34.075  31.052  1.00  0.00     0.001 A 
ATOM     73  C   UNL A   1      45.924  35.070  30.079  1.00  0.00     0.000 A 
ENDBRANCH  55  68
ENDBRANCH  29  30
ENDBRANCH  21  24
ENDBRANCH  19  20
ENDBRANCH  18  19
ENDBRANCH   1  18
TORSDOF 14
ENDMDL
MODEL 2
REMARK VINA RESULT:     -10.0      3.335      7.984
REMARK SMILES CN(CC(=O)NCCCCNC(=O)c1ccc(-c2c3nc(c(-c4ccccc4)c4ccc([nH]4)c(-c4ccccc4)c4nc(c(-c5ccccc5)c5ccc2[nH]5)C=C4)C=C3)cc1)C(=O)c1ccccn1
REMARK SMILES IDX 8 1 7 2 6 3 4 4 5 5 3 7 2 8 1 9 62 10 63 11 64 12 65 13
REMARK SMILES IDX 69 14 66 15 68 16 67 17 9 18 10 19 11 20 12 21 13 23 14 24
REMARK SMILES IDX 15 25 61 26 16 27 60 28 17 29 18 30 19 31 54 32 20 33 59 34
REMARK SMILES IDX 53 35 55 36 21 37 58 38 52 39 51 40 22 42 44 43 29 44 43 45
REMARK SMILES IDX 30 46 33 47 42 48 56 49 31 50 32 51 41 53 57 54 34 55 23 56
REMARK SMILES IDX 24 57 28 58 25 59 27 60 26 61 45 62 46 63 50 64 47 65 49 66
REMARK SMILES IDX 48 67 35 68 36 69 40 70 37 71 39 72 38 73
REMARK H PARENT 6 6 11 22 55 41 33 52
REMARK Flexibility Score: inf
ROOT
ATOM      1  C   UNL A   1      33.258  29.405  24.946  1.00  0.00     0.023 C 
ENDROOT
BRANCH   1   2
ATOM      2  C   UNL A   1      33.165  28.843  23.530  1.00  0.00     0.116 C 
BRANCH   2   3
ATOM      3  N   UNL A   1      31.848  28.968  22.945  1.00  0.00    -0.355 N 
ATOM      4  C   UNL A   1      30.998  28.000  22.493  1.00  0.00     0.239 C 
ATOM      5  O   UNL A   1      29.828  28.337  22.294  1.00  0.00    -0.273 OA
ATOM      6  H   UNL A   1      31.513  29.889  22.861  1.00  0.00     0.163 HD
BRANCH   4   7
ATOM      7  C   UNL A   1      31.421  26.524  22.367  1.00  0.00     0.219 C 
BRANCH   7   8
ATOM      8  N   UNL A   1      31.059  25.649  23.489  1.00  0.00    -0.331 N 
ATOM      9  C   UNL A   1      30.458  24.358  23.194  1.00  0.00     0.147 C 
BRANCH   8  10
ATOM     10  C   UNL A   1      31.533  25.823  24.800  1.00  0.00     0.272 C 
ATOM     11  O   UNL A   1      31.016  26.614  25.588  1.00  0.00    -0.267 OA
BRANCH  10  12
ATOM     12  C   UNL A   1      32.696  25.019  25.267  1.00  0.00     0.128 A 
ATOM     13  C   UNL A   1      33.953  25.218  24.713  1.00  0.00     0.034 A 
ATOM     14  N   UNL A   1      32.432  24.118  26.248  1.00  0.00    -0.251 NA
ATOM     15  C   UNL A   1      34.998  24.418  25.163  1.00  0.00     0.004 A 
ATOM     16  C   UNL A   1      33.478  23.387  26.688  1.00  0.00     0.112 A 
ATOM     17  C   UNL A   1      34.761  23.490  26.173  1.00  0.00     0.020 A 
ENDBRANCH  10  12
ENDBRANCH   8  10
ENDBRANCH   7   8
ENDBRANCH   4   7
ENDBRANCH   2   3
ENDBRANCH   1   2
BRANCH   1  18
ATOM     18  C   UNL A   1      33.907  28.482  25.980  1.00  0.00     0.023 C 
BRANCH  18  19
ATOM     19  C   UNL A   1      33.535  28.744  27.435  1.00  0.00     0.116 C 
BRANCH  19  20
ATOM     20  N   UNL A   1      33.591  30.148  27.809  1.00  0.00    -0.352 N 
ATOM     21  C   UNL A   1      34.641  30.867  28.327  1.00  0.00     0.251 C 
ATOM     22  H   UNL A   1      32.758  30.655  27.670  1.00  0.00     0.163 HD
ATOM     23  O   UNL A   1      34.480  32.039  28.658  1.00  0.00    -0.269 OA
BRANCH  21  24
ATOM     24  C   UNL A   1      35.955  30.221  28.527  1.00  0.00     0.039 A 
ATOM     25  C   UNL A   1      36.879  30.241  27.478  1.00  0.00     0.014 A 
ATOM     26  C   UNL A   1      36.288  29.615  29.742  1.00  0.00     0.014 A 
ATOM     27  C   UNL A   1      38.162  29.721  27.672  1.00  0.00     0.010 A 
ATOM     28  C   UNL A   1      37.587  29.160  29.956  1.00  0.00     0.010 A 
ATOM     29  C   UNL A   1      38.538  29.214  28.926  1.00  0.00    -0.014 A 
BRANCH  29  30
ATOM     30  C   UNL A   1      39.925  28.750  29.184  1.00  0.00     0.031 A 
ATOM     31  C   UNL A   1      40.928  29.671  29.822  1.00  0.00     0.074 A 
ATOM     32  C   UNL A   1      40.304  27.522  28.778  1.00  0.00     0.049 A 
ATOM     33  N   UNL A   1      42.200  29.468  30.061  1.00  0.00    -0.248 NA
ATOM     34  C   UNL A   1      40.445  31.002  30.221  1.00  0.00     0.031 C 
ATOM     35  C   UNL A   1      39.440  26.544  28.113  1.00  0.00     0.029 A 
ATOM     36  N   UNL A   1      41.520  26.890  28.858  1.00  0.00    -0.354 N 
ATOM     37  C   UNL A   1      42.671  30.650  30.620  1.00  0.00     0.074 A 
ATOM     38  C   UNL A   1      41.562  31.580  30.640  1.00  0.00     0.031 C 
ATOM     39  C   UNL A   1      40.147  25.429  27.868  1.00  0.00     0.029 A 
ATOM     40  C   UNL A   1      41.520  25.626  28.322  1.00  0.00     0.049 A 
ATOM     41  H   UNL A   1      42.316  27.305  29.263  1.00  0.00     0.167 HD
ATOM     42  C   UNL A   1      43.909  30.932  31.088  1.00  0.00     0.031 A 
ATOM     43  C   UNL A   1      42.516  24.727  28.200  1.00  0.00     0.031 A 
ATOM     44  C   UNL A   1      45.011  30.007  31.078  1.00  0.00     0.049 A 
ATOM     45  C   UNL A   1      43.885  25.069  28.715  1.00  0.00     0.074 A 
ATOM     46  C   UNL A   1      46.288  30.182  31.584  1.00  0.00     0.029 A 
ATOM     47  N   UNL A   1      44.967  28.734  30.532  1.00  0.00    -0.354 N 
ATOM     48  N   UNL A   1      44.297  26.168  29.300  1.00  0.00    -0.248 NA
ATOM     49  C   UNL A   1      44.925  24.041  28.562  1.00  0.00     0.031 C 
ATOM     50  C   UNL A   1      47.032  29.032  31.300  1.00  0.00     0.029 A 
ATOM     51  C   UNL A   1      46.202  28.121  30.667  1.00  0.00     0.049 A 
ATOM     52  H   UNL A   1      44.176  28.326  30.112  1.00  0.00     0.167 HD
ATOM     53  C   UNL A   1      45.634  25.953  29.610  1.00  0.00     0.074 A 
ATOM     54  C   UNL A   1      45.960  24.616  29.160  1.00  0.00     0.031 C 
ATOM     55  C   UNL A   1      46.512  26.790  30.214  1.00  0.00     0.031 A 
BRANCH  42  56
ATOM     56  C   UNL A   1      44.138  32.310  31.646  1.00  0.00    -0.014 A 
ATOM     57  C   UNL A   1      43.941  32.584  33.009  1.00  0.00     0.009 A 
ATOM     58  C   UNL A   1      44.585  33.340  30.805  1.00  0.00     0.009 A 
ATOM     59  C   UNL A   1      44.148  33.872  33.509  1.00  0.00     0.001 A 
ATOM     60  C   UNL A   1      44.818  34.619  31.312  1.00  0.00     0.001 A 
ATOM     61  C   UNL A   1      44.590  34.886  32.662  1.00  0.00     0.000 A 
ENDBRANCH  42  56
BRANCH  43  62
ATOM     62  C   UNL A   1      42.252  23.405  27.577  1.00  0.00    -0.014 A 
ATOM     63  C   UNL A   1      41.718  22.354  28.340  1.00  0.00     0.009 A 
ATOM     64  C   UNL A   1      42.533  23.184  26.220  1.00  0.00     0.009 A 
ATOM     65  C   UNL A   1      41.495  21.102  27.762  1.00  0.00     0.001 A 
ATOM     66  C   UNL A   1      42.283  21.938  25.639  1.00  0.00     0.001 A 
ATOM     67  C   UNL A   1      41.774  20.897  26.412  1.00  0.00     0.000 A 
ENDBRANCH  43  62
BRANCH  55  68
ATOM     68  C   UNL A   1      47.901  26.271  30.456  1.00  0.00    -0.014 A 
ATOM     69  C   UNL A   1      48.895  26.358  29.469  1.00  0.00     0.009 A 
ATOM     70  C   UNL A   1      48.229  25.722  31.706  1.00  0.00     0.009 A 
ATOM     71  C   UNL A   1      50.182  25.877  29.721  1.00  0.00     0.001 A 
ATOM     72  C   UNL A   1      49.522  25.267  31.963  1.00  0.00     0.001 A 
ATOM     73  C   UNL A   1      50.495  25.338  30.968  1.00  0.00     0.000 A 
ENDBRANCH  55  68
ENDBRANCH  29  30
ENDBRANCH  21  24
ENDBRANCH  19  20
ENDBRANCH  18  19
ENDBRANCH   1  18
TORSDOF 14
ENDMDL
MODEL 3
REMARK VINA RESULT:      -9.9      1.755      3.030
REMARK SMILES CN(CC(=O)NCCCCNC(=O)c1ccc(-c2c3nc(c(-c4ccccc4)c4ccc([nH]4)c(-c4ccccc4)c4nc(c(-c5ccccc5)c5ccc2[nH]5)C=C4)C=C3)cc1)C(=O)c1ccccn1
REMARK SMILES IDX 8 1 7 2 6 3 4 4 5 5 3 7 2 8 1 9 62 10 63 11 64 12 65 13
REMARK SMILES IDX 69 14 66 15 68 16 67 17 9 18 10 19 11 20 12 21 13 23 14 24
REMARK SMILES IDX 15 25 61 26 16 27 60 28 17 29 18 30 19 31 54 32 20 33 59 34
REMARK SMILES IDX 53 35 55 36 21 37 58 38 52 39 51 40 22 42 44 43 29 44 43 45
REMARK SMILES IDX 30 46 33 47 42 48 56 49 31 50 32 51 41 53 57 54 34 55 23 56
REMARK SMILES IDX 24 57 28 58 25 59 27 60 26 61 45 62 46 63 50 64 47 65 49 66
REMARK SMILES IDX 48 67 35 68 36 69 40 70 37 71 39 72 38 73
REMARK H PARENT 6 6 11 22 55 41 33 52
REMARK Flexibility Score: inf
ROOT
ATOM      1  C   UNL A   1      38.909  22.668  26.323  1.00  0.00     0.023 C 
ENDROOT
BRANCH   1   2
ATOM      2  C   UNL A   1      37.706  23.509  25.903  1.00  0.00     0.116 C 
BRANCH   2   3
ATOM      3  N   UNL A   1      37.438  23.464  24.482  1.00  0.00    -0.355 N 
ATOM      4  C   UNL A   1      36.463  22.796  23.799  1.00  0.00     0.239 C 
ATOM      5  O   UNL A   1      36.276  23.135  22.627  1.00  0.00    -0.273 OA
ATOM      6  H   UNL A   1      38.050  23.995  23.924  1.00  0.00     0.163 HD
BRANCH   4   7
ATOM      7  C   UNL A   1      35.535  21.771  24.476  1.00  0.00     0.219 C 
BRANCH   7   8
ATOM      8  N   UNL A   1      34.232  22.274  24.924  1.00  0.00    -0.331 N 
ATOM      9  C   UNL A   1      33.030  21.713  24.326  1.00  0.00     0.147 C 
BRANCH   8  10
ATOM     10  C   UNL A   1      34.044  23.020  26.100  1.00  0.00     0.272 C 
ATOM     11  O   UNL A   1      34.314  22.571  27.214  1.00  0.00    -0.267 OA
BRANCH  10  12
ATOM     12  C   UNL A   1      33.510  24.407  26.007  1.00  0.00     0.128 A 
ATOM     13  C   UNL A   1      34.281  25.417  25.450  1.00  0.00     0.034 A 
ATOM     14  N   UNL A   1      32.252  24.586  26.486  1.00  0.00    -0.251 NA
ATOM     15  C   UNL A   1      33.747  26.701  25.417  1.00  0.00     0.004 A 
ATOM     16  C   UNL A   1      31.751  25.836  26.400  1.00  0.00     0.112 A 
ATOM     17  C   UNL A   1      32.457  26.916  25.893  1.00  0.00     0.020 A 
ENDBRANCH  10  12
ENDBRANCH   8  10
ENDBRANCH   7   8
ENDBRANCH   4   7
ENDBRANCH   2   3
ENDBRANCH   1   2
BRANCH   1  18
ATOM     18  C   UNL A   1      39.100  21.360  25.551  1.00  0.00     0.023 C 
BRANCH  18  19
ATOM     19  C   UNL A   1      39.377  20.121  26.395  1.00  0.00     0.116 C 
BRANCH  19  20
ATOM     20  N   UNL A   1      40.528  19.353  25.947  1.00  0.00    -0.352 N 
ATOM     21  C   UNL A   1      41.856  19.705  25.942  1.00  0.00     0.251 C 
ATOM     22  H   UNL A   1      40.326  18.454  25.599  1.00  0.00     0.163 HD
ATOM     23  O   UNL A   1      42.690  18.950  25.449  1.00  0.00    -0.269 OA
BRANCH  21  24
ATOM     24  C   UNL A   1      42.280  21.011  26.491  1.00  0.00     0.039 A 
ATOM     25  C   UNL A   1      42.676  22.014  25.602  1.00  0.00     0.014 A 
ATOM     26  C   UNL A   1      42.272  21.257  27.867  1.00  0.00     0.014 A 
ATOM     27  C   UNL A   1      42.991  23.286  26.086  1.00  0.00     0.010 A 
ATOM     28  C   UNL A   1      42.519  22.542  28.342  1.00  0.00     0.010 A 
ATOM     29  C   UNL A   1      42.875  23.571  27.456  1.00  0.00    -0.014 A 
BRANCH  29  30
ATOM     30  C   UNL A   1      43.107  24.941  27.981  1.00  0.00     0.031 A 
ATOM     31  C   UNL A   1      44.486  25.372  28.398  1.00  0.00     0.074 A 
ATOM     32  C   UNL A   1      42.063  25.775  28.151  1.00  0.00     0.049 A 
ATOM     33  N   UNL A   1      44.869  26.499  28.943  1.00  0.00    -0.248 NA
ATOM     34  C   UNL A   1      45.572  24.399  28.200  1.00  0.00     0.031 C 
ATOM     35  C   UNL A   1      40.669  25.469  27.822  1.00  0.00     0.029 A 
ATOM     36  N   UNL A   1      42.012  27.053  28.652  1.00  0.00    -0.354 N 
ATOM     37  C   UNL A   1      46.233  26.364  29.169  1.00  0.00     0.074 A 
ATOM     38  C   UNL A   1      46.601  25.030  28.747  1.00  0.00     0.031 C 
ATOM     39  C   UNL A   1      39.905  26.536  28.108  1.00  0.00     0.029 A 
ATOM     40  C   UNL A   1      40.746  27.585  28.675  1.00  0.00     0.049 A 
ATOM     41  H   UNL A   1      42.808  27.540  28.965  1.00  0.00     0.167 HD
ATOM     42  C   UNL A   1      47.105  27.273  29.667  1.00  0.00     0.031 A 
ATOM     43  C   UNL A   1      40.308  28.781  29.110  1.00  0.00     0.031 A 
ATOM     44  C   UNL A   1      46.744  28.603  30.078  1.00  0.00     0.049 A 
ATOM     45  C   UNL A   1      41.293  29.768  29.672  1.00  0.00     0.074 A 
ATOM     46  C   UNL A   1      47.567  29.616  30.542  1.00  0.00     0.029 A 
ATOM     47  N   UNL A   1      45.452  29.105  30.079  1.00  0.00    -0.354 N 
ATOM     48  N   UNL A   1      42.590  29.648  29.818  1.00  0.00    -0.248 NA
ATOM     49  C   UNL A   1      40.753  31.060  30.121  1.00  0.00     0.031 C 
ATOM     50  C   UNL A   1      46.766  30.714  30.869  1.00  0.00     0.029 A 
ATOM     51  C   UNL A   1      45.452  30.406  30.557  1.00  0.00     0.049 A 
ATOM     52  H   UNL A   1      44.654  28.612  29.782  1.00  0.00     0.167 HD
ATOM     53  C   UNL A   1      43.025  30.856  30.348  1.00  0.00     0.074 A 
ATOM     54  C   UNL A   1      41.855  31.699  30.485  1.00  0.00     0.031 C 
ATOM     55  C   UNL A   1      44.281  31.232  30.689  1.00  0.00     0.031 A 
BRANCH  42  56
ATOM     56  C   UNL A   1      48.541  26.848  29.802  1.00  0.00    -0.014 A 
ATOM     57  C   UNL A   1      49.474  27.103  28.784  1.00  0.00     0.009 A 
ATOM     58  C   UNL A   1      48.974  26.212  30.975  1.00  0.00     0.009 A 
ATOM     59  C   UNL A   1      50.802  26.693  28.922  1.00  0.00     0.001 A 
ATOM     60  C   UNL A   1      50.309  25.828  31.122  1.00  0.00     0.001 A 
ATOM     61  C   UNL A   1      51.219  26.059  30.091  1.00  0.00     0.000 A 
ENDBRANCH  42  56
BRANCH  43  62
ATOM     62  C   UNL A   1      38.865  29.124  29.017  1.00  0.00    -0.014 A 
ATOM     63  C   UNL A   1      38.324  29.595  27.811  1.00  0.00     0.009 A 
ATOM     64  C   UNL A   1      38.023  28.986  30.131  1.00  0.00     0.009 A 
ATOM     65  C   UNL A   1      36.973  29.944  27.730  1.00  0.00     0.001 A 
ATOM     66  C   UNL A   1      36.668  29.309  30.039  1.00  0.00     0.001 A 
ATOM     67  C   UNL A   1      36.147  29.797  28.842  1.00  0.00     0.000 A 
ENDBRANCH  43  62
BRANCH  55  68
ATOM     68  C   UNL A   1      44.462  32.630  31.210  1.00  0.00    -0.014 A 
ATOM     69  C   UNL A   1      44.696  33.707  30.341  1.00  0.00     0.009 A 
ATOM     70  C   UNL A   1      44.356  32.877  32.587  1.00  0.00     0.009 A 
ATOM     71  C   UNL A   1      44.852  35.000  30.848  1.00  0.00     0.001 A 
ATOM     72  C   UNL A   1      44.484  34.172  33.088  1.00  0.00     0.001 A 
ATOM     73  C   UNL A   1      44.740  35.232  32.218  1.00  0.00     0.000 A 
ENDBRANCH  55  68
ENDBRANCH  29  30
ENDBRANCH  21  24
ENDBRANCH  19  20
ENDBRANCH  18  19
ENDBRANCH   1  18
TORSDOF 14
ENDMDL
