MODEL 1
REMARK VINA RESULT:     -10.4      0.000      0.000
REMARK SMILES CC(C)(C)OC(=O)[C@H]1CC[C@]1([NH3+])C(=O)NCCCCNC(=O)c1ccc(-c2c3nc(c(-c4ccccc4)c4ccc([nH]4)c(-c4ccccc4)c4nc(c(-c5ccccc5)c5ccc2[nH]5)C=C4)C=C3)cc1
REMARK SMILES IDX 17 1 16 2 15 3 13 4 14 5 11 7 8 8 9 9 10 10 6 11 7 12 5 13
REMARK SMILES IDX 2 14 1 15 3 16 4 17 12 18 18 22 19 23 20 24 21 25 22 27
REMARK SMILES IDX 23 28 24 29 70 30 25 31 69 32 26 33 27 34 28 35 63 36 29 37
REMARK SMILES IDX 68 38 62 39 64 40 30 41 67 42 61 43 60 44 31 46 53 47 38 48
REMARK SMILES IDX 52 49 39 50 42 51 51 52 65 53 40 54 41 55 50 57 66 58 43 59
REMARK SMILES IDX 32 60 33 61 37 62 34 63 36 64 35 65 54 66 55 67 59 68 56 69
REMARK SMILES IDX 58 70 57 71 44 72 45 73 49 74 46 75 48 76 47 77
REMARK H PARENT 15 6 12 19 12 20 12 21 20 26 64 45 42 56
REMARK Flexibility Score: inf
ROOT
ATOM      1  C   UNL A   1      31.403  30.688  26.430  1.00  0.00     0.023 C 
ENDROOT
BRANCH   1   2
ATOM      2  C   UNL A   1      32.634  30.094  25.751  1.00  0.00     0.116 C 
BRANCH   2   3
ATOM      3  N   UNL A   1      32.978  28.791  26.288  1.00  0.00    -0.351 N 
ATOM      4  C   UNL A   1      32.793  27.552  25.714  1.00  0.00     0.282 C 
ATOM      5  O   UNL A   1      33.194  26.577  26.360  1.00  0.00    -0.268 OA
ATOM      6  H   UNL A   1      33.397  28.792  27.179  1.00  0.00     0.163 HD
BRANCH   4   7
ATOM      7  C   UNL A   1      32.098  27.468  24.296  1.00  0.00     0.187 C 
ATOM      8  C   UNL A   1      30.639  28.015  24.195  1.00  0.00     0.170 C 
ATOM      9  C   UNL A   1      30.160  26.546  24.360  1.00  0.00     0.029 C 
ATOM     10  C   UNL A   1      31.536  26.086  23.850  1.00  0.00     0.081 C 
BRANCH   8  11
ATOM     11  C   UNL A   1      30.173  28.758  22.922  1.00  0.00     0.316 C 
ATOM     12  O   UNL A   1      30.351  28.360  21.773  1.00  0.00    -0.252 OA
BRANCH  11  13
ATOM     13  O   UNL A   1      29.512  29.914  23.233  1.00  0.00    -0.460 OA
BRANCH  13  14
ATOM     14  C   UNL A   1      28.147  30.135  22.791  1.00  0.00     0.104 C 
ATOM     15  C   UNL A   1      27.653  31.340  23.607  1.00  0.00     0.056 C 
ATOM     16  C   UNL A   1      27.264  28.927  23.126  1.00  0.00     0.056 C 
ATOM     17  C   UNL A   1      28.084  30.503  21.304  1.00  0.00     0.056 C 
ENDBRANCH  13  14
ENDBRANCH  11  13
ENDBRANCH   8  11
BRANCH   7  18
ATOM     18  N   UNL A   1      32.950  27.960  23.189  1.00  0.00    -0.344 N 
ATOM     19  H   UNL A   1      33.449  27.176  22.769  1.00  0.00     0.345 HD
ATOM     20  H   UNL A   1      33.623  28.635  23.553  1.00  0.00     0.345 HD
ATOM     21  H   UNL A   1      32.366  28.410  22.484  1.00  0.00     0.345 HD
ENDBRANCH   7  18
ENDBRANCH   4   7
ENDBRANCH   2   3
ENDBRANCH   1   2
BRANCH   1  22
ATOM     22  C   UNL A   1      31.376  32.215  26.501  1.00  0.00     0.023 C 
BRANCH  22  23
ATOM     23  C   UNL A   1      32.604  32.860  27.133  1.00  0.00     0.116 C 
BRANCH  23  24
ATOM     24  N   UNL A   1      32.349  34.203  27.626  1.00  0.00    -0.352 N 
ATOM     25  C   UNL A   1      32.980  34.900  28.626  1.00  0.00     0.251 C 
ATOM     26  H   UNL A   1      31.616  34.683  27.177  1.00  0.00     0.163 HD
ATOM     27  O   UNL A   1      32.528  35.980  29.001  1.00  0.00    -0.269 OA
BRANCH  25  28
ATOM     28  C   UNL A   1      34.186  34.343  29.277  1.00  0.00     0.039 A 
ATOM     29  C   UNL A   1      34.031  33.576  30.434  1.00  0.00     0.014 A 
ATOM     30  C   UNL A   1      35.463  34.573  28.757  1.00  0.00     0.014 A 
ATOM     31  C   UNL A   1      35.148  32.992  31.034  1.00  0.00     0.010 A 
ATOM     32  C   UNL A   1      36.564  33.922  29.306  1.00  0.00     0.010 A 
ATOM     33  C   UNL A   1      36.420  33.131  30.455  1.00  0.00    -0.014 A 
BRANCH  33  34
ATOM     34  C   UNL A   1      37.605  32.459  31.049  1.00  0.00     0.031 A 
ATOM     35  C   UNL A   1      38.201  32.960  32.337  1.00  0.00     0.074 A 
ATOM     36  C   UNL A   1      38.172  31.418  30.408  1.00  0.00     0.049 A 
ATOM     37  N   UNL A   1      39.232  32.502  33.003  1.00  0.00    -0.248 NA
ATOM     38  C   UNL A   1      37.573  34.144  32.946  1.00  0.00     0.031 C 
ATOM     39  C   UNL A   1      37.723  30.862  29.129  1.00  0.00     0.029 A 
ATOM     40  N   UNL A   1      39.249  30.637  30.748  1.00  0.00    -0.354 N 
ATOM     41  C   UNL A   1      39.380  33.345  34.097  1.00  0.00     0.074 A 
ATOM     42  C   UNL A   1      38.374  34.376  33.975  1.00  0.00     0.031 C 
ATOM     43  C   UNL A   1      38.492  29.808  28.814  1.00  0.00     0.029 A 
ATOM     44  C   UNL A   1      39.511  29.636  29.844  1.00  0.00     0.049 A 
ATOM     45  H   UNL A   1      39.782  30.781  31.564  1.00  0.00     0.167 HD
ATOM     46  C   UNL A   1      40.259  33.260  35.124  1.00  0.00     0.031 A 
ATOM     47  C   UNL A   1      40.464  28.685  29.846  1.00  0.00     0.031 A 
ATOM     48  C   UNL A   1      41.260  32.233  35.250  1.00  0.00     0.049 A 
ATOM     49  C   UNL A   1      41.433  28.617  30.992  1.00  0.00     0.074 A 
ATOM     50  C   UNL A   1      42.163  32.031  36.280  1.00  0.00     0.029 A 
ATOM     51  N   UNL A   1      41.494  31.239  34.313  1.00  0.00    -0.354 N 
ATOM     52  N   UNL A   1      41.511  29.378  32.057  1.00  0.00    -0.248 NA
ATOM     53  C   UNL A   1      42.436  27.543  30.944  1.00  0.00     0.031 C 
ATOM     54  C   UNL A   1      42.980  30.948  35.939  1.00  0.00     0.029 A 
ATOM     55  C   UNL A   1      42.542  30.435  34.729  1.00  0.00     0.049 A 
ATOM     56  H   UNL A   1      40.988  31.121  33.477  1.00  0.00     0.167 HD
ATOM     57  C   UNL A   1      42.550  28.857  32.819  1.00  0.00     0.074 A 
ATOM     58  C   UNL A   1      43.056  27.703  32.103  1.00  0.00     0.031 C 
ATOM     59  C   UNL A   1      43.041  29.294  34.004  1.00  0.00     0.031 A 
BRANCH  46  60
ATOM     60  C   UNL A   1      40.179  34.316  36.193  1.00  0.00    -0.014 A 
ATOM     61  C   UNL A   1      39.349  34.156  37.315  1.00  0.00     0.009 A 
ATOM     62  C   UNL A   1      40.966  35.475  36.093  1.00  0.00     0.009 A 
ATOM     63  C   UNL A   1      39.278  35.152  38.292  1.00  0.00     0.001 A 
ATOM     64  C   UNL A   1      40.917  36.453  37.088  1.00  0.00     0.001 A 
ATOM     65  C   UNL A   1      40.066  36.296  38.181  1.00  0.00     0.000 A 
ENDBRANCH  46  60
BRANCH  47  66
ATOM     66  C   UNL A   1      40.535  27.699  28.734  1.00  0.00    -0.014 A 
ATOM     67  C   UNL A   1      41.302  27.968  27.590  1.00  0.00     0.009 A 
ATOM     68  C   UNL A   1      39.824  26.492  28.803  1.00  0.00     0.009 A 
ATOM     69  C   UNL A   1      41.329  27.064  26.526  1.00  0.00     0.001 A 
ATOM     70  C   UNL A   1      39.878  25.575  27.752  1.00  0.00     0.001 A 
ATOM     71  C   UNL A   1      40.621  25.867  26.609  1.00  0.00     0.000 A 
ENDBRANCH  47  66
BRANCH  59  72
ATOM     72  C   UNL A   1      44.157  28.495  34.619  1.00  0.00    -0.014 A 
ATOM     73  C   UNL A   1      45.504  28.803  34.371  1.00  0.00     0.009 A 
ATOM     74  C   UNL A   1      43.852  27.423  35.474  1.00  0.00     0.009 A 
ATOM     75  C   UNL A   1      46.521  28.025  34.928  1.00  0.00     0.001 A 
ATOM     76  C   UNL A   1      44.871  26.669  36.058  1.00  0.00     0.001 A 
ATOM     77  C   UNL A   1      46.204  26.961  35.773  1.00  0.00     0.000 A 
ENDBRANCH  59  72
ENDBRANCH  33  34
ENDBRANCH  25  28
ENDBRANCH  23  24
ENDBRANCH  22  23
ENDBRANCH   1  22
TORSDOF 15
ENDMDL
MODEL 2
REMARK VINA RESULT:     -10.4      5.574     10.282
REMARK SMILES CC(C)(C)OC(=O)[C@H]1CC[C@]1([NH3+])C(=O)NCCCCNC(=O)c1ccc(-c2c3nc(c(-c4ccccc4)c4ccc([nH]4)c(-c4ccccc4)c4nc(c(-c5ccccc5)c5ccc2[nH]5)C=C4)C=C3)cc1
REMARK SMILES IDX 17 1 16 2 15 3 13 4 14 5 11 7 8 8 9 9 10 10 6 11 7 12 5 13
REMARK SMILES IDX 2 14 1 15 3 16 4 17 12 18 18 22 19 23 20 24 21 25 22 27
REMARK SMILES IDX 23 28 24 29 70 30 25 31 69 32 26 33 27 34 28 35 63 36 29 37
REMARK SMILES IDX 68 38 62 39 64 40 30 41 67 42 61 43 60 44 31 46 53 47 38 48
REMARK SMILES IDX 52 49 39 50 42 51 51 52 65 53 40 54 41 55 50 57 66 58 43 59
REMARK SMILES IDX 32 60 33 61 37 62 34 63 36 64 35 65 54 66 55 67 59 68 56 69
REMARK SMILES IDX 58 70 57 71 44 72 45 73 49 74 46 75 48 76 47 77
REMARK H PARENT 15 6 12 19 12 20 12 21 20 26 64 45 42 56
REMARK Flexibility Score: inf
ROOT
ATOM      1  C   UNL A   1      39.017  22.474  26.178  1.00  0.00     0.023 C 
ENDROOT
BRANCH   1   2
ATOM      2  C   UNL A   1      37.721  23.244  25.943  1.00  0.00     0.116 C 
BRANCH   2   3
ATOM      3  N   UNL A   1      37.335  23.248  24.545  1.00  0.00    -0.351 N 
ATOM      4  C   UNL A   1      36.169  22.784  23.976  1.00  0.00     0.282 C 
ATOM      5  O   UNL A   1      36.057  22.920  22.753  1.00  0.00    -0.268 OA
ATOM      6  H   UNL A   1      37.992  23.632  23.920  1.00  0.00     0.163 HD
BRANCH   4   7
ATOM      7  C   UNL A   1      35.077  22.125  24.912  1.00  0.00     0.187 C 
ATOM      8  C   UNL A   1      33.728  21.719  24.239  1.00  0.00     0.170 C 
ATOM      9  C   UNL A   1      33.154  23.067  24.758  1.00  0.00     0.029 C 
ATOM     10  C   UNL A   1      34.253  23.071  25.834  1.00  0.00     0.081 C 
BRANCH   8  11
ATOM     11  C   UNL A   1      32.991  20.435  24.684  1.00  0.00     0.316 C 
ATOM     12  O   UNL A   1      31.847  20.402  25.132  1.00  0.00    -0.252 OA
BRANCH  11  13
ATOM     13  O   UNL A   1      33.768  19.324  24.496  1.00  0.00    -0.460 OA
BRANCH  13  14
ATOM     14  C   UNL A   1      33.192  18.087  24.001  1.00  0.00     0.104 C 
ATOM     15  C   UNL A   1      34.396  17.203  23.643  1.00  0.00     0.056 C 
ATOM     16  C   UNL A   1      32.377  18.337  22.727  1.00  0.00     0.056 C 
ATOM     17  C   UNL A   1      32.373  17.370  25.080  1.00  0.00     0.056 C 
ENDBRANCH  13  14
ENDBRANCH  11  13
ENDBRANCH   8  11
BRANCH   7  18
ATOM     18  N   UNL A   1      35.611  21.045  25.773  1.00  0.00    -0.344 N 
ATOM     19  H   UNL A   1      35.058  20.987  26.628  1.00  0.00     0.345 HD
ATOM     20  H   UNL A   1      36.581  21.248  26.010  1.00  0.00     0.345 HD
ATOM     21  H   UNL A   1      35.562  20.156  25.274  1.00  0.00     0.345 HD
ENDBRANCH   7  18
ENDBRANCH   4   7
ENDBRANCH   2   3
ENDBRANCH   1   2
BRANCH   1  22
ATOM     22  C   UNL A   1      39.094  21.111  25.492  1.00  0.00     0.023 C 
BRANCH  22  23
ATOM     23  C   UNL A   1      39.552  19.959  26.378  1.00  0.00     0.116 C 
BRANCH  23  24
ATOM     24  N   UNL A   1      40.754  19.306  25.885  1.00  0.00    -0.352 N 
ATOM     25  C   UNL A   1      42.040  19.782  25.816  1.00  0.00     0.251 C 
ATOM     26  H   UNL A   1      40.627  18.389  25.550  1.00  0.00     0.163 HD
ATOM     27  O   UNL A   1      42.904  19.132  25.231  1.00  0.00    -0.269 OA
BRANCH  25  28
ATOM     28  C   UNL A   1      42.384  21.089  26.416  1.00  0.00     0.039 A 
ATOM     29  C   UNL A   1      42.742  22.143  25.571  1.00  0.00     0.014 A 
ATOM     30  C   UNL A   1      42.359  21.281  27.800  1.00  0.00     0.014 A 
ATOM     31  C   UNL A   1      43.015  23.402  26.110  1.00  0.00     0.010 A 
ATOM     32  C   UNL A   1      42.549  22.556  28.329  1.00  0.00     0.010 A 
ATOM     33  C   UNL A   1      42.888  23.628  27.490  1.00  0.00    -0.014 A 
BRANCH  33  34
ATOM     34  C   UNL A   1      43.113  24.979  28.065  1.00  0.00     0.031 A 
ATOM     35  C   UNL A   1      44.493  25.412  28.480  1.00  0.00     0.074 A 
ATOM     36  C   UNL A   1      42.066  25.807  28.251  1.00  0.00     0.049 A 
ATOM     37  N   UNL A   1      44.880  26.551  28.999  1.00  0.00    -0.248 NA
ATOM     38  C   UNL A   1      45.578  24.432  28.312  1.00  0.00     0.031 C 
ATOM     39  C   UNL A   1      40.669  25.495  27.937  1.00  0.00     0.029 A 
ATOM     40  N   UNL A   1      42.015  27.086  28.749  1.00  0.00    -0.354 N 
ATOM     41  C   UNL A   1      46.244  26.418  29.228  1.00  0.00     0.074 A 
ATOM     42  C   UNL A   1      46.607  25.070  28.848  1.00  0.00     0.031 C 
ATOM     43  C   UNL A   1      39.907  26.565  28.211  1.00  0.00     0.029 A 
ATOM     44  C   UNL A   1      40.750  27.624  28.756  1.00  0.00     0.049 A 
ATOM     45  H   UNL A   1      42.809  27.572  29.068  1.00  0.00     0.167 HD
ATOM     46  C   UNL A   1      47.123  27.338  29.692  1.00  0.00     0.031 A 
ATOM     47  C   UNL A   1      40.318  28.835  29.154  1.00  0.00     0.031 A 
ATOM     48  C   UNL A   1      46.766  28.681  30.067  1.00  0.00     0.049 A 
ATOM     49  C   UNL A   1      41.312  29.836  29.674  1.00  0.00     0.074 A 
ATOM     50  C   UNL A   1      47.593  29.704  30.499  1.00  0.00     0.029 A 
ATOM     51  N   UNL A   1      45.475  29.186  30.061  1.00  0.00    -0.354 N 
ATOM     52  N   UNL A   1      42.610  29.718  29.813  1.00  0.00    -0.248 NA
ATOM     53  C   UNL A   1      40.779  31.146  30.074  1.00  0.00     0.031 C 
ATOM     54  C   UNL A   1      46.795  30.811  30.807  1.00  0.00     0.029 A 
ATOM     55  C   UNL A   1      45.479  30.499  30.504  1.00  0.00     0.049 A 
ATOM     56  H   UNL A   1      44.675  28.686  29.782  1.00  0.00     0.167 HD
ATOM     57  C   UNL A   1      43.052  30.947  30.287  1.00  0.00     0.074 A 
ATOM     58  C   UNL A   1      41.886  31.800  30.391  1.00  0.00     0.031 C 
ATOM     59  C   UNL A   1      44.311  31.335  30.609  1.00  0.00     0.031 A 
BRANCH  46  60
ATOM     60  C   UNL A   1      48.561  26.916  29.824  1.00  0.00    -0.014 A 
ATOM     61  C   UNL A   1      49.478  27.111  28.778  1.00  0.00     0.009 A 
ATOM     62  C   UNL A   1      49.014  26.342  31.023  1.00  0.00     0.009 A 
ATOM     63  C   UNL A   1      50.807  26.703  28.914  1.00  0.00     0.001 A 
ATOM     64  C   UNL A   1      50.352  25.966  31.167  1.00  0.00     0.001 A 
ATOM     65  C   UNL A   1      51.243  26.136  30.110  1.00  0.00     0.000 A 
ENDBRANCH  46  60
BRANCH  47  66
ATOM     66  C   UNL A   1      38.875  29.182  29.056  1.00  0.00    -0.014 A 
ATOM     67  C   UNL A   1      38.029  29.037  30.166  1.00  0.00     0.009 A 
ATOM     68  C   UNL A   1      38.332  29.643  27.847  1.00  0.00     0.009 A 
ATOM     69  C   UNL A   1      36.664  29.316  30.059  1.00  0.00     0.001 A 
ATOM     70  C   UNL A   1      36.974  29.952  27.751  1.00  0.00     0.001 A 
ATOM     71  C   UNL A   1      36.139  29.777  28.854  1.00  0.00     0.000 A 
ENDBRANCH  47  66
BRANCH  59  72
ATOM     72  C   UNL A   1      44.494  32.757  31.063  1.00  0.00    -0.014 A 
ATOM     73  C   UNL A   1      44.432  33.108  32.421  1.00  0.00     0.009 A 
ATOM     74  C   UNL A   1      44.748  33.760  30.113  1.00  0.00     0.009 A 
ATOM     75  C   UNL A   1      44.572  34.441  32.813  1.00  0.00     0.001 A 
ATOM     76  C   UNL A   1      44.923  35.086  30.512  1.00  0.00     0.001 A 
ATOM     77  C   UNL A   1      44.821  35.428  31.860  1.00  0.00     0.000 A 
ENDBRANCH  59  72
ENDBRANCH  33  34
ENDBRANCH  25  28
ENDBRANCH  23  24
ENDBRANCH  22  23
ENDBRANCH   1  22
TORSDOF 15
ENDMDL
MODEL 3
REMARK VINA RESULT:     -10.2      0.806      6.153
REMARK SMILES CC(C)(C)OC(=O)[C@H]1CC[C@]1([NH3+])C(=O)NCCCCNC(=O)c1ccc(-c2c3nc(c(-c4ccccc4)c4ccc([nH]4)c(-c4ccccc4)c4nc(c(-c5ccccc5)c5ccc2[nH]5)C=C4)C=C3)cc1
REMARK SMILES IDX 17 1 16 2 15 3 13 4 14 5 11 7 8 8 9 9 10 10 6 11 7 12 5 13
REMARK SMILES IDX 2 14 1 15 3 16 4 17 12 18 18 22 19 23 20 24 21 25 22 27
REMARK SMILES IDX 23 28 24 29 70 30 25 31 69 32 26 33 27 34 28 35 63 36 29 37
REMARK SMILES IDX 68 38 62 39 64 40 30 41 67 42 61 43 60 44 31 46 53 47 38 48
REMARK SMILES IDX 52 49 39 50 42 51 51 52 65 53 40 54 41 55 50 57 66 58 43 59
REMARK SMILES IDX 32 60 33 61 37 62 34 63 36 64 35 65 54 66 55 67 59 68 56 69
REMARK SMILES IDX 58 70 57 71 44 72 45 73 49 74 46 75 48 76 47 77
REMARK H PARENT 15 6 12 19 12 20 12 21 20 26 64 45 42 56
REMARK Flexibility Score: inf
ROOT
ATOM      1  C   UNL A   1      31.705  29.940  26.794  1.00  0.00     0.023 C 
ENDROOT
BRANCH   1   2
ATOM      2  C   UNL A   1      32.718  29.254  25.882  1.00  0.00     0.116 C 
BRANCH   2   3
ATOM      3  N   UNL A   1      32.944  27.872  26.260  1.00  0.00    -0.351 N 
ATOM      4  C   UNL A   1      32.600  26.729  25.572  1.00  0.00     0.282 C 
ATOM      5  O   UNL A   1      32.924  25.653  26.089  1.00  0.00    -0.268 OA
ATOM      6  H   UNL A   1      33.403  27.732  27.120  1.00  0.00     0.163 HD
BRANCH   4   7
ATOM      7  C   UNL A   1      31.833  26.871  24.197  1.00  0.00     0.187 C 
ATOM      8  C   UNL A   1      30.507  27.695  24.213  1.00  0.00     0.170 C 
ATOM      9  C   UNL A   1      29.758  26.338  24.328  1.00  0.00     0.029 C 
ATOM     10  C   UNL A   1      30.991  25.655  23.713  1.00  0.00     0.081 C 
BRANCH   8  11
ATOM     11  C   UNL A   1      30.133  28.594  23.013  1.00  0.00     0.316 C 
ATOM     12  O   UNL A   1      30.380  28.332  21.837  1.00  0.00    -0.252 OA
BRANCH  11  13
ATOM     13  O   UNL A   1      29.470  29.718  23.419  1.00  0.00    -0.460 OA
BRANCH  13  14
ATOM     14  C   UNL A   1      28.144  30.026  22.914  1.00  0.00     0.104 C 
ATOM     15  C   UNL A   1      27.654  31.203  23.770  1.00  0.00     0.056 C 
ATOM     16  C   UNL A   1      27.193  28.842  23.126  1.00  0.00     0.056 C 
ATOM     17  C   UNL A   1      28.185  30.479  21.450  1.00  0.00     0.056 C 
ENDBRANCH  13  14
ENDBRANCH  11  13
ENDBRANCH   8  11
BRANCH   7  18
ATOM     18  N   UNL A   1      32.710  27.260  23.068  1.00  0.00    -0.344 N 
ATOM     19  H   UNL A   1      32.150  27.701  22.338  1.00  0.00     0.345 HD
ATOM     20  H   UNL A   1      33.166  26.430  22.691  1.00  0.00     0.345 HD
ATOM     21  H   UNL A   1      33.418  27.917  23.398  1.00  0.00     0.345 HD
ENDBRANCH   7  18
ENDBRANCH   4   7
ENDBRANCH   2   3
ENDBRANCH   1   2
BRANCH   1  22
ATOM     22  C   UNL A   1      31.542  31.443  26.566  1.00  0.00     0.023 C 
BRANCH  22  23
ATOM     23  C   UNL A   1      32.773  32.287  26.876  1.00  0.00     0.116 C 
BRANCH  23  24
ATOM     24  N   UNL A   1      32.441  33.610  27.379  1.00  0.00    -0.352 N 
ATOM     25  C   UNL A   1      33.041  34.341  28.373  1.00  0.00     0.251 C 
ATOM     26  H   UNL A   1      31.673  34.045  26.942  1.00  0.00     0.163 HD
ATOM     27  O   UNL A   1      32.528  35.390  28.759  1.00  0.00    -0.269 OA
BRANCH  25  28
ATOM     28  C   UNL A   1      34.288  33.858  29.005  1.00  0.00     0.039 A 
ATOM     29  C   UNL A   1      34.196  33.002  30.105  1.00  0.00     0.014 A 
ATOM     30  C   UNL A   1      35.542  34.244  28.523  1.00  0.00     0.014 A 
ATOM     31  C   UNL A   1      35.358  32.486  30.682  1.00  0.00     0.010 A 
ATOM     32  C   UNL A   1      36.696  33.664  29.045  1.00  0.00     0.010 A 
ATOM     33  C   UNL A   1      36.617  32.786  30.136  1.00  0.00    -0.014 A 
BRANCH  33  34
ATOM     34  C   UNL A   1      37.855  32.191  30.702  1.00  0.00     0.031 A 
ATOM     35  C   UNL A   1      38.445  30.942  30.103  1.00  0.00     0.074 A 
ATOM     36  C   UNL A   1      38.431  32.753  31.783  1.00  0.00     0.049 A 
ATOM     37  N   UNL A   1      39.518  30.281  30.463  1.00  0.00    -0.248 NA
ATOM     38  C   UNL A   1      37.725  30.343  28.968  1.00  0.00     0.031 C 
ATOM     39  C   UNL A   1      37.936  33.937  32.490  1.00  0.00     0.029 A 
ATOM     40  N   UNL A   1      39.564  32.404  32.476  1.00  0.00    -0.354 N 
ATOM     41  C   UNL A   1      39.592  29.189  29.608  1.00  0.00     0.074 A 
ATOM     42  C   UNL A   1      38.427  29.241  28.753  1.00  0.00     0.031 C 
ATOM     43  C   UNL A   1      38.781  34.238  33.489  1.00  0.00     0.029 A 
ATOM     44  C   UNL A   1      39.853  33.250  33.520  1.00  0.00     0.049 A 
ATOM     45  H   UNL A   1      40.116  31.623  32.246  1.00  0.00     0.167 HD
ATOM     46  C   UNL A   1      40.553  28.238  29.525  1.00  0.00     0.031 A 
ATOM     47  C   UNL A   1      40.870  33.233  34.402  1.00  0.00     0.031 A 
ATOM     48  C   UNL A   1      41.715  28.184  30.372  1.00  0.00     0.049 A 
ATOM     49  C   UNL A   1      41.919  32.162  34.294  1.00  0.00     0.074 A 
ATOM     50  C   UNL A   1      42.772  27.290  30.332  1.00  0.00     0.029 A 
ATOM     51  N   UNL A   1      41.971  29.058  31.418  1.00  0.00    -0.354 N 
ATOM     52  N   UNL A   1      42.013  31.179  33.432  1.00  0.00    -0.248 NA
ATOM     53  C   UNL A   1      43.013  32.210  35.275  1.00  0.00     0.031 C 
ATOM     54  C   UNL A   1      43.638  27.590  31.388  1.00  0.00     0.029 A 
ATOM     55  C   UNL A   1      43.156  28.711  32.045  1.00  0.00     0.049 A 
ATOM     56  H   UNL A   1      41.396  29.814  31.675  1.00  0.00     0.167 HD
ATOM     57  C   UNL A   1      43.191  30.512  33.746  1.00  0.00     0.074 A 
ATOM     58  C   UNL A   1      43.785  31.216  34.864  1.00  0.00     0.031 C 
ATOM     59  C   UNL A   1      43.733  29.415  33.161  1.00  0.00     0.031 A 
BRANCH  46  60
ATOM     60  C   UNL A   1      40.380  27.169  28.479  1.00  0.00    -0.014 A 
ATOM     61  C   UNL A   1      39.631  26.009  28.739  1.00  0.00     0.009 A 
ATOM     62  C   UNL A   1      40.949  27.337  27.207  1.00  0.00     0.009 A 
ATOM     63  C   UNL A   1      39.491  25.022  27.760  1.00  0.00     0.001 A 
ATOM     64  C   UNL A   1      40.778  26.364  26.220  1.00  0.00     0.001 A 
ATOM     65  C   UNL A   1      40.059  25.203  26.501  1.00  0.00     0.000 A 
ENDBRANCH  46  60
BRANCH  47  66
ATOM     66  C   UNL A   1      40.963  34.280  35.454  1.00  0.00    -0.014 A 
ATOM     67  C   UNL A   1      40.318  34.110  36.689  1.00  0.00     0.009 A 
ATOM     68  C   UNL A   1      41.681  35.463  35.223  1.00  0.00     0.009 A 
ATOM     69  C   UNL A   1      40.365  35.116  37.658  1.00  0.00     0.001 A 
ATOM     70  C   UNL A   1      41.753  36.453  36.204  1.00  0.00     0.001 A 
ATOM     71  C   UNL A   1      41.086  36.284  37.417  1.00  0.00     0.000 A 
ENDBRANCH  47  66
BRANCH  59  72
ATOM     72  C   UNL A   1      45.054  28.937  33.697  1.00  0.00    -0.014 A 
ATOM     73  C   UNL A   1      46.271  29.424  33.193  1.00  0.00     0.009 A 
ATOM     74  C   UNL A   1      45.079  27.992  34.736  1.00  0.00     0.009 A 
ATOM     75  C   UNL A   1      47.485  28.939  33.685  1.00  0.00     0.001 A 
ATOM     76  C   UNL A   1      46.294  27.535  35.250  1.00  0.00     0.001 A 
ATOM     77  C   UNL A   1      47.495  27.998  34.715  1.00  0.00     0.000 A 
ENDBRANCH  59  72
ENDBRANCH  33  34
ENDBRANCH  25  28
ENDBRANCH  23  24
ENDBRANCH  22  23
ENDBRANCH   1  22
TORSDOF 15
ENDMDL
