MODEL 1
REMARK VINA RESULT:     -12.2      0.000      0.000
REMARK SMILES Cc1cc(C(=O)NCCCCNC(=O)c2ccc(-c3c4nc(c(-c5ccccc5)c5ccc([nH]5)c(-c5ccccc5)c5nc(c(-c6ccccc6)c6ccc3[nH]6)C=C5)C=C4)cc2)cc(S(=O)(=O)NNC(=O)c2c[nH]c3ccccc23)c1C
REMARK SMILES IDX 8 1 7 2 5 3 6 4 4 6 1 7 2 8 3 9 81 10 64 11 82 12 63 13
REMARK SMILES IDX 65 14 66 15 67 16 68 17 69 19 70 20 71 22 72 23 73 24 80 25
REMARK SMILES IDX 74 26 75 27 79 28 76 30 78 31 77 32 9 33 10 34 11 35 12 36
REMARK SMILES IDX 13 37 14 39 15 40 16 41 62 42 17 43 61 44 18 45 19 46 20 47
REMARK SMILES IDX 55 48 21 49 60 50 54 51 56 52 22 53 59 54 53 55 52 56 23 58
REMARK SMILES IDX 45 59 30 60 44 61 31 62 34 63 43 64 57 65 32 66 33 67 42 69
REMARK SMILES IDX 58 70 35 71 24 72 25 73 29 74 26 75 28 76 27 77 46 78 47 79
REMARK SMILES IDX 51 80 48 81 50 82 49 83 36 84 37 85 41 86 38 87 40 88 39 89
REMARK H PARENT 7 5 68 18 69 21 74 29 12 38 56 57 34 68
REMARK Flexibility Score: inf
ROOT
ATOM      1  C   UNL A   1      37.220  22.652  25.373  1.00  0.00     0.116 C 
ENDROOT
BRANCH   1   2
ATOM      2  N   UNL A   1      36.159  22.541  26.359  1.00  0.00    -0.352 N 
ATOM      3  C   UNL A   1      34.984  23.219  26.570  1.00  0.00     0.251 C 
ATOM      4  O   UNL A   1      34.288  22.846  27.516  1.00  0.00    -0.269 OA
ATOM      5  H   UNL A   1      36.317  21.826  27.018  1.00  0.00     0.163 HD
BRANCH   3   6
ATOM      6  C   UNL A   1      34.483  24.348  25.727  1.00  0.00     0.041 A 
ATOM      7  C   UNL A   1      33.994  28.118  25.822  1.00  0.00     0.044 C 
ATOM      8  C   UNL A   1      33.965  26.705  25.297  1.00  0.00    -0.046 A 
ATOM      9  C   UNL A   1      34.383  25.672  26.155  1.00  0.00     0.017 A 
ATOM     10  C   UNL A   1      33.531  26.392  23.995  1.00  0.00    -0.028 A 
ATOM     11  C   UNL A   1      33.509  25.030  23.599  1.00  0.00     0.088 A 
ATOM     12  C   UNL A   1      33.084  27.481  23.047  1.00  0.00     0.046 C 
ATOM     13  C   UNL A   1      34.024  24.032  24.437  1.00  0.00     0.036 A 
BRANCH  11  14
ATOM     14  S   UNL A   1      32.645  24.591  22.100  1.00  0.00     0.257 S 
ATOM     15  O   UNL A   1      31.264  24.980  22.309  1.00  0.00    -0.205 OA
ATOM     16  O   UNL A   1      33.412  25.102  20.994  1.00  0.00    -0.205 OA
BRANCH  14  17
ATOM     17  N   UNL A   1      32.691  22.898  21.916  1.00  0.00    -0.123 NA
ATOM     18  H   UNL A   1      33.623  22.596  22.201  1.00  0.00     0.167 HD
BRANCH  17  19
ATOM     19  N   UNL A   1      31.733  22.045  22.636  1.00  0.00    -0.273 N 
ATOM     20  C   UNL A   1      32.183  21.130  23.580  1.00  0.00     0.268 C 
ATOM     21  H   UNL A   1      30.770  22.123  22.448  1.00  0.00     0.186 HD
ATOM     22  O   UNL A   1      31.999  21.307  24.781  1.00  0.00    -0.268 OA
BRANCH  20  23
ATOM     23  C   UNL A   1      32.560  19.835  23.011  1.00  0.00     0.066 A 
ATOM     24  C   UNL A   1      31.982  19.235  21.905  1.00  0.00     0.097 A 
ATOM     25  C   UNL A   1      33.423  18.836  23.571  1.00  0.00     0.012 A 
ATOM     26  N   UNL A   1      32.028  17.885  22.123  1.00  0.00    -0.360 N 
ATOM     27  C   UNL A   1      32.902  17.612  23.143  1.00  0.00     0.046 A 
ATOM     28  C   UNL A   1      34.486  18.816  24.496  1.00  0.00     0.011 A 
ATOM     29  H   UNL A   1      31.511  17.213  21.622  1.00  0.00     0.166 HD
ATOM     30  C   UNL A   1      33.248  16.392  23.728  1.00  0.00     0.027 A 
ATOM     31  C   UNL A   1      34.943  17.586  24.988  1.00  0.00     0.001 A 
ATOM     32  C   UNL A   1      34.291  16.400  24.654  1.00  0.00     0.002 A 
ENDBRANCH  20  23
ENDBRANCH  17  19
ENDBRANCH  14  17
ENDBRANCH  11  14
ENDBRANCH   3   6
ENDBRANCH   1   2
BRANCH   1  33
ATOM     33  C   UNL A   1      37.149  21.513  24.351  1.00  0.00     0.023 C 
BRANCH  33  34
ATOM     34  C   UNL A   1      37.838  20.218  24.801  1.00  0.00     0.023 C 
BRANCH  34  35
ATOM     35  C   UNL A   1      38.909  20.397  25.874  1.00  0.00     0.116 C 
BRANCH  35  36
ATOM     36  N   UNL A   1      39.984  19.421  25.789  1.00  0.00    -0.352 N 
ATOM     37  C   UNL A   1      41.318  19.589  26.078  1.00  0.00     0.251 C 
ATOM     38  H   UNL A   1      39.722  18.522  25.486  1.00  0.00     0.163 HD
ATOM     39  O   UNL A   1      42.117  18.684  25.862  1.00  0.00    -0.269 OA
BRANCH  37  40
ATOM     40  C   UNL A   1      41.792  20.886  26.606  1.00  0.00     0.039 A 
ATOM     41  C   UNL A   1      42.276  21.841  25.707  1.00  0.00     0.014 A 
ATOM     42  C   UNL A   1      41.735  21.170  27.972  1.00  0.00     0.014 A 
ATOM     43  C   UNL A   1      42.632  23.108  26.172  1.00  0.00     0.010 A 
ATOM     44  C   UNL A   1      42.028  22.453  28.424  1.00  0.00     0.010 A 
ATOM     45  C   UNL A   1      42.474  23.437  27.527  1.00  0.00    -0.014 A 
BRANCH  45  46
ATOM     46  C   UNL A   1      42.752  24.805  28.026  1.00  0.00     0.031 A 
ATOM     47  C   UNL A   1      44.141  25.194  28.444  1.00  0.00     0.074 A 
ATOM     48  C   UNL A   1      41.736  25.678  28.174  1.00  0.00     0.049 A 
ATOM     49  N   UNL A   1      44.564  26.320  28.961  1.00  0.00    -0.248 NA
ATOM     50  C   UNL A   1      45.189  24.173  28.286  1.00  0.00     0.031 C 
ATOM     51  C   UNL A   1      40.334  25.410  27.849  1.00  0.00     0.029 A 
ATOM     52  N   UNL A   1      41.728  26.967  28.647  1.00  0.00    -0.354 N 
ATOM     53  C   UNL A   1      45.918  26.137  29.207  1.00  0.00     0.074 A 
ATOM     54  C   UNL A   1      46.237  24.778  28.827  1.00  0.00     0.031 C 
ATOM     55  C   UNL A   1      39.606  26.509  28.110  1.00  0.00     0.029 A 
ATOM     56  C   UNL A   1      40.481  27.542  28.652  1.00  0.00     0.049 A 
ATOM     57  H   UNL A   1      42.538  27.434  28.953  1.00  0.00     0.167 HD
ATOM     58  C   UNL A   1      46.821  27.024  29.688  1.00  0.00     0.031 A 
ATOM     59  C   UNL A   1      40.084  28.765  29.053  1.00  0.00     0.031 A 
ATOM     60  C   UNL A   1      46.509  28.379  30.058  1.00  0.00     0.049 A 
ATOM     61  C   UNL A   1      41.103  29.732  29.586  1.00  0.00     0.074 A 
ATOM     62  C   UNL A   1      47.365  29.373  30.498  1.00  0.00     0.029 A 
ATOM     63  N   UNL A   1      45.236  28.929  30.034  1.00  0.00    -0.354 N 
ATOM     64  N   UNL A   1      42.393  29.567  29.744  1.00  0.00    -0.248 NA
ATOM     65  C   UNL A   1      40.610  31.058  29.983  1.00  0.00     0.031 C 
ATOM     66  C   UNL A   1      46.603  30.511  30.784  1.00  0.00     0.029 A 
ATOM     67  C   UNL A   1      45.280  30.241  30.473  1.00  0.00     0.049 A 
ATOM     68  H   UNL A   1      44.421  28.456  29.748  1.00  0.00     0.167 HD
ATOM     69  C   UNL A   1      42.871  30.774  30.236  1.00  0.00     0.074 A 
ATOM     70  C   UNL A   1      41.734  31.667  30.336  1.00  0.00     0.031 C 
ATOM     71  C   UNL A   1      44.140  31.114  30.572  1.00  0.00     0.031 A 
BRANCH  58  72
ATOM     72  C   UNL A   1      48.237  26.545  29.850  1.00  0.00    -0.014 A 
ATOM     73  C   UNL A   1      49.180  26.701  28.821  1.00  0.00     0.009 A 
ATOM     74  C   UNL A   1      48.637  25.942  31.053  1.00  0.00     0.009 A 
ATOM     75  C   UNL A   1      50.482  26.224  28.977  1.00  0.00     0.001 A 
ATOM     76  C   UNL A   1      49.950  25.492  31.216  1.00  0.00     0.001 A 
ATOM     77  C   UNL A   1      50.867  25.623  30.175  1.00  0.00     0.000 A 
ENDBRANCH  58  72
BRANCH  59  78
ATOM     78  C   UNL A   1      38.654  29.151  28.942  1.00  0.00    -0.014 A 
ATOM     79  C   UNL A   1      37.793  28.998  30.039  1.00  0.00     0.009 A 
ATOM     80  C   UNL A   1      38.147  29.685  27.748  1.00  0.00     0.009 A 
ATOM     81  C   UNL A   1      36.445  29.351  29.934  1.00  0.00     0.001 A 
ATOM     82  C   UNL A   1      36.805  30.061  27.655  1.00  0.00     0.001 A 
ATOM     83  C   UNL A   1      35.954  29.887  28.745  1.00  0.00     0.000 A 
ENDBRANCH  59  78
BRANCH  71  84
ATOM     84  C   UNL A   1      44.369  32.520  31.052  1.00  0.00    -0.014 A 
ATOM     85  C   UNL A   1      44.605  33.568  30.150  1.00  0.00     0.009 A 
ATOM     86  C   UNL A   1      44.305  32.802  32.426  1.00  0.00     0.009 A 
ATOM     87  C   UNL A   1      44.804  34.869  30.618  1.00  0.00     0.001 A 
ATOM     88  C   UNL A   1      44.478  34.108  32.888  1.00  0.00     0.001 A 
ATOM     89  C   UNL A   1      44.736  35.138  31.985  1.00  0.00     0.000 A 
ENDBRANCH  71  84
ENDBRANCH  45  46
ENDBRANCH  37  40
ENDBRANCH  35  36
ENDBRANCH  34  35
ENDBRANCH  33  34
ENDBRANCH   1  33
TORSDOF 15
ENDMDL
MODEL 2
REMARK VINA RESULT:     -12.2      2.153      6.963
REMARK SMILES Cc1cc(C(=O)NCCCCNC(=O)c2ccc(-c3c4nc(c(-c5ccccc5)c5ccc([nH]5)c(-c5ccccc5)c5nc(c(-c6ccccc6)c6ccc3[nH]6)C=C5)C=C4)cc2)cc(S(=O)(=O)NNC(=O)c2c[nH]c3ccccc23)c1C
REMARK SMILES IDX 8 1 7 2 5 3 6 4 4 6 1 7 2 8 3 9 81 10 64 11 82 12 63 13
REMARK SMILES IDX 65 14 66 15 67 16 68 17 69 19 70 20 71 22 72 23 73 24 80 25
REMARK SMILES IDX 74 26 75 27 79 28 76 30 78 31 77 32 9 33 10 34 11 35 12 36
REMARK SMILES IDX 13 37 14 39 15 40 16 41 62 42 17 43 61 44 18 45 19 46 20 47
REMARK SMILES IDX 55 48 21 49 60 50 54 51 56 52 22 53 59 54 53 55 52 56 23 58
REMARK SMILES IDX 45 59 30 60 44 61 31 62 34 63 43 64 57 65 32 66 33 67 42 69
REMARK SMILES IDX 58 70 35 71 24 72 25 73 29 74 26 75 28 76 27 77 46 78 47 79
REMARK SMILES IDX 51 80 48 81 50 82 49 83 36 84 37 85 41 86 38 87 40 88 39 89
REMARK H PARENT 7 5 68 18 69 21 74 29 12 38 56 57 34 68
REMARK Flexibility Score: inf
ROOT
ATOM      1  C   UNL A   1      36.865  23.186  25.202  1.00  0.00     0.116 C 
ENDROOT
BRANCH   1   2
ATOM      2  N   UNL A   1      35.727  23.538  26.034  1.00  0.00    -0.352 N 
ATOM      3  C   UNL A   1      34.501  24.100  25.778  1.00  0.00     0.251 C 
ATOM      4  O   UNL A   1      33.744  24.249  26.740  1.00  0.00    -0.269 OA
ATOM      5  H   UNL A   1      35.866  23.330  26.987  1.00  0.00     0.163 HD
BRANCH   3   6
ATOM      6  C   UNL A   1      34.013  24.514  24.426  1.00  0.00     0.041 A 
ATOM      7  C   UNL A   1      32.804  23.036  21.138  1.00  0.00     0.044 C 
ATOM      8  C   UNL A   1      33.196  24.075  22.157  1.00  0.00    -0.046 A 
ATOM      9  C   UNL A   1      33.714  23.632  23.388  1.00  0.00     0.017 A 
ATOM     10  C   UNL A   1      33.071  25.456  21.915  1.00  0.00    -0.028 A 
ATOM     11  C   UNL A   1      33.496  26.360  22.921  1.00  0.00     0.088 A 
ATOM     12  C   UNL A   1      32.510  25.962  20.605  1.00  0.00     0.046 C 
ATOM     13  C   UNL A   1      33.914  25.893  24.174  1.00  0.00     0.036 A 
BRANCH  11  14
ATOM     14  S   UNL A   1      33.668  28.086  22.500  1.00  0.00     0.257 S 
ATOM     15  O   UNL A   1      34.815  28.168  21.616  1.00  0.00    -0.205 OA
ATOM     16  O   UNL A   1      32.370  28.563  22.096  1.00  0.00    -0.205 OA
BRANCH  14  17
ATOM     17  N   UNL A   1      34.032  28.963  23.915  1.00  0.00    -0.123 NA
ATOM     18  H   UNL A   1      34.762  29.631  23.667  1.00  0.00     0.167 HD
BRANCH  17  19
ATOM     19  N   UNL A   1      32.983  29.724  24.609  1.00  0.00    -0.273 N 
ATOM     20  C   UNL A   1      32.774  29.546  25.971  1.00  0.00     0.268 C 
ATOM     21  H   UNL A   1      32.425  30.362  24.107  1.00  0.00     0.186 HD
ATOM     22  O   UNL A   1      33.089  30.409  26.785  1.00  0.00    -0.268 OA
BRANCH  20  23
ATOM     23  C   UNL A   1      31.865  28.443  26.287  1.00  0.00     0.066 A 
ATOM     24  C   UNL A   1      31.853  27.711  27.462  1.00  0.00     0.097 A 
ATOM     25  C   UNL A   1      30.965  27.753  25.408  1.00  0.00     0.012 A 
ATOM     26  N   UNL A   1      31.475  26.439  27.129  1.00  0.00    -0.360 N 
ATOM     27  C   UNL A   1      30.930  26.435  25.872  1.00  0.00     0.046 A 
ATOM     28  C   UNL A   1      30.297  28.051  24.203  1.00  0.00     0.011 A 
ATOM     29  H   UNL A   1      31.578  25.648  27.706  1.00  0.00     0.166 HD
ATOM     30  C   UNL A   1      30.437  25.374  25.109  1.00  0.00     0.027 A 
ATOM     31  C   UNL A   1      29.672  27.016  23.494  1.00  0.00     0.001 A 
ATOM     32  C   UNL A   1      29.795  25.692  23.911  1.00  0.00     0.002 A 
ENDBRANCH  20  23
ENDBRANCH  17  19
ENDBRANCH  14  17
ENDBRANCH  11  14
ENDBRANCH   3   6
ENDBRANCH   1   2
BRANCH   1  33
ATOM     33  C   UNL A   1      36.571  21.941  24.359  1.00  0.00     0.023 C 
BRANCH  33  34
ATOM     34  C   UNL A   1      37.301  20.676  24.829  1.00  0.00     0.023 C 
BRANCH  34  35
ATOM     35  C   UNL A   1      38.541  20.927  25.684  1.00  0.00     0.116 C 
BRANCH  35  36
ATOM     36  N   UNL A   1      39.509  19.842  25.635  1.00  0.00    -0.352 N 
ATOM     37  C   UNL A   1      40.832  19.856  26.010  1.00  0.00     0.251 C 
ATOM     38  H   UNL A   1      39.172  18.984  25.290  1.00  0.00     0.163 HD
ATOM     39  O   UNL A   1      41.541  18.875  25.816  1.00  0.00    -0.269 OA
BRANCH  37  40
ATOM     40  C   UNL A   1      41.407  21.082  26.604  1.00  0.00     0.039 A 
ATOM     41  C   UNL A   1      41.964  22.043  25.756  1.00  0.00     0.014 A 
ATOM     42  C   UNL A   1      41.375  21.294  27.985  1.00  0.00     0.014 A 
ATOM     43  C   UNL A   1      42.419  23.251  26.286  1.00  0.00     0.010 A 
ATOM     44  C   UNL A   1      41.768  22.524  28.504  1.00  0.00     0.010 A 
ATOM     45  C   UNL A   1      42.289  23.517  27.659  1.00  0.00    -0.014 A 
BRANCH  45  46
ATOM     46  C   UNL A   1      42.675  24.831  28.229  1.00  0.00     0.031 A 
ATOM     47  C   UNL A   1      41.642  25.900  28.441  1.00  0.00     0.074 A 
ATOM     48  C   UNL A   1      43.973  25.088  28.488  1.00  0.00     0.049 A 
ATOM     49  N   UNL A   1      41.800  27.127  28.869  1.00  0.00    -0.248 NA
ATOM     50  C   UNL A   1      40.253  25.555  28.100  1.00  0.00     0.031 C 
ATOM     51  C   UNL A   1      45.080  24.151  28.283  1.00  0.00     0.029 A 
ATOM     52  N   UNL A   1      44.580  26.220  28.970  1.00  0.00    -0.354 N 
ATOM     53  C   UNL A   1      40.537  27.705  28.831  1.00  0.00     0.074 A 
ATOM     54  C   UNL A   1      39.634  26.710  28.294  1.00  0.00     0.031 C 
ATOM     55  C   UNL A   1      46.227  24.740  28.660  1.00  0.00     0.029 A 
ATOM     56  C   UNL A   1      45.942  26.102  29.097  1.00  0.00     0.049 A 
ATOM     57  H   UNL A   1      44.085  27.039  29.203  1.00  0.00     0.167 HD
ATOM     58  C   UNL A   1      40.159  28.944  29.223  1.00  0.00     0.031 A 
ATOM     59  C   UNL A   1      46.861  26.992  29.515  1.00  0.00     0.031 A 
ATOM     60  C   UNL A   1      41.053  29.932  29.766  1.00  0.00     0.049 A 
ATOM     61  C   UNL A   1      46.418  28.362  29.944  1.00  0.00     0.074 A 
ATOM     62  C   UNL A   1      40.755  31.194  30.250  1.00  0.00     0.029 A 
ATOM     63  N   UNL A   1      42.424  29.768  29.893  1.00  0.00    -0.354 N 
ATOM     64  N   UNL A   1      45.209  28.868  29.970  1.00  0.00    -0.248 NA
ATOM     65  C   UNL A   1      47.467  29.279  30.413  1.00  0.00     0.031 C 
ATOM     66  C   UNL A   1      41.953  31.811  30.627  1.00  0.00     0.029 A 
ATOM     67  C   UNL A   1      42.989  30.914  30.426  1.00  0.00     0.049 A 
ATOM     68  H   UNL A   1      42.923  28.957  29.641  1.00  0.00     0.167 HD
ATOM     69  C   UNL A   1      45.347  30.152  30.480  1.00  0.00     0.074 A 
ATOM     70  C   UNL A   1      46.756  30.342  30.763  1.00  0.00     0.031 C 
ATOM     71  C   UNL A   1      44.393  31.089  30.697  1.00  0.00     0.031 A 
BRANCH  58  72
ATOM     72  C   UNL A   1      38.706  29.301  29.067  1.00  0.00    -0.014 A 
ATOM     73  C   UNL A   1      37.811  29.192  30.144  1.00  0.00     0.009 A 
ATOM     74  C   UNL A   1      38.229  29.765  27.832  1.00  0.00     0.009 A 
ATOM     75  C   UNL A   1      36.460  29.499  29.975  1.00  0.00     0.001 A 
ATOM     76  C   UNL A   1      36.882  30.099  27.674  1.00  0.00     0.001 A 
ATOM     77  C   UNL A   1      35.998  29.955  28.741  1.00  0.00     0.000 A 
ENDBRANCH  58  72
BRANCH  59  78
ATOM     78  C   UNL A   1      48.294  26.605  29.570  1.00  0.00    -0.014 A 
ATOM     79  C   UNL A   1      49.141  26.869  28.483  1.00  0.00     0.009 A 
ATOM     80  C   UNL A   1      48.824  25.982  30.710  1.00  0.00     0.009 A 
ATOM     81  C   UNL A   1      50.487  26.496  28.529  1.00  0.00     0.001 A 
ATOM     82  C   UNL A   1      50.176  25.634  30.763  1.00  0.00     0.001 A 
ATOM     83  C   UNL A   1      51.004  25.884  29.669  1.00  0.00     0.000 A 
ENDBRANCH  59  78
BRANCH  71  84
ATOM     84  C   UNL A   1      44.836  32.394  31.295  1.00  0.00    -0.014 A 
ATOM     85  C   UNL A   1      44.900  32.574  32.685  1.00  0.00     0.009 A 
ATOM     86  C   UNL A   1      45.234  33.444  30.452  1.00  0.00     0.009 A 
ATOM     87  C   UNL A   1      45.326  33.792  33.220  1.00  0.00     0.001 A 
ATOM     88  C   UNL A   1      45.684  34.651  30.990  1.00  0.00     0.001 A 
ATOM     89  C   UNL A   1      45.722  34.827  32.372  1.00  0.00     0.000 A 
ENDBRANCH  71  84
ENDBRANCH  45  46
ENDBRANCH  37  40
ENDBRANCH  35  36
ENDBRANCH  34  35
ENDBRANCH  33  34
ENDBRANCH   1  33
TORSDOF 15
ENDMDL
MODEL 3
REMARK VINA RESULT:     -12.0      2.165      3.995
REMARK SMILES Cc1cc(C(=O)NCCCCNC(=O)c2ccc(-c3c4nc(c(-c5ccccc5)c5ccc([nH]5)c(-c5ccccc5)c5nc(c(-c6ccccc6)c6ccc3[nH]6)C=C5)C=C4)cc2)cc(S(=O)(=O)NNC(=O)c2c[nH]c3ccccc23)c1C
REMARK SMILES IDX 8 1 7 2 5 3 6 4 4 6 1 7 2 8 3 9 81 10 64 11 82 12 63 13
REMARK SMILES IDX 65 14 66 15 67 16 68 17 69 19 70 20 71 22 72 23 73 24 80 25
REMARK SMILES IDX 74 26 75 27 79 28 76 30 78 31 77 32 9 33 10 34 11 35 12 36
REMARK SMILES IDX 13 37 14 39 15 40 16 41 62 42 17 43 61 44 18 45 19 46 20 47
REMARK SMILES IDX 55 48 21 49 60 50 54 51 56 52 22 53 59 54 53 55 52 56 23 58
REMARK SMILES IDX 45 59 30 60 44 61 31 62 34 63 43 64 57 65 32 66 33 67 42 69
REMARK SMILES IDX 58 70 35 71 24 72 25 73 29 74 26 75 28 76 27 77 46 78 47 79
REMARK SMILES IDX 51 80 48 81 50 82 49 83 36 84 37 85 41 86 38 87 40 88 39 89
REMARK H PARENT 7 5 68 18 69 21 74 29 12 38 56 57 34 68
REMARK Flexibility Score: inf
ROOT
ATOM      1  C   UNL A   1      37.039  23.210  25.037  1.00  0.00     0.116 C 
ENDROOT
BRANCH   1   2
ATOM      2  N   UNL A   1      35.923  23.530  25.910  1.00  0.00    -0.352 N 
ATOM      3  C   UNL A   1      34.678  24.069  25.702  1.00  0.00     0.251 C 
ATOM      4  O   UNL A   1      33.951  24.192  26.690  1.00  0.00    -0.269 OA
ATOM      5  H   UNL A   1      36.098  23.314  26.856  1.00  0.00     0.163 HD
BRANCH   3   6
ATOM      6  C   UNL A   1      34.137  24.487  24.372  1.00  0.00     0.041 A 
ATOM      7  C   UNL A   1      32.833  23.020  21.116  1.00  0.00     0.044 C 
ATOM      8  C   UNL A   1      33.246  24.056  22.130  1.00  0.00    -0.046 A 
ATOM      9  C   UNL A   1      33.814  23.610  23.338  1.00  0.00     0.017 A 
ATOM     10  C   UNL A   1      33.093  25.437  21.904  1.00  0.00    -0.028 A 
ATOM     11  C   UNL A   1      33.541  26.339  22.903  1.00  0.00     0.088 A 
ATOM     12  C   UNL A   1      32.479  25.946  20.620  1.00  0.00     0.046 C 
ATOM     13  C   UNL A   1      34.010  25.867  24.136  1.00  0.00     0.036 A 
BRANCH  11  14
ATOM     14  S   UNL A   1      33.673  28.071  22.491  1.00  0.00     0.257 S 
ATOM     15  O   UNL A   1      34.806  28.180  21.593  1.00  0.00    -0.205 OA
ATOM     16  O   UNL A   1      32.361  28.525  22.108  1.00  0.00    -0.205 OA
BRANCH  14  17
ATOM     17  N   UNL A   1      34.039  28.945  23.907  1.00  0.00    -0.123 NA
ATOM     18  H   UNL A   1      34.760  29.622  23.657  1.00  0.00     0.167 HD
BRANCH  17  19
ATOM     19  N   UNL A   1      32.987  29.691  24.613  1.00  0.00    -0.273 N 
ATOM     20  C   UNL A   1      32.804  29.519  25.980  1.00  0.00     0.268 C 
ATOM     21  H   UNL A   1      32.409  30.314  24.116  1.00  0.00     0.186 HD
ATOM     22  O   UNL A   1      33.116  30.393  26.783  1.00  0.00    -0.268 OA
BRANCH  20  23
ATOM     23  C   UNL A   1      31.922  28.401  26.319  1.00  0.00     0.066 A 
ATOM     24  C   UNL A   1      31.926  27.695  27.509  1.00  0.00     0.097 A 
ATOM     25  C   UNL A   1      31.041  27.671  25.454  1.00  0.00     0.012 A 
ATOM     26  N   UNL A   1      31.579  26.408  27.204  1.00  0.00    -0.360 N 
ATOM     27  C   UNL A   1      31.036  26.363  25.946  1.00  0.00     0.046 A 
ATOM     28  C   UNL A   1      30.368  27.925  24.242  1.00  0.00     0.011 A 
ATOM     29  H   UNL A   1      31.700  25.632  27.798  1.00  0.00     0.166 HD
ATOM     30  C   UNL A   1      30.571  25.273  25.206  1.00  0.00     0.027 A 
ATOM     31  C   UNL A   1      29.769  26.860  23.554  1.00  0.00     0.001 A 
ATOM     32  C   UNL A   1      29.924  25.549  24.000  1.00  0.00     0.002 A 
ENDBRANCH  20  23
ENDBRANCH  17  19
ENDBRANCH  14  17
ENDBRANCH  11  14
ENDBRANCH   3   6
ENDBRANCH   1   2
BRANCH   1  33
ATOM     33  C   UNL A   1      36.734  21.981  24.175  1.00  0.00     0.023 C 
BRANCH  33  34
ATOM     34  C   UNL A   1      37.345  20.675  24.702  1.00  0.00     0.023 C 
BRANCH  34  35
ATOM     35  C   UNL A   1      38.476  20.854  25.711  1.00  0.00     0.116 C 
BRANCH  35  36
ATOM     36  N   UNL A   1      39.494  19.817  25.632  1.00  0.00    -0.352 N 
ATOM     37  C   UNL A   1      40.822  19.892  25.980  1.00  0.00     0.251 C 
ATOM     38  H   UNL A   1      39.191  18.947  25.284  1.00  0.00     0.163 HD
ATOM     39  O   UNL A   1      41.574  18.948  25.762  1.00  0.00    -0.269 OA
BRANCH  37  40
ATOM     40  C   UNL A   1      41.350  21.138  26.576  1.00  0.00     0.039 A 
ATOM     41  C   UNL A   1      41.915  22.099  25.733  1.00  0.00     0.014 A 
ATOM     42  C   UNL A   1      41.264  21.370  27.951  1.00  0.00     0.014 A 
ATOM     43  C   UNL A   1      42.326  23.324  26.261  1.00  0.00     0.010 A 
ATOM     44  C   UNL A   1      41.613  22.615  28.464  1.00  0.00     0.010 A 
ATOM     45  C   UNL A   1      42.142  23.607  27.623  1.00  0.00    -0.014 A 
BRANCH  45  46
ATOM     46  C   UNL A   1      42.479  24.937  28.187  1.00  0.00     0.031 A 
ATOM     47  C   UNL A   1      43.880  25.237  28.639  1.00  0.00     0.074 A 
ATOM     48  C   UNL A   1      41.505  25.851  28.362  1.00  0.00     0.049 A 
ATOM     49  N   UNL A   1      44.349  26.316  29.212  1.00  0.00    -0.248 NA
ATOM     50  C   UNL A   1      44.879  24.173  28.448  1.00  0.00     0.031 C 
ATOM     51  C   UNL A   1      40.096  25.668  28.008  1.00  0.00     0.029 A 
ATOM     52  N   UNL A   1      41.553  27.116  28.892  1.00  0.00    -0.354 N 
ATOM     53  C   UNL A   1      45.689  26.055  29.466  1.00  0.00     0.074 A 
ATOM     54  C   UNL A   1      45.946  24.701  29.029  1.00  0.00     0.031 C 
ATOM     55  C   UNL A   1      39.419  26.789  28.309  1.00  0.00     0.029 A 
ATOM     56  C   UNL A   1      40.336  27.752  28.908  1.00  0.00     0.049 A 
ATOM     57  H   UNL A   1      42.381  27.528  29.229  1.00  0.00     0.167 HD
ATOM     58  C   UNL A   1      46.627  26.875  29.999  1.00  0.00     0.031 A 
ATOM     59  C   UNL A   1      39.994  28.974  29.359  1.00  0.00     0.031 A 
ATOM     60  C   UNL A   1      46.377  28.226  30.426  1.00  0.00     0.049 A 
ATOM     61  C   UNL A   1      41.051  29.864  29.948  1.00  0.00     0.074 A 
ATOM     62  C   UNL A   1      47.274  29.155  30.920  1.00  0.00     0.029 A 
ATOM     63  N   UNL A   1      45.133  28.838  30.411  1.00  0.00    -0.354 N 
ATOM     64  N   UNL A   1      42.329  29.629  30.114  1.00  0.00    -0.248 NA
ATOM     65  C   UNL A   1      40.617  31.194  30.399  1.00  0.00     0.031 C 
ATOM     66  C   UNL A   1      46.565  30.316  31.248  1.00  0.00     0.029 A 
ATOM     67  C   UNL A   1      45.235  30.126  30.909  1.00  0.00     0.049 A 
ATOM     68  H   UNL A   1      44.300  28.419  30.093  1.00  0.00     0.167 HD
ATOM     69  C   UNL A   1      42.859  30.788  30.666  1.00  0.00     0.074 A 
ATOM     70  C   UNL A   1      41.765  31.730  30.793  1.00  0.00     0.031 C 
ATOM     71  C   UNL A   1      44.137  31.049  31.033  1.00  0.00     0.031 A 
BRANCH  58  72
ATOM     72  C   UNL A   1      48.016  26.319  30.157  1.00  0.00    -0.014 A 
ATOM     73  C   UNL A   1      48.934  26.343  29.094  1.00  0.00     0.009 A 
ATOM     74  C   UNL A   1      48.415  25.776  31.388  1.00  0.00     0.009 A 
ATOM     75  C   UNL A   1      50.209  25.797  29.248  1.00  0.00     0.001 A 
ATOM     76  C   UNL A   1      49.702  25.257  31.547  1.00  0.00     0.001 A 
ATOM     77  C   UNL A   1      50.593  25.257  30.475  1.00  0.00     0.000 A 
ENDBRANCH  58  72
BRANCH  59  78
ATOM     78  C   UNL A   1      38.587  29.435  29.248  1.00  0.00    -0.014 A 
ATOM     79  C   UNL A   1      37.702  29.276  30.326  1.00  0.00     0.009 A 
ATOM     80  C   UNL A   1      38.123  30.045  28.072  1.00  0.00     0.009 A 
ATOM     81  C   UNL A   1      36.375  29.700  30.220  1.00  0.00     0.001 A 
ATOM     82  C   UNL A   1      36.803  30.492  27.980  1.00  0.00     0.001 A 
ATOM     83  C   UNL A   1      35.928  30.312  29.051  1.00  0.00     0.000 A 
ENDBRANCH  59  78
BRANCH  71  84
ATOM     84  C   UNL A   1      44.427  32.418  31.579  1.00  0.00    -0.014 A 
ATOM     85  C   UNL A   1      44.778  33.481  30.733  1.00  0.00     0.009 A 
ATOM     86  C   UNL A   1      44.307  32.655  32.958  1.00  0.00     0.009 A 
ATOM     87  C   UNL A   1      45.033  34.748  31.261  1.00  0.00     0.001 A 
ATOM     88  C   UNL A   1      44.536  33.929  33.480  1.00  0.00     0.001 A 
ATOM     89  C   UNL A   1      44.907  34.973  32.633  1.00  0.00     0.000 A 
ENDBRANCH  71  84
ENDBRANCH  45  46
ENDBRANCH  37  40
ENDBRANCH  35  36
ENDBRANCH  34  35
ENDBRANCH  33  34
ENDBRANCH   1  33
TORSDOF 15
ENDMDL
