MODEL 1
REMARK VINA RESULT:     -11.8      0.000      0.000
REMARK SMILES Cc1cc2n(n1)[C@H](C(F)(F)F)CCN2C(=O)c1cnn([C@@H](C)C(=O)NCCCCNC(=O)c2ccc(-c3c4nc(c(-c5ccccc5)c5ccc([nH]5)c(-c5ccccc5)c5nc(c(-c6ccccc6)c6ccc3[nH]6)C=C5)C=C4)cc2)c1
REMARK SMILES IDX 26 1 25 2 23 3 24 4 21 6 22 7 20 8 17 9 18 10 81 11 19 12
REMARK SMILES IDX 15 13 16 14 14 15 1 16 2 17 3 18 6 19 4 20 5 21 7 22 13 23
REMARK SMILES IDX 12 24 8 25 9 26 10 27 11 28 27 29 28 30 29 31 30 32 31 33
REMARK SMILES IDX 32 35 33 36 34 37 80 38 35 39 79 40 36 41 37 42 38 43 73 44
REMARK SMILES IDX 39 45 78 46 72 47 74 48 40 49 77 50 71 51 70 52 41 54 63 55
REMARK SMILES IDX 48 56 62 57 49 58 52 59 61 60 75 61 50 62 51 63 60 65 76 66
REMARK SMILES IDX 53 67 42 68 43 69 47 70 44 71 46 72 45 73 64 74 65 75 69 76
REMARK SMILES IDX 66 77 68 78 67 79 54 80 55 81 59 82 56 83 58 84 57 85
REMARK H PARENT 25 5 30 34 74 53 52 64
REMARK Flexibility Score: inf
ROOT
ATOM      1  C   UNL A   1      36.460  22.821  25.705  1.00  0.00     0.116 C 
ENDROOT
BRANCH   1   2
ATOM      2  N   UNL A   1      35.935  23.152  24.391  1.00  0.00    -0.354 N 
ATOM      3  C   UNL A   1      34.762  22.838  23.776  1.00  0.00     0.244 C 
ATOM      4  O   UNL A   1      34.648  23.219  22.603  1.00  0.00    -0.273 OA
ATOM      5  H   UNL A   1      36.539  23.706  23.845  1.00  0.00     0.163 HD
BRANCH   3   6
ATOM      6  C   UNL A   1      33.594  22.104  24.434  1.00  0.00     0.193 C 
ATOM      7  C   UNL A   1      32.827  21.162  23.513  1.00  0.00     0.044 C 
BRANCH   6   8
ATOM      8  N   UNL A   1      32.744  22.986  25.226  1.00  0.00    -0.260 N 
ATOM      9  C   UNL A   1      31.277  24.514  25.861  1.00  0.00     0.078 A 
ATOM     10  C   UNL A   1      31.781  23.761  26.936  1.00  0.00     0.149 A 
ATOM     11  C   UNL A   1      31.892  23.951  24.754  1.00  0.00     0.123 A 
ATOM     12  N   UNL A   1      32.787  22.971  26.571  1.00  0.00    -0.180 NA
BRANCH   9  13
ATOM     13  C   UNL A   1      30.266  25.542  25.841  1.00  0.00     0.262 C 
ATOM     14  O   UNL A   1      29.286  25.525  26.568  1.00  0.00    -0.269 OA
BRANCH  13  15
ATOM     15  N   UNL A   1      30.466  26.578  24.830  1.00  0.00    -0.293 N 
ATOM     16  C   UNL A   1      32.683  30.483  27.101  1.00  0.00     0.069 C 
ATOM     17  C   UNL A   1      32.082  29.535  26.132  1.00  0.00     0.062 A 
ATOM     18  C   UNL A   1      31.644  28.207  26.378  1.00  0.00     0.072 A 
ATOM     19  N   UNL A   1      31.877  29.894  24.860  1.00  0.00    -0.176 NA
ATOM     20  C   UNL A   1      31.088  27.783  25.194  1.00  0.00     0.134 A 
ATOM     21  N   UNL A   1      31.246  28.840  24.334  1.00  0.00    -0.237 N 
ATOM     22  C   UNL A   1      30.817  28.834  22.952  1.00  0.00     0.216 C 
ATOM     23  C   UNL A   1      29.836  26.537  23.482  1.00  0.00     0.130 C 
ATOM     24  C   UNL A   1      30.629  27.386  22.483  1.00  0.00     0.059 C 
BRANCH  22  25
ATOM     25  C   UNL A   1      29.551  29.648  22.793  1.00  0.00     0.410 C 
ATOM     26  F   UNL A   1      28.871  29.668  23.966  1.00  0.00    -0.169 F 
ATOM     27  F   UNL A   1      29.826  30.936  22.484  1.00  0.00    -0.169 F 
ATOM     28  F   UNL A   1      28.714  29.164  21.859  1.00  0.00    -0.169 F 
ENDBRANCH  22  25
ENDBRANCH  13  15
ENDBRANCH   9  13
ENDBRANCH   6   8
ENDBRANCH   3   6
ENDBRANCH   1   2
BRANCH   1  29
ATOM     29  C   UNL A   1      37.951  23.151  25.847  1.00  0.00     0.023 C 
BRANCH  29  30
ATOM     30  C   UNL A   1      38.916  21.962  25.817  1.00  0.00     0.023 C 
BRANCH  30  31
ATOM     31  C   UNL A   1      40.076  22.042  26.803  1.00  0.00     0.116 C 
BRANCH  31  32
ATOM     32  N   UNL A   1      41.370  22.220  26.153  1.00  0.00    -0.352 N 
ATOM     33  C   UNL A   1      42.047  23.403  25.934  1.00  0.00     0.251 C 
ATOM     34  H   UNL A   1      41.812  21.401  25.831  1.00  0.00     0.163 HD
ATOM     35  O   UNL A   1      42.957  23.480  25.119  1.00  0.00    -0.269 OA
BRANCH  33  36
ATOM     36  C   UNL A   1      41.636  24.584  26.710  1.00  0.00     0.039 A 
ATOM     37  C   UNL A   1      42.133  24.797  27.995  1.00  0.00     0.014 A 
ATOM     38  C   UNL A   1      40.833  25.534  26.081  1.00  0.00     0.014 A 
ATOM     39  C   UNL A   1      41.907  26.030  28.610  1.00  0.00     0.010 A 
ATOM     40  C   UNL A   1      40.686  26.781  26.655  1.00  0.00     0.010 A 
ATOM     41  C   UNL A   1      41.213  27.041  27.927  1.00  0.00    -0.014 A 
BRANCH  41  42
ATOM     42  C   UNL A   1      41.141  28.392  28.500  1.00  0.00     0.031 A 
ATOM     43  C   UNL A   1      42.242  29.350  28.159  1.00  0.00     0.074 A 
ATOM     44  C   UNL A   1      40.040  28.898  29.094  1.00  0.00     0.049 A 
ATOM     45  N   UNL A   1      42.992  30.027  28.969  1.00  0.00    -0.248 NA
ATOM     46  C   UNL A   1      42.537  29.591  26.738  1.00  0.00     0.031 C 
ATOM     47  C   UNL A   1      38.720  28.277  29.237  1.00  0.00     0.029 A 
ATOM     48  N   UNL A   1      39.841  30.161  29.575  1.00  0.00    -0.354 N 
ATOM     49  C   UNL A   1      43.764  30.881  28.179  1.00  0.00     0.074 A 
ATOM     50  C   UNL A   1      43.497  30.515  26.810  1.00  0.00     0.031 C 
ATOM     51  C   UNL A   1      37.808  29.234  29.515  1.00  0.00     0.029 A 
ATOM     52  C   UNL A   1      38.505  30.486  29.745  1.00  0.00     0.049 A 
ATOM     53  H   UNL A   1      40.576  30.782  29.781  1.00  0.00     0.167 HD
ATOM     54  C   UNL A   1      44.457  31.938  28.693  1.00  0.00     0.031 A 
ATOM     55  C   UNL A   1      37.986  31.702  30.026  1.00  0.00     0.031 A 
ATOM     56  C   UNL A   1      44.580  31.876  30.122  1.00  0.00     0.049 A 
ATOM     57  C   UNL A   1      39.057  32.540  30.603  1.00  0.00     0.074 A 
ATOM     58  C   UNL A   1      45.131  30.994  31.029  1.00  0.00     0.029 A 
ATOM     59  N   UNL A   1      43.800  32.728  30.864  1.00  0.00    -0.354 N 
ATOM     60  N   UNL A   1      39.591  32.325  31.770  1.00  0.00    -0.248 NA
ATOM     61  C   UNL A   1      39.795  33.444  29.737  1.00  0.00     0.031 C 
ATOM     62  C   UNL A   1      44.275  31.055  32.168  1.00  0.00     0.029 A 
ATOM     63  C   UNL A   1      43.273  31.985  31.886  1.00  0.00     0.049 A 
ATOM     64  H   UNL A   1      43.649  33.685  30.694  1.00  0.00     0.167 HD
ATOM     65  C   UNL A   1      40.914  32.711  31.629  1.00  0.00     0.074 A 
ATOM     66  C   UNL A   1      40.940  33.526  30.421  1.00  0.00     0.031 C 
ATOM     67  C   UNL A   1      41.905  32.096  32.342  1.00  0.00     0.031 A 
BRANCH  54  68
ATOM     68  C   UNL A   1      44.766  33.213  27.945  1.00  0.00    -0.014 A 
ATOM     69  C   UNL A   1      46.074  33.738  27.997  1.00  0.00     0.009 A 
ATOM     70  C   UNL A   1      43.766  34.057  27.430  1.00  0.00     0.009 A 
ATOM     71  C   UNL A   1      46.351  35.054  27.609  1.00  0.00     0.001 A 
ATOM     72  C   UNL A   1      44.049  35.360  27.000  1.00  0.00     0.001 A 
ATOM     73  C   UNL A   1      45.337  35.867  27.114  1.00  0.00     0.000 A 
ENDBRANCH  54  68
BRANCH  55  74
ATOM     74  C   UNL A   1      36.654  32.229  29.682  1.00  0.00    -0.014 A 
ATOM     75  C   UNL A   1      35.734  32.575  30.680  1.00  0.00     0.009 A 
ATOM     76  C   UNL A   1      36.365  32.606  28.357  1.00  0.00     0.009 A 
ATOM     77  C   UNL A   1      34.576  33.297  30.365  1.00  0.00     0.001 A 
ATOM     78  C   UNL A   1      35.206  33.321  28.041  1.00  0.00     0.001 A 
ATOM     79  C   UNL A   1      34.318  33.677  29.049  1.00  0.00     0.000 A 
ENDBRANCH  55  74
BRANCH  67  80
ATOM     80  C   UNL A   1      41.503  31.197  33.485  1.00  0.00    -0.014 A 
ATOM     81  C   UNL A   1      41.466  29.796  33.369  1.00  0.00     0.009 A 
ATOM     82  C   UNL A   1      41.306  31.763  34.753  1.00  0.00     0.009 A 
ATOM     83  C   UNL A   1      41.197  28.990  34.478  1.00  0.00     0.001 A 
ATOM     84  C   UNL A   1      41.060  30.955  35.866  1.00  0.00     0.001 A 
ATOM     85  C   UNL A   1      40.998  29.570  35.727  1.00  0.00     0.000 A 
ENDBRANCH  67  80
ENDBRANCH  41  42
ENDBRANCH  33  36
ENDBRANCH  31  32
ENDBRANCH  30  31
ENDBRANCH  29  30
ENDBRANCH   1  29
TORSDOF 15
ENDMDL
MODEL 2
REMARK VINA RESULT:     -11.7      2.729      6.256
REMARK SMILES Cc1cc2n(n1)[C@H](C(F)(F)F)CCN2C(=O)c1cnn([C@@H](C)C(=O)NCCCCNC(=O)c2ccc(-c3c4nc(c(-c5ccccc5)c5ccc([nH]5)c(-c5ccccc5)c5nc(c(-c6ccccc6)c6ccc3[nH]6)C=C5)C=C4)cc2)c1
REMARK SMILES IDX 26 1 25 2 23 3 24 4 21 6 22 7 20 8 17 9 18 10 81 11 19 12
REMARK SMILES IDX 15 13 16 14 14 15 1 16 2 17 3 18 6 19 4 20 5 21 7 22 13 23
REMARK SMILES IDX 12 24 8 25 9 26 10 27 11 28 27 29 28 30 29 31 30 32 31 33
REMARK SMILES IDX 32 35 33 36 34 37 80 38 35 39 79 40 36 41 37 42 38 43 73 44
REMARK SMILES IDX 39 45 78 46 72 47 74 48 40 49 77 50 71 51 70 52 41 54 63 55
REMARK SMILES IDX 48 56 62 57 49 58 52 59 61 60 75 61 50 62 51 63 60 65 76 66
REMARK SMILES IDX 53 67 42 68 43 69 47 70 44 71 46 72 45 73 64 74 65 75 69 76
REMARK SMILES IDX 66 77 68 78 67 79 54 80 55 81 59 82 56 83 58 84 57 85
REMARK H PARENT 25 5 30 34 74 53 52 64
REMARK Flexibility Score: inf
ROOT
ATOM      1  C   UNL A   1      35.824  21.125  24.724  1.00  0.00     0.116 C 
ENDROOT
BRANCH   1   2
ATOM      2  N   UNL A   1      35.342  21.199  26.093  1.00  0.00    -0.354 N 
ATOM      3  C   UNL A   1      34.085  21.274  26.612  1.00  0.00     0.244 C 
ATOM      4  O   UNL A   1      34.015  21.402  27.842  1.00  0.00    -0.273 OA
ATOM      5  H   UNL A   1      36.056  21.194  26.772  1.00  0.00     0.163 HD
BRANCH   3   6
ATOM      6  C   UNL A   1      32.794  21.170  25.801  1.00  0.00     0.193 C 
ATOM      7  C   UNL A   1      32.807  20.108  24.708  1.00  0.00     0.044 C 
BRANCH   6   8
ATOM      8  N   UNL A   1      32.293  22.468  25.364  1.00  0.00    -0.260 N 
ATOM      9  C   UNL A   1      31.195  24.382  25.219  1.00  0.00     0.078 A 
ATOM     10  C   UNL A   1      32.191  24.248  24.237  1.00  0.00     0.149 A 
ATOM     11  C   UNL A   1      31.319  23.222  25.967  1.00  0.00     0.123 A 
ATOM     12  N   UNL A   1      32.723  23.029  24.219  1.00  0.00    -0.180 NA
BRANCH   9  13
ATOM     13  C   UNL A   1      30.319  25.490  25.510  1.00  0.00     0.262 C 
ATOM     14  O   UNL A   1      29.456  25.446  26.372  1.00  0.00    -0.269 OA
BRANCH  13  15
ATOM     15  N   UNL A   1      30.495  26.653  24.644  1.00  0.00    -0.293 N 
ATOM     16  C   UNL A   1      32.915  30.162  27.320  1.00  0.00     0.069 C 
ATOM     17  C   UNL A   1      32.245  29.370  26.260  1.00  0.00     0.062 A 
ATOM     18  C   UNL A   1      31.786  28.029  26.341  1.00  0.00     0.072 A 
ATOM     19  N   UNL A   1      31.987  29.907  25.062  1.00  0.00    -0.176 NA
ATOM     20  C   UNL A   1      31.164  27.785  25.139  1.00  0.00     0.134 A 
ATOM     21  N   UNL A   1      31.306  28.949  24.428  1.00  0.00    -0.237 N 
ATOM     22  C   UNL A   1      30.810  29.144  23.083  1.00  0.00     0.216 C 
ATOM     23  C   UNL A   1      29.800  26.813  23.337  1.00  0.00     0.130 C 
ATOM     24  C   UNL A   1      30.565  27.780  22.426  1.00  0.00     0.059 C 
BRANCH  22  25
ATOM     25  C   UNL A   1      29.559  29.995  23.103  1.00  0.00     0.410 C 
ATOM     26  F   UNL A   1      29.541  30.806  22.015  1.00  0.00    -0.169 F 
ATOM     27  F   UNL A   1      28.443  29.235  23.036  1.00  0.00    -0.169 F 
ATOM     28  F   UNL A   1      29.464  30.785  24.187  1.00  0.00    -0.169 F 
ENDBRANCH  22  25
ENDBRANCH  13  15
ENDBRANCH   9  13
ENDBRANCH   6   8
ENDBRANCH   3   6
ENDBRANCH   1   2
BRANCH   1  29
ATOM     29  C   UNL A   1      37.351  21.228  24.628  1.00  0.00     0.023 C 
BRANCH  29  30
ATOM     30  C   UNL A   1      38.140  19.958  24.963  1.00  0.00     0.023 C 
BRANCH  30  31
ATOM     31  C   UNL A   1      39.298  20.151  25.935  1.00  0.00     0.116 C 
BRANCH  31  32
ATOM     32  N   UNL A   1      40.366  19.171  25.755  1.00  0.00    -0.352 N 
ATOM     33  C   UNL A   1      41.727  19.382  25.846  1.00  0.00     0.251 C 
ATOM     34  H   UNL A   1      40.082  18.252  25.544  1.00  0.00     0.163 HD
ATOM     35  O   UNL A   1      42.531  18.586  25.380  1.00  0.00    -0.269 OA
BRANCH  33  36
ATOM     36  C   UNL A   1      42.189  20.607  26.519  1.00  0.00     0.039 A 
ATOM     37  C   UNL A   1      42.609  21.710  25.776  1.00  0.00     0.014 A 
ATOM     38  C   UNL A   1      42.084  20.670  27.907  1.00  0.00     0.014 A 
ATOM     39  C   UNL A   1      42.821  22.923  26.432  1.00  0.00     0.010 A 
ATOM     40  C   UNL A   1      42.210  21.892  28.539  1.00  0.00     0.010 A 
ATOM     41  C   UNL A   1      42.587  23.028  27.812  1.00  0.00    -0.014 A 
BRANCH  41  42
ATOM     42  C   UNL A   1      42.630  24.346  28.461  1.00  0.00     0.031 A 
ATOM     43  C   UNL A   1      41.510  25.299  28.173  1.00  0.00     0.074 A 
ATOM     44  C   UNL A   1      43.461  24.655  29.479  1.00  0.00     0.049 A 
ATOM     45  N   UNL A   1      41.587  26.516  27.739  1.00  0.00    -0.248 NA
ATOM     46  C   UNL A   1      40.132  24.840  28.408  1.00  0.00     0.031 C 
ATOM     47  C   UNL A   1      44.409  23.779  30.174  1.00  0.00     0.029 A 
ATOM     48  N   UNL A   1      43.519  25.810  30.206  1.00  0.00    -0.354 N 
ATOM     49  C   UNL A   1      40.291  27.034  27.767  1.00  0.00     0.074 A 
ATOM     50  C   UNL A   1      39.425  25.934  28.115  1.00  0.00     0.031 C 
ATOM     51  C   UNL A   1      44.741  24.336  31.359  1.00  0.00     0.029 A 
ATOM     52  C   UNL A   1      44.176  25.672  31.417  1.00  0.00     0.049 A 
ATOM     53  H   UNL A   1      43.129  26.661  29.898  1.00  0.00     0.167 HD
ATOM     54  C   UNL A   1      40.025  28.367  27.655  1.00  0.00     0.031 A 
ATOM     55  C   UNL A   1      44.237  26.571  32.424  1.00  0.00     0.031 A 
ATOM     56  C   UNL A   1      41.153  29.117  27.178  1.00  0.00     0.049 A 
ATOM     57  C   UNL A   1      43.919  27.904  31.874  1.00  0.00     0.074 A 
ATOM     58  C   UNL A   1      41.931  29.114  26.039  1.00  0.00     0.029 A 
ATOM     59  N   UNL A   1      41.835  29.886  28.088  1.00  0.00    -0.354 N 
ATOM     60  N   UNL A   1      44.691  28.546  31.046  1.00  0.00    -0.248 NA
ATOM     61  C   UNL A   1      42.560  28.409  31.976  1.00  0.00     0.031 C 
ATOM     62  C   UNL A   1      43.241  29.455  26.487  1.00  0.00     0.029 A 
ATOM     63  C   UNL A   1      43.168  29.663  27.865  1.00  0.00     0.049 A 
ATOM     64  H   UNL A   1      41.443  30.480  28.767  1.00  0.00     0.167 HD
ATOM     65  C   UNL A   1      43.823  29.243  30.221  1.00  0.00     0.074 A 
ATOM     66  C   UNL A   1      42.550  29.243  30.932  1.00  0.00     0.031 C 
ATOM     67  C   UNL A   1      44.145  29.500  28.918  1.00  0.00     0.031 A 
BRANCH  54  68
ATOM     68  C   UNL A   1      38.838  29.065  28.275  1.00  0.00    -0.014 A 
ATOM     69  C   UNL A   1      38.586  28.893  29.652  1.00  0.00     0.009 A 
ATOM     70  C   UNL A   1      37.812  29.650  27.513  1.00  0.00     0.009 A 
ATOM     71  C   UNL A   1      37.352  29.235  30.219  1.00  0.00     0.001 A 
ATOM     72  C   UNL A   1      36.593  30.033  28.086  1.00  0.00     0.001 A 
ATOM     73  C   UNL A   1      36.354  29.802  29.434  1.00  0.00     0.000 A 
ENDBRANCH  54  68
BRANCH  55  74
ATOM     74  C   UNL A   1      44.405  26.319  33.866  1.00  0.00    -0.014 A 
ATOM     75  C   UNL A   1      43.455  25.585  34.587  1.00  0.00     0.009 A 
ATOM     76  C   UNL A   1      45.629  26.614  34.496  1.00  0.00     0.009 A 
ATOM     77  C   UNL A   1      43.730  25.139  35.885  1.00  0.00     0.001 A 
ATOM     78  C   UNL A   1      45.902  26.175  35.794  1.00  0.00     0.001 A 
ATOM     79  C   UNL A   1      44.956  25.426  36.484  1.00  0.00     0.000 A 
ENDBRANCH  55  74
BRANCH  67  80
ATOM     80  C   UNL A   1      45.570  29.265  28.481  1.00  0.00    -0.014 A 
ATOM     81  C   UNL A   1      46.525  30.295  28.426  1.00  0.00     0.009 A 
ATOM     82  C   UNL A   1      46.003  27.949  28.266  1.00  0.00     0.009 A 
ATOM     83  C   UNL A   1      47.861  30.023  28.123  1.00  0.00     0.001 A 
ATOM     84  C   UNL A   1      47.344  27.673  27.986  1.00  0.00     0.001 A 
ATOM     85  C   UNL A   1      48.271  28.710  27.907  1.00  0.00     0.000 A 
ENDBRANCH  67  80
ENDBRANCH  41  42
ENDBRANCH  33  36
ENDBRANCH  31  32
ENDBRANCH  30  31
ENDBRANCH  29  30
ENDBRANCH   1  29
TORSDOF 15
ENDMDL
MODEL 3
REMARK VINA RESULT:     -11.7      1.711      2.509
REMARK SMILES Cc1cc2n(n1)[C@H](C(F)(F)F)CCN2C(=O)c1cnn([C@@H](C)C(=O)NCCCCNC(=O)c2ccc(-c3c4nc(c(-c5ccccc5)c5ccc([nH]5)c(-c5ccccc5)c5nc(c(-c6ccccc6)c6ccc3[nH]6)C=C5)C=C4)cc2)c1
REMARK SMILES IDX 26 1 25 2 23 3 24 4 21 6 22 7 20 8 17 9 18 10 81 11 19 12
REMARK SMILES IDX 15 13 16 14 14 15 1 16 2 17 3 18 6 19 4 20 5 21 7 22 13 23
REMARK SMILES IDX 12 24 8 25 9 26 10 27 11 28 27 29 28 30 29 31 30 32 31 33
REMARK SMILES IDX 32 35 33 36 34 37 80 38 35 39 79 40 36 41 37 42 38 43 73 44
REMARK SMILES IDX 39 45 78 46 72 47 74 48 40 49 77 50 71 51 70 52 41 54 63 55
REMARK SMILES IDX 48 56 62 57 49 58 52 59 61 60 75 61 50 62 51 63 60 65 76 66
REMARK SMILES IDX 53 67 42 68 43 69 47 70 44 71 46 72 45 73 64 74 65 75 69 76
REMARK SMILES IDX 66 77 68 78 67 79 54 80 55 81 59 82 56 83 58 84 57 85
REMARK H PARENT 25 5 30 34 74 53 52 64
REMARK Flexibility Score: inf
ROOT
ATOM      1  C   UNL A   1      37.971  24.053  26.715  1.00  0.00     0.116 C 
ENDROOT
BRANCH   1   2
ATOM      2  N   UNL A   1      37.700  23.677  25.338  1.00  0.00    -0.354 N 
ATOM      3  C   UNL A   1      37.030  22.621  24.798  1.00  0.00     0.244 C 
ATOM      4  O   UNL A   1      37.041  22.549  23.562  1.00  0.00    -0.273 OA
ATOM      5  H   UNL A   1      38.067  24.302  24.671  1.00  0.00     0.163 HD
BRANCH   3   6
ATOM      6  C   UNL A   1      36.253  21.575  25.596  1.00  0.00     0.193 C 
ATOM      7  C   UNL A   1      36.260  20.174  24.995  1.00  0.00     0.044 C 
BRANCH   6   8
ATOM      8  N   UNL A   1      34.932  22.040  26.005  1.00  0.00    -0.260 N 
ATOM      9  C   UNL A   1      32.876  22.853  26.017  1.00  0.00     0.078 A 
ATOM     10  C   UNL A   1      33.273  22.354  27.270  1.00  0.00     0.149 A 
ATOM     11  C   UNL A   1      33.966  22.590  25.203  1.00  0.00     0.123 A 
ATOM     12  N   UNL A   1      34.563  22.032  27.299  1.00  0.00    -0.180 NA
BRANCH   9  13
ATOM     13  C   UNL A   1      31.609  23.394  25.591  1.00  0.00     0.262 C 
ATOM     14  O   UNL A   1      30.628  22.700  25.380  1.00  0.00    -0.269 OA
BRANCH  13  15
ATOM     15  N   UNL A   1      31.605  24.837  25.362  1.00  0.00    -0.293 N 
ATOM     16  C   UNL A   1      32.524  25.584  20.471  1.00  0.00     0.069 C 
ATOM     17  C   UNL A   1      32.206  25.727  21.912  1.00  0.00     0.062 A 
ATOM     18  C   UNL A   1      31.994  24.690  22.858  1.00  0.00     0.072 A 
ATOM     19  N   UNL A   1      32.105  26.936  22.476  1.00  0.00    -0.176 NA
ATOM     20  C   UNL A   1      31.821  25.329  24.064  1.00  0.00     0.134 A 
ATOM     21  N   UNL A   1      31.913  26.665  23.770  1.00  0.00    -0.237 N 
ATOM     22  C   UNL A   1      31.775  27.724  24.746  1.00  0.00     0.216 C 
ATOM     23  C   UNL A   1      31.622  25.839  26.462  1.00  0.00     0.130 C 
ATOM     24  C   UNL A   1      31.055  27.181  25.988  1.00  0.00     0.059 C 
BRANCH  22  25
ATOM     25  C   UNL A   1      33.131  28.302  25.087  1.00  0.00     0.410 C 
ATOM     26  F   UNL A   1      33.266  29.521  24.506  1.00  0.00    -0.169 F 
ATOM     27  F   UNL A   1      33.267  28.493  26.419  1.00  0.00    -0.169 F 
ATOM     28  F   UNL A   1      34.160  27.547  24.665  1.00  0.00    -0.169 F 
ENDBRANCH  22  25
ENDBRANCH  13  15
ENDBRANCH   9  13
ENDBRANCH   6   8
ENDBRANCH   3   6
ENDBRANCH   1   2
BRANCH   1  29
ATOM     29  C   UNL A   1      39.447  23.883  27.095  1.00  0.00     0.023 C 
BRANCH  29  30
ATOM     30  C   UNL A   1      40.001  22.456  27.049  1.00  0.00     0.023 C 
BRANCH  30  31
ATOM     31  C   UNL A   1      41.471  22.317  27.425  1.00  0.00     0.116 C 
BRANCH  31  32
ATOM     32  N   UNL A   1      42.349  22.184  26.266  1.00  0.00    -0.352 N 
ATOM     33  C   UNL A   1      42.838  23.192  25.460  1.00  0.00     0.251 C 
ATOM     34  H   UNL A   1      42.623  21.268  26.032  1.00  0.00     0.163 HD
ATOM     35  O   UNL A   1      43.301  22.957  24.351  1.00  0.00    -0.269 OA
BRANCH  33  36
ATOM     36  C   UNL A   1      42.782  24.570  25.972  1.00  0.00     0.039 A 
ATOM     37  C   UNL A   1      41.944  25.514  25.379  1.00  0.00     0.014 A 
ATOM     38  C   UNL A   1      43.498  24.868  27.130  1.00  0.00     0.014 A 
ATOM     39  C   UNL A   1      41.743  26.735  26.022  1.00  0.00     0.010 A 
ATOM     40  C   UNL A   1      43.229  26.041  27.807  1.00  0.00     0.010 A 
ATOM     41  C   UNL A   1      42.357  26.990  27.258  1.00  0.00    -0.014 A 
BRANCH  41  42
ATOM     42  C   UNL A   1      41.995  28.194  28.018  1.00  0.00     0.031 A 
ATOM     43  C   UNL A   1      42.900  29.384  27.910  1.00  0.00     0.074 A 
ATOM     44  C   UNL A   1      40.789  28.384  28.595  1.00  0.00     0.049 A 
ATOM     45  N   UNL A   1      43.463  30.050  28.867  1.00  0.00    -0.248 NA
ATOM     46  C   UNL A   1      43.209  29.900  26.567  1.00  0.00     0.031 C 
ATOM     47  C   UNL A   1      39.611  27.513  28.541  1.00  0.00     0.029 A 
ATOM     48  N   UNL A   1      40.322  29.494  29.241  1.00  0.00    -0.354 N 
ATOM     49  C   UNL A   1      44.089  31.149  28.274  1.00  0.00     0.074 A 
ATOM     50  C   UNL A   1      43.964  30.964  26.849  1.00  0.00     0.031 C 
ATOM     51  C   UNL A   1      38.517  28.225  28.887  1.00  0.00     0.029 A 
ATOM     52  C   UNL A   1      38.942  29.531  29.354  1.00  0.00     0.049 A 
ATOM     53  H   UNL A   1      40.911  30.200  29.592  1.00  0.00     0.167 HD
ATOM     54  C   UNL A   1      44.536  32.220  28.990  1.00  0.00     0.031 A 
ATOM     55  C   UNL A   1      38.182  30.569  29.771  1.00  0.00     0.031 A 
ATOM     56  C   UNL A   1      44.601  31.953  30.400  1.00  0.00     0.049 A 
ATOM     57  C   UNL A   1      39.039  31.488  30.546  1.00  0.00     0.074 A 
ATOM     58  C   UNL A   1      45.271  31.057  31.206  1.00  0.00     0.029 A 
ATOM     59  N   UNL A   1      43.635  32.515  31.198  1.00  0.00    -0.354 N 
ATOM     60  N   UNL A   1      39.549  31.193  31.707  1.00  0.00    -0.248 NA
ATOM     61  C   UNL A   1      39.624  32.641  29.884  1.00  0.00     0.031 C 
ATOM     62  C   UNL A   1      44.368  30.773  32.272  1.00  0.00     0.029 A 
ATOM     63  C   UNL A   1      43.217  31.532  32.054  1.00  0.00     0.049 A 
ATOM     64  H   UNL A   1      43.307  33.442  31.160  1.00  0.00     0.167 HD
ATOM     65  C   UNL A   1      40.776  31.836  31.727  1.00  0.00     0.074 A 
ATOM     66  C   UNL A   1      40.698  32.825  30.658  1.00  0.00     0.031 C 
ATOM     67  C   UNL A   1      41.834  31.311  32.415  1.00  0.00     0.031 A 
BRANCH  54  68
ATOM     68  C   UNL A   1      44.622  33.633  28.466  1.00  0.00    -0.014 A 
ATOM     69  C   UNL A   1      43.431  34.341  28.207  1.00  0.00     0.009 A 
ATOM     70  C   UNL A   1      45.810  34.188  27.957  1.00  0.00     0.009 A 
ATOM     71  C   UNL A   1      43.425  35.508  27.432  1.00  0.00     0.001 A 
ATOM     72  C   UNL A   1      45.812  35.378  27.219  1.00  0.00     0.001 A 
ATOM     73  C   UNL A   1      44.617  36.024  26.934  1.00  0.00     0.000 A 
ENDBRANCH  54  68
BRANCH  55  74
ATOM     74  C   UNL A   1      36.789  30.885  29.407  1.00  0.00    -0.014 A 
ATOM     75  C   UNL A   1      36.000  31.707  30.220  1.00  0.00     0.009 A 
ATOM     76  C   UNL A   1      36.303  30.555  28.128  1.00  0.00     0.009 A 
ATOM     77  C   UNL A   1      34.774  32.203  29.760  1.00  0.00     0.001 A 
ATOM     78  C   UNL A   1      35.076  31.045  27.670  1.00  0.00     0.001 A 
ATOM     79  C   UNL A   1      34.318  31.880  28.483  1.00  0.00     0.000 A 
ENDBRANCH  55  74
BRANCH  67  80
ATOM     80  C   UNL A   1      41.563  30.181  33.377  1.00  0.00    -0.014 A 
ATOM     81  C   UNL A   1      41.501  28.837  32.969  1.00  0.00     0.009 A 
ATOM     82  C   UNL A   1      41.523  30.459  34.751  1.00  0.00     0.009 A 
ATOM     83  C   UNL A   1      41.359  27.807  33.902  1.00  0.00     0.001 A 
ATOM     84  C   UNL A   1      41.404  29.427  35.687  1.00  0.00     0.001 A 
ATOM     85  C   UNL A   1      41.315  28.103  35.262  1.00  0.00     0.000 A 
ENDBRANCH  67  80
ENDBRANCH  41  42
ENDBRANCH  33  36
ENDBRANCH  31  32
ENDBRANCH  30  31
ENDBRANCH  29  30
ENDBRANCH   1  29
TORSDOF 15
ENDMDL
