MODEL 1
REMARK VINA RESULT:     -11.7      0.000      0.000
REMARK SMILES CCC(=O)Nc1cc(NC(=O)/C=C/C(=O)NCCCCNC(=O)c2ccc(-c3c4nc(c(-c5ccccc5)c5ccc([nH]5)c(-c5ccccc5)c5nc(c(-c6ccccc6)c6ccc3[nH]6)C=C5)C=C4)cc2)ccc1C
REMARK SMILES IDX 17 1 16 2 14 3 15 4 13 6 12 7 10 8 9 9 11 11 8 12 6 13 7 14
REMARK SMILES IDX 74 15 73 16 75 17 72 18 5 19 3 20 4 21 2 23 1 24 18 25 19 26
REMARK SMILES IDX 20 27 21 28 22 29 23 31 24 32 25 33 71 34 26 35 70 36 27 37
REMARK SMILES IDX 28 38 29 39 64 40 30 41 69 42 63 43 65 44 31 45 68 46 62 47
REMARK SMILES IDX 61 48 32 50 54 51 39 52 53 53 40 54 43 55 52 56 66 57 41 58
REMARK SMILES IDX 42 59 51 61 67 62 44 63 33 64 34 65 38 66 35 67 37 68 36 69
REMARK SMILES IDX 55 70 56 71 60 72 57 73 59 74 58 75 45 76 46 77 50 78 47 79
REMARK SMILES IDX 49 80 48 81
REMARK H PARENT 16 5 9 10 5 22 21 30 65 49 43 60
REMARK Flexibility Score: inf
ROOT
ATOM      1  C   UNL A   1      37.232  23.617  25.881  1.00  0.00     0.116 C 
ENDROOT
BRANCH   1   2
ATOM      2  N   UNL A   1      37.331  23.511  24.437  1.00  0.00    -0.353 N 
ATOM      3  C   UNL A   1      36.344  23.229  23.547  1.00  0.00     0.244 C 
ATOM      4  O   UNL A   1      36.604  22.918  22.388  1.00  0.00    -0.270 OA
ATOM      5  H   UNL A   1      38.225  23.664  24.054  1.00  0.00     0.163 HD
BRANCH   3   6
ATOM      6  C   UNL A   1      34.939  23.329  23.975  1.00  0.00     0.077 C 
ATOM      7  C   UNL A   1      34.033  23.635  23.033  1.00  0.00     0.077 C 
BRANCH   7   8
ATOM      8  C   UNL A   1      32.597  23.412  23.258  1.00  0.00     0.248 C 
ATOM      9  N   UNL A   1      31.791  24.439  23.674  1.00  0.00    -0.322 N 
ATOM     10  H   UNL A   1      30.852  24.180  23.807  1.00  0.00     0.170 HD
ATOM     11  O   UNL A   1      32.135  22.290  23.070  1.00  0.00    -0.270 OA
BRANCH   9  12
ATOM     12  C   UNL A   1      32.058  25.798  23.946  1.00  0.00     0.043 A 
ATOM     13  C   UNL A   1      31.841  28.173  23.450  1.00  0.00     0.046 A 
ATOM     14  C   UNL A   1      31.861  26.837  23.038  1.00  0.00     0.052 A 
ATOM     15  C   UNL A   1      32.075  28.486  24.794  1.00  0.00    -0.027 A 
ATOM     16  C   UNL A   1      32.467  27.454  25.662  1.00  0.00     0.008 A 
ATOM     17  C   UNL A   1      31.771  29.827  25.402  1.00  0.00     0.046 C 
ATOM     18  C   UNL A   1      32.460  26.120  25.241  1.00  0.00     0.026 A 
BRANCH  13  19
ATOM     19  N   UNL A   1      31.320  29.097  22.536  1.00  0.00    -0.326 N 
ATOM     20  C   UNL A   1      30.026  29.307  22.155  1.00  0.00     0.224 C 
ATOM     21  O   UNL A   1      29.789  30.052  21.200  1.00  0.00    -0.275 OA
ATOM     22  H   UNL A   1      31.985  29.680  22.102  1.00  0.00     0.169 HD
BRANCH  20  23
ATOM     23  C   UNL A   1      28.889  28.754  22.995  1.00  0.00     0.097 C 
ATOM     24  C   UNL A   1      27.607  29.554  22.978  1.00  0.00     0.014 C 
ENDBRANCH  20  23
ENDBRANCH  13  19
ENDBRANCH   9  12
ENDBRANCH   7   8
ENDBRANCH   3   6
ENDBRANCH   1   2
BRANCH   1  25
ATOM     25  C   UNL A   1      38.546  23.234  26.572  1.00  0.00     0.023 C 
BRANCH  25  26
ATOM     26  C   UNL A   1      39.379  22.186  25.825  1.00  0.00     0.023 C 
BRANCH  26  27
ATOM     27  C   UNL A   1      40.073  21.185  26.737  1.00  0.00     0.116 C 
BRANCH  27  28
ATOM     28  N   UNL A   1      41.147  20.445  26.097  1.00  0.00    -0.352 N 
ATOM     29  C   UNL A   1      42.502  20.722  26.015  1.00  0.00     0.251 C 
ATOM     30  H   UNL A   1      40.868  19.612  25.652  1.00  0.00     0.163 HD
ATOM     31  O   UNL A   1      43.219  20.011  25.331  1.00  0.00    -0.269 OA
BRANCH  29  32
ATOM     32  C   UNL A   1      43.108  21.780  26.870  1.00  0.00     0.039 A 
ATOM     33  C   UNL A   1      42.808  21.743  28.238  1.00  0.00     0.014 A 
ATOM     34  C   UNL A   1      43.758  22.888  26.335  1.00  0.00     0.014 A 
ATOM     35  C   UNL A   1      42.900  22.908  28.993  1.00  0.00     0.010 A 
ATOM     36  C   UNL A   1      43.761  24.070  27.049  1.00  0.00     0.010 A 
ATOM     37  C   UNL A   1      43.253  24.091  28.349  1.00  0.00    -0.014 A 
BRANCH  37  38
ATOM     38  C   UNL A   1      42.998  25.408  28.913  1.00  0.00     0.031 A 
ATOM     39  C   UNL A   1      41.832  26.191  28.478  1.00  0.00     0.074 A 
ATOM     40  C   UNL A   1      43.825  25.883  29.869  1.00  0.00     0.049 A 
ATOM     41  N   UNL A   1      41.740  27.472  28.587  1.00  0.00    -0.248 NA
ATOM     42  C   UNL A   1      40.694  25.584  27.797  1.00  0.00     0.031 C 
ATOM     43  C   UNL A   1      43.630  27.038  30.738  1.00  0.00     0.029 A 
ATOM     44  N   UNL A   1      45.150  25.515  30.079  1.00  0.00    -0.354 N 
ATOM     45  C   UNL A   1      40.445  27.818  28.281  1.00  0.00     0.074 A 
ATOM     46  C   UNL A   1      39.880  26.636  27.675  1.00  0.00     0.031 C 
ATOM     47  C   UNL A   1      44.826  27.438  31.202  1.00  0.00     0.029 A 
ATOM     48  C   UNL A   1      45.842  26.651  30.522  1.00  0.00     0.049 A 
ATOM     49  H   UNL A   1      45.533  24.618  29.942  1.00  0.00     0.167 HD
ATOM     50  C   UNL A   1      39.963  29.016  28.716  1.00  0.00     0.031 A 
ATOM     51  C   UNL A   1      46.855  27.176  29.771  1.00  0.00     0.031 A 
ATOM     52  C   UNL A   1      41.036  29.860  29.251  1.00  0.00     0.049 A 
ATOM     53  C   UNL A   1      46.574  28.576  29.262  1.00  0.00     0.074 A 
ATOM     54  C   UNL A   1      41.432  30.194  30.535  1.00  0.00     0.029 A 
ATOM     55  N   UNL A   1      42.070  30.252  28.406  1.00  0.00    -0.354 N 
ATOM     56  N   UNL A   1      45.392  29.130  29.244  1.00  0.00    -0.248 NA
ATOM     57  C   UNL A   1      47.602  29.443  28.690  1.00  0.00     0.031 C 
ATOM     58  C   UNL A   1      42.760  30.701  30.464  1.00  0.00     0.029 A 
ATOM     59  C   UNL A   1      43.149  30.714  29.135  1.00  0.00     0.049 A 
ATOM     60  H   UNL A   1      42.037  30.206  27.423  1.00  0.00     0.167 HD
ATOM     61  C   UNL A   1      45.470  30.366  28.658  1.00  0.00     0.074 A 
ATOM     62  C   UNL A   1      46.882  30.527  28.352  1.00  0.00     0.031 C 
ATOM     63  C   UNL A   1      44.365  31.140  28.450  1.00  0.00     0.031 A 
BRANCH  50  64
ATOM     64  C   UNL A   1      38.490  29.320  28.900  1.00  0.00    -0.014 A 
ATOM     65  C   UNL A   1      37.730  29.761  27.800  1.00  0.00     0.009 A 
ATOM     66  C   UNL A   1      37.807  29.293  30.130  1.00  0.00     0.009 A 
ATOM     67  C   UNL A   1      36.405  30.204  27.934  1.00  0.00     0.001 A 
ATOM     68  C   UNL A   1      36.486  29.739  30.277  1.00  0.00     0.001 A 
ATOM     69  C   UNL A   1      35.787  30.206  29.178  1.00  0.00     0.000 A 
ENDBRANCH  50  64
BRANCH  51  70
ATOM     70  C   UNL A   1      47.638  26.147  29.027  1.00  0.00    -0.014 A 
ATOM     71  C   UNL A   1      47.310  25.906  27.677  1.00  0.00     0.009 A 
ATOM     72  C   UNL A   1      48.878  25.699  29.502  1.00  0.00     0.009 A 
ATOM     73  C   UNL A   1      48.243  25.344  26.800  1.00  0.00     0.001 A 
ATOM     74  C   UNL A   1      49.805  25.123  28.623  1.00  0.00     0.001 A 
ATOM     75  C   UNL A   1      49.503  24.981  27.268  1.00  0.00     0.000 A 
ENDBRANCH  51  70
BRANCH  63  76
ATOM     76  C   UNL A   1      44.311  32.402  27.619  1.00  0.00    -0.014 A 
ATOM     77  C   UNL A   1      44.302  32.433  26.218  1.00  0.00     0.009 A 
ATOM     78  C   UNL A   1      44.123  33.641  28.275  1.00  0.00     0.009 A 
ATOM     79  C   UNL A   1      44.165  33.638  25.512  1.00  0.00     0.001 A 
ATOM     80  C   UNL A   1      43.935  34.836  27.577  1.00  0.00     0.001 A 
ATOM     81  C   UNL A   1      43.970  34.836  26.191  1.00  0.00     0.000 A 
ENDBRANCH  63  76
ENDBRANCH  37  38
ENDBRANCH  29  32
ENDBRANCH  27  28
ENDBRANCH  26  27
ENDBRANCH  25  26
ENDBRANCH   1  25
TORSDOF 15
ENDMDL
MODEL 2
REMARK VINA RESULT:     -11.6      4.096      9.440
REMARK SMILES CCC(=O)Nc1cc(NC(=O)/C=C/C(=O)NCCCCNC(=O)c2ccc(-c3c4nc(c(-c5ccccc5)c5ccc([nH]5)c(-c5ccccc5)c5nc(c(-c6ccccc6)c6ccc3[nH]6)C=C5)C=C4)cc2)ccc1C
REMARK SMILES IDX 17 1 16 2 14 3 15 4 13 6 12 7 10 8 9 9 11 11 8 12 6 13 7 14
REMARK SMILES IDX 74 15 73 16 75 17 72 18 5 19 3 20 4 21 2 23 1 24 18 25 19 26
REMARK SMILES IDX 20 27 21 28 22 29 23 31 24 32 25 33 71 34 26 35 70 36 27 37
REMARK SMILES IDX 28 38 29 39 64 40 30 41 69 42 63 43 65 44 31 45 68 46 62 47
REMARK SMILES IDX 61 48 32 50 54 51 39 52 53 53 40 54 43 55 52 56 66 57 41 58
REMARK SMILES IDX 42 59 51 61 67 62 44 63 33 64 34 65 38 66 35 67 37 68 36 69
REMARK SMILES IDX 55 70 56 71 60 72 57 73 59 74 58 75 45 76 46 77 50 78 47 79
REMARK SMILES IDX 49 80 48 81
REMARK H PARENT 16 5 9 10 5 22 21 30 65 49 43 60
REMARK Flexibility Score: inf
ROOT
ATOM      1  C   UNL A   1      34.260  28.687  26.571  1.00  0.00     0.116 C 
ENDROOT
BRANCH   1   2
ATOM      2  N   UNL A   1      33.188  28.346  27.489  1.00  0.00    -0.353 N 
ATOM      3  C   UNL A   1      31.951  27.869  27.194  1.00  0.00     0.244 C 
ATOM      4  O   UNL A   1      31.055  27.864  28.034  1.00  0.00    -0.270 OA
ATOM      5  H   UNL A   1      33.382  28.476  28.446  1.00  0.00     0.163 HD
BRANCH   3   6
ATOM      6  C   UNL A   1      31.692  27.322  25.851  1.00  0.00     0.077 C 
ATOM      7  C   UNL A   1      31.850  25.998  25.690  1.00  0.00     0.077 C 
BRANCH   7   8
ATOM      8  C   UNL A   1      31.286  25.302  24.524  1.00  0.00     0.248 C 
ATOM      9  N   UNL A   1      31.799  24.099  24.118  1.00  0.00    -0.322 N 
ATOM     10  H   UNL A   1      31.360  23.726  23.321  1.00  0.00     0.170 HD
ATOM     11  O   UNL A   1      30.351  25.821  23.920  1.00  0.00    -0.270 OA
BRANCH   9  12
ATOM     12  C   UNL A   1      32.840  23.295  24.630  1.00  0.00     0.043 A 
ATOM     13  C   UNL A   1      33.682  21.218  25.585  1.00  0.00     0.046 A 
ATOM     14  C   UNL A   1      32.645  22.132  25.373  1.00  0.00     0.052 A 
ATOM     15  C   UNL A   1      34.960  21.495  25.088  1.00  0.00    -0.027 A 
ATOM     16  C   UNL A   1      35.196  22.756  24.514  1.00  0.00     0.008 A 
ATOM     17  C   UNL A   1      36.052  20.467  24.978  1.00  0.00     0.046 C 
ATOM     18  C   UNL A   1      34.144  23.649  24.288  1.00  0.00     0.026 A 
BRANCH  13  19
ATOM     19  N   UNL A   1      33.308  19.952  26.052  1.00  0.00    -0.326 N 
ATOM     20  C   UNL A   1      32.751  18.905  25.375  1.00  0.00     0.224 C 
ATOM     21  O   UNL A   1      32.330  17.932  26.006  1.00  0.00    -0.275 OA
ATOM     22  H   UNL A   1      33.468  19.794  27.011  1.00  0.00     0.169 HD
BRANCH  20  23
ATOM     23  C   UNL A   1      32.795  18.874  23.858  1.00  0.00     0.097 C 
ATOM     24  C   UNL A   1      33.332  17.605  23.240  1.00  0.00     0.014 C 
ENDBRANCH  20  23
ENDBRANCH  13  19
ENDBRANCH   9  12
ENDBRANCH   7   8
ENDBRANCH   3   6
ENDBRANCH   1   2
BRANCH   1  25
ATOM     25  C   UNL A   1      35.312  29.584  27.233  1.00  0.00     0.023 C 
BRANCH  25  26
ATOM     26  C   UNL A   1      34.743  30.647  28.180  1.00  0.00     0.023 C 
BRANCH  26  27
ATOM     27  C   UNL A   1      34.842  32.068  27.645  1.00  0.00     0.116 C 
BRANCH  27  28
ATOM     28  N   UNL A   1      34.045  33.035  28.379  1.00  0.00    -0.352 N 
ATOM     29  C   UNL A   1      34.276  33.645  29.602  1.00  0.00     0.251 C 
ATOM     30  H   UNL A   1      33.205  33.301  27.937  1.00  0.00     0.163 HD
ATOM     31  O   UNL A   1      33.414  34.357  30.089  1.00  0.00    -0.269 OA
BRANCH  29  32
ATOM     32  C   UNL A   1      35.618  33.562  30.242  1.00  0.00     0.039 A 
ATOM     33  C   UNL A   1      36.679  34.197  29.584  1.00  0.00     0.014 A 
ATOM     34  C   UNL A   1      35.878  32.719  31.318  1.00  0.00     0.014 A 
ATOM     35  C   UNL A   1      37.983  33.772  29.816  1.00  0.00     0.010 A 
ATOM     36  C   UNL A   1      37.156  32.223  31.485  1.00  0.00     0.010 A 
ATOM     37  C   UNL A   1      38.189  32.695  30.673  1.00  0.00    -0.014 A 
BRANCH  37  38
ATOM     38  C   UNL A   1      39.417  31.914  30.686  1.00  0.00     0.031 A 
ATOM     39  C   UNL A   1      39.490  30.628  29.977  1.00  0.00     0.074 A 
ATOM     40  C   UNL A   1      40.500  32.407  31.327  1.00  0.00     0.049 A 
ATOM     41  N   UNL A   1      40.339  29.698  30.252  1.00  0.00    -0.248 NA
ATOM     42  C   UNL A   1      38.536  30.254  28.939  1.00  0.00     0.031 C 
ATOM     43  C   UNL A   1      41.877  31.933  31.262  1.00  0.00     0.029 A 
ATOM     44  N   UNL A   1      40.501  33.329  32.368  1.00  0.00    -0.354 N 
ATOM     45  C   UNL A   1      40.248  28.753  29.258  1.00  0.00     0.074 A 
ATOM     46  C   UNL A   1      39.035  29.078  28.548  1.00  0.00     0.031 C 
ATOM     47  C   UNL A   1      42.536  32.368  32.350  1.00  0.00     0.029 A 
ATOM     48  C   UNL A   1      41.562  33.002  33.224  1.00  0.00     0.049 A 
ATOM     49  H   UNL A   1      39.871  34.076  32.483  1.00  0.00     0.167 HD
ATOM     50  C   UNL A   1      41.293  27.900  29.063  1.00  0.00     0.031 A 
ATOM     51  C   UNL A   1      41.315  32.622  34.513  1.00  0.00     0.031 A 
ATOM     52  C   UNL A   1      42.268  27.993  30.153  1.00  0.00     0.049 A 
ATOM     53  C   UNL A   1      41.732  31.197  34.819  1.00  0.00     0.074 A 
ATOM     54  C   UNL A   1      43.512  28.591  30.268  1.00  0.00     0.029 A 
ATOM     55  N   UNL A   1      41.867  27.671  31.446  1.00  0.00    -0.354 N 
ATOM     56  N   UNL A   1      42.001  30.298  33.912  1.00  0.00    -0.248 NA
ATOM     57  C   UNL A   1      41.832  30.665  36.176  1.00  0.00     0.031 C 
ATOM     58  C   UNL A   1      43.811  28.715  31.654  1.00  0.00     0.029 A 
ATOM     59  C   UNL A   1      42.770  28.154  32.374  1.00  0.00     0.049 A 
ATOM     60  H   UNL A   1      41.051  27.168  31.669  1.00  0.00     0.167 HD
ATOM     61  C   UNL A   1      42.272  29.099  34.518  1.00  0.00     0.074 A 
ATOM     62  C   UNL A   1      42.180  29.388  35.939  1.00  0.00     0.031 C 
ATOM     63  C   UNL A   1      42.524  27.965  33.800  1.00  0.00     0.031 A 
BRANCH  50  64
ATOM     64  C   UNL A   1      41.563  27.176  27.759  1.00  0.00    -0.014 A 
ATOM     65  C   UNL A   1      41.300  25.796  27.666  1.00  0.00     0.009 A 
ATOM     66  C   UNL A   1      42.162  27.752  26.624  1.00  0.00     0.009 A 
ATOM     67  C   UNL A   1      41.669  25.037  26.544  1.00  0.00     0.001 A 
ATOM     68  C   UNL A   1      42.540  27.003  25.501  1.00  0.00     0.001 A 
ATOM     69  C   UNL A   1      42.303  25.641  25.465  1.00  0.00     0.000 A 
ENDBRANCH  50  64
BRANCH  51  70
ATOM     70  C   UNL A   1      40.135  33.306  35.118  1.00  0.00    -0.014 A 
ATOM     71  C   UNL A   1      38.865  32.713  34.960  1.00  0.00     0.009 A 
ATOM     72  C   UNL A   1      40.297  34.282  36.111  1.00  0.00     0.009 A 
ATOM     73  C   UNL A   1      37.824  32.998  35.849  1.00  0.00     0.001 A 
ATOM     74  C   UNL A   1      39.245  34.576  36.989  1.00  0.00     0.001 A 
ATOM     75  C   UNL A   1      38.025  33.908  36.883  1.00  0.00     0.000 A 
ENDBRANCH  51  70
BRANCH  63  76
ATOM     76  C   UNL A   1      42.610  26.562  34.359  1.00  0.00    -0.014 A 
ATOM     77  C   UNL A   1      41.616  25.954  35.137  1.00  0.00     0.009 A 
ATOM     78  C   UNL A   1      43.697  25.743  33.976  1.00  0.00     0.009 A 
ATOM     79  C   UNL A   1      41.726  24.618  35.551  1.00  0.00     0.001 A 
ATOM     80  C   UNL A   1      43.786  24.398  34.343  1.00  0.00     0.001 A 
ATOM     81  C   UNL A   1      42.804  23.838  35.145  1.00  0.00     0.000 A 
ENDBRANCH  63  76
ENDBRANCH  37  38
ENDBRANCH  29  32
ENDBRANCH  27  28
ENDBRANCH  26  27
ENDBRANCH  25  26
ENDBRANCH   1  25
TORSDOF 15
ENDMDL
MODEL 3
REMARK VINA RESULT:     -11.6      3.649      8.508
REMARK SMILES CCC(=O)Nc1cc(NC(=O)/C=C/C(=O)NCCCCNC(=O)c2ccc(-c3c4nc(c(-c5ccccc5)c5ccc([nH]5)c(-c5ccccc5)c5nc(c(-c6ccccc6)c6ccc3[nH]6)C=C5)C=C4)cc2)ccc1C
REMARK SMILES IDX 17 1 16 2 14 3 15 4 13 6 12 7 10 8 9 9 11 11 8 12 6 13 7 14
REMARK SMILES IDX 74 15 73 16 75 17 72 18 5 19 3 20 4 21 2 23 1 24 18 25 19 26
REMARK SMILES IDX 20 27 21 28 22 29 23 31 24 32 25 33 71 34 26 35 70 36 27 37
REMARK SMILES IDX 28 38 29 39 64 40 30 41 69 42 63 43 65 44 31 45 68 46 62 47
REMARK SMILES IDX 61 48 32 50 54 51 39 52 53 53 40 54 43 55 52 56 66 57 41 58
REMARK SMILES IDX 42 59 51 61 67 62 44 63 33 64 34 65 38 66 35 67 37 68 36 69
REMARK SMILES IDX 55 70 56 71 60 72 57 73 59 74 58 75 45 76 46 77 50 78 47 79
REMARK SMILES IDX 49 80 48 81
REMARK H PARENT 16 5 9 10 5 22 21 30 65 49 43 60
REMARK Flexibility Score: inf
ROOT
ATOM      1  C   UNL A   1      31.994  27.136  26.330  1.00  0.00     0.116 C 
ENDROOT
BRANCH   1   2
ATOM      2  N   UNL A   1      31.568  25.923  27.004  1.00  0.00    -0.353 N 
ATOM      3  C   UNL A   1      31.595  24.648  26.534  1.00  0.00     0.244 C 
ATOM      4  O   UNL A   1      30.975  23.750  27.097  1.00  0.00    -0.270 OA
ATOM      5  H   UNL A   1      31.216  26.037  27.917  1.00  0.00     0.163 HD
BRANCH   3   6
ATOM      6  C   UNL A   1      32.409  24.337  25.346  1.00  0.00     0.077 C 
ATOM      7  C   UNL A   1      31.753  24.137  24.192  1.00  0.00     0.077 C 
BRANCH   7   8
ATOM      8  C   UNL A   1      32.457  24.178  22.902  1.00  0.00     0.248 C 
ATOM      9  N   UNL A   1      32.503  25.335  22.171  1.00  0.00    -0.322 N 
ATOM     10  H   UNL A   1      32.987  25.251  21.319  1.00  0.00     0.170 HD
ATOM     11  O   UNL A   1      33.000  23.155  22.491  1.00  0.00    -0.270 OA
BRANCH   9  12
ATOM     12  C   UNL A   1      31.986  26.626  22.413  1.00  0.00     0.043 A 
ATOM     13  C   UNL A   1      30.165  28.141  22.980  1.00  0.00     0.046 A 
ATOM     14  C   UNL A   1      30.628  26.939  22.437  1.00  0.00     0.052 A 
ATOM     15  C   UNL A   1      31.083  29.080  23.465  1.00  0.00    -0.027 A 
ATOM     16  C   UNL A   1      32.452  28.844  23.258  1.00  0.00     0.008 A 
ATOM     17  C   UNL A   1      30.703  30.241  24.340  1.00  0.00     0.046 C 
ATOM     18  C   UNL A   1      32.900  27.628  22.735  1.00  0.00     0.026 A 
BRANCH  13  19
ATOM     19  N   UNL A   1      28.793  28.214  23.248  1.00  0.00    -0.326 N 
ATOM     20  C   UNL A   1      27.868  29.117  22.809  1.00  0.00     0.224 C 
ATOM     21  O   UNL A   1      26.737  29.114  23.303  1.00  0.00    -0.275 OA
ATOM     22  H   UNL A   1      28.443  27.510  23.842  1.00  0.00     0.169 HD
BRANCH  20  23
ATOM     23  C   UNL A   1      28.183  30.009  21.622  1.00  0.00     0.097 C 
ATOM     24  C   UNL A   1      28.067  31.495  21.864  1.00  0.00     0.014 C 
ENDBRANCH  20  23
ENDBRANCH  13  19
ENDBRANCH   9  12
ENDBRANCH   7   8
ENDBRANCH   3   6
ENDBRANCH   1   2
BRANCH   1  25
ATOM     25  C   UNL A   1      32.715  28.094  27.285  1.00  0.00     0.023 C 
BRANCH  25  26
ATOM     26  C   UNL A   1      33.711  29.042  26.608  1.00  0.00     0.023 C 
BRANCH  26  27
ATOM     27  C   UNL A   1      34.339  30.056  27.554  1.00  0.00     0.116 C 
BRANCH  27  28
ATOM     28  N   UNL A   1      33.717  31.368  27.516  1.00  0.00    -0.352 N 
ATOM     29  C   UNL A   1      34.012  32.521  28.226  1.00  0.00     0.251 C 
ATOM     30  H   UNL A   1      32.965  31.452  26.886  1.00  0.00     0.163 HD
ATOM     31  O   UNL A   1      33.287  33.495  28.116  1.00  0.00    -0.269 OA
BRANCH  29  32
ATOM     32  C   UNL A   1      35.284  32.628  28.993  1.00  0.00     0.039 A 
ATOM     33  C   UNL A   1      36.332  33.339  28.394  1.00  0.00     0.014 A 
ATOM     34  C   UNL A   1      35.523  31.884  30.144  1.00  0.00     0.014 A 
ATOM     35  C   UNL A   1      37.644  33.078  28.776  1.00  0.00     0.010 A 
ATOM     36  C   UNL A   1      36.824  31.546  30.463  1.00  0.00     0.010 A 
ATOM     37  C   UNL A   1      37.877  32.083  29.721  1.00  0.00    -0.014 A 
BRANCH  37  38
ATOM     38  C   UNL A   1      39.173  31.448  29.903  1.00  0.00     0.031 A 
ATOM     39  C   UNL A   1      39.451  30.135  29.303  1.00  0.00     0.074 A 
ATOM     40  C   UNL A   1      40.131  32.101  30.597  1.00  0.00     0.049 A 
ATOM     41  N   UNL A   1      40.363  29.326  29.722  1.00  0.00    -0.248 NA
ATOM     42  C   UNL A   1      38.647  29.588  28.215  1.00  0.00     0.031 C 
ATOM     43  C   UNL A   1      41.551  31.782  30.692  1.00  0.00     0.029 A 
ATOM     44  N   UNL A   1      39.934  33.084  31.561  1.00  0.00    -0.354 N 
ATOM     45  C   UNL A   1      40.469  28.314  28.799  1.00  0.00     0.074 A 
ATOM     46  C   UNL A   1      39.303  28.452  27.961  1.00  0.00     0.031 C 
ATOM     47  C   UNL A   1      42.051  32.360  31.798  1.00  0.00     0.029 A 
ATOM     48  C   UNL A   1      40.935  32.936  32.531  1.00  0.00     0.049 A 
ATOM     49  H   UNL A   1      39.219  33.762  31.563  1.00  0.00     0.167 HD
ATOM     50  C   UNL A   1      41.613  27.573  28.764  1.00  0.00     0.031 A 
ATOM     51  C   UNL A   1      40.606  32.616  33.818  1.00  0.00     0.031 A 
ATOM     52  C   UNL A   1      42.462  27.847  29.926  1.00  0.00     0.049 A 
ATOM     53  C   UNL A   1      41.140  31.271  34.268  1.00  0.00     0.074 A 
ATOM     54  C   UNL A   1      43.619  28.587  30.105  1.00  0.00     0.029 A 
ATOM     55  N   UNL A   1      41.974  27.568  31.199  1.00  0.00    -0.354 N 
ATOM     56  N   UNL A   1      41.590  30.350  33.459  1.00  0.00    -0.248 NA
ATOM     57  C   UNL A   1      41.164  30.844  35.665  1.00  0.00     0.031 C 
ATOM     58  C   UNL A   1      43.767  28.836  31.498  1.00  0.00     0.029 A 
ATOM     59  C   UNL A   1      42.727  28.210  32.163  1.00  0.00     0.049 A 
ATOM     60  H   UNL A   1      41.198  26.992  31.386  1.00  0.00     0.167 HD
ATOM     61  C   UNL A   1      41.927  29.232  34.177  1.00  0.00     0.074 A 
ATOM     62  C   UNL A   1      41.667  29.602  35.558  1.00  0.00     0.031 C 
ATOM     63  C   UNL A   1      42.366  28.088  33.572  1.00  0.00     0.031 A 
BRANCH  50  64
ATOM     64  C   UNL A   1      42.083  26.800  27.548  1.00  0.00    -0.014 A 
ATOM     65  C   UNL A   1      42.338  25.419  27.661  1.00  0.00     0.009 A 
ATOM     66  C   UNL A   1      42.391  27.367  26.299  1.00  0.00     0.009 A 
ATOM     67  C   UNL A   1      42.919  24.677  26.621  1.00  0.00     0.001 A 
ATOM     68  C   UNL A   1      42.978  26.637  25.255  1.00  0.00     0.001 A 
ATOM     69  C   UNL A   1      43.253  25.291  25.420  1.00  0.00     0.000 A 
ENDBRANCH  50  64
BRANCH  51  70
ATOM     70  C   UNL A   1      39.308  33.202  34.262  1.00  0.00    -0.014 A 
ATOM     71  C   UNL A   1      38.114  32.598  33.814  1.00  0.00     0.009 A 
ATOM     72  C   UNL A   1      39.244  34.069  35.361  1.00  0.00     0.009 A 
ATOM     73  C   UNL A   1      36.919  32.760  34.520  1.00  0.00     0.001 A 
ATOM     74  C   UNL A   1      38.040  34.241  36.056  1.00  0.00     0.001 A 
ATOM     75  C   UNL A   1      36.889  33.558  35.660  1.00  0.00     0.000 A 
ENDBRANCH  51  70
BRANCH  63  76
ATOM     76  C   UNL A   1      42.545  26.745  34.242  1.00  0.00    -0.014 A 
ATOM     77  C   UNL A   1      41.590  26.131  35.064  1.00  0.00     0.009 A 
ATOM     78  C   UNL A   1      43.690  25.976  33.929  1.00  0.00     0.009 A 
ATOM     79  C   UNL A   1      41.790  24.843  35.584  1.00  0.00     0.001 A 
ATOM     80  C   UNL A   1      43.870  24.674  34.402  1.00  0.00     0.001 A 
ATOM     81  C   UNL A   1      42.923  24.112  35.244  1.00  0.00     0.000 A 
ENDBRANCH  63  76
ENDBRANCH  37  38
ENDBRANCH  29  32
ENDBRANCH  27  28
ENDBRANCH  26  27
ENDBRANCH  25  26
ENDBRANCH   1  25
TORSDOF 15
ENDMDL
