MODEL 1
REMARK VINA RESULT:     -12.1      0.000      0.000
REMARK SMILES O=C(NCCCCNC(=O)[C@H]1O[C@@H](Oc2c(-c3cc(O)c(O)c(O)c3)oc3cc(O)cc(O)c3c2=O)[C@H](O)[C@@H](O)[C@@H]1O)c1ccc(-c2c3nc(c(-c4ccccc4)c4ccc([nH]4)c(-c4ccccc4)c4nc(c(-c5ccccc5)c5ccc2[nH]5)C=C4)C=C3)cc1
REMARK SMILES IDX 6 1 5 2 4 3 3 4 1 5 2 6 43 8 44 9 90 10 45 11 89 12 46 13
REMARK SMILES IDX 47 14 48 15 83 16 49 17 88 18 82 19 84 20 50 21 87 22 81 23
REMARK SMILES IDX 80 24 51 26 73 27 58 28 72 29 59 30 62 31 71 32 85 33 60 34
REMARK SMILES IDX 61 35 70 37 86 38 63 39 52 40 53 41 57 42 54 43 56 44 55 45
REMARK SMILES IDX 74 46 75 47 79 48 76 49 78 50 77 51 64 52 65 53 69 54 66 55
REMARK SMILES IDX 68 56 67 57 7 58 8 59 9 60 10 62 11 63 12 64 41 65 13 66
REMARK SMILES IDX 39 67 37 68 42 69 14 71 15 72 16 73 35 74 26 75 34 76 36 77
REMARK SMILES IDX 27 78 32 79 28 80 31 81 29 82 17 83 18 84 25 85 19 86 23 87
REMARK SMILES IDX 21 88 20 89 24 91 22 93 33 95 30 97 40 99 38 101
REMARK H PARENT 3 7 84 25 62 36 8 61 42 70 20 90 24 92 22 94 33 96 30 98
REMARK H PARENT 40 100 38 102
REMARK Flexibility Score: inf
ROOT
ATOM      1  C   UNL A   1      37.889  23.596  25.798  1.00  0.00     0.023 C 
ENDROOT
BRANCH   1   2
ATOM      2  C   UNL A   1      38.615  24.450  26.839  1.00  0.00     0.023 C 
BRANCH   2   3
ATOM      3  C   UNL A   1      40.101  24.682  26.596  1.00  0.00     0.116 C 
BRANCH   3   4
ATOM      4  N   UNL A   1      40.871  23.457  26.472  1.00  0.00    -0.352 N 
ATOM      5  O   UNL A   1      42.715  22.192  26.161  1.00  0.00    -0.269 OA
ATOM      6  C   UNL A   1      42.232  23.301  26.339  1.00  0.00     0.251 C 
ATOM      7  H   UNL A   1      40.347  22.624  26.486  1.00  0.00     0.163 HD
BRANCH   6   8
ATOM      8  C   UNL A   1      43.114  24.492  26.366  1.00  0.00     0.039 A 
ATOM      9  C   UNL A   1      43.431  25.183  25.194  1.00  0.00     0.014 A 
ATOM     10  C   UNL A   1      43.639  24.911  27.592  1.00  0.00     0.014 A 
ATOM     11  C   UNL A   1      44.385  26.196  25.227  1.00  0.00     0.010 A 
ATOM     12  C   UNL A   1      44.538  25.980  27.634  1.00  0.00     0.010 A 
ATOM     13  C   UNL A   1      44.949  26.605  26.447  1.00  0.00    -0.014 A 
BRANCH  13  14
ATOM     14  C   UNL A   1      45.940  27.711  26.463  1.00  0.00     0.031 A 
ATOM     15  C   UNL A   1      47.411  27.441  26.302  1.00  0.00     0.074 A 
ATOM     16  C   UNL A   1      45.501  28.977  26.598  1.00  0.00     0.049 A 
ATOM     17  N   UNL A   1      48.405  28.293  26.258  1.00  0.00    -0.248 NA
ATOM     18  C   UNL A   1      47.823  26.034  26.181  1.00  0.00     0.031 C 
ATOM     19  C   UNL A   1      44.100  29.370  26.762  1.00  0.00     0.029 A 
ATOM     20  N   UNL A   1      46.184  30.165  26.594  1.00  0.00    -0.354 N 
ATOM     21  C   UNL A   1      49.557  27.528  26.131  1.00  0.00     0.074 A 
ATOM     22  C   UNL A   1      49.142  26.141  26.125  1.00  0.00     0.031 C 
ATOM     23  C   UNL A   1      44.022  30.709  26.789  1.00  0.00     0.029 A 
ATOM     24  C   UNL A   1      45.368  31.264  26.702  1.00  0.00     0.049 A 
ATOM     25  H   UNL A   1      47.164  30.226  26.523  1.00  0.00     0.167 HD
ATOM     26  C   UNL A   1      50.844  27.942  26.026  1.00  0.00     0.031 A 
ATOM     27  C   UNL A   1      45.665  32.576  26.730  1.00  0.00     0.031 A 
ATOM     28  C   UNL A   1      51.257  29.322  26.025  1.00  0.00     0.049 A 
ATOM     29  C   UNL A   1      47.098  33.006  26.635  1.00  0.00     0.074 A 
ATOM     30  C   UNL A   1      52.534  29.839  25.884  1.00  0.00     0.029 A 
ATOM     31  N   UNL A   1      50.403  30.403  26.179  1.00  0.00    -0.354 N 
ATOM     32  N   UNL A   1      48.172  32.270  26.482  1.00  0.00    -0.248 NA
ATOM     33  C   UNL A   1      47.358  34.450  26.714  1.00  0.00     0.031 C 
ATOM     34  C   UNL A   1      52.457  31.233  25.998  1.00  0.00     0.029 A 
ATOM     35  C   UNL A   1      51.127  31.584  26.159  1.00  0.00     0.049 A 
ATOM     36  H   UNL A   1      49.427  30.340  26.284  1.00  0.00     0.167 HD
ATOM     37  C   UNL A   1      49.235  33.162  26.430  1.00  0.00     0.074 A 
ATOM     38  C   UNL A   1      48.673  34.493  26.551  1.00  0.00     0.031 C 
ATOM     39  C   UNL A   1      50.557  32.899  26.290  1.00  0.00     0.031 A 
BRANCH  26  40
ATOM     40  C   UNL A   1      51.905  26.882  25.935  1.00  0.00    -0.014 A 
ATOM     41  C   UNL A   1      52.213  26.256  24.716  1.00  0.00     0.009 A 
ATOM     42  C   UNL A   1      52.628  26.523  27.084  1.00  0.00     0.009 A 
ATOM     43  C   UNL A   1      53.197  25.266  24.660  1.00  0.00     0.001 A 
ATOM     44  C   UNL A   1      53.628  25.551  27.019  1.00  0.00     0.001 A 
ATOM     45  C   UNL A   1      53.906  24.917  25.809  1.00  0.00     0.000 A 
ENDBRANCH  26  40
BRANCH  27  46
ATOM     46  C   UNL A   1      44.572  33.572  26.843  1.00  0.00    -0.014 A 
ATOM     47  C   UNL A   1      44.111  33.980  28.103  1.00  0.00     0.009 A 
ATOM     48  C   UNL A   1      44.006  34.142  25.692  1.00  0.00     0.009 A 
ATOM     49  C   UNL A   1      43.097  34.933  28.209  1.00  0.00     0.001 A 
ATOM     50  C   UNL A   1      43.010  35.114  25.802  1.00  0.00     0.001 A 
ATOM     51  C   UNL A   1      42.552  35.504  27.059  1.00  0.00     0.000 A 
ENDBRANCH  27  46
BRANCH  39  52
ATOM     52  C   UNL A   1      51.481  34.082  26.235  1.00  0.00    -0.014 A 
ATOM     53  C   UNL A   1      51.661  34.809  25.048  1.00  0.00     0.009 A 
ATOM     54  C   UNL A   1      52.162  34.485  27.393  1.00  0.00     0.009 A 
ATOM     55  C   UNL A   1      52.535  35.897  25.015  1.00  0.00     0.001 A 
ATOM     56  C   UNL A   1      53.016  35.589  27.363  1.00  0.00     0.001 A 
ATOM     57  C   UNL A   1      53.209  36.288  26.172  1.00  0.00     0.000 A 
ENDBRANCH  39  52
ENDBRANCH  13  14
ENDBRANCH   6   8
ENDBRANCH   3   4
ENDBRANCH   2   3
ENDBRANCH   1   2
BRANCH   1  58
ATOM     58  C   UNL A   1      36.366  23.731  25.771  1.00  0.00     0.116 C 
BRANCH  58  59
ATOM     59  N   UNL A   1      35.697  22.579  25.190  1.00  0.00    -0.354 N 
ATOM     60  C   UNL A   1      34.360  22.404  24.933  1.00  0.00     0.252 C 
ATOM     61  H   UNL A   1      36.280  21.823  24.948  1.00  0.00     0.163 HD
ATOM     62  O   UNL A   1      34.020  21.434  24.259  1.00  0.00    -0.272 OA
BRANCH  60  63
ATOM     63  C   UNL A   1      33.380  23.410  25.540  1.00  0.00     0.242 C 
ATOM     64  O   UNL A   1      33.121  24.455  24.591  1.00  0.00    -0.324 OA
ATOM     65  C   UNL A   1      32.034  22.799  25.942  1.00  0.00     0.184 C 
ATOM     66  C   UNL A   1      32.531  25.595  25.216  1.00  0.00     0.340 C 
ATOM     67  C   UNL A   1      31.257  23.880  26.708  1.00  0.00     0.181 C 
ATOM     68  C   UNL A   1      31.251  25.231  25.998  1.00  0.00     0.214 C 
BRANCH  65  69
ATOM     69  O   UNL A   1      32.127  21.648  26.785  1.00  0.00    -0.387 OA
ATOM     70  H   UNL A   1      32.256  20.857  26.239  1.00  0.00     0.211 HD
ENDBRANCH  65  69
BRANCH  66  71
ATOM     71  O   UNL A   1      32.223  26.696  24.325  1.00  0.00    -0.454 OA
BRANCH  71  72
ATOM     72  C   UNL A   1      32.410  27.989  24.782  1.00  0.00     0.214 A 
ATOM     73  C   UNL A   1      31.470  28.957  24.717  1.00  0.00     0.181 A 
ATOM     74  C   UNL A   1      33.638  28.271  25.592  1.00  0.00     0.239 A 
ATOM     75  O   UNL A   1      31.606  30.226  25.236  1.00  0.00    -0.452 OA
ATOM     76  C   UNL A   1      33.645  29.542  26.368  1.00  0.00     0.111 A 
ATOM     77  O   UNL A   1      34.567  27.468  25.610  1.00  0.00    -0.285 OA
ATOM     78  C   UNL A   1      32.622  30.459  26.122  1.00  0.00     0.146 A 
ATOM     79  C   UNL A   1      34.607  29.862  27.338  1.00  0.00     0.134 A 
ATOM     80  C   UNL A   1      32.572  31.684  26.791  1.00  0.00     0.094 A 
ATOM     81  C   UNL A   1      34.559  31.087  28.021  1.00  0.00     0.093 A 
ATOM     82  C   UNL A   1      33.542  31.991  27.732  1.00  0.00     0.123 A 
BRANCH  73  83
ATOM     83  C   UNL A   1      30.199  28.789  23.994  1.00  0.00     0.029 A 
ATOM     84  C   UNL A   1      29.525  27.557  24.096  1.00  0.00     0.062 A 
ATOM     85  C   UNL A   1      29.586  29.870  23.337  1.00  0.00     0.062 A 
ATOM     86  C   UNL A   1      28.210  27.457  23.658  1.00  0.00     0.162 A 
ATOM     87  C   UNL A   1      28.271  29.745  22.901  1.00  0.00     0.162 A 
ATOM     88  C   UNL A   1      27.572  28.560  23.103  1.00  0.00     0.200 A 
BRANCH  86  89
ATOM     89  O   UNL A   1      27.537  26.285  23.851  1.00  0.00    -0.504 OA
ATOM     90  H   UNL A   1      26.929  26.207  24.560  1.00  0.00     0.293 HD
ENDBRANCH  86  89
BRANCH  87  91
ATOM     91  O   UNL A   1      27.637  30.832  22.374  1.00  0.00    -0.504 OA
ATOM     92  H   UNL A   1      28.069  31.362  21.734  1.00  0.00     0.293 HD
ENDBRANCH  87  91
BRANCH  88  93
ATOM     93  O   UNL A   1      26.224  28.539  22.867  1.00  0.00    -0.502 OA
ATOM     94  H   UNL A   1      25.851  29.120  22.234  1.00  0.00     0.293 HD
ENDBRANCH  88  93
ENDBRANCH  73  83
BRANCH  79  95
ATOM     95  O   UNL A   1      35.599  28.979  27.657  1.00  0.00    -0.507 OA
ATOM     96  H   UNL A   1      35.666  28.164  27.199  1.00  0.00     0.293 HD
ENDBRANCH  79  95
BRANCH  82  97
ATOM     97  O   UNL A   1      33.450  33.196  28.361  1.00  0.00    -0.508 OA
ATOM     98  H   UNL A   1      33.184  33.955  27.882  1.00  0.00     0.293 HD
ENDBRANCH  82  97
ENDBRANCH  71  72
ENDBRANCH  66  71
BRANCH  67  99
ATOM     99  O   UNL A   1      29.885  23.480  26.934  1.00  0.00    -0.387 OA
ATOM    100  H   UNL A   1      29.313  24.263  26.924  1.00  0.00     0.211 HD
ENDBRANCH  67  99
BRANCH  68 101
ATOM    101  O   UNL A   1      30.927  26.254  26.951  1.00  0.00    -0.384 OA
ATOM    102  H   UNL A   1      30.367  26.923  26.529  1.00  0.00     0.211 HD
ENDBRANCH  68 101
ENDBRANCH  60  63
ENDBRANCH  58  59
ENDBRANCH   1  58
TORSDOF 22
ENDMDL
MODEL 2
REMARK VINA RESULT:     -11.7     11.560     17.589
REMARK SMILES O=C(NCCCCNC(=O)[C@H]1O[C@@H](Oc2c(-c3cc(O)c(O)c(O)c3)oc3cc(O)cc(O)c3c2=O)[C@H](O)[C@@H](O)[C@@H]1O)c1ccc(-c2c3nc(c(-c4ccccc4)c4ccc([nH]4)c(-c4ccccc4)c4nc(c(-c5ccccc5)c5ccc2[nH]5)C=C4)C=C3)cc1
REMARK SMILES IDX 6 1 5 2 4 3 3 4 1 5 2 6 43 8 44 9 90 10 45 11 89 12 46 13
REMARK SMILES IDX 47 14 48 15 83 16 49 17 88 18 82 19 84 20 50 21 87 22 81 23
REMARK SMILES IDX 80 24 51 26 73 27 58 28 72 29 59 30 62 31 71 32 85 33 60 34
REMARK SMILES IDX 61 35 70 37 86 38 63 39 52 40 53 41 57 42 54 43 56 44 55 45
REMARK SMILES IDX 74 46 75 47 79 48 76 49 78 50 77 51 64 52 65 53 69 54 66 55
REMARK SMILES IDX 68 56 67 57 7 58 8 59 9 60 10 62 11 63 12 64 41 65 13 66
REMARK SMILES IDX 39 67 37 68 42 69 14 71 15 72 16 73 35 74 26 75 34 76 36 77
REMARK SMILES IDX 27 78 32 79 28 80 31 81 29 82 17 83 18 84 25 85 19 86 23 87
REMARK SMILES IDX 21 88 20 89 24 91 22 93 33 95 30 97 40 99 38 101
REMARK H PARENT 3 7 84 25 62 36 8 61 42 70 20 90 24 92 22 94 33 96 30 98
REMARK H PARENT 40 100 38 102
REMARK Flexibility Score: inf
ROOT
ATOM      1  C   UNL A   1      45.920  23.329  39.903  1.00  0.00     0.023 C 
ENDROOT
BRANCH   1   2
ATOM      2  C   UNL A   1      45.048  24.202  39.000  1.00  0.00     0.023 C 
BRANCH   2   3
ATOM      3  C   UNL A   1      45.746  25.378  38.328  1.00  0.00     0.116 C 
BRANCH   3   4
ATOM      4  N   UNL A   1      46.720  24.983  37.326  1.00  0.00    -0.352 N 
ATOM      5  O   UNL A   1      47.575  24.739  35.250  1.00  0.00    -0.269 OA
ATOM      6  C   UNL A   1      46.709  25.218  35.969  1.00  0.00     0.251 C 
ATOM      7  H   UNL A   1      47.496  24.480  37.664  1.00  0.00     0.163 HD
BRANCH   6   8
ATOM      8  C   UNL A   1      45.614  26.018  35.371  1.00  0.00     0.039 A 
ATOM      9  C   UNL A   1      44.323  25.499  35.249  1.00  0.00     0.014 A 
ATOM     10  C   UNL A   1      45.897  27.309  34.917  1.00  0.00     0.014 A 
ATOM     11  C   UNL A   1      43.358  26.209  34.541  1.00  0.00     0.010 A 
ATOM     12  C   UNL A   1      44.904  28.054  34.275  1.00  0.00     0.010 A 
ATOM     13  C   UNL A   1      43.638  27.493  34.046  1.00  0.00    -0.014 A 
BRANCH  13  14
ATOM     14  C   UNL A   1      42.582  28.247  33.324  1.00  0.00     0.031 A 
ATOM     15  C   UNL A   1      42.300  27.991  31.868  1.00  0.00     0.074 A 
ATOM     16  C   UNL A   1      41.851  29.154  34.000  1.00  0.00     0.049 A 
ATOM     17  N   UNL A   1      41.392  28.536  31.098  1.00  0.00    -0.248 NA
ATOM     18  C   UNL A   1      43.150  27.004  31.187  1.00  0.00     0.031 C 
ATOM     19  C   UNL A   1      42.026  29.494  35.413  1.00  0.00     0.029 A 
ATOM     20  N   UNL A   1      40.802  29.938  33.595  1.00  0.00    -0.354 N 
ATOM     21  C   UNL A   1      41.576  27.979  29.839  1.00  0.00     0.074 A 
ATOM     22  C   UNL A   1      42.696  27.067  29.943  1.00  0.00     0.031 C 
ATOM     23  C   UNL A   1      41.082  30.376  35.772  1.00  0.00     0.029 A 
ATOM     24  C   UNL A   1      40.274  30.706  34.603  1.00  0.00     0.049 A 
ATOM     25  H   UNL A   1      40.460  29.950  32.671  1.00  0.00     0.167 HD
ATOM     26  C   UNL A   1      40.876  28.202  28.700  1.00  0.00     0.031 A 
ATOM     27  C   UNL A   1      39.253  31.582  34.593  1.00  0.00     0.031 A 
ATOM     28  C   UNL A   1      39.757  29.103  28.596  1.00  0.00     0.049 A 
ATOM     29  C   UNL A   1      38.509  31.828  33.315  1.00  0.00     0.074 A 
ATOM     30  C   UNL A   1      38.961  29.366  27.495  1.00  0.00     0.029 A 
ATOM     31  N   UNL A   1      39.281  29.894  29.631  1.00  0.00    -0.354 N 
ATOM     32  N   UNL A   1      38.676  31.268  32.142  1.00  0.00    -0.248 NA
ATOM     33  C   UNL A   1      37.433  32.827  33.362  1.00  0.00     0.031 C 
ATOM     34  C   UNL A   1      38.030  30.350  27.851  1.00  0.00     0.029 A 
ATOM     35  C   UNL A   1      38.216  30.662  29.188  1.00  0.00     0.049 A 
ATOM     36  H   UNL A   1      39.644  29.906  30.545  1.00  0.00     0.167 HD
ATOM     37  C   UNL A   1      37.716  31.833  31.314  1.00  0.00     0.074 A 
ATOM     38  C   UNL A   1      36.961  32.768  32.124  1.00  0.00     0.031 C 
ATOM     39  C   UNL A   1      37.481  31.595  30.001  1.00  0.00     0.031 A 
BRANCH  26  40
ATOM     40  C   UNL A   1      41.323  27.479  27.461  1.00  0.00    -0.014 A 
ATOM     41  C   UNL A   1      40.816  26.213  27.129  1.00  0.00     0.009 A 
ATOM     42  C   UNL A   1      42.248  28.088  26.598  1.00  0.00     0.009 A 
ATOM     43  C   UNL A   1      41.256  25.556  25.976  1.00  0.00     0.001 A 
ATOM     44  C   UNL A   1      42.666  27.441  25.434  1.00  0.00     0.001 A 
ATOM     45  C   UNL A   1      42.177  26.171  25.128  1.00  0.00     0.000 A 
ENDBRANCH  26  40
BRANCH  27  46
ATOM     46  C   UNL A   1      38.875  32.280  35.846  1.00  0.00    -0.014 A 
ATOM     47  C   UNL A   1      39.340  33.578  36.104  1.00  0.00     0.009 A 
ATOM     48  C   UNL A   1      38.021  31.664  36.775  1.00  0.00     0.009 A 
ATOM     49  C   UNL A   1      38.967  34.241  37.274  1.00  0.00     0.001 A 
ATOM     50  C   UNL A   1      37.629  32.341  37.931  1.00  0.00     0.001 A 
ATOM     51  C   UNL A   1      38.106  33.626  38.183  1.00  0.00     0.000 A 
ENDBRANCH  27  46
BRANCH  39  52
ATOM     52  C   UNL A   1      36.341  32.341  29.370  1.00  0.00    -0.014 A 
ATOM     53  C   UNL A   1      36.482  33.678  28.965  1.00  0.00     0.009 A 
ATOM     54  C   UNL A   1      35.116  31.690  29.160  1.00  0.00     0.009 A 
ATOM     55  C   UNL A   1      35.406  34.357  28.392  1.00  0.00     0.001 A 
ATOM     56  C   UNL A   1      34.050  32.364  28.564  1.00  0.00     0.001 A 
ATOM     57  C   UNL A   1      34.192  33.700  28.190  1.00  0.00     0.000 A 
ENDBRANCH  39  52
ENDBRANCH  13  14
ENDBRANCH   6   8
ENDBRANCH   3   4
ENDBRANCH   2   3
ENDBRANCH   1   2
BRANCH   1  58
ATOM     58  C   UNL A   1      46.035  21.859  39.500  1.00  0.00     0.116 C 
BRANCH  58  59
ATOM     59  N   UNL A   1      47.309  21.260  39.864  1.00  0.00    -0.354 N 
ATOM     60  C   UNL A   1      47.832  20.054  39.471  1.00  0.00     0.252 C 
ATOM     61  H   UNL A   1      47.872  21.791  40.473  1.00  0.00     0.163 HD
ATOM     62  O   UNL A   1      49.009  19.816  39.735  1.00  0.00    -0.272 OA
BRANCH  60  63
ATOM     63  C   UNL A   1      46.898  19.068  38.765  1.00  0.00     0.242 C 
ATOM     64  O   UNL A   1      45.707  18.897  39.548  1.00  0.00    -0.324 OA
ATOM     65  C   UNL A   1      46.476  19.510  37.361  1.00  0.00     0.184 C 
ATOM     66  C   UNL A   1      44.983  17.732  39.150  1.00  0.00     0.340 C 
ATOM     67  C   UNL A   1      45.720  18.335  36.724  1.00  0.00     0.181 C 
ATOM     68  C   UNL A   1      44.656  17.739  37.641  1.00  0.00     0.214 C 
BRANCH  65  69
ATOM     69  O   UNL A   1      47.557  19.856  36.492  1.00  0.00    -0.387 OA
ATOM     70  H   UNL A   1      47.985  19.047  36.170  1.00  0.00     0.211 HD
ENDBRANCH  65  69
BRANCH  66  71
ATOM     71  O   UNL A   1      43.755  17.491  39.881  1.00  0.00    -0.454 OA
BRANCH  71  72
ATOM     72  C   UNL A   1      43.682  16.379  40.702  1.00  0.00     0.214 A 
ATOM     73  C   UNL A   1      44.040  16.376  42.004  1.00  0.00     0.181 A 
ATOM     74  C   UNL A   1      42.959  15.175  40.181  1.00  0.00     0.239 A 
ATOM     75  O   UNL A   1      43.901  15.304  42.860  1.00  0.00    -0.452 OA
ATOM     76  C   UNL A   1      42.576  14.143  41.185  1.00  0.00     0.111 A 
ATOM     77  O   UNL A   1      42.692  15.080  38.987  1.00  0.00    -0.285 OA
ATOM     78  C   UNL A   1      43.096  14.268  42.474  1.00  0.00     0.146 A 
ATOM     79  C   UNL A   1      41.717  13.067  40.915  1.00  0.00     0.134 A 
ATOM     80  C   UNL A   1      42.804  13.328  43.466  1.00  0.00     0.094 A 
ATOM     81  C   UNL A   1      41.412  12.124  41.907  1.00  0.00     0.093 A 
ATOM     82  C   UNL A   1      41.968  12.262  43.175  1.00  0.00     0.123 A 
BRANCH  73  83
ATOM     83  C   UNL A   1      44.713  17.514  42.650  1.00  0.00     0.029 A 
ATOM     84  C   UNL A   1      44.031  18.744  42.725  1.00  0.00     0.062 A 
ATOM     85  C   UNL A   1      45.943  17.355  43.312  1.00  0.00     0.062 A 
ATOM     86  C   UNL A   1      44.517  19.747  43.556  1.00  0.00     0.162 A 
ATOM     87  C   UNL A   1      46.413  18.374  44.132  1.00  0.00     0.162 A 
ATOM     88  C   UNL A   1      45.680  19.545  44.290  1.00  0.00     0.200 A 
BRANCH  86  89
ATOM     89  O   UNL A   1      43.795  20.897  43.694  1.00  0.00    -0.504 OA
ATOM     90  H   UNL A   1      43.474  21.149  44.538  1.00  0.00     0.293 HD
ENDBRANCH  86  89
BRANCH  87  91
ATOM     91  O   UNL A   1      47.544  18.170  44.869  1.00  0.00    -0.504 OA
ATOM     92  H   UNL A   1      48.361  18.526  44.581  1.00  0.00     0.293 HD
ENDBRANCH  87  91
BRANCH  88  93
ATOM     93  O   UNL A   1      46.050  20.430  45.265  1.00  0.00    -0.502 OA
ATOM     94  H   UNL A   1      45.626  20.412  46.100  1.00  0.00     0.293 HD
ENDBRANCH  88  93
ENDBRANCH  73  83
BRANCH  79  95
ATOM     95  O   UNL A   1      41.137  12.927  39.686  1.00  0.00    -0.507 OA
ATOM     96  H   UNL A   1      40.836  12.086  39.403  1.00  0.00     0.293 HD
ENDBRANCH  79  95
BRANCH  82  97
ATOM     97  O   UNL A   1      41.711  11.372  44.175  1.00  0.00    -0.508 OA
ATOM     98  H   UNL A   1      42.287  10.647  44.316  1.00  0.00     0.293 HD
ENDBRANCH  82  97
ENDBRANCH  71  72
ENDBRANCH  66  71
BRANCH  67  99
ATOM     99  O   UNL A   1      45.083  18.728  35.486  1.00  0.00    -0.387 OA
ATOM    100  H   UNL A   1      44.717  19.621  35.579  1.00  0.00     0.211 HD
ENDBRANCH  67  99
BRANCH  68 101
ATOM    101  O   UNL A   1      44.336  16.417  37.183  1.00  0.00    -0.384 OA
ATOM    102  H   UNL A   1      43.419  16.207  37.418  1.00  0.00     0.211 HD
ENDBRANCH  68 101
ENDBRANCH  60  63
ENDBRANCH  58  59
ENDBRANCH   1  58
TORSDOF 22
ENDMDL
MODEL 3
REMARK VINA RESULT:     -11.6     11.673     18.162
REMARK SMILES O=C(NCCCCNC(=O)[C@H]1O[C@@H](Oc2c(-c3cc(O)c(O)c(O)c3)oc3cc(O)cc(O)c3c2=O)[C@H](O)[C@@H](O)[C@@H]1O)c1ccc(-c2c3nc(c(-c4ccccc4)c4ccc([nH]4)c(-c4ccccc4)c4nc(c(-c5ccccc5)c5ccc2[nH]5)C=C4)C=C3)cc1
REMARK SMILES IDX 6 1 5 2 4 3 3 4 1 5 2 6 43 8 44 9 90 10 45 11 89 12 46 13
REMARK SMILES IDX 47 14 48 15 83 16 49 17 88 18 82 19 84 20 50 21 87 22 81 23
REMARK SMILES IDX 80 24 51 26 73 27 58 28 72 29 59 30 62 31 71 32 85 33 60 34
REMARK SMILES IDX 61 35 70 37 86 38 63 39 52 40 53 41 57 42 54 43 56 44 55 45
REMARK SMILES IDX 74 46 75 47 79 48 76 49 78 50 77 51 64 52 65 53 69 54 66 55
REMARK SMILES IDX 68 56 67 57 7 58 8 59 9 60 10 62 11 63 12 64 41 65 13 66
REMARK SMILES IDX 39 67 37 68 42 69 14 71 15 72 16 73 35 74 26 75 34 76 36 77
REMARK SMILES IDX 27 78 32 79 28 80 31 81 29 82 17 83 18 84 25 85 19 86 23 87
REMARK SMILES IDX 21 88 20 89 24 91 22 93 33 95 30 97 40 99 38 101
REMARK H PARENT 3 7 84 25 62 36 8 61 42 70 20 90 24 92 22 94 33 96 30 98
REMARK H PARENT 40 100 38 102
REMARK Flexibility Score: inf
ROOT
ATOM      1  C   UNL A   1      45.728  23.377  39.803  1.00  0.00     0.023 C 
ENDROOT
BRANCH   1   2
ATOM      2  C   UNL A   1      45.079  24.370  38.838  1.00  0.00     0.023 C 
BRANCH   2   3
ATOM      3  C   UNL A   1      45.922  25.580  38.456  1.00  0.00     0.116 C 
BRANCH   3   4
ATOM      4  N   UNL A   1      46.910  25.301  37.429  1.00  0.00    -0.352 N 
ATOM      5  O   UNL A   1      47.750  25.194  35.335  1.00  0.00    -0.269 OA
ATOM      6  C   UNL A   1      46.858  25.574  36.080  1.00  0.00     0.251 C 
ATOM      7  H   UNL A   1      47.732  24.857  37.741  1.00  0.00     0.163 HD
BRANCH   6   8
ATOM      8  C   UNL A   1      45.688  26.294  35.522  1.00  0.00     0.039 A 
ATOM      9  C   UNL A   1      44.443  25.671  35.410  1.00  0.00     0.014 A 
ATOM     10  C   UNL A   1      45.854  27.614  35.094  1.00  0.00     0.014 A 
ATOM     11  C   UNL A   1      43.408  26.314  34.737  1.00  0.00     0.010 A 
ATOM     12  C   UNL A   1      44.790  28.288  34.489  1.00  0.00     0.010 A 
ATOM     13  C   UNL A   1      43.570  27.629  34.269  1.00  0.00    -0.014 A 
BRANCH  13  14
ATOM     14  C   UNL A   1      42.441  28.309  33.585  1.00  0.00     0.031 A 
ATOM     15  C   UNL A   1      41.563  29.288  34.316  1.00  0.00     0.074 A 
ATOM     16  C   UNL A   1      42.225  28.058  32.279  1.00  0.00     0.049 A 
ATOM     17  N   UNL A   1      40.559  29.993  33.858  1.00  0.00    -0.248 NA
ATOM     18  C   UNL A   1      41.842  29.498  35.744  1.00  0.00     0.031 C 
ATOM     19  C   UNL A   1      43.005  27.130  31.459  1.00  0.00     0.029 A 
ATOM     20  N   UNL A   1      41.301  28.578  31.410  1.00  0.00    -0.354 N 
ATOM     21  C   UNL A   1      40.071  30.709  34.944  1.00  0.00     0.074 A 
ATOM     22  C   UNL A   1      40.876  30.338  36.088  1.00  0.00     0.031 C 
ATOM     23  C   UNL A   1      42.564  27.186  30.194  1.00  0.00     0.029 A 
ATOM     24  C   UNL A   1      41.436  28.109  30.127  1.00  0.00     0.049 A 
ATOM     25  H   UNL A   1      40.609  29.224  31.679  1.00  0.00     0.167 HD
ATOM     26  C   UNL A   1      39.047  31.596  34.985  1.00  0.00     0.031 A 
ATOM     27  C   UNL A   1      40.730  28.385  29.016  1.00  0.00     0.031 A 
ATOM     28  C   UNL A   1      38.249  31.971  33.847  1.00  0.00     0.049 A 
ATOM     29  C   UNL A   1      39.588  29.354  29.093  1.00  0.00     0.074 A 
ATOM     30  C   UNL A   1      37.216  32.891  33.783  1.00  0.00     0.029 A 
ATOM     31  N   UNL A   1      38.390  31.441  32.574  1.00  0.00    -0.354 N 
ATOM     32  N   UNL A   1      39.161  30.046  30.121  1.00  0.00    -0.248 NA
ATOM     33  C   UNL A   1      38.832  29.579  27.854  1.00  0.00     0.031 C 
ATOM     34  C   UNL A   1      36.703  32.885  32.480  1.00  0.00     0.029 A 
ATOM     35  C   UNL A   1      37.449  31.998  31.722  1.00  0.00     0.049 A 
ATOM     36  H   UNL A   1      39.061  30.771  32.313  1.00  0.00     0.167 HD
ATOM     37  C   UNL A   1      38.098  30.803  29.650  1.00  0.00     0.074 A 
ATOM     38  C   UNL A   1      37.955  30.496  28.241  1.00  0.00     0.031 C 
ATOM     39  C   UNL A   1      37.312  31.676  30.326  1.00  0.00     0.031 A 
BRANCH  26  40
ATOM     40  C   UNL A   1      38.711  32.201  36.320  1.00  0.00    -0.014 A 
ATOM     41  C   UNL A   1      39.246  33.436  36.720  1.00  0.00     0.009 A 
ATOM     42  C   UNL A   1      37.822  31.536  37.179  1.00  0.00     0.009 A 
ATOM     43  C   UNL A   1      38.926  33.973  37.969  1.00  0.00     0.001 A 
ATOM     44  C   UNL A   1      37.484  32.088  38.416  1.00  0.00     0.001 A 
ATOM     45  C   UNL A   1      38.043  33.301  38.815  1.00  0.00     0.000 A 
ENDBRANCH  26  40
BRANCH  27  46
ATOM     46  C   UNL A   1      41.100  27.737  27.734  1.00  0.00    -0.014 A 
ATOM     47  C   UNL A   1      41.968  28.379  26.839  1.00  0.00     0.009 A 
ATOM     48  C   UNL A   1      40.612  26.460  27.413  1.00  0.00     0.009 A 
ATOM     49  C   UNL A   1      42.332  27.759  25.642  1.00  0.00     0.001 A 
ATOM     50  C   UNL A   1      40.999  25.833  26.228  1.00  0.00     0.001 A 
ATOM     51  C   UNL A   1      41.853  26.484  25.341  1.00  0.00     0.000 A 
ENDBRANCH  27  46
BRANCH  39  52
ATOM     52  C   UNL A   1      36.246  32.380  29.537  1.00  0.00    -0.014 A 
ATOM     53  C   UNL A   1      34.996  31.784  29.310  1.00  0.00     0.009 A 
ATOM     54  C   UNL A   1      36.491  33.666  29.034  1.00  0.00     0.009 A 
ATOM     55  C   UNL A   1      34.024  32.451  28.562  1.00  0.00     0.001 A 
ATOM     56  C   UNL A   1      35.508  34.341  28.308  1.00  0.00     0.001 A 
ATOM     57  C   UNL A   1      34.279  33.729  28.065  1.00  0.00     0.000 A 
ENDBRANCH  39  52
ENDBRANCH  13  14
ENDBRANCH   6   8
ENDBRANCH   3   4
ENDBRANCH   2   3
ENDBRANCH   1   2
BRANCH   1  58
ATOM     58  C   UNL A   1      46.008  21.984  39.238  1.00  0.00     0.116 C 
BRANCH  58  59
ATOM     59  N   UNL A   1      47.236  21.393  39.744  1.00  0.00    -0.354 N 
ATOM     60  C   UNL A   1      47.752  20.146  39.497  1.00  0.00     0.252 C 
ATOM     61  H   UNL A   1      47.768  21.964  40.344  1.00  0.00     0.163 HD
ATOM     62  O   UNL A   1      48.900  19.908  39.866  1.00  0.00    -0.272 OA
BRANCH  60  63
ATOM     63  C   UNL A   1      46.844  19.121  38.814  1.00  0.00     0.242 C 
ATOM     64  O   UNL A   1      45.659  18.934  39.603  1.00  0.00    -0.324 OA
ATOM     65  C   UNL A   1      46.406  19.523  37.402  1.00  0.00     0.184 C 
ATOM     66  C   UNL A   1      44.965  17.742  39.231  1.00  0.00     0.340 C 
ATOM     67  C   UNL A   1      45.681  18.315  36.791  1.00  0.00     0.181 C 
ATOM     68  C   UNL A   1      44.635  17.710  37.723  1.00  0.00     0.214 C 
BRANCH  65  69
ATOM     69  O   UNL A   1      47.476  19.880  36.523  1.00  0.00    -0.387 OA
ATOM     70  H   UNL A   1      47.145  20.484  35.840  1.00  0.00     0.211 HD
ENDBRANCH  65  69
BRANCH  66  71
ATOM     71  O   UNL A   1      43.747  17.482  39.970  1.00  0.00    -0.454 OA
BRANCH  71  72
ATOM     72  C   UNL A   1      43.692  16.365  40.785  1.00  0.00     0.214 A 
ATOM     73  C   UNL A   1      44.068  16.356  42.082  1.00  0.00     0.181 A 
ATOM     74  C   UNL A   1      42.970  15.159  40.266  1.00  0.00     0.239 A 
ATOM     75  O   UNL A   1      43.948  15.278  42.932  1.00  0.00    -0.452 OA
ATOM     76  C   UNL A   1      42.609  14.118  41.268  1.00  0.00     0.111 A 
ATOM     77  O   UNL A   1      42.689  15.070  39.075  1.00  0.00    -0.285 OA
ATOM     78  C   UNL A   1      43.145  14.238  42.551  1.00  0.00     0.146 A 
ATOM     79  C   UNL A   1      41.753  13.038  41.002  1.00  0.00     0.134 A 
ATOM     80  C   UNL A   1      42.874  13.290  43.540  1.00  0.00     0.094 A 
ATOM     81  C   UNL A   1      41.469  12.086  41.993  1.00  0.00     0.093 A 
ATOM     82  C   UNL A   1      42.041  12.220  43.253  1.00  0.00     0.123 A 
BRANCH  73  83
ATOM     83  C   UNL A   1      44.741  17.495  42.726  1.00  0.00     0.029 A 
ATOM     84  C   UNL A   1      44.058  18.724  42.805  1.00  0.00     0.062 A 
ATOM     85  C   UNL A   1      45.975  17.337  43.383  1.00  0.00     0.062 A 
ATOM     86  C   UNL A   1      44.545  19.726  43.634  1.00  0.00     0.162 A 
ATOM     87  C   UNL A   1      46.446  18.356  44.202  1.00  0.00     0.162 A 
ATOM     88  C   UNL A   1      45.711  19.526  44.364  1.00  0.00     0.200 A 
BRANCH  86  89
ATOM     89  O   UNL A   1      43.822  20.875  43.776  1.00  0.00    -0.504 OA
ATOM     90  H   UNL A   1      42.885  20.841  43.775  1.00  0.00     0.293 HD
ENDBRANCH  86  89
BRANCH  87  91
ATOM     91  O   UNL A   1      47.580  18.154  44.934  1.00  0.00    -0.504 OA
ATOM     92  H   UNL A   1      48.357  17.838  44.517  1.00  0.00     0.293 HD
ENDBRANCH  87  91
BRANCH  88  93
ATOM     93  O   UNL A   1      46.084  20.411  45.338  1.00  0.00    -0.502 OA
ATOM     94  H   UNL A   1      46.844  20.946  45.219  1.00  0.00     0.293 HD
ENDBRANCH  88  93
ENDBRANCH  73  83
BRANCH  79  95
ATOM     95  O   UNL A   1      41.158  12.902  39.780  1.00  0.00    -0.507 OA
ATOM     96  H   UNL A   1      40.457  12.291  39.666  1.00  0.00     0.293 HD
ENDBRANCH  79  95
BRANCH  82  97
ATOM     97  O   UNL A   1      41.803  11.322  44.250  1.00  0.00    -0.508 OA
ATOM     98  H   UNL A   1      41.411  11.606  45.052  1.00  0.00     0.293 HD
ENDBRANCH  82  97
ENDBRANCH  71  72
ENDBRANCH  66  71
BRANCH  67  99
ATOM     99  O   UNL A   1      45.031  18.666  35.547  1.00  0.00    -0.387 OA
ATOM    100  H   UNL A   1      44.808  19.610  35.553  1.00  0.00     0.211 HD
ENDBRANCH  67  99
BRANCH  68 101
ATOM    101  O   UNL A   1      44.350  16.371  37.292  1.00  0.00    -0.384 OA
ATOM    102  H   UNL A   1      45.139  15.991  36.874  1.00  0.00     0.211 HD
ENDBRANCH  68 101
ENDBRANCH  60  63
ENDBRANCH  58  59
ENDBRANCH   1  58
TORSDOF 22
ENDMDL
