MODEL 1
REMARK VINA RESULT:     -10.9      0.000      0.000
REMARK SMILES CCN(Cc1ccccn1)c1nc(C)cc(C)c1C(=O)NCCCCNC(=O)c1ccc(-c2c3nc(c(-c4ccccc4)c4ccc([nH]4)c(-c4ccccc4)c4nc(c(-c5ccccc5)c5ccc2[nH]5)C=C4)C=C3)cc1
REMARK SMILES IDX 23 1 22 2 21 3 19 4 20 5 18 7 11 8 12 9 13 10 16 11 14 12
REMARK SMILES IDX 15 13 17 14 3 15 2 16 1 17 4 18 5 19 6 20 10 21 7 22 9 23
REMARK SMILES IDX 8 24 24 25 25 26 26 27 27 28 28 30 29 31 30 32 76 33 31 34
REMARK SMILES IDX 75 35 32 36 33 37 34 38 69 39 35 40 74 41 68 42 70 43 36 44
REMARK SMILES IDX 73 45 67 46 66 47 37 49 59 50 44 51 58 52 45 53 48 54 57 55
REMARK SMILES IDX 71 56 46 57 47 58 56 60 72 61 49 62 38 63 39 64 43 65 40 66
REMARK SMILES IDX 42 67 41 68 60 69 61 70 65 71 62 72 64 73 63 74 50 75 51 76
REMARK SMILES IDX 55 77 52 78 54 79 53 80
REMARK H PARENT 21 6 26 29 70 48 48 59
REMARK Flexibility Score: inf
ROOT
ATOM      1  C   UNL A   1      36.043  21.782  25.246  1.00  0.00     0.023 C 
ENDROOT
BRANCH   1   2
ATOM      2  C   UNL A   1      35.883  23.095  24.486  1.00  0.00     0.116 C 
BRANCH   2   3
ATOM      3  N   UNL A   1      35.249  23.012  23.186  1.00  0.00    -0.352 N 
ATOM      4  C   UNL A   1      33.909  23.117  22.856  1.00  0.00     0.255 C 
ATOM      5  O   UNL A   1      33.621  23.308  21.677  1.00  0.00    -0.269 OA
ATOM      6  H   UNL A   1      35.860  22.860  22.429  1.00  0.00     0.163 HD
BRANCH   4   7
ATOM      7  C   UNL A   1      32.835  23.010  23.883  1.00  0.00     0.085 A 
ATOM      8  C   UNL A   1      32.303  24.189  24.448  1.00  0.00     0.142 A 
ATOM      9  N   UNL A   1      31.337  24.124  25.397  1.00  0.00    -0.235 NA
ATOM     10  C   UNL A   1      30.899  22.940  25.856  1.00  0.00     0.040 A 
ATOM     11  C   UNL A   1      32.420  21.766  24.414  1.00  0.00    -0.033 A 
ATOM     12  C   UNL A   1      29.918  22.986  26.986  1.00  0.00     0.067 C 
ATOM     13  C   UNL A   1      31.414  21.747  25.390  1.00  0.00     0.028 A 
ATOM     14  C   UNL A   1      33.005  20.436  24.035  1.00  0.00     0.045 C 
BRANCH   8  15
ATOM     15  N   UNL A   1      32.748  25.470  24.139  1.00  0.00    -0.350 N 
BRANCH  15  16
ATOM     16  C   UNL A   1      31.802  26.366  23.484  1.00  0.00     0.115 C 
ATOM     17  C   UNL A   1      31.785  26.113  21.983  1.00  0.00     0.027 C 
ENDBRANCH  15  16
BRANCH  15  18
ATOM     18  C   UNL A   1      33.682  26.081  25.106  1.00  0.00     0.174 C 
BRANCH  18  19
ATOM     19  C   UNL A   1      33.182  27.333  25.831  1.00  0.00     0.060 A 
ATOM     20  C   UNL A   1      33.728  28.579  25.504  1.00  0.00     0.026 A 
ATOM     21  N   UNL A   1      32.221  27.198  26.787  1.00  0.00    -0.259 NA
ATOM     22  C   UNL A   1      33.322  29.709  26.208  1.00  0.00     0.004 A 
ATOM     23  C   UNL A   1      31.869  28.311  27.470  1.00  0.00     0.111 A 
ATOM     24  C   UNL A   1      32.385  29.573  27.222  1.00  0.00     0.020 A 
ENDBRANCH  18  19
ENDBRANCH  15  18
ENDBRANCH   8  15
ENDBRANCH   4   7
ENDBRANCH   2   3
ENDBRANCH   1   2
BRANCH   1  25
ATOM     25  C   UNL A   1      37.234  20.890  24.892  1.00  0.00     0.023 C 
BRANCH  25  26
ATOM     26  C   UNL A   1      38.527  21.072  25.682  1.00  0.00     0.116 C 
BRANCH  26  27
ATOM     27  N   UNL A   1      39.464  19.963  25.593  1.00  0.00    -0.352 N 
ATOM     28  C   UNL A   1      40.783  19.864  25.987  1.00  0.00     0.251 C 
ATOM     29  H   UNL A   1      39.097  19.147  25.183  1.00  0.00     0.163 HD
ATOM     30  O   UNL A   1      41.399  18.821  25.809  1.00  0.00    -0.269 OA
BRANCH  28  31
ATOM     31  C   UNL A   1      41.480  21.037  26.561  1.00  0.00     0.039 A 
ATOM     32  C   UNL A   1      42.131  21.917  25.690  1.00  0.00     0.014 A 
ATOM     33  C   UNL A   1      41.451  21.305  27.929  1.00  0.00     0.014 A 
ATOM     34  C   UNL A   1      42.624  23.132  26.171  1.00  0.00     0.010 A 
ATOM     35  C   UNL A   1      41.865  22.551  28.393  1.00  0.00     0.010 A 
ATOM     36  C   UNL A   1      42.425  23.491  27.514  1.00  0.00    -0.014 A 
BRANCH  36  37
ATOM     37  C   UNL A   1      42.722  24.863  28.004  1.00  0.00     0.031 A 
ATOM     38  C   UNL A   1      44.102  25.225  28.474  1.00  0.00     0.074 A 
ATOM     39  C   UNL A   1      41.716  25.752  28.132  1.00  0.00     0.049 A 
ATOM     40  N   UNL A   1      44.515  26.328  29.047  1.00  0.00    -0.248 NA
ATOM     41  C   UNL A   1      45.146  24.203  28.307  1.00  0.00     0.031 C 
ATOM     42  C   UNL A   1      40.317  25.512  27.767  1.00  0.00     0.029 A 
ATOM     43  N   UNL A   1      41.712  27.033  28.627  1.00  0.00    -0.354 N 
ATOM     44  C   UNL A   1      45.858  26.123  29.331  1.00  0.00     0.074 A 
ATOM     45  C   UNL A   1      46.179  24.776  28.907  1.00  0.00     0.031 C 
ATOM     46  C   UNL A   1      39.596  26.613  28.036  1.00  0.00     0.029 A 
ATOM     47  C   UNL A   1      40.468  27.618  28.632  1.00  0.00     0.049 A 
ATOM     48  H   UNL A   1      42.522  27.489  28.949  1.00  0.00     0.167 HD
ATOM     49  C   UNL A   1      46.751  26.981  29.878  1.00  0.00     0.031 A 
ATOM     50  C   UNL A   1      40.067  28.823  29.080  1.00  0.00     0.031 A 
ATOM     51  C   UNL A   1      46.439  28.324  30.291  1.00  0.00     0.049 A 
ATOM     52  C   UNL A   1      41.073  29.757  29.688  1.00  0.00     0.074 A 
ATOM     53  C   UNL A   1      47.292  29.292  30.793  1.00  0.00     0.029 A 
ATOM     54  N   UNL A   1      45.174  28.886  30.253  1.00  0.00    -0.354 N 
ATOM     55  N   UNL A   1      42.355  29.574  29.880  1.00  0.00    -0.248 NA
ATOM     56  C   UNL A   1      40.575  31.066  30.136  1.00  0.00     0.031 C 
ATOM     57  C   UNL A   1      46.533  30.426  31.101  1.00  0.00     0.029 A 
ATOM     58  C   UNL A   1      45.217  30.179  30.747  1.00  0.00     0.049 A 
ATOM     59  H   UNL A   1      44.363  28.434  29.924  1.00  0.00     0.167 HD
ATOM     60  C   UNL A   1      42.823  30.748  30.456  1.00  0.00     0.074 A 
ATOM     61  C   UNL A   1      41.689  31.643  30.565  1.00  0.00     0.031 C 
ATOM     62  C   UNL A   1      44.079  31.056  30.857  1.00  0.00     0.031 A 
BRANCH  49  63
ATOM     63  C   UNL A   1      48.156  26.481  30.069  1.00  0.00    -0.014 A 
ATOM     64  C   UNL A   1      48.544  25.848  31.261  1.00  0.00     0.009 A 
ATOM     65  C   UNL A   1      49.098  26.630  29.040  1.00  0.00     0.009 A 
ATOM     66  C   UNL A   1      49.860  25.415  31.435  1.00  0.00     0.001 A 
ATOM     67  C   UNL A   1      50.405  26.171  29.206  1.00  0.00     0.001 A 
ATOM     68  C   UNL A   1      50.788  25.575  30.407  1.00  0.00     0.000 A 
ENDBRANCH  49  63
BRANCH  50  69
ATOM     69  C   UNL A   1      38.638  29.215  28.967  1.00  0.00    -0.014 A 
ATOM     70  C   UNL A   1      38.131  29.718  27.759  1.00  0.00     0.009 A 
ATOM     71  C   UNL A   1      37.772  29.081  30.064  1.00  0.00     0.009 A 
ATOM     72  C   UNL A   1      36.791  30.097  27.657  1.00  0.00     0.001 A 
ATOM     73  C   UNL A   1      36.426  29.438  29.951  1.00  0.00     0.001 A 
ATOM     74  C   UNL A   1      35.938  29.952  28.750  1.00  0.00     0.000 A 
ENDBRANCH  50  69
BRANCH  62  75
ATOM     75  C   UNL A   1      44.299  32.424  31.436  1.00  0.00    -0.014 A 
ATOM     76  C   UNL A   1      44.605  33.518  30.614  1.00  0.00     0.009 A 
ATOM     77  C   UNL A   1      44.150  32.628  32.817  1.00  0.00     0.009 A 
ATOM     78  C   UNL A   1      44.781  34.788  31.167  1.00  0.00     0.001 A 
ATOM     79  C   UNL A   1      44.302  33.903  33.363  1.00  0.00     0.001 A 
ATOM     80  C   UNL A   1      44.624  34.980  32.540  1.00  0.00     0.000 A 
ENDBRANCH  62  75
ENDBRANCH  36  37
ENDBRANCH  28  31
ENDBRANCH  26  27
ENDBRANCH  25  26
ENDBRANCH   1  25
TORSDOF 15
ENDMDL
MODEL 2
REMARK VINA RESULT:     -10.9      1.438      6.952
REMARK SMILES CCN(Cc1ccccn1)c1nc(C)cc(C)c1C(=O)NCCCCNC(=O)c1ccc(-c2c3nc(c(-c4ccccc4)c4ccc([nH]4)c(-c4ccccc4)c4nc(c(-c5ccccc5)c5ccc2[nH]5)C=C4)C=C3)cc1
REMARK SMILES IDX 23 1 22 2 21 3 19 4 20 5 18 7 11 8 12 9 13 10 16 11 14 12
REMARK SMILES IDX 15 13 17 14 3 15 2 16 1 17 4 18 5 19 6 20 10 21 7 22 9 23
REMARK SMILES IDX 8 24 24 25 25 26 26 27 27 28 28 30 29 31 30 32 76 33 31 34
REMARK SMILES IDX 75 35 32 36 33 37 34 38 69 39 35 40 74 41 68 42 70 43 36 44
REMARK SMILES IDX 73 45 67 46 66 47 37 49 59 50 44 51 58 52 45 53 48 54 57 55
REMARK SMILES IDX 71 56 46 57 47 58 56 60 72 61 49 62 38 63 39 64 43 65 40 66
REMARK SMILES IDX 42 67 41 68 60 69 61 70 65 71 62 72 64 73 63 74 50 75 51 76
REMARK SMILES IDX 55 77 52 78 54 79 53 80
REMARK H PARENT 21 6 26 29 70 48 48 59
REMARK Flexibility Score: inf
ROOT
ATOM      1  C   UNL A   1      37.238  23.458  24.634  1.00  0.00     0.023 C 
ENDROOT
BRANCH   1   2
ATOM      2  C   UNL A   1      35.776  23.860  24.466  1.00  0.00     0.116 C 
BRANCH   2   3
ATOM      3  N   UNL A   1      35.138  23.462  23.228  1.00  0.00    -0.352 N 
ATOM      4  C   UNL A   1      33.790  23.345  22.935  1.00  0.00     0.255 C 
ATOM      5  O   UNL A   1      33.464  23.278  21.751  1.00  0.00    -0.269 OA
ATOM      6  H   UNL A   1      35.752  23.245  22.489  1.00  0.00     0.163 HD
BRANCH   4   7
ATOM      7  C   UNL A   1      32.753  23.305  24.003  1.00  0.00     0.085 A 
ATOM      8  C   UNL A   1      32.500  22.087  24.669  1.00  0.00     0.142 A 
ATOM      9  N   UNL A   1      31.550  22.013  25.634  1.00  0.00    -0.235 NA
ATOM     10  C   UNL A   1      30.797  23.081  25.944  1.00  0.00     0.040 A 
ATOM     11  C   UNL A   1      31.915  24.409  24.284  1.00  0.00    -0.033 A 
ATOM     12  C   UNL A   1      29.701  22.857  26.938  1.00  0.00     0.067 C 
ATOM     13  C   UNL A   1      30.950  24.289  25.294  1.00  0.00     0.028 A 
ATOM     14  C   UNL A   1      31.952  25.719  23.550  1.00  0.00     0.045 C 
BRANCH   8  15
ATOM     15  N   UNL A   1      33.132  20.886  24.366  1.00  0.00    -0.350 N 
BRANCH  15  16
ATOM     16  C   UNL A   1      34.309  20.533  25.152  1.00  0.00     0.115 C 
ATOM     17  C   UNL A   1      34.297  21.268  26.485  1.00  0.00     0.027 C 
ENDBRANCH  15  16
BRANCH  15  18
ATOM     18  C   UNL A   1      32.250  19.776  23.954  1.00  0.00     0.174 C 
BRANCH  18  19
ATOM     19  C   UNL A   1      32.732  18.366  24.302  1.00  0.00     0.060 A 
ATOM     20  C   UNL A   1      33.625  17.715  23.443  1.00  0.00     0.026 A 
ATOM     21  N   UNL A   1      32.268  17.774  25.438  1.00  0.00    -0.259 NA
ATOM     22  C   UNL A   1      34.012  16.407  23.723  1.00  0.00     0.004 A 
ATOM     23  C   UNL A   1      32.643  16.495  25.666  1.00  0.00     0.111 A 
ATOM     24  C   UNL A   1      33.501  15.777  24.848  1.00  0.00     0.020 A 
ENDBRANCH  18  19
ENDBRANCH  15  18
ENDBRANCH   8  15
ENDBRANCH   4   7
ENDBRANCH   2   3
ENDBRANCH   1   2
BRANCH   1  25
ATOM     25  C   UNL A   1      37.580  21.968  24.593  1.00  0.00     0.023 C 
BRANCH  25  26
ATOM     26  C   UNL A   1      38.170  21.332  25.848  1.00  0.00     0.116 C 
BRANCH  26  27
ATOM     27  N   UNL A   1      39.054  20.201  25.608  1.00  0.00    -0.352 N 
ATOM     28  C   UNL A   1      40.387  20.020  25.916  1.00  0.00     0.251 C 
ATOM     29  H   UNL A   1      38.632  19.440  25.150  1.00  0.00     0.163 HD
ATOM     30  O   UNL A   1      40.948  18.974  25.611  1.00  0.00    -0.269 OA
BRANCH  28  31
ATOM     31  C   UNL A   1      41.163  21.109  26.548  1.00  0.00     0.039 A 
ATOM     32  C   UNL A   1      41.790  22.047  25.722  1.00  0.00     0.014 A 
ATOM     33  C   UNL A   1      41.230  21.247  27.935  1.00  0.00     0.014 A 
ATOM     34  C   UNL A   1      42.358  23.195  26.281  1.00  0.00     0.010 A 
ATOM     35  C   UNL A   1      41.719  22.429  28.485  1.00  0.00     0.010 A 
ATOM     36  C   UNL A   1      42.258  23.430  27.661  1.00  0.00    -0.014 A 
BRANCH  36  37
ATOM     37  C   UNL A   1      42.636  24.739  28.257  1.00  0.00     0.031 A 
ATOM     38  C   UNL A   1      41.607  25.814  28.456  1.00  0.00     0.074 A 
ATOM     39  C   UNL A   1      43.935  24.999  28.514  1.00  0.00     0.049 A 
ATOM     40  N   UNL A   1      41.774  27.054  28.844  1.00  0.00    -0.248 NA
ATOM     41  C   UNL A   1      40.213  25.459  28.151  1.00  0.00     0.031 C 
ATOM     42  C   UNL A   1      45.045  24.064  28.312  1.00  0.00     0.029 A 
ATOM     43  N   UNL A   1      44.544  26.138  28.980  1.00  0.00    -0.354 N 
ATOM     44  C   UNL A   1      40.513  27.633  28.804  1.00  0.00     0.074 A 
ATOM     45  C   UNL A   1      39.599  26.622  28.314  1.00  0.00     0.031 C 
ATOM     46  C   UNL A   1      46.194  24.661  28.667  1.00  0.00     0.029 A 
ATOM     47  C   UNL A   1      45.911  26.031  29.077  1.00  0.00     0.049 A 
ATOM     48  H   UNL A   1      44.049  26.953  29.221  1.00  0.00     0.167 HD
ATOM     49  C   UNL A   1      40.142  28.886  29.160  1.00  0.00     0.031 A 
ATOM     50  C   UNL A   1      46.838  26.938  29.440  1.00  0.00     0.031 A 
ATOM     51  C   UNL A   1      41.045  29.890  29.657  1.00  0.00     0.049 A 
ATOM     52  C   UNL A   1      46.405  28.323  29.825  1.00  0.00     0.074 A 
ATOM     53  C   UNL A   1      40.752  31.166  30.107  1.00  0.00     0.029 A 
ATOM     54  N   UNL A   1      42.417  29.732  29.765  1.00  0.00    -0.354 N 
ATOM     55  N   UNL A   1      45.198  28.830  29.853  1.00  0.00    -0.248 NA
ATOM     56  C   UNL A   1      47.463  29.258  30.233  1.00  0.00     0.031 C 
ATOM     57  C   UNL A   1      41.954  31.796  30.446  1.00  0.00     0.029 A 
ATOM     58  C   UNL A   1      42.989  30.896  30.251  1.00  0.00     0.049 A 
ATOM     59  H   UNL A   1      42.913  28.914  29.532  1.00  0.00     0.167 HD
ATOM     60  C   UNL A   1      45.347  30.138  30.297  1.00  0.00     0.074 A 
ATOM     61  C   UNL A   1      46.760  30.340  30.542  1.00  0.00     0.031 C 
ATOM     62  C   UNL A   1      44.398  31.085  30.483  1.00  0.00     0.031 A 
BRANCH  49  63
ATOM     63  C   UNL A   1      38.689  29.239  29.011  1.00  0.00    -0.014 A 
ATOM     64  C   UNL A   1      38.180  29.715  27.791  1.00  0.00     0.009 A 
ATOM     65  C   UNL A   1      37.815  29.081  30.097  1.00  0.00     0.009 A 
ATOM     66  C   UNL A   1      36.833  30.067  27.677  1.00  0.00     0.001 A 
ATOM     67  C   UNL A   1      36.464  29.407  29.971  1.00  0.00     0.001 A 
ATOM     68  C   UNL A   1      35.977  29.911  28.765  1.00  0.00     0.000 A 
ENDBRANCH  49  63
BRANCH  50  69
ATOM     69  C   UNL A   1      48.275  26.560  29.457  1.00  0.00    -0.014 A 
ATOM     70  C   UNL A   1      49.078  26.767  28.325  1.00  0.00     0.009 A 
ATOM     71  C   UNL A   1      48.852  25.997  30.607  1.00  0.00     0.009 A 
ATOM     72  C   UNL A   1      50.426  26.401  28.338  1.00  0.00     0.001 A 
ATOM     73  C   UNL A   1      50.207  25.655  30.624  1.00  0.00     0.001 A 
ATOM     74  C   UNL A   1      50.990  25.850  29.488  1.00  0.00     0.000 A 
ENDBRANCH  50  69
BRANCH  62  75
ATOM     75  C   UNL A   1      44.852  32.422  30.994  1.00  0.00    -0.014 A 
ATOM     76  C   UNL A   1      44.946  32.678  32.371  1.00  0.00     0.009 A 
ATOM     77  C   UNL A   1      45.239  33.420  30.087  1.00  0.00     0.009 A 
ATOM     78  C   UNL A   1      45.396  33.917  32.828  1.00  0.00     0.001 A 
ATOM     79  C   UNL A   1      45.712  34.649  30.547  1.00  0.00     0.001 A 
ATOM     80  C   UNL A   1      45.783  34.900  31.916  1.00  0.00     0.000 A 
ENDBRANCH  62  75
ENDBRANCH  36  37
ENDBRANCH  28  31
ENDBRANCH  26  27
ENDBRANCH  25  26
ENDBRANCH   1  25
TORSDOF 15
ENDMDL
MODEL 3
REMARK VINA RESULT:     -10.9      4.346      9.216
REMARK SMILES CCN(Cc1ccccn1)c1nc(C)cc(C)c1C(=O)NCCCCNC(=O)c1ccc(-c2c3nc(c(-c4ccccc4)c4ccc([nH]4)c(-c4ccccc4)c4nc(c(-c5ccccc5)c5ccc2[nH]5)C=C4)C=C3)cc1
REMARK SMILES IDX 23 1 22 2 21 3 19 4 20 5 18 7 11 8 12 9 13 10 16 11 14 12
REMARK SMILES IDX 15 13 17 14 3 15 2 16 1 17 4 18 5 19 6 20 10 21 7 22 9 23
REMARK SMILES IDX 8 24 24 25 25 26 26 27 27 28 28 30 29 31 30 32 76 33 31 34
REMARK SMILES IDX 75 35 32 36 33 37 34 38 69 39 35 40 74 41 68 42 70 43 36 44
REMARK SMILES IDX 73 45 67 46 66 47 37 49 59 50 44 51 58 52 45 53 48 54 57 55
REMARK SMILES IDX 71 56 46 57 47 58 56 60 72 61 49 62 38 63 39 64 43 65 40 66
REMARK SMILES IDX 42 67 41 68 60 69 61 70 65 71 62 72 64 73 63 74 50 75 51 76
REMARK SMILES IDX 55 77 52 78 54 79 53 80
REMARK H PARENT 21 6 26 29 70 48 48 59
REMARK Flexibility Score: inf
ROOT
ATOM      1  C   UNL A   1      31.806  30.523  26.597  1.00  0.00     0.023 C 
ENDROOT
BRANCH   1   2
ATOM      2  C   UNL A   1      31.388  29.896  25.271  1.00  0.00     0.116 C 
BRANCH   2   3
ATOM      3  N   UNL A   1      32.411  29.809  24.250  1.00  0.00    -0.352 N 
ATOM      4  C   UNL A   1      33.072  28.694  23.764  1.00  0.00     0.255 C 
ATOM      5  O   UNL A   1      33.686  28.806  22.704  1.00  0.00    -0.269 OA
ATOM      6  H   UNL A   1      32.673  30.666  23.842  1.00  0.00     0.163 HD
BRANCH   4   7
ATOM      7  C   UNL A   1      33.049  27.391  24.483  1.00  0.00     0.085 A 
ATOM      8  C   UNL A   1      32.188  26.369  24.030  1.00  0.00     0.142 A 
ATOM      9  N   UNL A   1      32.131  25.177  24.673  1.00  0.00    -0.235 NA
ATOM     10  C   UNL A   1      32.855  24.958  25.784  1.00  0.00     0.040 A 
ATOM     11  C   UNL A   1      33.760  27.181  25.689  1.00  0.00    -0.033 A 
ATOM     12  C   UNL A   1      32.627  23.652  26.479  1.00  0.00     0.067 C 
ATOM     13  C   UNL A   1      33.676  25.931  26.317  1.00  0.00     0.028 A 
ATOM     14  C   UNL A   1      34.589  28.222  26.385  1.00  0.00     0.045 C 
BRANCH   8  15
ATOM     15  N   UNL A   1      31.309  26.509  22.961  1.00  0.00    -0.350 N 
BRANCH  15  16
ATOM     16  C   UNL A   1      31.517  25.644  21.806  1.00  0.00     0.115 C 
ATOM     17  C   UNL A   1      32.846  25.965  21.135  1.00  0.00     0.027 C 
ENDBRANCH  15  16
BRANCH  15  18
ATOM     18  C   UNL A   1      29.909  26.825  23.311  1.00  0.00     0.174 C 
BRANCH  18  19
ATOM     19  C   UNL A   1      29.381  28.178  22.829  1.00  0.00     0.060 A 
ATOM     20  C   UNL A   1      28.106  28.596  23.226  1.00  0.00     0.026 A 
ATOM     21  N   UNL A   1      30.165  28.937  22.014  1.00  0.00    -0.259 NA
ATOM     22  C   UNL A   1      27.597  29.796  22.735  1.00  0.00     0.004 A 
ATOM     23  C   UNL A   1      29.631  30.083  21.535  1.00  0.00     0.111 A 
ATOM     24  C   UNL A   1      28.367  30.549  21.860  1.00  0.00     0.020 A 
ENDBRANCH  18  19
ENDBRANCH  15  18
ENDBRANCH   8  15
ENDBRANCH   4   7
ENDBRANCH   2   3
ENDBRANCH   1   2
BRANCH   1  25
ATOM     25  C   UNL A   1      31.561  32.020  26.790  1.00  0.00     0.023 C 
BRANCH  25  26
ATOM     26  C   UNL A   1      32.697  32.866  27.360  1.00  0.00     0.116 C 
BRANCH  26  27
ATOM     27  N   UNL A   1      32.331  34.229  27.715  1.00  0.00    -0.352 N 
ATOM     28  C   UNL A   1      32.939  35.132  28.562  1.00  0.00     0.251 C 
ATOM     29  H   UNL A   1      31.514  34.562  27.278  1.00  0.00     0.163 HD
ATOM     30  O   UNL A   1      32.450  36.244  28.724  1.00  0.00    -0.269 OA
BRANCH  28  31
ATOM     31  C   UNL A   1      34.140  34.742  29.334  1.00  0.00     0.039 A 
ATOM     32  C   UNL A   1      33.984  34.393  30.678  1.00  0.00     0.014 A 
ATOM     33  C   UNL A   1      35.397  34.662  28.734  1.00  0.00     0.014 A 
ATOM     34  C   UNL A   1      35.053  33.829  31.378  1.00  0.00     0.010 A 
ATOM     35  C   UNL A   1      36.437  34.023  29.404  1.00  0.00     0.010 A 
ATOM     36  C   UNL A   1      36.267  33.570  30.722  1.00  0.00    -0.014 A 
BRANCH  36  37
ATOM     37  C   UNL A   1      37.340  32.763  31.360  1.00  0.00     0.031 A 
ATOM     38  C   UNL A   1      37.913  33.168  32.688  1.00  0.00     0.074 A 
ATOM     39  C   UNL A   1      37.878  31.725  30.687  1.00  0.00     0.049 A 
ATOM     40  N   UNL A   1      38.933  32.661  33.336  1.00  0.00    -0.248 NA
ATOM     41  C   UNL A   1      37.279  34.311  33.361  1.00  0.00     0.031 C 
ATOM     42  C   UNL A   1      37.454  31.259  29.364  1.00  0.00     0.029 A 
ATOM     43  N   UNL A   1      38.915  30.887  31.015  1.00  0.00    -0.354 N 
ATOM     44  C   UNL A   1      39.076  33.437  34.477  1.00  0.00     0.074 A 
ATOM     45  C   UNL A   1      38.069  34.475  34.412  1.00  0.00     0.031 C 
ATOM     46  C   UNL A   1      38.212  30.212  29.002  1.00  0.00     0.029 A 
ATOM     47  C   UNL A   1      39.202  29.960  30.042  1.00  0.00     0.049 A 
ATOM     48  H   UNL A   1      39.406  30.945  31.866  1.00  0.00     0.167 HD
ATOM     49  C   UNL A   1      39.955  33.292  35.498  1.00  0.00     0.031 A 
ATOM     50  C   UNL A   1      40.165  29.020  29.982  1.00  0.00     0.031 A 
ATOM     51  C   UNL A   1      40.950  32.256  35.571  1.00  0.00     0.049 A 
ATOM     52  C   UNL A   1      41.132  28.881  31.123  1.00  0.00     0.074 A 
ATOM     53  C   UNL A   1      41.840  31.987  36.597  1.00  0.00     0.029 A 
ATOM     54  N   UNL A   1      41.190  31.322  34.577  1.00  0.00    -0.354 N 
ATOM     55  N   UNL A   1      41.206  29.577  32.229  1.00  0.00    -0.248 NA
ATOM     56  C   UNL A   1      42.144  27.821  31.006  1.00  0.00     0.031 C 
ATOM     57  C   UNL A   1      42.649  30.915  36.203  1.00  0.00     0.029 A 
ATOM     58  C   UNL A   1      42.232  30.490  34.954  1.00  0.00     0.049 A 
ATOM     59  H   UNL A   1      40.695  31.258  33.729  1.00  0.00     0.167 HD
ATOM     60  C   UNL A   1      42.260  29.032  32.950  1.00  0.00     0.074 A 
ATOM     61  C   UNL A   1      42.785  27.935  32.163  1.00  0.00     0.031 C 
ATOM     62  C   UNL A   1      42.749  29.407  34.156  1.00  0.00     0.031 A 
BRANCH  49  63
ATOM     63  C   UNL A   1      39.878  34.293  36.616  1.00  0.00    -0.014 A 
ATOM     64  C   UNL A   1      39.106  34.041  37.762  1.00  0.00     0.009 A 
ATOM     65  C   UNL A   1      40.596  35.495  36.531  1.00  0.00     0.009 A 
ATOM     66  C   UNL A   1      39.021  34.993  38.780  1.00  0.00     0.001 A 
ATOM     67  C   UNL A   1      40.532  36.432  37.563  1.00  0.00     0.001 A 
ATOM     68  C   UNL A   1      39.734  36.186  38.681  1.00  0.00     0.000 A 
ENDBRANCH  49  63
BRANCH  50  69
ATOM     69  C   UNL A   1      40.261  28.134  28.793  1.00  0.00    -0.014 A 
ATOM     70  C   UNL A   1      40.990  28.535  27.664  1.00  0.00     0.009 A 
ATOM     71  C   UNL A   1      39.631  26.879  28.786  1.00  0.00     0.009 A 
ATOM     72  C   UNL A   1      41.070  27.706  26.542  1.00  0.00     0.001 A 
ATOM     73  C   UNL A   1      39.734  26.042  27.672  1.00  0.00     0.001 A 
ATOM     74  C   UNL A   1      40.447  26.459  26.549  1.00  0.00     0.000 A 
ENDBRANCH  50  69
BRANCH  62  75
ATOM     75  C   UNL A   1      43.899  28.615  34.708  1.00  0.00    -0.014 A 
ATOM     76  C   UNL A   1      43.682  27.462  35.477  1.00  0.00     0.009 A 
ATOM     77  C   UNL A   1      45.216  29.000  34.411  1.00  0.00     0.009 A 
ATOM     78  C   UNL A   1      44.763  26.723  35.960  1.00  0.00     0.001 A 
ATOM     79  C   UNL A   1      46.294  28.245  34.874  1.00  0.00     0.001 A 
ATOM     80  C   UNL A   1      46.068  27.112  35.654  1.00  0.00     0.000 A 
ENDBRANCH  62  75
ENDBRANCH  36  37
ENDBRANCH  28  31
ENDBRANCH  26  27
ENDBRANCH  25  26
ENDBRANCH   1  25
TORSDOF 15
ENDMDL
