MODEL 1
REMARK VINA RESULT:     -10.9      0.000      0.000
REMARK SMILES O=C(NCCCCNC(=O)c1ccc(-c2c3nc(c(-c4ccccc4)c4ccc([nH]4)c(-c4ccccc4)c4nc(c(-c5ccccc5)c5ccc2[nH]5)C=C4)C=C3)cc1)C1=C(C(=O)NCCC2=CCCCC2)CCCC1
REMARK SMILES IDX 4 1 3 2 1 3 2 4 59 6 60 7 75 8 72 9 74 10 73 11 61 12 62 13
REMARK SMILES IDX 63 14 64 16 65 17 66 18 67 19 71 20 68 21 70 22 69 23 5 24
REMARK SMILES IDX 6 25 7 26 8 27 9 28 10 30 11 31 12 32 58 33 13 34 57 35
REMARK SMILES IDX 14 36 15 37 16 38 51 39 17 40 56 41 50 42 52 43 18 44 55 45
REMARK SMILES IDX 49 46 48 47 19 49 41 50 26 51 40 52 27 53 30 54 39 55 53 56
REMARK SMILES IDX 28 57 29 58 38 60 54 61 31 62 20 63 21 64 25 65 22 66 24 67
REMARK SMILES IDX 23 68 42 69 43 70 47 71 44 72 46 73 45 74 32 75 33 76 37 77
REMARK SMILES IDX 34 78 36 79 35 80
REMARK H PARENT 3 5 63 15 8 29 52 48 30 59
REMARK Flexibility Score: inf
ROOT
ATOM      1  C   UNL A   1      36.495  21.646  25.135  1.00  0.00     0.116 C 
ENDROOT
BRANCH   1   2
ATOM      2  N   UNL A   1      35.769  22.042  26.328  1.00  0.00    -0.352 N 
ATOM      3  O   UNL A   1      34.234  23.087  27.574  1.00  0.00    -0.270 OA
ATOM      4  C   UNL A   1      34.654  22.808  26.452  1.00  0.00     0.247 C 
ATOM      5  H   UNL A   1      36.141  21.706  27.175  1.00  0.00     0.163 HD
BRANCH   4   6
ATOM      6  C   UNL A   1      33.986  23.365  25.249  1.00  0.00     0.026 C 
ATOM      7  C   UNL A   1      32.848  22.893  24.696  1.00  0.00     0.026 C 
ATOM      8  C   UNL A   1      34.708  24.589  24.723  1.00  0.00     0.042 C 
ATOM      9  C   UNL A   1      32.368  23.414  23.350  1.00  0.00     0.042 C 
ATOM     10  C   UNL A   1      33.993  25.297  23.573  1.00  0.00     0.005 C 
ATOM     11  C   UNL A   1      33.398  24.278  22.619  1.00  0.00     0.005 C 
BRANCH   7  12
ATOM     12  C   UNL A   1      31.993  21.775  25.207  1.00  0.00     0.247 C 
ATOM     13  O   UNL A   1      32.115  20.652  24.714  1.00  0.00    -0.270 OA
ATOM     14  N   UNL A   1      31.031  21.959  26.146  1.00  0.00    -0.352 N 
ATOM     15  H   UNL A   1      30.453  21.176  26.293  1.00  0.00     0.163 HD
BRANCH  14  16
ATOM     16  C   UNL A   1      30.703  23.107  26.973  1.00  0.00     0.120 C 
BRANCH  16  17
ATOM     17  C   UNL A   1      29.879  24.180  26.253  1.00  0.00     0.052 C 
BRANCH  17  18
ATOM     18  C   UNL A   1      30.611  25.458  25.875  1.00  0.00    -0.072 C 
ATOM     19  C   UNL A   1      31.694  25.855  26.571  1.00  0.00    -0.028 C 
ATOM     20  C   UNL A   1      30.042  26.305  24.756  1.00  0.00     0.031 C 
ATOM     21  C   UNL A   1      32.399  27.163  26.360  1.00  0.00     0.027 C 
ATOM     22  C   UNL A   1      30.964  27.452  24.321  1.00  0.00     0.005 C 
ATOM     23  C   UNL A   1      31.587  28.150  25.522  1.00  0.00     0.004 C 
ENDBRANCH  17  18
ENDBRANCH  16  17
ENDBRANCH  14  16
ENDBRANCH   7  12
ENDBRANCH   4   6
ENDBRANCH   1   2
BRANCH   1  24
ATOM     24  C   UNL A   1      36.408  20.142  24.879  1.00  0.00     0.023 C 
BRANCH  24  25
ATOM     25  C   UNL A   1      37.758  19.409  24.866  1.00  0.00     0.023 C 
BRANCH  25  26
ATOM     26  C   UNL A   1      38.874  20.070  25.676  1.00  0.00     0.116 C 
BRANCH  26  27
ATOM     27  N   UNL A   1      40.064  19.238  25.756  1.00  0.00    -0.352 N 
ATOM     28  C   UNL A   1      41.362  19.560  26.050  1.00  0.00     0.251 C 
ATOM     29  H   UNL A   1      39.910  18.283  25.567  1.00  0.00     0.163 HD
ATOM     30  O   UNL A   1      42.254  18.733  25.828  1.00  0.00    -0.269 OA
BRANCH  28  31
ATOM     31  C   UNL A   1      41.731  20.876  26.614  1.00  0.00     0.039 A 
ATOM     32  C   UNL A   1      42.224  21.862  25.753  1.00  0.00     0.014 A 
ATOM     33  C   UNL A   1      41.671  21.129  27.988  1.00  0.00     0.014 A 
ATOM     34  C   UNL A   1      42.593  23.113  26.255  1.00  0.00     0.010 A 
ATOM     35  C   UNL A   1      41.977  22.400  28.482  1.00  0.00     0.010 A 
ATOM     36  C   UNL A   1      42.442  23.406  27.620  1.00  0.00    -0.014 A 
BRANCH  36  37
ATOM     37  C   UNL A   1      42.740  24.765  28.140  1.00  0.00     0.031 A 
ATOM     38  C   UNL A   1      44.142  25.168  28.510  1.00  0.00     0.074 A 
ATOM     39  C   UNL A   1      41.730  25.639  28.317  1.00  0.00     0.049 A 
ATOM     40  N   UNL A   1      44.577  26.318  28.965  1.00  0.00    -0.248 NA
ATOM     41  C   UNL A   1      45.187  24.142  28.372  1.00  0.00     0.031 C 
ATOM     42  C   UNL A   1      40.318  25.367  28.040  1.00  0.00     0.029 A 
ATOM     43  N   UNL A   1      41.737  26.936  28.768  1.00  0.00    -0.354 N 
ATOM     44  C   UNL A   1      45.939  26.151  29.178  1.00  0.00     0.074 A 
ATOM     45  C   UNL A   1      46.250  24.777  28.844  1.00  0.00     0.031 C 
ATOM     46  C   UNL A   1      39.601  26.474  28.292  1.00  0.00     0.029 A 
ATOM     47  C   UNL A   1      40.494  27.521  28.776  1.00  0.00     0.049 A 
ATOM     48  H   UNL A   1      42.554  27.401  29.059  1.00  0.00     0.167 HD
ATOM     49  C   UNL A   1      46.851  27.061  29.598  1.00  0.00     0.031 A 
ATOM     50  C   UNL A   1      40.113  28.763  29.128  1.00  0.00     0.031 A 
ATOM     51  C   UNL A   1      46.551  28.430  29.925  1.00  0.00     0.049 A 
ATOM     52  C   UNL A   1      41.142  29.751  29.593  1.00  0.00     0.074 A 
ATOM     53  C   UNL A   1      47.423  29.441  30.292  1.00  0.00     0.029 A 
ATOM     54  N   UNL A   1      45.278  28.979  29.930  1.00  0.00    -0.354 N 
ATOM     55  N   UNL A   1      42.438  29.598  29.715  1.00  0.00    -0.248 NA
ATOM     56  C   UNL A   1      40.654  31.089  29.958  1.00  0.00     0.031 C 
ATOM     57  C   UNL A   1      46.671  30.590  30.567  1.00  0.00     0.029 A 
ATOM     58  C   UNL A   1      45.338  30.306  30.323  1.00  0.00     0.049 A 
ATOM     59  H   UNL A   1      44.454  28.497  29.690  1.00  0.00     0.167 HD
ATOM     60  C   UNL A   1      42.922  30.823  30.154  1.00  0.00     0.074 A 
ATOM     61  C   UNL A   1      41.784  31.713  30.258  1.00  0.00     0.031 C 
ATOM     62  C   UNL A   1      44.198  31.178  30.442  1.00  0.00     0.031 A 
BRANCH  49  63
ATOM     63  C   UNL A   1      48.274  26.592  29.740  1.00  0.00    -0.014 A 
ATOM     64  C   UNL A   1      48.731  26.005  30.930  1.00  0.00     0.009 A 
ATOM     65  C   UNL A   1      49.160  26.715  28.659  1.00  0.00     0.009 A 
ATOM     66  C   UNL A   1      50.058  25.587  31.049  1.00  0.00     0.001 A 
ATOM     67  C   UNL A   1      50.480  26.271  28.771  1.00  0.00     0.001 A 
ATOM     68  C   UNL A   1      50.931  25.717  29.968  1.00  0.00     0.000 A 
ENDBRANCH  49  63
BRANCH  50  69
ATOM     69  C   UNL A   1      38.684  29.152  29.019  1.00  0.00    -0.014 A 
ATOM     70  C   UNL A   1      37.842  29.072  30.138  1.00  0.00     0.009 A 
ATOM     71  C   UNL A   1      38.160  29.614  27.802  1.00  0.00     0.009 A 
ATOM     72  C   UNL A   1      36.497  29.432  30.036  1.00  0.00     0.001 A 
ATOM     73  C   UNL A   1      36.821  29.996  27.710  1.00  0.00     0.001 A 
ATOM     74  C   UNL A   1      35.989  29.900  28.825  1.00  0.00     0.000 A 
ENDBRANCH  50  69
BRANCH  62  75
ATOM     75  C   UNL A   1      44.426  32.595  30.886  1.00  0.00    -0.014 A 
ATOM     76  C   UNL A   1      44.664  33.618  29.954  1.00  0.00     0.009 A 
ATOM     77  C   UNL A   1      44.387  32.914  32.252  1.00  0.00     0.009 A 
ATOM     78  C   UNL A   1      44.894  34.925  30.385  1.00  0.00     0.001 A 
ATOM     79  C   UNL A   1      44.591  34.227  32.678  1.00  0.00     0.001 A 
ATOM     80  C   UNL A   1      44.854  35.230  31.746  1.00  0.00     0.000 A 
ENDBRANCH  62  75
ENDBRANCH  36  37
ENDBRANCH  28  31
ENDBRANCH  26  27
ENDBRANCH  25  26
ENDBRANCH  24  25
ENDBRANCH   1  24
TORSDOF 15
ENDMDL
MODEL 2
REMARK VINA RESULT:     -10.7      4.325      9.158
REMARK SMILES O=C(NCCCCNC(=O)c1ccc(-c2c3nc(c(-c4ccccc4)c4ccc([nH]4)c(-c4ccccc4)c4nc(c(-c5ccccc5)c5ccc2[nH]5)C=C4)C=C3)cc1)C1=C(C(=O)NCCC2=CCCCC2)CCCC1
REMARK SMILES IDX 4 1 3 2 1 3 2 4 59 6 60 7 75 8 72 9 74 10 73 11 61 12 62 13
REMARK SMILES IDX 63 14 64 16 65 17 66 18 67 19 71 20 68 21 70 22 69 23 5 24
REMARK SMILES IDX 6 25 7 26 8 27 9 28 10 30 11 31 12 32 58 33 13 34 57 35
REMARK SMILES IDX 14 36 15 37 16 38 51 39 17 40 56 41 50 42 52 43 18 44 55 45
REMARK SMILES IDX 49 46 48 47 19 49 41 50 26 51 40 52 27 53 30 54 39 55 53 56
REMARK SMILES IDX 28 57 29 58 38 60 54 61 31 62 20 63 21 64 25 65 22 66 24 67
REMARK SMILES IDX 23 68 42 69 43 70 47 71 44 72 46 73 45 74 32 75 33 76 37 77
REMARK SMILES IDX 34 78 36 79 35 80
REMARK H PARENT 3 5 63 15 8 29 52 48 30 59
REMARK Flexibility Score: inf
ROOT
ATOM      1  C   UNL A   1      31.411  30.191  25.102  1.00  0.00     0.116 C 
ENDROOT
BRANCH   1   2
ATOM      2  N   UNL A   1      32.673  29.703  24.577  1.00  0.00    -0.352 N 
ATOM      3  O   UNL A   1      34.244  28.226  23.984  1.00  0.00    -0.270 OA
ATOM      4  C   UNL A   1      33.095  28.428  24.378  1.00  0.00     0.247 C 
ATOM      5  H   UNL A   1      33.321  30.402  24.329  1.00  0.00     0.163 HD
BRANCH   4   6
ATOM      6  C   UNL A   1      32.208  27.282  24.699  1.00  0.00     0.026 C 
ATOM      7  C   UNL A   1      31.282  26.752  23.871  1.00  0.00     0.026 C 
ATOM      8  C   UNL A   1      32.496  26.718  26.076  1.00  0.00     0.042 C 
ATOM      9  C   UNL A   1      30.293  25.715  24.379  1.00  0.00     0.042 C 
ATOM     10  C   UNL A   1      31.717  25.448  26.412  1.00  0.00     0.005 C 
ATOM     11  C   UNL A   1      30.292  25.555  25.901  1.00  0.00     0.005 C 
BRANCH   7  12
ATOM     12  C   UNL A   1      31.007  27.151  22.454  1.00  0.00     0.247 C 
ATOM     13  O   UNL A   1      30.027  27.857  22.209  1.00  0.00    -0.270 OA
ATOM     14  N   UNL A   1      31.751  26.705  21.410  1.00  0.00    -0.352 N 
ATOM     15  H   UNL A   1      31.382  26.931  20.525  1.00  0.00     0.163 HD
BRANCH  14  16
ATOM     16  C   UNL A   1      32.993  25.955  21.367  1.00  0.00     0.120 C 
BRANCH  16  17
ATOM     17  C   UNL A   1      32.822  24.449  21.590  1.00  0.00     0.052 C 
BRANCH  17  18
ATOM     18  C   UNL A   1      33.240  23.913  22.951  1.00  0.00    -0.072 C 
ATOM     19  C   UNL A   1      34.272  24.469  23.614  1.00  0.00    -0.028 C 
ATOM     20  C   UNL A   1      32.520  22.696  23.494  1.00  0.00     0.031 C 
ATOM     21  C   UNL A   1      34.841  23.927  24.893  1.00  0.00     0.027 C 
ATOM     22  C   UNL A   1      32.874  22.368  24.950  1.00  0.00     0.005 C 
ATOM     23  C   UNL A   1      34.370  22.507  25.201  1.00  0.00     0.004 C 
ENDBRANCH  17  18
ENDBRANCH  16  17
ENDBRANCH  14  16
ENDBRANCH   7  12
ENDBRANCH   4   6
ENDBRANCH   1   2
BRANCH   1  24
ATOM     24  C   UNL A   1      31.500  30.541  26.587  1.00  0.00     0.023 C 
BRANCH  24  25
ATOM     25  C   UNL A   1      31.393  32.039  26.906  1.00  0.00     0.023 C 
BRANCH  25  26
ATOM     26  C   UNL A   1      32.723  32.784  27.022  1.00  0.00     0.116 C 
BRANCH  26  27
ATOM     27  N   UNL A   1      32.582  34.064  27.700  1.00  0.00    -0.352 N 
ATOM     28  C   UNL A   1      33.228  34.572  28.795  1.00  0.00     0.251 C 
ATOM     29  H   UNL A   1      31.908  34.665  27.304  1.00  0.00     0.163 HD
ATOM     30  O   UNL A   1      32.781  35.587  29.343  1.00  0.00    -0.269 OA
BRANCH  28  31
ATOM     31  C   UNL A   1      34.441  33.934  29.351  1.00  0.00     0.039 A 
ATOM     32  C   UNL A   1      34.290  32.947  30.331  1.00  0.00     0.014 A 
ATOM     33  C   UNL A   1      35.724  34.344  28.978  1.00  0.00     0.014 A 
ATOM     34  C   UNL A   1      35.416  32.331  30.886  1.00  0.00     0.010 A 
ATOM     35  C   UNL A   1      36.848  33.685  29.484  1.00  0.00     0.010 A 
ATOM     36  C   UNL A   1      36.705  32.671  30.444  1.00  0.00    -0.014 A 
BRANCH  36  37
ATOM     37  C   UNL A   1      37.897  31.950  30.961  1.00  0.00     0.031 A 
ATOM     38  C   UNL A   1      38.480  32.275  32.309  1.00  0.00     0.074 A 
ATOM     39  C   UNL A   1      38.486  31.014  30.191  1.00  0.00     0.049 A 
ATOM     40  N   UNL A   1      39.508  31.732  32.916  1.00  0.00    -0.248 NA
ATOM     41  C   UNL A   1      37.843  33.363  33.065  1.00  0.00     0.031 C 
ATOM     42  C   UNL A   1      38.051  30.629  28.846  1.00  0.00     0.029 A 
ATOM     43  N   UNL A   1      39.575  30.213  30.432  1.00  0.00    -0.354 N 
ATOM     44  C   UNL A   1      39.646  32.418  34.115  1.00  0.00     0.074 A 
ATOM     45  C   UNL A   1      38.625  33.445  34.132  1.00  0.00     0.031 C 
ATOM     46  C   UNL A   1      38.841  29.641  28.397  1.00  0.00     0.029 A 
ATOM     47  C   UNL A   1      39.855  29.346  29.404  1.00  0.00     0.049 A 
ATOM     48  H   UNL A   1      40.104  30.257  31.260  1.00  0.00     0.167 HD
ATOM     49  C   UNL A   1      40.532  32.206  35.119  1.00  0.00     0.031 A 
ATOM     50  C   UNL A   1      40.816  28.411  29.284  1.00  0.00     0.031 A 
ATOM     51  C   UNL A   1      41.544  31.183  35.114  1.00  0.00     0.049 A 
ATOM     52  C   UNL A   1      41.785  28.196  30.409  1.00  0.00     0.074 A 
ATOM     53  C   UNL A   1      42.440  30.849  36.116  1.00  0.00     0.029 A 
ATOM     54  N   UNL A   1      41.802  30.333  34.049  1.00  0.00    -0.354 N 
ATOM     55  N   UNL A   1      41.853  28.803  31.569  1.00  0.00    -0.248 NA
ATOM     56  C   UNL A   1      42.807  27.157  30.210  1.00  0.00     0.031 C 
ATOM     57  C   UNL A   1      43.271  29.828  35.639  1.00  0.00     0.029 A 
ATOM     58  C   UNL A   1      42.861  29.495  34.359  1.00  0.00     0.049 A 
ATOM     59  H   UNL A   1      41.305  30.325  33.199  1.00  0.00     0.167 HD
ATOM     60  C   UNL A   1      42.911  28.209  32.244  1.00  0.00     0.074 A 
ATOM     61  C   UNL A   1      43.443  27.181  31.373  1.00  0.00     0.031 C 
ATOM     62  C   UNL A   1      43.395  28.489  33.478  1.00  0.00     0.031 A 
BRANCH  49  63
ATOM     63  C   UNL A   1      40.447  33.115  36.315  1.00  0.00    -0.014 A 
ATOM     64  C   UNL A   1      39.593  32.826  37.390  1.00  0.00     0.009 A 
ATOM     65  C   UNL A   1      41.255  34.262  36.377  1.00  0.00     0.009 A 
ATOM     66  C   UNL A   1      39.519  33.688  38.486  1.00  0.00     0.001 A 
ATOM     67  C   UNL A   1      41.198  35.108  37.487  1.00  0.00     0.001 A 
ATOM     68  C   UNL A   1      40.323  34.826  38.536  1.00  0.00     0.000 A 
ENDBRANCH  49  63
BRANCH  50  69
ATOM     69  C   UNL A   1      40.884  27.578  28.056  1.00  0.00    -0.014 A 
ATOM     70  C   UNL A   1      41.635  28.007  26.952  1.00  0.00     0.009 A 
ATOM     71  C   UNL A   1      40.208  26.351  27.987  1.00  0.00     0.009 A 
ATOM     72  C   UNL A   1      41.696  27.230  25.795  1.00  0.00     0.001 A 
ATOM     73  C   UNL A   1      40.291  25.564  26.836  1.00  0.00     0.001 A 
ATOM     74  C   UNL A   1      41.029  26.007  25.740  1.00  0.00     0.000 A 
ENDBRANCH  50  69
BRANCH  62  75
ATOM     75  C   UNL A   1      44.552  27.660  33.960  1.00  0.00    -0.014 A 
ATOM     76  C   UNL A   1      44.345  26.469  34.672  1.00  0.00     0.009 A 
ATOM     77  C   UNL A   1      45.866  28.069  33.683  1.00  0.00     0.009 A 
ATOM     78  C   UNL A   1      45.431  25.722  35.129  1.00  0.00     0.001 A 
ATOM     79  C   UNL A   1      46.951  27.305  34.118  1.00  0.00     0.001 A 
ATOM     80  C   UNL A   1      46.733  26.138  34.850  1.00  0.00     0.000 A 
ENDBRANCH  62  75
ENDBRANCH  36  37
ENDBRANCH  28  31
ENDBRANCH  26  27
ENDBRANCH  25  26
ENDBRANCH  24  25
ENDBRANCH   1  24
TORSDOF 15
ENDMDL
MODEL 3
REMARK VINA RESULT:     -10.7      2.155      7.372
REMARK SMILES O=C(NCCCCNC(=O)c1ccc(-c2c3nc(c(-c4ccccc4)c4ccc([nH]4)c(-c4ccccc4)c4nc(c(-c5ccccc5)c5ccc2[nH]5)C=C4)C=C3)cc1)C1=C(C(=O)NCCC2=CCCCC2)CCCC1
REMARK SMILES IDX 4 1 3 2 1 3 2 4 59 6 60 7 75 8 72 9 74 10 73 11 61 12 62 13
REMARK SMILES IDX 63 14 64 16 65 17 66 18 67 19 71 20 68 21 70 22 69 23 5 24
REMARK SMILES IDX 6 25 7 26 8 27 9 28 10 30 11 31 12 32 58 33 13 34 57 35
REMARK SMILES IDX 14 36 15 37 16 38 51 39 17 40 56 41 50 42 52 43 18 44 55 45
REMARK SMILES IDX 49 46 48 47 19 49 41 50 26 51 40 52 27 53 30 54 39 55 53 56
REMARK SMILES IDX 28 57 29 58 38 60 54 61 31 62 20 63 21 64 25 65 22 66 24 67
REMARK SMILES IDX 23 68 42 69 43 70 47 71 44 72 46 73 45 74 32 75 33 76 37 77
REMARK SMILES IDX 34 78 36 79 35 80
REMARK H PARENT 3 5 63 15 8 29 52 48 30 59
REMARK Flexibility Score: inf
ROOT
ATOM      1  C   UNL A   1      32.795  26.171  26.439  1.00  0.00     0.116 C 
ENDROOT
BRANCH   1   2
ATOM      2  N   UNL A   1      31.397  26.186  26.050  1.00  0.00    -0.352 N 
ATOM      3  O   UNL A   1      29.551  25.634  24.915  1.00  0.00    -0.270 OA
ATOM      4  C   UNL A   1      30.737  25.409  25.152  1.00  0.00     0.247 C 
ATOM      5  H   UNL A   1      30.843  26.861  26.505  1.00  0.00     0.163 HD
BRANCH   4   6
ATOM      6  C   UNL A   1      31.454  24.344  24.408  1.00  0.00     0.026 C 
ATOM      7  C   UNL A   1      31.638  23.077  24.838  1.00  0.00     0.026 C 
ATOM      8  C   UNL A   1      31.925  24.826  23.051  1.00  0.00     0.042 C 
ATOM      9  C   UNL A   1      32.561  22.131  24.086  1.00  0.00     0.042 C 
ATOM     10  C   UNL A   1      32.545  23.739  22.175  1.00  0.00     0.005 C 
ATOM     11  C   UNL A   1      33.412  22.819  23.015  1.00  0.00     0.005 C 
BRANCH   7  12
ATOM     12  C   UNL A   1      31.107  22.466  26.098  1.00  0.00     0.247 C 
ATOM     13  O   UNL A   1      29.957  22.024  26.113  1.00  0.00    -0.270 OA
ATOM     14  N   UNL A   1      31.815  22.444  27.256  1.00  0.00    -0.352 N 
ATOM     15  H   UNL A   1      31.301  22.139  28.039  1.00  0.00     0.163 HD
BRANCH  14  16
ATOM     16  C   UNL A   1      33.195  22.789  27.544  1.00  0.00     0.120 C 
BRANCH  16  17
ATOM     17  C   UNL A   1      34.199  21.679  27.217  1.00  0.00     0.052 C 
BRANCH  17  18
ATOM     18  C   UNL A   1      35.309  22.035  26.240  1.00  0.00    -0.072 C 
ATOM     19  C   UNL A   1      35.693  23.316  26.082  1.00  0.00    -0.028 C 
ATOM     20  C   UNL A   1      35.907  20.925  25.399  1.00  0.00     0.031 C 
ATOM     21  C   UNL A   1      36.681  23.779  25.050  1.00  0.00     0.027 C 
ATOM     22  C   UNL A   1      37.148  21.352  24.607  1.00  0.00     0.005 C 
ATOM     23  C   UNL A   1      36.960  22.727  23.978  1.00  0.00     0.004 C 
ENDBRANCH  17  18
ENDBRANCH  16  17
ENDBRANCH  14  16
ENDBRANCH   7  12
ENDBRANCH   4   6
ENDBRANCH   1   2
BRANCH   1  24
ATOM     24  C   UNL A   1      33.664  27.013  25.505  1.00  0.00     0.023 C 
BRANCH  24  25
ATOM     25  C   UNL A   1      34.032  28.403  26.042  1.00  0.00     0.023 C 
BRANCH  25  26
ATOM     26  C   UNL A   1      33.585  28.695  27.475  1.00  0.00     0.116 C 
BRANCH  26  27
ATOM     27  N   UNL A   1      33.660  30.111  27.798  1.00  0.00    -0.352 N 
ATOM     28  C   UNL A   1      34.654  30.842  28.391  1.00  0.00     0.251 C 
ATOM     29  H   UNL A   1      32.861  30.631  27.548  1.00  0.00     0.163 HD
ATOM     30  O   UNL A   1      34.409  31.989  28.784  1.00  0.00    -0.269 OA
BRANCH  28  31
ATOM     31  C   UNL A   1      36.014  30.294  28.587  1.00  0.00     0.039 A 
ATOM     32  C   UNL A   1      36.910  30.321  27.513  1.00  0.00     0.014 A 
ATOM     33  C   UNL A   1      36.395  29.687  29.787  1.00  0.00     0.014 A 
ATOM     34  C   UNL A   1      38.199  29.801  27.661  1.00  0.00     0.010 A 
ATOM     35  C   UNL A   1      37.703  29.225  29.957  1.00  0.00     0.010 A 
ATOM     36  C   UNL A   1      38.619  29.278  28.894  1.00  0.00    -0.014 A 
BRANCH  36  37
ATOM     37  C   UNL A   1      40.019  28.815  29.083  1.00  0.00     0.031 A 
ATOM     38  C   UNL A   1      40.442  27.429  28.678  1.00  0.00     0.074 A 
ATOM     39  C   UNL A   1      40.913  29.640  29.660  1.00  0.00     0.049 A 
ATOM     40  N   UNL A   1      41.625  26.871  28.760  1.00  0.00    -0.248 NA
ATOM     41  C   UNL A   1      39.399  26.548  28.130  1.00  0.00     0.031 C 
ATOM     42  C   UNL A   1      40.629  30.995  30.140  1.00  0.00     0.029 A 
ATOM     43  N   UNL A   1      42.246  29.462  29.938  1.00  0.00    -0.354 N 
ATOM     44  C   UNL A   1      41.467  25.575  28.287  1.00  0.00     0.074 A 
ATOM     45  C   UNL A   1      40.066  25.416  27.960  1.00  0.00     0.031 C 
ATOM     46  C   UNL A   1      41.760  31.537  30.618  1.00  0.00     0.029 A 
ATOM     47  C   UNL A   1      42.839  30.561  30.509  1.00  0.00     0.049 A 
ATOM     48  H   UNL A   1      42.730  28.626  29.747  1.00  0.00     0.167 HD
ATOM     49  C   UNL A   1      42.404  24.609  28.124  1.00  0.00     0.031 A 
ATOM     50  C   UNL A   1      44.112  30.768  30.897  1.00  0.00     0.031 A 
ATOM     51  C   UNL A   1      43.800  24.762  28.440  1.00  0.00     0.049 A 
ATOM     52  C   UNL A   1      45.130  29.682  30.708  1.00  0.00     0.074 A 
ATOM     53  C   UNL A   1      44.834  23.862  28.243  1.00  0.00     0.029 A 
ATOM     54  N   UNL A   1      44.358  25.888  29.026  1.00  0.00    -0.354 N 
ATOM     55  N   UNL A   1      44.979  28.488  30.188  1.00  0.00    -0.248 NA
ATOM     56  C   UNL A   1      46.500  29.978  31.153  1.00  0.00     0.031 C 
ATOM     57  C   UNL A   1      46.009  24.425  28.754  1.00  0.00     0.029 A 
ATOM     58  C   UNL A   1      45.715  25.693  29.224  1.00  0.00     0.049 A 
ATOM     59  H   UNL A   1      43.863  26.705  29.265  1.00  0.00     0.167 HD
ATOM     60  C   UNL A   1      46.234  27.898  30.226  1.00  0.00     0.074 A 
ATOM     61  C   UNL A   1      47.140  28.871  30.802  1.00  0.00     0.031 C 
ATOM     62  C   UNL A   1      46.604  26.660  29.816  1.00  0.00     0.031 A 
BRANCH  49  63
ATOM     63  C   UNL A   1      41.939  23.284  27.585  1.00  0.00    -0.014 A 
ATOM     64  C   UNL A   1      41.481  22.271  28.442  1.00  0.00     0.009 A 
ATOM     65  C   UNL A   1      41.933  23.057  26.200  1.00  0.00     0.009 A 
ATOM     66  C   UNL A   1      41.064  21.042  27.925  1.00  0.00     0.001 A 
ATOM     67  C   UNL A   1      41.491  21.838  25.684  1.00  0.00     0.001 A 
ATOM     68  C   UNL A   1      41.066  20.827  26.547  1.00  0.00     0.000 A 
ENDBRANCH  49  63
BRANCH  50  69
ATOM     69  C   UNL A   1      44.501  32.079  31.474  1.00  0.00    -0.014 A 
ATOM     70  C   UNL A   1      44.431  32.292  32.859  1.00  0.00     0.009 A 
ATOM     71  C   UNL A   1      44.954  33.118  30.647  1.00  0.00     0.009 A 
ATOM     72  C   UNL A   1      44.791  33.525  33.403  1.00  0.00     0.001 A 
ATOM     73  C   UNL A   1      45.336  34.343  31.197  1.00  0.00     0.001 A 
ATOM     74  C   UNL A   1      45.249  34.547  32.573  1.00  0.00     0.000 A 
ENDBRANCH  50  69
BRANCH  62  75
ATOM     75  C   UNL A   1      48.054  26.298  29.968  1.00  0.00    -0.014 A 
ATOM     76  C   UNL A   1      48.543  25.748  31.163  1.00  0.00     0.009 A 
ATOM     77  C   UNL A   1      48.938  26.493  28.896  1.00  0.00     0.009 A 
ATOM     78  C   UNL A   1      49.897  25.435  31.294  1.00  0.00     0.001 A 
ATOM     79  C   UNL A   1      50.287  26.154  29.020  1.00  0.00     0.001 A 
ATOM     80  C   UNL A   1      50.767  25.635  30.222  1.00  0.00     0.000 A 
ENDBRANCH  62  75
ENDBRANCH  36  37
ENDBRANCH  28  31
ENDBRANCH  26  27
ENDBRANCH  25  26
ENDBRANCH  24  25
ENDBRANCH   1  24
TORSDOF 15
ENDMDL
