MODEL 1
REMARK VINA RESULT:      -9.4      0.000      0.000
REMARK SMILES CC1CC[NH+]([C@H](c2ccc(F)cc2)c2ccc([C@@H](C)C(=O)NCCCCNC(=O)c3ccc(-c4c5nc(c(-c6ccccc6)c6ccc([nH]6)c(-c6ccccc6)c6nc(c(-c7ccccc7)c7ccc4[nH]7)C=C6)C=C5)cc3)cc2-c2ccc(C(F)(F)F)cc2)CC1
REMARK SMILES IDX 24 1 23 2 22 3 20 4 21 5 18 7 19 8 17 9 14 10 15 11 79 12
REMARK SMILES IDX 16 13 78 14 6 15 5 16 1 17 2 18 3 19 91 20 4 21 90 22 7 24
REMARK SMILES IDX 8 25 13 26 9 27 12 28 10 29 11 30 80 31 81 32 89 33 82 34
REMARK SMILES IDX 88 35 83 36 84 37 85 38 86 39 87 40 25 41 26 42 27 43 28 44
REMARK SMILES IDX 29 46 30 47 31 48 77 49 32 50 76 51 33 52 34 53 35 54 70 55
REMARK SMILES IDX 36 56 75 57 69 58 71 59 37 60 74 61 68 62 67 63 38 65 60 66
REMARK SMILES IDX 45 67 59 68 46 69 49 70 58 71 72 72 47 73 48 74 57 76 73 77
REMARK SMILES IDX 50 78 39 79 40 80 44 81 41 82 43 83 42 84 61 85 62 86 66 87
REMARK SMILES IDX 63 88 65 89 64 90 51 91 52 92 56 93 53 94 55 95 54 96
REMARK H PARENT 22 6 5 23 27 45 71 64 49 75
REMARK Flexibility Score: inf
ROOT
ATOM      1  C   UNL A   1      47.081  37.497  27.332  1.00  0.00     0.023 C 
ENDROOT
BRANCH   1   2
ATOM      2  C   UNL A   1      45.666  37.176  26.838  1.00  0.00     0.116 C 
BRANCH   2   3
ATOM      3  N   UNL A   1      44.647  37.798  27.659  1.00  0.00    -0.356 N 
ATOM      4  C   UNL A   1      43.502  37.326  28.229  1.00  0.00     0.227 C 
ATOM      5  O   UNL A   1      42.818  38.166  28.832  1.00  0.00    -0.274 OA
ATOM      6  H   UNL A   1      44.814  38.752  27.841  1.00  0.00     0.163 HD
BRANCH   4   7
ATOM      7  C   UNL A   1      43.032  35.858  28.179  1.00  0.00     0.105 C 
ATOM      8  C   UNL A   1      42.295  35.485  26.894  1.00  0.00     0.023 C 
BRANCH   7   9
ATOM      9  C   UNL A   1      42.372  35.396  29.465  1.00  0.00    -0.035 A 
ATOM     10  C   UNL A   1      41.293  34.095  31.783  1.00  0.00     0.022 A 
ATOM     11  C   UNL A   1      42.545  34.730  31.779  1.00  0.00     0.011 A 
ATOM     12  C   UNL A   1      40.487  34.297  30.627  1.00  0.00    -0.009 A 
ATOM     13  C   UNL A   1      43.027  35.442  30.682  1.00  0.00     0.005 A 
ATOM     14  C   UNL A   1      41.077  34.862  29.466  1.00  0.00     0.013 A 
BRANCH  10  15
ATOM     15  C   UNL A   1      40.809  33.284  33.023  1.00  0.00     0.247 C 
BRANCH  15  16
ATOM     16  N   UNL A   1      40.945  33.917  34.379  1.00  0.00    -0.325 N 
ATOM     17  C   UNL A   1      39.628  36.123  37.954  1.00  0.00     0.008 C 
ATOM     18  C   UNL A   1      39.761  35.407  36.613  1.00  0.00    -0.003 C 
ATOM     19  C   UNL A   1      40.083  33.923  36.790  1.00  0.00     0.065 C 
ATOM     20  C   UNL A   1      40.880  36.013  35.780  1.00  0.00     0.065 C 
ATOM     21  C   UNL A   1      40.263  33.186  35.453  1.00  0.00     0.263 C 
ATOM     22  C   UNL A   1      40.903  35.378  34.393  1.00  0.00     0.263 C 
ATOM     23  H   UNL A   1      41.918  33.780  34.648  1.00  0.00     0.348 HD
ENDBRANCH  15  16
BRANCH  15  24
ATOM     24  C   UNL A   1      41.354  31.839  33.070  1.00  0.00     0.014 A 
ATOM     25  C   UNL A   1      40.504  30.717  32.991  1.00  0.00     0.013 A 
ATOM     26  C   UNL A   1      42.739  31.620  33.197  1.00  0.00     0.013 A 
ATOM     27  C   UNL A   1      41.023  29.422  33.030  1.00  0.00     0.040 A 
ATOM     28  C   UNL A   1      43.253  30.324  33.266  1.00  0.00     0.040 A 
ATOM     29  C   UNL A   1      42.392  29.239  33.176  1.00  0.00     0.123 A 
ATOM     30  F   UNL A   1      42.888  27.995  33.229  1.00  0.00    -0.207 F 
ENDBRANCH  15  24
ENDBRANCH  10  15
BRANCH  12  31
ATOM     31  C   UNL A   1      39.036  34.026  30.584  1.00  0.00    -0.018 A 
ATOM     32  C   UNL A   1      38.225  34.149  31.722  1.00  0.00     0.009 A 
ATOM     33  C   UNL A   1      38.441  33.569  29.396  1.00  0.00     0.009 A 
ATOM     34  C   UNL A   1      36.858  33.855  31.665  1.00  0.00     0.014 A 
ATOM     35  C   UNL A   1      37.075  33.282  29.333  1.00  0.00     0.014 A 
ATOM     36  C   UNL A   1      36.268  33.429  30.467  1.00  0.00     0.056 A 
BRANCH  36  37
ATOM     37  C   UNL A   1      34.794  33.109  30.415  1.00  0.00     0.416 C 
ATOM     38  F   UNL A   1      34.401  32.304  31.441  1.00  0.00    -0.166 F 
ATOM     39  F   UNL A   1      34.008  34.219  30.489  1.00  0.00    -0.166 F 
ATOM     40  F   UNL A   1      34.419  32.466  29.273  1.00  0.00    -0.166 F 
ENDBRANCH  36  37
ENDBRANCH  12  31
ENDBRANCH   7   9
ENDBRANCH   4   7
ENDBRANCH   2   3
ENDBRANCH   1   2
BRANCH   1  41
ATOM     41  C   UNL A   1      48.135  36.425  27.078  1.00  0.00     0.023 C 
BRANCH  41  42
ATOM     42  C   UNL A   1      48.361  35.454  28.228  1.00  0.00     0.116 C 
BRANCH  42  43
ATOM     43  N   UNL A   1      48.085  36.008  29.545  1.00  0.00    -0.352 N 
ATOM     44  C   UNL A   1      47.198  35.549  30.494  1.00  0.00     0.251 C 
ATOM     45  H   UNL A   1      48.597  36.813  29.788  1.00  0.00     0.163 HD
ATOM     46  O   UNL A   1      47.028  36.169  31.535  1.00  0.00    -0.269 OA
BRANCH  44  47
ATOM     47  C   UNL A   1      46.410  34.328  30.215  1.00  0.00     0.039 A 
ATOM     48  C   UNL A   1      45.956  34.107  28.914  1.00  0.00     0.014 A 
ATOM     49  C   UNL A   1      46.181  33.377  31.213  1.00  0.00     0.014 A 
ATOM     50  C   UNL A   1      45.350  32.890  28.594  1.00  0.00     0.010 A 
ATOM     51  C   UNL A   1      45.653  32.136  30.875  1.00  0.00     0.010 A 
ATOM     52  C   UNL A   1      45.238  31.877  29.561  1.00  0.00    -0.014 A 
BRANCH  52  53
ATOM     53  C   UNL A   1      44.717  30.534  29.205  1.00  0.00     0.031 A 
ATOM     54  C   UNL A   1      45.653  29.451  28.744  1.00  0.00     0.074 A 
ATOM     55  C   UNL A   1      43.387  30.309  29.234  1.00  0.00     0.049 A 
ATOM     56  N   UNL A   1      45.376  28.228  28.369  1.00  0.00    -0.248 NA
ATOM     57  C   UNL A   1      47.083  29.792  28.666  1.00  0.00     0.031 C 
ATOM     58  C   UNL A   1      42.366  31.295  29.601  1.00  0.00     0.029 A 
ATOM     59  N   UNL A   1      42.665  29.178  28.947  1.00  0.00    -0.354 N 
ATOM     60  C   UNL A   1      46.588  27.663  27.994  1.00  0.00     0.074 A 
ATOM     61  C   UNL A   1      47.598  28.688  28.142  1.00  0.00     0.031 C 
ATOM     62  C   UNL A   1      41.155  30.715  29.550  1.00  0.00     0.029 A 
ATOM     63  C   UNL A   1      41.309  29.332  29.115  1.00  0.00     0.049 A 
ATOM     64  H   UNL A   1      43.078  28.337  28.648  1.00  0.00     0.167 HD
ATOM     65  C   UNL A   1      46.843  26.398  27.585  1.00  0.00     0.031 A 
ATOM     66  C   UNL A   1      40.303  28.455  28.941  1.00  0.00     0.031 A 
ATOM     67  C   UNL A   1      45.847  25.369  27.465  1.00  0.00     0.049 A 
ATOM     68  C   UNL A   1      40.621  27.051  28.504  1.00  0.00     0.074 A 
ATOM     69  C   UNL A   1      46.022  24.035  27.139  1.00  0.00     0.029 A 
ATOM     70  N   UNL A   1      44.489  25.558  27.667  1.00  0.00    -0.354 N 
ATOM     71  N   UNL A   1      41.786  26.509  28.249  1.00  0.00    -0.248 NA
ATOM     72  C   UNL A   1      39.480  26.137  28.343  1.00  0.00     0.031 C 
ATOM     73  C   UNL A   1      44.763  23.428  27.097  1.00  0.00     0.029 A 
ATOM     74  C   UNL A   1      43.811  24.371  27.446  1.00  0.00     0.049 A 
ATOM     75  H   UNL A   1      44.070  26.409  27.928  1.00  0.00     0.167 HD
ATOM     76  C   UNL A   1      41.522  25.184  27.925  1.00  0.00     0.074 A 
ATOM     77  C   UNL A   1      40.090  25.001  28.038  1.00  0.00     0.031 C 
ATOM     78  C   UNL A   1      42.387  24.207  27.565  1.00  0.00     0.031 A 
BRANCH  65  79
ATOM     79  C   UNL A   1      48.263  26.050  27.238  1.00  0.00    -0.014 A 
ATOM     80  C   UNL A   1      48.806  26.379  25.987  1.00  0.00     0.009 A 
ATOM     81  C   UNL A   1      49.086  25.441  28.198  1.00  0.00     0.009 A 
ATOM     82  C   UNL A   1      50.139  26.083  25.695  1.00  0.00     0.001 A 
ATOM     83  C   UNL A   1      50.425  25.169  27.912  1.00  0.00     0.001 A 
ATOM     84  C   UNL A   1      50.949  25.485  26.660  1.00  0.00     0.000 A 
ENDBRANCH  65  79
BRANCH  66  85
ATOM     85  C   UNL A   1      38.896  28.860  29.195  1.00  0.00    -0.014 A 
ATOM     86  C   UNL A   1      38.088  29.321  28.143  1.00  0.00     0.009 A 
ATOM     87  C   UNL A   1      38.364  28.827  30.493  1.00  0.00     0.009 A 
ATOM     88  C   UNL A   1      36.791  29.775  28.393  1.00  0.00     0.001 A 
ATOM     89  C   UNL A   1      37.056  29.253  30.734  1.00  0.00     0.001 A 
ATOM     90  C   UNL A   1      36.275  29.739  29.687  1.00  0.00     0.000 A 
ENDBRANCH  66  85
BRANCH  78  91
ATOM     91  C   UNL A   1      41.809  22.847  27.295  1.00  0.00    -0.014 A 
ATOM     92  C   UNL A   1      41.217  22.541  26.060  1.00  0.00     0.009 A 
ATOM     93  C   UNL A   1      41.882  21.852  28.282  1.00  0.00     0.009 A 
ATOM     94  C   UNL A   1      40.674  21.275  25.833  1.00  0.00     0.001 A 
ATOM     95  C   UNL A   1      41.365  20.579  28.042  1.00  0.00     0.001 A 
ATOM     96  C   UNL A   1      40.752  20.294  26.822  1.00  0.00     0.000 A 
ENDBRANCH  78  91
ENDBRANCH  52  53
ENDBRANCH  44  47
ENDBRANCH  42  43
ENDBRANCH  41  42
ENDBRANCH   1  41
TORSDOF 17
ENDMDL
MODEL 2
REMARK VINA RESULT:      -9.1      3.611      9.555
REMARK SMILES CC1CC[NH+]([C@H](c2ccc(F)cc2)c2ccc([C@@H](C)C(=O)NCCCCNC(=O)c3ccc(-c4c5nc(c(-c6ccccc6)c6ccc([nH]6)c(-c6ccccc6)c6nc(c(-c7ccccc7)c7ccc4[nH]7)C=C6)C=C5)cc3)cc2-c2ccc(C(F)(F)F)cc2)CC1
REMARK SMILES IDX 24 1 23 2 22 3 20 4 21 5 18 7 19 8 17 9 14 10 15 11 79 12
REMARK SMILES IDX 16 13 78 14 6 15 5 16 1 17 2 18 3 19 91 20 4 21 90 22 7 24
REMARK SMILES IDX 8 25 13 26 9 27 12 28 10 29 11 30 80 31 81 32 89 33 82 34
REMARK SMILES IDX 88 35 83 36 84 37 85 38 86 39 87 40 25 41 26 42 27 43 28 44
REMARK SMILES IDX 29 46 30 47 31 48 77 49 32 50 76 51 33 52 34 53 35 54 70 55
REMARK SMILES IDX 36 56 75 57 69 58 71 59 37 60 74 61 68 62 67 63 38 65 60 66
REMARK SMILES IDX 45 67 59 68 46 69 49 70 58 71 72 72 47 73 48 74 57 76 73 77
REMARK SMILES IDX 50 78 39 79 40 80 44 81 41 82 43 83 42 84 61 85 62 86 66 87
REMARK SMILES IDX 63 88 65 89 64 90 51 91 52 92 56 93 53 94 55 95 54 96
REMARK H PARENT 22 6 5 23 27 45 71 64 49 75
REMARK Flexibility Score: inf
ROOT
ATOM      1  C   UNL A   1      44.154  23.533  25.976  1.00  0.00     0.023 C 
ENDROOT
BRANCH   1   2
ATOM      2  C   UNL A   1      44.017  24.999  26.403  1.00  0.00     0.116 C 
BRANCH   2   3
ATOM      3  N   UNL A   1      44.699  25.899  25.495  1.00  0.00    -0.356 N 
ATOM      4  C   UNL A   1      44.729  27.258  25.388  1.00  0.00     0.227 C 
ATOM      5  O   UNL A   1      45.385  27.705  24.436  1.00  0.00    -0.274 OA
ATOM      6  H   UNL A   1      45.251  25.438  24.822  1.00  0.00     0.163 HD
BRANCH   4   7
ATOM      7  C   UNL A   1      44.028  28.235  26.353  1.00  0.00     0.105 C 
ATOM      8  C   UNL A   1      42.627  28.651  25.908  1.00  0.00     0.023 C 
BRANCH   7   9
ATOM      9  C   UNL A   1      44.926  29.367  26.817  1.00  0.00    -0.035 A 
ATOM     10  C   UNL A   1      46.502  31.372  28.129  1.00  0.00     0.022 A 
ATOM     11  C   UNL A   1      47.020  30.123  27.750  1.00  0.00     0.011 A 
ATOM     12  C   UNL A   1      45.196  31.677  27.653  1.00  0.00    -0.009 A 
ATOM     13  C   UNL A   1      46.281  29.187  27.030  1.00  0.00     0.005 A 
ATOM     14  C   UNL A   1      44.409  30.640  27.089  1.00  0.00     0.013 A 
BRANCH  10  15
ATOM     15  C   UNL A   1      47.358  32.374  28.962  1.00  0.00     0.247 C 
BRANCH  15  16
ATOM     16  N   UNL A   1      48.033  33.503  28.236  1.00  0.00    -0.325 N 
ATOM     17  C   UNL A   1      48.361  36.861  25.407  1.00  0.00     0.008 C 
ATOM     18  C   UNL A   1      47.924  35.684  26.276  1.00  0.00    -0.003 C 
ATOM     19  C   UNL A   1      47.997  36.019  27.766  1.00  0.00     0.065 C 
ATOM     20  C   UNL A   1      48.815  34.475  26.043  1.00  0.00     0.065 C 
ATOM     21  C   UNL A   1      47.601  34.837  28.665  1.00  0.00     0.263 C 
ATOM     22  C   UNL A   1      48.276  33.272  26.813  1.00  0.00     0.263 C 
ATOM     23  H   UNL A   1      48.997  33.503  28.567  1.00  0.00     0.348 HD
ENDBRANCH  15  16
BRANCH  15  24
ATOM     24  C   UNL A   1      48.370  31.690  29.908  1.00  0.00     0.014 A 
ATOM     25  C   UNL A   1      49.555  31.096  29.430  1.00  0.00     0.013 A 
ATOM     26  C   UNL A   1      48.113  31.650  31.292  1.00  0.00     0.013 A 
ATOM     27  C   UNL A   1      50.456  30.489  30.308  1.00  0.00     0.040 A 
ATOM     28  C   UNL A   1      49.000  31.016  32.164  1.00  0.00     0.040 A 
ATOM     29  C   UNL A   1      50.164  30.448  31.665  1.00  0.00     0.123 A 
ATOM     30  F   UNL A   1      51.021  29.852  32.506  1.00  0.00    -0.207 F 
ENDBRANCH  15  24
ENDBRANCH  10  15
BRANCH  12  31
ATOM     31  C   UNL A   1      44.631  33.041  27.634  1.00  0.00    -0.018 A 
ATOM     32  C   UNL A   1      43.954  33.580  28.738  1.00  0.00     0.009 A 
ATOM     33  C   UNL A   1      44.706  33.817  26.463  1.00  0.00     0.009 A 
ATOM     34  C   UNL A   1      43.398  34.863  28.684  1.00  0.00     0.014 A 
ATOM     35  C   UNL A   1      44.159  35.101  26.408  1.00  0.00     0.014 A 
ATOM     36  C   UNL A   1      43.505  35.640  27.522  1.00  0.00     0.056 A 
BRANCH  36  37
ATOM     37  C   UNL A   1      42.898  37.021  27.471  1.00  0.00     0.416 C 
ATOM     38  F   UNL A   1      41.635  37.014  26.962  1.00  0.00    -0.166 F 
ATOM     39  F   UNL A   1      42.804  37.603  28.699  1.00  0.00    -0.166 F 
ATOM     40  F   UNL A   1      43.605  37.895  26.700  1.00  0.00    -0.166 F 
ENDBRANCH  36  37
ENDBRANCH  12  31
ENDBRANCH   7   9
ENDBRANCH   4   7
ENDBRANCH   2   3
ENDBRANCH   1   2
BRANCH   1  41
ATOM     41  C   UNL A   1      42.882  22.866  25.465  1.00  0.00     0.023 C 
BRANCH  41  42
ATOM     42  C   UNL A   1      41.956  22.324  26.545  1.00  0.00     0.116 C 
BRANCH  42  43
ATOM     43  N   UNL A   1      40.613  22.010  26.082  1.00  0.00    -0.352 N 
ATOM     44  C   UNL A   1      39.480  22.790  26.161  1.00  0.00     0.251 C 
ATOM     45  H   UNL A   1      40.500  21.128  25.660  1.00  0.00     0.163 HD
ATOM     46  O   UNL A   1      38.400  22.355  25.785  1.00  0.00    -0.269 OA
BRANCH  44  47
ATOM     47  C   UNL A   1      39.573  24.140  26.759  1.00  0.00     0.039 A 
ATOM     48  C   UNL A   1      39.133  24.324  28.071  1.00  0.00     0.014 A 
ATOM     49  C   UNL A   1      40.154  25.199  26.056  1.00  0.00     0.014 A 
ATOM     50  C   UNL A   1      39.357  25.547  28.707  1.00  0.00     0.010 A 
ATOM     51  C   UNL A   1      40.450  26.386  26.717  1.00  0.00     0.010 A 
ATOM     52  C   UNL A   1      40.061  26.570  28.051  1.00  0.00    -0.014 A 
BRANCH  52  53
ATOM     53  C   UNL A   1      40.421  27.825  28.757  1.00  0.00     0.031 A 
ATOM     54  C   UNL A   1      41.769  27.974  29.406  1.00  0.00     0.074 A 
ATOM     55  C   UNL A   1      39.505  28.808  28.870  1.00  0.00     0.049 A 
ATOM     56  N   UNL A   1      42.250  28.985  30.084  1.00  0.00    -0.248 NA
ATOM     57  C   UNL A   1      42.690  26.828  29.304  1.00  0.00     0.031 C 
ATOM     58  C   UNL A   1      38.138  28.764  28.342  1.00  0.00     0.029 A 
ATOM     59  N   UNL A   1      39.586  30.040  29.471  1.00  0.00    -0.354 N 
ATOM     60  C   UNL A   1      43.514  28.592  30.505  1.00  0.00     0.074 A 
ATOM     61  C   UNL A   1      43.711  27.235  30.046  1.00  0.00     0.031 C 
ATOM     62  C   UNL A   1      37.523  29.927  28.612  1.00  0.00     0.029 A 
ATOM     63  C   UNL A   1      38.435  30.784  29.359  1.00  0.00     0.049 A 
ATOM     64  H   UNL A   1      40.391  30.360  29.938  1.00  0.00     0.167 HD
ATOM     65  C   UNL A   1      44.437  29.304  31.193  1.00  0.00     0.031 A 
ATOM     66  C   UNL A   1      38.149  32.021  29.807  1.00  0.00     0.031 A 
ATOM     67  C   UNL A   1      44.255  30.663  31.625  1.00  0.00     0.049 A 
ATOM     68  C   UNL A   1      39.202  32.794  30.552  1.00  0.00     0.074 A 
ATOM     69  C   UNL A   1      45.164  31.495  32.253  1.00  0.00     0.029 A 
ATOM     70  N   UNL A   1      43.085  31.389  31.472  1.00  0.00    -0.354 N 
ATOM     71  N   UNL A   1      40.427  32.441  30.854  1.00  0.00    -0.248 NA
ATOM     72  C   UNL A   1      38.833  34.143  31.004  1.00  0.00     0.031 C 
ATOM     73  C   UNL A   1      44.529  32.711  32.524  1.00  0.00     0.029 A 
ATOM     74  C   UNL A   1      43.241  32.652  32.019  1.00  0.00     0.049 A 
ATOM     75  H   UNL A   1      42.266  31.057  31.039  1.00  0.00     0.167 HD
ATOM     76  C   UNL A   1      40.984  33.533  31.507  1.00  0.00     0.074 A 
ATOM     77  C   UNL A   1      39.971  34.566  31.537  1.00  0.00     0.031 C 
ATOM     78  C   UNL A   1      42.223  33.668  32.038  1.00  0.00     0.031 A 
BRANCH  65  79
ATOM     79  C   UNL A   1      45.738  28.627  31.520  1.00  0.00    -0.014 A 
ATOM     80  C   UNL A   1      46.007  28.162  32.817  1.00  0.00     0.009 A 
ATOM     81  C   UNL A   1      46.679  28.397  30.505  1.00  0.00     0.009 A 
ATOM     82  C   UNL A   1      47.206  27.501  33.095  1.00  0.00     0.001 A 
ATOM     83  C   UNL A   1      47.864  27.713  30.781  1.00  0.00     0.001 A 
ATOM     84  C   UNL A   1      48.129  27.270  32.076  1.00  0.00     0.000 A 
ENDBRANCH  65  79
BRANCH  66  85
ATOM     85  C   UNL A   1      36.814  32.624  29.555  1.00  0.00    -0.014 A 
ATOM     86  C   UNL A   1      35.796  32.526  30.516  1.00  0.00     0.009 A 
ATOM     87  C   UNL A   1      36.538  33.269  28.339  1.00  0.00     0.009 A 
ATOM     88  C   UNL A   1      34.519  33.025  30.249  1.00  0.00     0.001 A 
ATOM     89  C   UNL A   1      35.269  33.793  28.088  1.00  0.00     0.001 A 
ATOM     90  C   UNL A   1      34.257  33.660  29.037  1.00  0.00     0.000 A 
ENDBRANCH  66  85
BRANCH  78  91
ATOM     91  C   UNL A   1      42.556  34.990  32.668  1.00  0.00    -0.014 A 
ATOM     92  C   UNL A   1      43.299  35.958  31.975  1.00  0.00     0.009 A 
ATOM     93  C   UNL A   1      42.097  35.278  33.962  1.00  0.00     0.009 A 
ATOM     94  C   UNL A   1      43.609  37.175  32.583  1.00  0.00     0.001 A 
ATOM     95  C   UNL A   1      42.383  36.507  34.556  1.00  0.00     0.001 A 
ATOM     96  C   UNL A   1      43.148  37.451  33.870  1.00  0.00     0.000 A 
ENDBRANCH  78  91
ENDBRANCH  52  53
ENDBRANCH  44  47
ENDBRANCH  42  43
ENDBRANCH  41  42
ENDBRANCH   1  41
TORSDOF 17
ENDMDL
MODEL 3
REMARK VINA RESULT:      -8.5      3.461      8.330
REMARK SMILES CC1CC[NH+]([C@H](c2ccc(F)cc2)c2ccc([C@@H](C)C(=O)NCCCCNC(=O)c3ccc(-c4c5nc(c(-c6ccccc6)c6ccc([nH]6)c(-c6ccccc6)c6nc(c(-c7ccccc7)c7ccc4[nH]7)C=C6)C=C5)cc3)cc2-c2ccc(C(F)(F)F)cc2)CC1
REMARK SMILES IDX 24 1 23 2 22 3 20 4 21 5 18 7 19 8 17 9 14 10 15 11 79 12
REMARK SMILES IDX 16 13 78 14 6 15 5 16 1 17 2 18 3 19 91 20 4 21 90 22 7 24
REMARK SMILES IDX 8 25 13 26 9 27 12 28 10 29 11 30 80 31 81 32 89 33 82 34
REMARK SMILES IDX 88 35 83 36 84 37 85 38 86 39 87 40 25 41 26 42 27 43 28 44
REMARK SMILES IDX 29 46 30 47 31 48 77 49 32 50 76 51 33 52 34 53 35 54 70 55
REMARK SMILES IDX 36 56 75 57 69 58 71 59 37 60 74 61 68 62 67 63 38 65 60 66
REMARK SMILES IDX 45 67 59 68 46 69 49 70 58 71 72 72 47 73 48 74 57 76 73 77
REMARK SMILES IDX 50 78 39 79 40 80 44 81 41 82 43 83 42 84 61 85 62 86 66 87
REMARK SMILES IDX 63 88 65 89 64 90 51 91 52 92 56 93 53 94 55 95 54 96
REMARK H PARENT 22 6 5 23 27 45 71 64 49 75
REMARK Flexibility Score: inf
ROOT
ATOM      1  C   UNL A   1      37.266  33.381  37.176  1.00  0.00     0.023 C 
ENDROOT
BRANCH   1   2
ATOM      2  C   UNL A   1      37.340  33.168  35.660  1.00  0.00     0.116 C 
BRANCH   2   3
ATOM      3  N   UNL A   1      36.596  34.174  34.929  1.00  0.00    -0.356 N 
ATOM      4  C   UNL A   1      36.370  34.375  33.600  1.00  0.00     0.227 C 
ATOM      5  O   UNL A   1      35.722  35.392  33.315  1.00  0.00    -0.274 OA
ATOM      6  H   UNL A   1      36.167  34.845  35.508  1.00  0.00     0.163 HD
BRANCH   4   7
ATOM      7  C   UNL A   1      36.850  33.438  32.473  1.00  0.00     0.105 C 
ATOM      8  C   UNL A   1      36.651  31.954  32.771  1.00  0.00     0.023 C 
BRANCH   7   9
ATOM      9  C   UNL A   1      38.214  33.813  31.922  1.00  0.00    -0.035 A 
ATOM     10  C   UNL A   1      40.910  34.076  30.977  1.00  0.00     0.022 A 
ATOM     11  C   UNL A   1      39.836  33.744  30.135  1.00  0.00     0.011 A 
ATOM     12  C   UNL A   1      40.566  34.471  32.300  1.00  0.00    -0.009 A 
ATOM     13  C   UNL A   1      38.514  33.709  30.576  1.00  0.00     0.005 A 
ATOM     14  C   UNL A   1      39.245  34.246  32.766  1.00  0.00     0.013 A 
BRANCH  10  15
ATOM     15  C   UNL A   1      42.375  34.071  30.445  1.00  0.00     0.247 C 
BRANCH  15  16
ATOM     16  N   UNL A   1      42.688  34.888  29.224  1.00  0.00    -0.325 N 
ATOM     17  C   UNL A   1      43.689  38.518  26.942  1.00  0.00     0.008 C 
ATOM     18  C   UNL A   1      43.355  37.471  28.002  1.00  0.00    -0.003 C 
ATOM     19  C   UNL A   1      44.426  36.383  28.084  1.00  0.00     0.065 C 
ATOM     20  C   UNL A   1      42.036  36.781  27.689  1.00  0.00     0.065 C 
ATOM     21  C   UNL A   1      44.093  35.293  29.116  1.00  0.00     0.263 C 
ATOM     22  C   UNL A   1      41.654  35.844  28.831  1.00  0.00     0.263 C 
ATOM     23  H   UNL A   1      42.618  34.242  28.438  1.00  0.00     0.348 HD
ENDBRANCH  15  16
BRANCH  15  24
ATOM     24  C   UNL A   1      42.973  32.655  30.287  1.00  0.00     0.014 A 
ATOM     25  C   UNL A   1      42.525  31.761  29.295  1.00  0.00     0.013 A 
ATOM     26  C   UNL A   1      43.999  32.232  31.154  1.00  0.00     0.013 A 
ATOM     27  C   UNL A   1      43.087  30.489  29.170  1.00  0.00     0.040 A 
ATOM     28  C   UNL A   1      44.538  30.949  31.047  1.00  0.00     0.040 A 
ATOM     29  C   UNL A   1      44.083  30.093  30.053  1.00  0.00     0.123 A 
ATOM     30  F   UNL A   1      44.612  28.867  29.944  1.00  0.00    -0.207 F 
ENDBRANCH  15  24
ENDBRANCH  10  15
BRANCH  12  31
ATOM     31  C   UNL A   1      41.489  35.187  33.204  1.00  0.00    -0.018 A 
ATOM     32  C   UNL A   1      42.857  35.313  32.920  1.00  0.00     0.009 A 
ATOM     33  C   UNL A   1      41.017  35.708  34.421  1.00  0.00     0.009 A 
ATOM     34  C   UNL A   1      43.718  35.966  33.810  1.00  0.00     0.014 A 
ATOM     35  C   UNL A   1      41.871  36.368  35.308  1.00  0.00     0.014 A 
ATOM     36  C   UNL A   1      43.231  36.510  35.006  1.00  0.00     0.056 A 
BRANCH  36  37
ATOM     37  C   UNL A   1      44.167  37.209  35.962  1.00  0.00     0.416 C 
ATOM     38  F   UNL A   1      44.054  36.742  37.236  1.00  0.00    -0.166 F 
ATOM     39  F   UNL A   1      45.478  37.058  35.623  1.00  0.00    -0.166 F 
ATOM     40  F   UNL A   1      43.958  38.554  36.039  1.00  0.00    -0.166 F 
ENDBRANCH  36  37
ENDBRANCH  12  31
ENDBRANCH   7   9
ENDBRANCH   4   7
ENDBRANCH   2   3
ENDBRANCH   1   2
BRANCH   1  41
ATOM     41  C   UNL A   1      38.597  33.356  37.919  1.00  0.00     0.023 C 
BRANCH  41  42
ATOM     42  C   UNL A   1      39.746  34.063  37.214  1.00  0.00     0.116 C 
BRANCH  42  43
ATOM     43  N   UNL A   1      40.890  34.346  38.068  1.00  0.00    -0.352 N 
ATOM     44  C   UNL A   1      42.133  33.752  38.052  1.00  0.00     0.251 C 
ATOM     45  H   UNL A   1      40.759  35.052  38.741  1.00  0.00     0.163 HD
ATOM     46  O   UNL A   1      42.976  34.055  38.886  1.00  0.00    -0.269 OA
BRANCH  44  47
ATOM     47  C   UNL A   1      42.418  32.700  37.051  1.00  0.00     0.039 A 
ATOM     48  C   UNL A   1      41.895  31.421  37.255  1.00  0.00     0.014 A 
ATOM     49  C   UNL A   1      43.135  32.990  35.888  1.00  0.00     0.014 A 
ATOM     50  C   UNL A   1      42.017  30.460  36.250  1.00  0.00     0.010 A 
ATOM     51  C   UNL A   1      43.183  32.059  34.856  1.00  0.00     0.010 A 
ATOM     52  C   UNL A   1      42.618  30.787  35.023  1.00  0.00    -0.014 A 
BRANCH  52  53
ATOM     53  C   UNL A   1      42.639  29.819  33.899  1.00  0.00     0.031 A 
ATOM     54  C   UNL A   1      41.551  29.833  32.861  1.00  0.00     0.074 A 
ATOM     55  C   UNL A   1      43.606  28.880  33.849  1.00  0.00     0.049 A 
ATOM     56  N   UNL A   1      41.391  29.051  31.824  1.00  0.00    -0.248 NA
ATOM     57  C   UNL A   1      40.487  30.839  33.022  1.00  0.00     0.031 C 
ATOM     58  C   UNL A   1      44.684  28.716  34.829  1.00  0.00     0.029 A 
ATOM     59  N   UNL A   1      43.838  27.883  32.935  1.00  0.00    -0.354 N 
ATOM     60  C   UNL A   1      40.206  29.454  31.224  1.00  0.00     0.074 A 
ATOM     61  C   UNL A   1      39.661  30.521  32.035  1.00  0.00     0.031 C 
ATOM     62  C   UNL A   1      45.479  27.704  34.445  1.00  0.00     0.029 A 
ATOM     63  C   UNL A   1      44.952  27.126  33.215  1.00  0.00     0.049 A 
ATOM     64  H   UNL A   1      43.261  27.723  32.155  1.00  0.00     0.167 HD
ATOM     65  C   UNL A   1      39.632  28.994  30.088  1.00  0.00     0.031 A 
ATOM     66  C   UNL A   1      45.489  26.086  32.552  1.00  0.00     0.031 A 
ATOM     67  C   UNL A   1      40.186  27.955  29.263  1.00  0.00     0.049 A 
ATOM     68  C   UNL A   1      44.839  25.610  31.282  1.00  0.00     0.074 A 
ATOM     69  C   UNL A   1      39.721  27.479  28.050  1.00  0.00     0.029 A 
ATOM     70  N   UNL A   1      41.326  27.231  29.568  1.00  0.00    -0.354 N 
ATOM     71  N   UNL A   1      43.771  26.071  30.678  1.00  0.00    -0.248 NA
ATOM     72  C   UNL A   1      45.479  24.478  30.597  1.00  0.00     0.031 C 
ATOM     73  C   UNL A   1      40.556  26.434  27.643  1.00  0.00     0.029 A 
ATOM     74  C   UNL A   1      41.567  26.293  28.578  1.00  0.00     0.049 A 
ATOM     75  H   UNL A   1      41.883  27.363  30.369  1.00  0.00     0.167 HD
ATOM     76  C   UNL A   1      43.628  25.303  29.529  1.00  0.00     0.074 A 
ATOM     77  C   UNL A   1      44.730  24.364  29.510  1.00  0.00     0.031 C 
ATOM     78  C   UNL A   1      42.668  25.368  28.575  1.00  0.00     0.031 A 
BRANCH  65  79
ATOM     79  C   UNL A   1      38.333  29.618  29.660  1.00  0.00    -0.014 A 
ATOM     80  C   UNL A   1      37.114  29.210  30.222  1.00  0.00     0.009 A 
ATOM     81  C   UNL A   1      38.337  30.668  28.729  1.00  0.00     0.009 A 
ATOM     82  C   UNL A   1      35.920  29.827  29.841  1.00  0.00     0.001 A 
ATOM     83  C   UNL A   1      37.145  31.300  28.370  1.00  0.00     0.001 A 
ATOM     84  C   UNL A   1      35.937  30.876  28.922  1.00  0.00     0.000 A 
ENDBRANCH  65  79
BRANCH  66  85
ATOM     85  C   UNL A   1      46.720  25.423  33.057  1.00  0.00    -0.014 A 
ATOM     86  C   UNL A   1      47.985  25.828  32.600  1.00  0.00     0.009 A 
ATOM     87  C   UNL A   1      46.638  24.360  33.968  1.00  0.00     0.009 A 
ATOM     88  C   UNL A   1      49.136  25.156  33.015  1.00  0.00     0.001 A 
ATOM     89  C   UNL A   1      47.794  23.709  34.405  1.00  0.00     0.001 A 
ATOM     90  C   UNL A   1      49.041  24.099  33.918  1.00  0.00     0.000 A 
ENDBRANCH  66  85
BRANCH  78  91
ATOM     91  C   UNL A   1      42.788  24.416  27.420  1.00  0.00    -0.014 A 
ATOM     92  C   UNL A   1      42.165  23.159  27.447  1.00  0.00     0.009 A 
ATOM     93  C   UNL A   1      43.511  24.795  26.278  1.00  0.00     0.009 A 
ATOM     94  C   UNL A   1      42.298  22.283  26.368  1.00  0.00     0.001 A 
ATOM     95  C   UNL A   1      43.617  23.930  25.190  1.00  0.00     0.001 A 
ATOM     96  C   UNL A   1      43.020  22.671  25.239  1.00  0.00     0.000 A 
ENDBRANCH  78  91
ENDBRANCH  52  53
ENDBRANCH  44  47
ENDBRANCH  42  43
ENDBRANCH  41  42
ENDBRANCH   1  41
TORSDOF 17
ENDMDL
