MODEL 1
REMARK VINA RESULT:      -9.6      0.000      0.000
REMARK SMILES CCCS[C@@H]1CC[C@@]([NH2+]CC)(C(=O)NCCCCNC(=O)c2ccc(-c3c4nc(c(-c5ccccc5)c5ccc([nH]5)c(-c5ccccc5)c5nc(c(-c6ccccc6)c6ccc3[nH]6)C=C5)C=C4)cc2)C1
REMARK SMILES IDX 16 1 15 2 14 3 12 4 13 5 8 7 5 8 6 9 70 10 7 11 4 12 3 13
REMARK SMILES IDX 2 14 1 15 9 16 10 19 11 20 17 21 18 22 19 23 20 24 21 26
REMARK SMILES IDX 22 27 23 28 69 29 24 30 68 31 25 32 26 33 27 34 62 35 28 36
REMARK SMILES IDX 67 37 61 38 63 39 29 40 66 41 60 42 59 43 30 45 52 46 37 47
REMARK SMILES IDX 51 48 38 49 41 50 50 51 64 52 39 53 40 54 49 56 65 57 42 58
REMARK SMILES IDX 31 59 32 60 36 61 33 62 35 63 34 64 53 65 54 66 58 67 55 68
REMARK SMILES IDX 57 69 56 70 43 71 44 72 48 73 45 74 47 75 46 76
REMARK H PARENT 14 6 9 17 9 18 19 25 63 44 41 55
REMARK Flexibility Score: inf
ROOT
ATOM      1  C   UNL A   1      36.385  20.657  24.994  1.00  0.00     0.023 C 
ENDROOT
BRANCH   1   2
ATOM      2  C   UNL A   1      36.372  21.998  25.717  1.00  0.00     0.116 C 
BRANCH   2   3
ATOM      3  N   UNL A   1      35.418  22.001  26.813  1.00  0.00    -0.351 N 
ATOM      4  C   UNL A   1      34.181  22.584  26.876  1.00  0.00     0.281 C 
ATOM      5  O   UNL A   1      33.552  22.470  27.931  1.00  0.00    -0.268 OA
ATOM      6  H   UNL A   1      35.702  21.518  27.622  1.00  0.00     0.163 HD
BRANCH   4   7
ATOM      7  C   UNL A   1      33.619  23.363  25.649  1.00  0.00     0.176 C 
ATOM      8  C   UNL A   1      33.182  25.699  26.265  1.00  0.00     0.053 C 
ATOM      9  C   UNL A   1      34.288  25.715  25.217  1.00  0.00     0.022 C 
ATOM     10  C   UNL A   1      32.510  24.355  26.045  1.00  0.00     0.093 C 
ATOM     11  C   UNL A   1      34.747  24.266  25.089  1.00  0.00     0.080 C 
BRANCH   8  12
ATOM     12  S   UNL A   1      32.049  27.103  25.960  1.00  0.00    -0.158 SA
BRANCH  12  13
ATOM     13  C   UNL A   1      32.827  28.432  26.938  1.00  0.00     0.069 C 
BRANCH  13  14
ATOM     14  C   UNL A   1      32.948  29.773  26.205  1.00  0.00     0.007 C 
ATOM     15  C   UNL A   1      31.847  30.771  26.522  1.00  0.00     0.005 C 
ENDBRANCH  13  14
ENDBRANCH  12  13
ENDBRANCH   8  12
BRANCH   7  16
ATOM     16  N   UNL A   1      33.123  22.427  24.602  1.00  0.00    -0.334 N 
ATOM     17  H   UNL A   1      33.937  21.978  24.184  1.00  0.00     0.347 HD
ATOM     18  H   UNL A   1      32.574  23.012  23.972  1.00  0.00     0.347 HD
BRANCH  16  19
ATOM     19  C   UNL A   1      32.202  21.366  25.021  1.00  0.00     0.257 C 
ATOM     20  C   UNL A   1      32.627  19.946  24.692  1.00  0.00     0.071 C 
ENDBRANCH  16  19
ENDBRANCH   7  16
ENDBRANCH   4   7
ENDBRANCH   2   3
ENDBRANCH   1   2
BRANCH   1  21
ATOM     21  C   UNL A   1      37.782  20.128  24.677  1.00  0.00     0.023 C 
BRANCH  21  22
ATOM     22  C   UNL A   1      38.820  20.389  25.761  1.00  0.00     0.116 C 
BRANCH  22  23
ATOM     23  N   UNL A   1      39.862  19.373  25.797  1.00  0.00    -0.352 N 
ATOM     24  C   UNL A   1      41.193  19.516  26.100  1.00  0.00     0.251 C 
ATOM     25  H   UNL A   1      39.573  18.459  25.571  1.00  0.00     0.163 HD
ATOM     26  O   UNL A   1      41.977  18.588  25.926  1.00  0.00    -0.269 OA
BRANCH  24  27
ATOM     27  C   UNL A   1      41.680  20.812  26.610  1.00  0.00     0.039 A 
ATOM     28  C   UNL A   1      42.184  21.750  25.707  1.00  0.00     0.014 A 
ATOM     29  C   UNL A   1      41.598  21.112  27.974  1.00  0.00     0.014 A 
ATOM     30  C   UNL A   1      42.540  23.019  26.164  1.00  0.00     0.010 A 
ATOM     31  C   UNL A   1      41.875  22.401  28.411  1.00  0.00     0.010 A 
ATOM     32  C   UNL A   1      42.350  23.368  27.511  1.00  0.00    -0.014 A 
BRANCH  32  33
ATOM     33  C   UNL A   1      42.636  24.739  27.999  1.00  0.00     0.031 A 
ATOM     34  C   UNL A   1      44.036  25.127  28.386  1.00  0.00     0.074 A 
ATOM     35  C   UNL A   1      41.626  25.618  28.149  1.00  0.00     0.049 A 
ATOM     36  N   UNL A   1      44.473  26.257  28.880  1.00  0.00    -0.248 NA
ATOM     37  C   UNL A   1      45.079  24.101  28.219  1.00  0.00     0.031 C 
ATOM     38  C   UNL A   1      40.217  25.354  27.845  1.00  0.00     0.029 A 
ATOM     39  N   UNL A   1      41.629  26.914  28.601  1.00  0.00    -0.354 N 
ATOM     40  C   UNL A   1      45.833  26.075  29.093  1.00  0.00     0.074 A 
ATOM     41  C   UNL A   1      46.139  24.708  28.730  1.00  0.00     0.031 C 
ATOM     42  C   UNL A   1      39.500  26.464  28.084  1.00  0.00     0.029 A 
ATOM     43  C   UNL A   1      40.387  27.500  28.602  1.00  0.00     0.049 A 
ATOM     44  H   UNL A   1      42.445  27.380  28.895  1.00  0.00     0.167 HD
ATOM     45  C   UNL A   1      46.751  26.970  29.530  1.00  0.00     0.031 A 
ATOM     46  C   UNL A   1      40.003  28.733  28.983  1.00  0.00     0.031 A 
ATOM     47  C   UNL A   1      46.446  28.329  29.887  1.00  0.00     0.049 A 
ATOM     48  C   UNL A   1      41.036  29.697  29.497  1.00  0.00     0.074 A 
ATOM     49  C   UNL A   1      47.314  29.327  30.297  1.00  0.00     0.029 A 
ATOM     50  N   UNL A   1      45.175  28.880  29.883  1.00  0.00    -0.354 N 
ATOM     51  N   UNL A   1      42.329  29.529  29.631  1.00  0.00    -0.248 NA
ATOM     52  C   UNL A   1      40.555  31.025  29.903  1.00  0.00     0.031 C 
ATOM     53  C   UNL A   1      46.560  30.465  30.595  1.00  0.00     0.029 A 
ATOM     54  C   UNL A   1      45.230  30.197  30.308  1.00  0.00     0.049 A 
ATOM     55  H   UNL A   1      44.354  28.406  29.617  1.00  0.00     0.167 HD
ATOM     56  C   UNL A   1      42.821  30.738  30.107  1.00  0.00     0.074 A 
ATOM     57  C   UNL A   1      41.689  31.634  30.222  1.00  0.00     0.031 C 
ATOM     58  C   UNL A   1      44.096  31.076  30.419  1.00  0.00     0.031 A 
BRANCH  45  59
ATOM     59  C   UNL A   1      48.175  26.498  29.649  1.00  0.00    -0.014 A 
ATOM     60  C   UNL A   1      49.076  26.630  28.581  1.00  0.00     0.009 A 
ATOM     61  C   UNL A   1      48.630  25.946  30.856  1.00  0.00     0.009 A 
ATOM     62  C   UNL A   1      50.394  26.183  28.707  1.00  0.00     0.001 A 
ATOM     63  C   UNL A   1      49.956  25.529  30.990  1.00  0.00     0.001 A 
ATOM     64  C   UNL A   1      50.833  25.638  29.913  1.00  0.00     0.000 A 
ENDBRANCH  45  59
BRANCH  46  65
ATOM     65  C   UNL A   1      38.575  29.137  28.881  1.00  0.00    -0.014 A 
ATOM     66  C   UNL A   1      38.070  29.668  27.684  1.00  0.00     0.009 A 
ATOM     67  C   UNL A   1      37.712  29.005  29.981  1.00  0.00     0.009 A 
ATOM     68  C   UNL A   1      36.740  30.086  27.600  1.00  0.00     0.001 A 
ATOM     69  C   UNL A   1      36.376  29.395  29.883  1.00  0.00     0.001 A 
ATOM     70  C   UNL A   1      35.893  29.946  28.698  1.00  0.00     0.000 A 
ENDBRANCH  46  65
BRANCH  58  71
ATOM     71  C   UNL A   1      44.340  32.487  30.878  1.00  0.00    -0.014 A 
ATOM     72  C   UNL A   1      44.560  33.527  29.963  1.00  0.00     0.009 A 
ATOM     73  C   UNL A   1      44.308  32.783  32.250  1.00  0.00     0.009 A 
ATOM     74  C   UNL A   1      44.777  34.830  30.415  1.00  0.00     0.001 A 
ATOM     75  C   UNL A   1      44.493  34.092  32.697  1.00  0.00     0.001 A 
ATOM     76  C   UNL A   1      44.738  35.113  31.781  1.00  0.00     0.000 A 
ENDBRANCH  58  71
ENDBRANCH  32  33
ENDBRANCH  24  27
ENDBRANCH  22  23
ENDBRANCH  21  22
ENDBRANCH   1  21
TORSDOF 16
ENDMDL
MODEL 2
REMARK VINA RESULT:      -9.5      0.603      6.142
REMARK SMILES CCCS[C@@H]1CC[C@@]([NH2+]CC)(C(=O)NCCCCNC(=O)c2ccc(-c3c4nc(c(-c5ccccc5)c5ccc([nH]5)c(-c5ccccc5)c5nc(c(-c6ccccc6)c6ccc3[nH]6)C=C5)C=C4)cc2)C1
REMARK SMILES IDX 16 1 15 2 14 3 12 4 13 5 8 7 5 8 6 9 70 10 7 11 4 12 3 13
REMARK SMILES IDX 2 14 1 15 9 16 10 19 11 20 17 21 18 22 19 23 20 24 21 26
REMARK SMILES IDX 22 27 23 28 69 29 24 30 68 31 25 32 26 33 27 34 62 35 28 36
REMARK SMILES IDX 67 37 61 38 63 39 29 40 66 41 60 42 59 43 30 45 52 46 37 47
REMARK SMILES IDX 51 48 38 49 41 50 50 51 64 52 39 53 40 54 49 56 65 57 42 58
REMARK SMILES IDX 31 59 32 60 36 61 33 62 35 63 34 64 53 65 54 66 58 67 55 68
REMARK SMILES IDX 57 69 56 70 43 71 44 72 48 73 45 74 47 75 46 76
REMARK H PARENT 14 6 9 17 9 18 19 25 63 44 41 55
REMARK Flexibility Score: inf
ROOT
ATOM      1  C   UNL A   1      36.422  19.996  24.903  1.00  0.00     0.023 C 
ENDROOT
BRANCH   1   2
ATOM      2  C   UNL A   1      36.358  21.435  25.400  1.00  0.00     0.116 C 
BRANCH   2   3
ATOM      3  N   UNL A   1      35.492  21.558  26.561  1.00  0.00    -0.351 N 
ATOM      4  C   UNL A   1      34.326  22.263  26.695  1.00  0.00     0.281 C 
ATOM      5  O   UNL A   1      33.768  22.236  27.795  1.00  0.00    -0.268 OA
ATOM      6  H   UNL A   1      35.785  21.066  27.361  1.00  0.00     0.163 HD
BRANCH   4   7
ATOM      7  C   UNL A   1      33.755  23.068  25.489  1.00  0.00     0.176 C 
ATOM      8  C   UNL A   1      32.387  24.939  26.299  1.00  0.00     0.053 C 
ATOM      9  C   UNL A   1      33.584  25.544  25.575  1.00  0.00     0.022 C 
ATOM     10  C   UNL A   1      32.308  23.534  25.730  1.00  0.00     0.093 C 
ATOM     11  C   UNL A   1      34.557  24.389  25.363  1.00  0.00     0.080 C 
BRANCH   8  12
ATOM     12  S   UNL A   1      30.897  25.931  25.921  1.00  0.00    -0.158 SA
BRANCH  12  13
ATOM     13  C   UNL A   1      31.567  27.628  25.914  1.00  0.00     0.069 C 
BRANCH  13  14
ATOM     14  C   UNL A   1      31.645  28.285  27.297  1.00  0.00     0.007 C 
ATOM     15  C   UNL A   1      32.452  29.572  27.342  1.00  0.00     0.005 C 
ENDBRANCH  13  14
ENDBRANCH  12  13
ENDBRANCH   8  12
BRANCH   7  16
ATOM     16  N   UNL A   1      33.839  22.277  24.229  1.00  0.00    -0.334 N 
ATOM     17  H   UNL A   1      34.569  21.577  24.357  1.00  0.00     0.347 HD
ATOM     18  H   UNL A   1      34.019  22.969  23.502  1.00  0.00     0.347 HD
BRANCH  16  19
ATOM     19  C   UNL A   1      32.631  21.577  23.786  1.00  0.00     0.257 C 
ATOM     20  C   UNL A   1      32.568  20.092  24.098  1.00  0.00     0.071 C 
ENDBRANCH  16  19
ENDBRANCH   7  16
ENDBRANCH   4   7
ENDBRANCH   2   3
ENDBRANCH   1   2
BRANCH   1  21
ATOM     21  C   UNL A   1      37.839  19.449  24.747  1.00  0.00     0.023 C 
BRANCH  21  22
ATOM     22  C   UNL A   1      38.844  19.993  25.756  1.00  0.00     0.116 C 
BRANCH  22  23
ATOM     23  N   UNL A   1      40.067  19.206  25.810  1.00  0.00    -0.352 N 
ATOM     24  C   UNL A   1      41.340  19.614  26.126  1.00  0.00     0.251 C 
ATOM     25  H   UNL A   1      39.969  18.251  25.589  1.00  0.00     0.163 HD
ATOM     26  O   UNL A   1      42.295  18.860  25.968  1.00  0.00    -0.269 OA
BRANCH  24  27
ATOM     27  C   UNL A   1      41.552  20.983  26.631  1.00  0.00     0.039 A 
ATOM     28  C   UNL A   1      41.454  21.224  28.002  1.00  0.00     0.014 A 
ATOM     29  C   UNL A   1      41.888  22.018  25.751  1.00  0.00     0.014 A 
ATOM     30  C   UNL A   1      41.764  22.489  28.501  1.00  0.00     0.010 A 
ATOM     31  C   UNL A   1      42.277  23.251  26.259  1.00  0.00     0.010 A 
ATOM     32  C   UNL A   1      42.218  23.501  27.638  1.00  0.00    -0.014 A 
BRANCH  32  33
ATOM     33  C   UNL A   1      42.640  24.824  28.159  1.00  0.00     0.031 A 
ATOM     34  C   UNL A   1      41.623  25.910  28.376  1.00  0.00     0.074 A 
ATOM     35  C   UNL A   1      43.946  25.068  28.380  1.00  0.00     0.049 A 
ATOM     36  N   UNL A   1      41.805  27.143  28.774  1.00  0.00    -0.248 NA
ATOM     37  C   UNL A   1      40.219  25.574  28.084  1.00  0.00     0.031 C 
ATOM     38  C   UNL A   1      45.036  24.111  28.173  1.00  0.00     0.029 A 
ATOM     39  N   UNL A   1      44.581  26.201  28.826  1.00  0.00    -0.354 N 
ATOM     40  C   UNL A   1      40.546  27.730  28.769  1.00  0.00     0.074 A 
ATOM     41  C   UNL A   1      39.618  26.738  28.273  1.00  0.00     0.031 C 
ATOM     42  C   UNL A   1      46.198  24.685  28.526  1.00  0.00     0.029 A 
ATOM     43  C   UNL A   1      45.942  26.061  28.937  1.00  0.00     0.049 A 
ATOM     44  H   UNL A   1      44.104  27.033  29.046  1.00  0.00     0.167 HD
ATOM     45  C   UNL A   1      40.189  28.976  29.162  1.00  0.00     0.031 A 
ATOM     46  C   UNL A   1      46.882  26.945  29.321  1.00  0.00     0.031 A 
ATOM     47  C   UNL A   1      41.112  29.961  29.658  1.00  0.00     0.049 A 
ATOM     48  C   UNL A   1      46.464  28.333  29.721  1.00  0.00     0.074 A 
ATOM     49  C   UNL A   1      40.843  31.236  30.125  1.00  0.00     0.029 A 
ATOM     50  N   UNL A   1      42.484  29.784  29.746  1.00  0.00    -0.354 N 
ATOM     51  N   UNL A   1      45.261  28.852  29.772  1.00  0.00    -0.248 NA
ATOM     52  C   UNL A   1      47.535  29.254  30.125  1.00  0.00     0.031 C 
ATOM     53  C   UNL A   1      42.058  31.850  30.442  1.00  0.00     0.029 A 
ATOM     54  C   UNL A   1      43.078  30.936  30.235  1.00  0.00     0.049 A 
ATOM     55  H   UNL A   1      42.965  28.962  29.498  1.00  0.00     0.167 HD
ATOM     56  C   UNL A   1      45.428  30.148  30.243  1.00  0.00     0.074 A 
ATOM     57  C   UNL A   1      46.845  30.330  30.478  1.00  0.00     0.031 C 
ATOM     58  C   UNL A   1      44.490  31.102  30.463  1.00  0.00     0.031 A 
BRANCH  45  59
ATOM     59  C   UNL A   1      38.733  29.342  29.065  1.00  0.00    -0.014 A 
ATOM     60  C   UNL A   1      38.193  29.867  27.879  1.00  0.00     0.009 A 
ATOM     61  C   UNL A   1      37.884  29.129  30.161  1.00  0.00     0.009 A 
ATOM     62  C   UNL A   1      36.840  30.205  27.807  1.00  0.00     0.001 A 
ATOM     63  C   UNL A   1      36.525  29.438  30.075  1.00  0.00     0.001 A 
ATOM     64  C   UNL A   1      36.007  29.986  28.903  1.00  0.00     0.000 A 
ENDBRANCH  45  59
BRANCH  46  65
ATOM     65  C   UNL A   1      48.314  26.544  29.364  1.00  0.00    -0.014 A 
ATOM     66  C   UNL A   1      49.145  26.755  28.252  1.00  0.00     0.009 A 
ATOM     67  C   UNL A   1      48.855  25.939  30.509  1.00  0.00     0.009 A 
ATOM     68  C   UNL A   1      50.479  26.340  28.276  1.00  0.00     0.001 A 
ATOM     69  C   UNL A   1      50.197  25.554  30.540  1.00  0.00     0.001 A 
ATOM     70  C   UNL A   1      51.005  25.744  29.420  1.00  0.00     0.000 A 
ENDBRANCH  46  65
BRANCH  58  71
ATOM     71  C   UNL A   1      44.963  32.415  31.021  1.00  0.00    -0.014 A 
ATOM     72  C   UNL A   1      45.322  33.481  30.182  1.00  0.00     0.009 A 
ATOM     73  C   UNL A   1      45.009  32.599  32.413  1.00  0.00     0.009 A 
ATOM     74  C   UNL A   1      45.750  34.694  30.726  1.00  0.00     0.001 A 
ATOM     75  C   UNL A   1      45.407  33.823  32.953  1.00  0.00     0.001 A 
ATOM     76  C   UNL A   1      45.788  34.865  32.110  1.00  0.00     0.000 A 
ENDBRANCH  58  71
ENDBRANCH  32  33
ENDBRANCH  24  27
ENDBRANCH  22  23
ENDBRANCH  21  22
ENDBRANCH   1  21
TORSDOF 16
ENDMDL
MODEL 3
REMARK VINA RESULT:      -9.5      4.417      9.504
REMARK SMILES CCCS[C@@H]1CC[C@@]([NH2+]CC)(C(=O)NCCCCNC(=O)c2ccc(-c3c4nc(c(-c5ccccc5)c5ccc([nH]5)c(-c5ccccc5)c5nc(c(-c6ccccc6)c6ccc3[nH]6)C=C5)C=C4)cc2)C1
REMARK SMILES IDX 16 1 15 2 14 3 12 4 13 5 8 7 5 8 6 9 70 10 7 11 4 12 3 13
REMARK SMILES IDX 2 14 1 15 9 16 10 19 11 20 17 21 18 22 19 23 20 24 21 26
REMARK SMILES IDX 22 27 23 28 69 29 24 30 68 31 25 32 26 33 27 34 62 35 28 36
REMARK SMILES IDX 67 37 61 38 63 39 29 40 66 41 60 42 59 43 30 45 52 46 37 47
REMARK SMILES IDX 51 48 38 49 41 50 50 51 64 52 39 53 40 54 49 56 65 57 42 58
REMARK SMILES IDX 31 59 32 60 36 61 33 62 35 63 34 64 53 65 54 66 58 67 55 68
REMARK SMILES IDX 57 69 56 70 43 71 44 72 48 73 45 74 47 75 46 76
REMARK H PARENT 14 6 9 17 9 18 19 25 63 44 41 55
REMARK Flexibility Score: inf
ROOT
ATOM      1  C   UNL A   1      31.463  30.765  25.752  1.00  0.00     0.023 C 
ENDROOT
BRANCH   1   2
ATOM      2  C   UNL A   1      32.696  29.874  25.847  1.00  0.00     0.116 C 
BRANCH   2   3
ATOM      3  N   UNL A   1      33.320  29.690  24.548  1.00  0.00    -0.351 N 
ATOM      4  C   UNL A   1      33.375  28.564  23.771  1.00  0.00     0.281 C 
ATOM      5  O   UNL A   1      33.985  28.640  22.701  1.00  0.00    -0.268 OA
ATOM      6  H   UNL A   1      33.765  30.485  24.175  1.00  0.00     0.163 HD
BRANCH   4   7
ATOM      7  C   UNL A   1      32.692  27.248  24.251  1.00  0.00     0.176 C 
ATOM      8  C   UNL A   1      34.260  25.368  24.059  1.00  0.00     0.053 C 
ATOM      9  C   UNL A   1      33.962  25.549  25.542  1.00  0.00     0.022 C 
ATOM     10  C   UNL A   1      33.078  26.038  23.380  1.00  0.00     0.093 C 
ATOM     11  C   UNL A   1      33.249  26.893  25.653  1.00  0.00     0.080 C 
BRANCH   8  12
ATOM     12  S   UNL A   1      34.359  23.580  23.684  1.00  0.00    -0.158 SA
BRANCH  12  13
ATOM     13  C   UNL A   1      32.952  23.358  22.544  1.00  0.00     0.069 C 
BRANCH  13  14
ATOM     14  C   UNL A   1      31.781  22.559  23.129  1.00  0.00     0.007 C 
ATOM     15  C   UNL A   1      31.505  22.825  24.599  1.00  0.00     0.005 C 
ENDBRANCH  13  14
ENDBRANCH  12  13
ENDBRANCH   8  12
BRANCH   7  16
ATOM     16  N   UNL A   1      31.210  27.399  24.294  1.00  0.00    -0.334 N 
ATOM     17  H   UNL A   1      31.001  28.159  24.939  1.00  0.00     0.347 HD
ATOM     18  H   UNL A   1      30.866  26.480  24.573  1.00  0.00     0.347 HD
BRANCH  16  19
ATOM     19  C   UNL A   1      30.520  27.688  23.034  1.00  0.00     0.257 C 
ATOM     20  C   UNL A   1      29.734  28.987  22.987  1.00  0.00     0.071 C 
ENDBRANCH  16  19
ENDBRANCH   7  16
ENDBRANCH   4   7
ENDBRANCH   2   3
ENDBRANCH   1   2
BRANCH   1  21
ATOM     21  C   UNL A   1      31.341  31.790  26.877  1.00  0.00     0.023 C 
BRANCH  21  22
ATOM     22  C   UNL A   1      32.616  32.574  27.162  1.00  0.00     0.116 C 
BRANCH  22  23
ATOM     23  N   UNL A   1      32.354  33.961  27.516  1.00  0.00    -0.352 N 
ATOM     24  C   UNL A   1      32.978  34.742  28.458  1.00  0.00     0.251 C 
ATOM     25  H   UNL A   1      31.631  34.400  27.012  1.00  0.00     0.163 HD
ATOM     26  O   UNL A   1      32.531  35.846  28.750  1.00  0.00    -0.269 OA
BRANCH  24  27
ATOM     27  C   UNL A   1      34.178  34.224  29.141  1.00  0.00     0.039 A 
ATOM     28  C   UNL A   1      34.022  33.436  30.283  1.00  0.00     0.014 A 
ATOM     29  C   UNL A   1      35.453  34.483  28.627  1.00  0.00     0.014 A 
ATOM     30  C   UNL A   1      35.143  32.848  30.870  1.00  0.00     0.010 A 
ATOM     31  C   UNL A   1      36.556  33.829  29.163  1.00  0.00     0.010 A 
ATOM     32  C   UNL A   1      36.413  33.006  30.290  1.00  0.00    -0.014 A 
BRANCH  32  33
ATOM     33  C   UNL A   1      37.603  32.316  30.844  1.00  0.00     0.031 A 
ATOM     34  C   UNL A   1      38.274  32.843  32.082  1.00  0.00     0.074 A 
ATOM     35  C   UNL A   1      38.115  31.249  30.200  1.00  0.00     0.049 A 
ATOM     36  N   UNL A   1      39.351  32.408  32.686  1.00  0.00    -0.248 NA
ATOM     37  C   UNL A   1      37.670  34.029  32.711  1.00  0.00     0.031 C 
ATOM     38  C   UNL A   1      37.580  30.662  28.969  1.00  0.00     0.029 A 
ATOM     39  N   UNL A   1      39.207  30.469  30.491  1.00  0.00    -0.354 N 
ATOM     40  C   UNL A   1      39.558  33.271  33.754  1.00  0.00     0.074 A 
ATOM     41  C   UNL A   1      38.532  34.288  33.683  1.00  0.00     0.031 C 
ATOM     42  C   UNL A   1      38.323  29.595  28.632  1.00  0.00     0.029 A 
ATOM     43  C   UNL A   1      39.411  29.451  29.593  1.00  0.00     0.049 A 
ATOM     44  H   UNL A   1      39.787  30.625  31.271  1.00  0.00     0.167 HD
ATOM     45  C   UNL A   1      40.504  33.212  34.721  1.00  0.00     0.031 A 
ATOM     46  C   UNL A   1      40.371  28.508  29.545  1.00  0.00     0.031 A 
ATOM     47  C   UNL A   1      41.523  32.199  34.794  1.00  0.00     0.049 A 
ATOM     48  C   UNL A   1      41.430  28.484  30.612  1.00  0.00     0.074 A 
ATOM     49  C   UNL A   1      42.498  32.026  35.760  1.00  0.00     0.029 A 
ATOM     50  N   UNL A   1      41.700  31.191  33.859  1.00  0.00    -0.354 N 
ATOM     51  N   UNL A   1      41.574  29.270  31.651  1.00  0.00    -0.248 NA
ATOM     52  C   UNL A   1      42.454  27.436  30.501  1.00  0.00     0.031 C 
ATOM     53  C   UNL A   1      43.301  30.947  35.380  1.00  0.00     0.029 A 
ATOM     54  C   UNL A   1      42.787  30.407  34.212  1.00  0.00     0.049 A 
ATOM     55  H   UNL A   1      41.138  31.052  33.063  1.00  0.00     0.167 HD
ATOM     56  C   UNL A   1      42.685  28.792  32.336  1.00  0.00     0.074 A 
ATOM     57  C   UNL A   1      43.166  27.640  31.601  1.00  0.00     0.031 C 
ATOM     58  C   UNL A   1      43.254  29.265  33.472  1.00  0.00     0.031 A 
BRANCH  45  59
ATOM     59  C   UNL A   1      40.481  34.282  35.779  1.00  0.00    -0.014 A 
ATOM     60  C   UNL A   1      41.212  35.471  35.627  1.00  0.00     0.009 A 
ATOM     61  C   UNL A   1      39.691  34.114  36.926  1.00  0.00     0.009 A 
ATOM     62  C   UNL A   1      41.182  36.452  36.620  1.00  0.00     0.001 A 
ATOM     63  C   UNL A   1      39.638  35.111  37.902  1.00  0.00     0.001 A 
ATOM     64  C   UNL A   1      40.391  36.273  37.754  1.00  0.00     0.000 A 
ENDBRANCH  45  59
BRANCH  46  65
ATOM     65  C   UNL A   1      40.371  27.496  28.455  1.00  0.00    -0.014 A 
ATOM     66  C   UNL A   1      39.672  26.288  28.606  1.00  0.00     0.009 A 
ATOM     67  C   UNL A   1      41.078  27.724  27.263  1.00  0.00     0.009 A 
ATOM     68  C   UNL A   1      39.706  25.319  27.601  1.00  0.00     0.001 A 
ATOM     69  C   UNL A   1      41.084  26.767  26.248  1.00  0.00     0.001 A 
ATOM     70  C   UNL A   1      40.408  25.560  26.421  1.00  0.00     0.000 A 
ENDBRANCH  46  65
BRANCH  58  71
ATOM     71  C   UNL A   1      44.438  28.512  34.012  1.00  0.00    -0.014 A 
ATOM     72  C   UNL A   1      44.280  27.429  34.889  1.00  0.00     0.009 A 
ATOM     73  C   UNL A   1      45.732  28.871  33.600  1.00  0.00     0.009 A 
ATOM     74  C   UNL A   1      45.396  26.742  35.370  1.00  0.00     0.001 A 
ATOM     75  C   UNL A   1      46.844  28.162  34.057  1.00  0.00     0.001 A 
ATOM     76  C   UNL A   1      46.676  27.105  34.950  1.00  0.00     0.000 A 
ENDBRANCH  58  71
ENDBRANCH  32  33
ENDBRANCH  24  27
ENDBRANCH  22  23
ENDBRANCH  21  22
ENDBRANCH   1  21
TORSDOF 16
ENDMDL
