MODEL 1
REMARK VINA RESULT:     -10.8      0.000      0.000
REMARK SMILES CCCC[C@@H](Sc1nc(OCCC2CCCCC2)cc(OCCC2CCCCC2)n1)C(=O)NCCCCNC(=O)c1ccc(-c2c3nc(c(-c4ccccc4)c4ccc([nH]4)c(-c4ccccc4)c4nc(c(-c5ccccc5)c5ccc2[nH]5)C=C4)C=C3)cc1
REMARK SMILES IDX 31 1 32 2 33 3 5 5 4 6 3 7 2 8 1 9 6 10 7 11 8 12 30 13 9 14
REMARK SMILES IDX 20 15 19 16 10 17 11 18 12 19 13 20 14 21 18 22 15 23 17 24
REMARK SMILES IDX 16 25 21 26 22 27 23 28 24 29 25 30 29 31 26 32 28 33 27 34
REMARK SMILES IDX 34 35 35 36 36 37 37 38 38 39 39 40 40 42 41 43 42 44 88 45
REMARK SMILES IDX 43 46 87 47 44 48 45 49 46 50 81 51 47 52 86 53 80 54 82 55
REMARK SMILES IDX 48 56 85 57 79 58 78 59 49 61 71 62 56 63 70 64 57 65 60 66
REMARK SMILES IDX 69 67 83 68 58 69 59 70 68 72 84 73 61 74 50 75 51 76 55 77
REMARK SMILES IDX 52 78 54 79 53 80 72 81 73 82 77 83 74 84 76 85 75 86 62 87
REMARK SMILES IDX 63 88 67 89 64 90 66 91 65 92
REMARK H PARENT 33 4 38 41 82 60 60 71
REMARK Flexibility Score: inf
ROOT
ATOM      1  C   UNL A   1      37.110  23.912  25.757  1.00  0.00     0.233 C 
ATOM      2  O   UNL A   1      37.884  24.672  26.343  1.00  0.00    -0.274 OA
ATOM      3  N   UNL A   1      37.659  22.866  25.055  1.00  0.00    -0.355 N 
ATOM      4  H   UNL A   1      38.642  22.813  25.094  1.00  0.00     0.163 HD
ENDROOT
BRANCH   1   5
ATOM      5  C   UNL A   1      35.576  24.136  25.799  1.00  0.00     0.144 C 
BRANCH   5   6
ATOM      6  C   UNL A   1      35.106  24.130  24.325  1.00  0.00     0.025 C 
BRANCH   6   7
ATOM      7  C   UNL A   1      33.707  24.561  23.904  1.00  0.00     0.001 C 
BRANCH   7   8
ATOM      8  C   UNL A   1      33.549  25.130  22.500  1.00  0.00    -0.003 C 
ATOM      9  C   UNL A   1      33.533  26.643  22.473  1.00  0.00     0.004 C 
ENDBRANCH   7   8
ENDBRANCH   6   7
ENDBRANCH   5   6
BRANCH   5  10
ATOM     10  S   UNL A   1      35.030  22.968  27.148  1.00  0.00    -0.073 SA
BRANCH  10  11
ATOM     11  C   UNL A   1      33.342  22.573  26.851  1.00  0.00     0.195 A 
ATOM     12  N   UNL A   1      32.394  23.438  27.209  1.00  0.00    -0.187 NA
ATOM     13  N   UNL A   1      33.142  21.470  26.102  1.00  0.00    -0.187 NA
ATOM     14  C   UNL A   1      31.205  23.279  26.627  1.00  0.00     0.221 A 
ATOM     15  C   UNL A   1      31.927  21.312  25.571  1.00  0.00     0.221 A 
ATOM     16  C   UNL A   1      30.967  22.265  25.740  1.00  0.00     0.136 A 
BRANCH  14  17
ATOM     17  O   UNL A   1      30.368  24.382  26.622  1.00  0.00    -0.477 OA
BRANCH  17  18
ATOM     18  C   UNL A   1      30.266  25.084  25.378  1.00  0.00     0.231 C 
BRANCH  18  19
ATOM     19  C   UNL A   1      30.165  26.626  25.576  1.00  0.00     0.045 C 
BRANCH  19  20
ATOM     20  C   UNL A   1      31.514  27.344  25.468  1.00  0.00    -0.008 C 
ATOM     21  C   UNL A   1      31.489  28.830  25.110  1.00  0.00     0.004 C 
ATOM     22  C   UNL A   1      32.433  27.126  26.669  1.00  0.00     0.004 C 
ATOM     23  C   UNL A   1      32.901  29.258  24.676  1.00  0.00     0.000 C 
ATOM     24  C   UNL A   1      33.866  27.479  26.270  1.00  0.00     0.000 C 
ATOM     25  C   UNL A   1      33.990  28.888  25.686  1.00  0.00     0.000 C 
ENDBRANCH  19  20
ENDBRANCH  18  19
ENDBRANCH  17  18
ENDBRANCH  14  17
BRANCH  15  26
ATOM     26  O   UNL A   1      31.770  20.174  24.823  1.00  0.00    -0.477 OA
BRANCH  26  27
ATOM     27  C   UNL A   1      32.481  20.025  23.586  1.00  0.00     0.231 C 
BRANCH  27  28
ATOM     28  C   UNL A   1      32.278  18.646  22.920  1.00  0.00     0.045 C 
BRANCH  28  29
ATOM     29  C   UNL A   1      33.020  17.466  23.573  1.00  0.00    -0.008 C 
ATOM     30  C   UNL A   1      34.375  17.861  24.157  1.00  0.00     0.004 C 
ATOM     31  C   UNL A   1      32.241  16.817  24.729  1.00  0.00     0.004 C 
ATOM     32  C   UNL A   1      35.157  16.600  24.488  1.00  0.00     0.000 C 
ATOM     33  C   UNL A   1      32.973  15.566  25.245  1.00  0.00     0.000 C 
ATOM     34  C   UNL A   1      34.454  15.787  25.559  1.00  0.00     0.000 C 
ENDBRANCH  28  29
ENDBRANCH  27  28
ENDBRANCH  26  27
ENDBRANCH  15  26
ENDBRANCH  10  11
ENDBRANCH   5  10
ENDBRANCH   1   5
BRANCH   3  35
ATOM     35  C   UNL A   1      37.023  21.825  24.261  1.00  0.00     0.116 C 
BRANCH  35  36
ATOM     36  C   UNL A   1      36.934  20.506  25.035  1.00  0.00     0.023 C 
BRANCH  36  37
ATOM     37  C   UNL A   1      38.148  19.599  24.859  1.00  0.00     0.023 C 
BRANCH  37  38
ATOM     38  C   UNL A   1      39.331  19.957  25.744  1.00  0.00     0.116 C 
BRANCH  38  39
ATOM     39  N   UNL A   1      40.294  18.874  25.866  1.00  0.00    -0.352 N 
ATOM     40  C   UNL A   1      41.644  18.960  26.127  1.00  0.00     0.251 C 
ATOM     41  H   UNL A   1      39.936  17.964  25.750  1.00  0.00     0.163 HD
ATOM     42  O   UNL A   1      42.363  17.980  26.056  1.00  0.00    -0.269 OA
BRANCH  40  43
ATOM     43  C   UNL A   1      42.208  20.285  26.462  1.00  0.00     0.039 A 
ATOM     44  C   UNL A   1      42.648  21.111  25.427  1.00  0.00     0.014 A 
ATOM     45  C   UNL A   1      42.234  20.725  27.788  1.00  0.00     0.014 A 
ATOM     46  C   UNL A   1      43.054  22.413  25.720  1.00  0.00     0.010 A 
ATOM     47  C   UNL A   1      42.554  22.048  28.065  1.00  0.00     0.010 A 
ATOM     48  C   UNL A   1      42.973  22.903  27.035  1.00  0.00    -0.014 A 
BRANCH  48  49
ATOM     49  C   UNL A   1      43.326  24.308  27.354  1.00  0.00     0.031 A 
ATOM     50  C   UNL A   1      44.756  24.763  27.264  1.00  0.00     0.074 A 
ATOM     51  C   UNL A   1      42.370  25.156  27.782  1.00  0.00     0.049 A 
ATOM     52  N   UNL A   1      45.267  25.935  27.544  1.00  0.00    -0.248 NA
ATOM     53  C   UNL A   1      45.747  23.765  26.830  1.00  0.00     0.031 C 
ATOM     54  C   UNL A   1      40.953  24.821  27.955  1.00  0.00     0.029 A 
ATOM     55  N   UNL A   1      42.448  26.474  28.153  1.00  0.00    -0.354 N 
ATOM     56  C   UNL A   1      46.634  25.809  27.336  1.00  0.00     0.074 A 
ATOM     57  C   UNL A   1      46.882  24.435  26.962  1.00  0.00     0.031 C 
ATOM     58  C   UNL A   1      40.292  25.915  28.369  1.00  0.00     0.029 A 
ATOM     59  C   UNL A   1      41.241  27.011  28.533  1.00  0.00     0.049 A 
ATOM     60  H   UNL A   1      43.288  26.987  28.148  1.00  0.00     0.167 HD
ATOM     61  C   UNL A   1      47.596  26.756  27.427  1.00  0.00     0.031 A 
ATOM     62  C   UNL A   1      40.934  28.247  28.972  1.00  0.00     0.031 A 
ATOM     63  C   UNL A   1      47.347  28.125  27.791  1.00  0.00     0.049 A 
ATOM     64  C   UNL A   1      42.025  29.277  29.081  1.00  0.00     0.074 A 
ATOM     65  C   UNL A   1      48.245  29.176  27.853  1.00  0.00     0.029 A 
ATOM     66  N   UNL A   1      46.112  28.631  28.164  1.00  0.00    -0.354 N 
ATOM     67  N   UNL A   1      43.301  29.163  28.802  1.00  0.00    -0.248 NA
ATOM     68  C   UNL A   1      41.629  30.611  29.555  1.00  0.00     0.031 C 
ATOM     69  C   UNL A   1      47.565  30.303  28.322  1.00  0.00     0.029 A 
ATOM     70  C   UNL A   1      46.229  29.971  28.487  1.00  0.00     0.049 A 
ATOM     71  H   UNL A   1      45.275  28.112  28.194  1.00  0.00     0.167 HD
ATOM     72  C   UNL A   1      43.854  30.415  29.037  1.00  0.00     0.074 A 
ATOM     73  C   UNL A   1      42.770  31.277  29.463  1.00  0.00     0.031 C 
ATOM     74  C   UNL A   1      45.142  30.816  28.910  1.00  0.00     0.031 A 
BRANCH  61  75
ATOM     75  C   UNL A   1      49.012  26.339  27.137  1.00  0.00    -0.014 A 
ATOM     76  C   UNL A   1      49.541  26.399  25.838  1.00  0.00     0.009 A 
ATOM     77  C   UNL A   1      49.841  25.915  28.186  1.00  0.00     0.009 A 
ATOM     78  C   UNL A   1      50.858  26.007  25.589  1.00  0.00     0.001 A 
ATOM     79  C   UNL A   1      51.167  25.555  27.942  1.00  0.00     0.001 A 
ATOM     80  C   UNL A   1      51.672  25.592  26.642  1.00  0.00     0.000 A 
ENDBRANCH  61  75
BRANCH  62  81
ATOM     81  C   UNL A   1      39.532  28.584  29.336  1.00  0.00    -0.014 A 
ATOM     82  C   UNL A   1      38.649  29.103  28.376  1.00  0.00     0.009 A 
ATOM     83  C   UNL A   1      39.073  28.404  30.650  1.00  0.00     0.009 A 
ATOM     84  C   UNL A   1      37.347  29.463  28.731  1.00  0.00     0.001 A 
ATOM     85  C   UNL A   1      37.760  28.733  30.994  1.00  0.00     0.001 A 
ATOM     86  C   UNL A   1      36.902  29.274  30.039  1.00  0.00     0.000 A 
ENDBRANCH  62  81
BRANCH  74  87
ATOM     87  C   UNL A   1      45.446  32.261  29.198  1.00  0.00    -0.014 A 
ATOM     88  C   UNL A   1      45.367  33.239  28.195  1.00  0.00     0.009 A 
ATOM     89  C   UNL A   1      45.774  32.651  30.506  1.00  0.00     0.009 A 
ATOM     90  C   UNL A   1      45.647  34.575  28.490  1.00  0.00     0.001 A 
ATOM     91  C   UNL A   1      46.021  33.991  30.804  1.00  0.00     0.001 A 
ATOM     92  C   UNL A   1      45.967  34.951  29.795  1.00  0.00     0.000 A 
ENDBRANCH  74  87
ENDBRANCH  48  49
ENDBRANCH  40  43
ENDBRANCH  38  39
ENDBRANCH  37  38
ENDBRANCH  36  37
ENDBRANCH  35  36
ENDBRANCH   3  35
TORSDOF 24
ENDMDL
MODEL 2
REMARK VINA RESULT:     -10.7      1.004      5.555
REMARK SMILES CCCC[C@@H](Sc1nc(OCCC2CCCCC2)cc(OCCC2CCCCC2)n1)C(=O)NCCCCNC(=O)c1ccc(-c2c3nc(c(-c4ccccc4)c4ccc([nH]4)c(-c4ccccc4)c4nc(c(-c5ccccc5)c5ccc2[nH]5)C=C4)C=C3)cc1
REMARK SMILES IDX 31 1 32 2 33 3 5 5 4 6 3 7 2 8 1 9 6 10 7 11 8 12 30 13 9 14
REMARK SMILES IDX 20 15 19 16 10 17 11 18 12 19 13 20 14 21 18 22 15 23 17 24
REMARK SMILES IDX 16 25 21 26 22 27 23 28 24 29 25 30 29 31 26 32 28 33 27 34
REMARK SMILES IDX 34 35 35 36 36 37 37 38 38 39 39 40 40 42 41 43 42 44 88 45
REMARK SMILES IDX 43 46 87 47 44 48 45 49 46 50 81 51 47 52 86 53 80 54 82 55
REMARK SMILES IDX 48 56 85 57 79 58 78 59 49 61 71 62 56 63 70 64 57 65 60 66
REMARK SMILES IDX 69 67 83 68 58 69 59 70 68 72 84 73 61 74 50 75 51 76 55 77
REMARK SMILES IDX 52 78 54 79 53 80 72 81 73 82 77 83 74 84 76 85 75 86 62 87
REMARK SMILES IDX 63 88 67 89 64 90 66 91 65 92
REMARK H PARENT 33 4 38 41 82 60 60 71
REMARK Flexibility Score: inf
ROOT
ATOM      1  C   UNL A   1      37.084  23.730  25.524  1.00  0.00     0.233 C 
ATOM      2  O   UNL A   1      38.017  24.409  25.961  1.00  0.00    -0.274 OA
ATOM      3  N   UNL A   1      37.401  22.555  24.886  1.00  0.00    -0.355 N 
ATOM      4  H   UNL A   1      38.364  22.354  24.846  1.00  0.00     0.163 HD
ENDROOT
BRANCH   1   5
ATOM      5  C   UNL A   1      35.611  24.193  25.676  1.00  0.00     0.144 C 
BRANCH   5   6
ATOM      6  C   UNL A   1      35.028  24.226  24.243  1.00  0.00     0.025 C 
BRANCH   6   7
ATOM      7  C   UNL A   1      33.614  24.703  23.940  1.00  0.00     0.001 C 
BRANCH   7   8
ATOM      8  C   UNL A   1      33.341  25.218  22.532  1.00  0.00    -0.003 C 
ATOM      9  C   UNL A   1      33.626  26.697  22.378  1.00  0.00     0.004 C 
ENDBRANCH   7   8
ENDBRANCH   6   7
ENDBRANCH   5   6
BRANCH   5  10
ATOM     10  S   UNL A   1      35.004  23.157  27.104  1.00  0.00    -0.073 SA
BRANCH  10  11
ATOM     11  C   UNL A   1      33.316  22.772  26.793  1.00  0.00     0.195 A 
ATOM     12  N   UNL A   1      32.371  23.650  27.130  1.00  0.00    -0.187 NA
ATOM     13  N   UNL A   1      33.114  21.662  26.056  1.00  0.00    -0.187 NA
ATOM     14  C   UNL A   1      31.187  23.494  26.538  1.00  0.00     0.221 A 
ATOM     15  C   UNL A   1      31.903  21.508  25.515  1.00  0.00     0.221 A 
ATOM     16  C   UNL A   1      30.949  22.471  25.661  1.00  0.00     0.136 A 
BRANCH  14  17
ATOM     17  O   UNL A   1      30.360  24.604  26.510  1.00  0.00    -0.477 OA
BRANCH  17  18
ATOM     18  C   UNL A   1      30.254  25.274  25.249  1.00  0.00     0.231 C 
BRANCH  18  19
ATOM     19  C   UNL A   1      30.164  26.821  25.407  1.00  0.00     0.045 C 
BRANCH  19  20
ATOM     20  C   UNL A   1      31.529  27.518  25.377  1.00  0.00    -0.008 C 
ATOM     21  C   UNL A   1      31.545  29.013  25.061  1.00  0.00     0.004 C 
ATOM     22  C   UNL A   1      32.390  27.250  26.611  1.00  0.00     0.004 C 
ATOM     23  C   UNL A   1      32.981  29.427  24.701  1.00  0.00     0.000 C 
ATOM     24  C   UNL A   1      33.846  27.587  26.285  1.00  0.00     0.000 C 
ATOM     25  C   UNL A   1      34.019  29.009  25.746  1.00  0.00     0.000 C 
ENDBRANCH  19  20
ENDBRANCH  18  19
ENDBRANCH  17  18
ENDBRANCH  14  17
BRANCH  15  26
ATOM     26  O   UNL A   1      31.744  20.362  24.779  1.00  0.00    -0.477 OA
BRANCH  26  27
ATOM     27  C   UNL A   1      32.186  20.318  23.415  1.00  0.00     0.231 C 
BRANCH  27  28
ATOM     28  C   UNL A   1      32.554  18.898  22.932  1.00  0.00     0.045 C 
BRANCH  28  29
ATOM     29  C   UNL A   1      33.178  17.967  23.987  1.00  0.00    -0.008 C 
ATOM     30  C   UNL A   1      32.164  17.018  24.623  1.00  0.00     0.004 C 
ATOM     31  C   UNL A   1      34.295  17.070  23.429  1.00  0.00     0.004 C 
ATOM     32  C   UNL A   1      32.790  16.375  25.849  1.00  0.00     0.000 C 
ATOM     33  C   UNL A   1      34.965  16.268  24.557  1.00  0.00     0.000 C 
ATOM     34  C   UNL A   1      33.986  15.524  25.469  1.00  0.00     0.000 C 
ENDBRANCH  28  29
ENDBRANCH  27  28
ENDBRANCH  26  27
ENDBRANCH  15  26
ENDBRANCH  10  11
ENDBRANCH   5  10
ENDBRANCH   1   5
BRANCH   3  35
ATOM     35  C   UNL A   1      36.542  21.560  24.259  1.00  0.00     0.116 C 
BRANCH  35  36
ATOM     36  C   UNL A   1      36.725  20.180  24.897  1.00  0.00     0.023 C 
BRANCH  36  37
ATOM     37  C   UNL A   1      38.127  19.602  24.738  1.00  0.00     0.023 C 
BRANCH  37  38
ATOM     38  C   UNL A   1      39.033  19.815  25.941  1.00  0.00     0.116 C 
BRANCH  38  39
ATOM     39  N   UNL A   1      40.276  19.066  25.852  1.00  0.00    -0.352 N 
ATOM     40  C   UNL A   1      41.560  19.519  26.065  1.00  0.00     0.251 C 
ATOM     41  H   UNL A   1      40.190  18.115  25.611  1.00  0.00     0.163 HD
ATOM     42  O   UNL A   1      42.524  18.820  25.811  1.00  0.00    -0.269 OA
BRANCH  40  43
ATOM     43  C   UNL A   1      41.740  20.893  26.577  1.00  0.00     0.039 A 
ATOM     44  C   UNL A   1      41.756  21.102  27.956  1.00  0.00     0.014 A 
ATOM     45  C   UNL A   1      41.958  21.952  25.692  1.00  0.00     0.014 A 
ATOM     46  C   UNL A   1      42.060  22.370  28.451  1.00  0.00     0.010 A 
ATOM     47  C   UNL A   1      42.348  23.190  26.186  1.00  0.00     0.010 A 
ATOM     48  C   UNL A   1      42.396  23.413  27.571  1.00  0.00    -0.014 A 
BRANCH  48  49
ATOM     49  C   UNL A   1      42.799  24.747  28.080  1.00  0.00     0.031 A 
ATOM     50  C   UNL A   1      41.759  25.806  28.318  1.00  0.00     0.074 A 
ATOM     51  C   UNL A   1      44.104  25.023  28.268  1.00  0.00     0.049 A 
ATOM     52  N   UNL A   1      41.918  27.043  28.717  1.00  0.00    -0.248 NA
ATOM     53  C   UNL A   1      40.360  25.439  28.046  1.00  0.00     0.031 C 
ATOM     54  C   UNL A   1      45.213  24.095  28.029  1.00  0.00     0.029 A 
ATOM     55  N   UNL A   1      44.720  26.170  28.703  1.00  0.00    -0.354 N 
ATOM     56  C   UNL A   1      40.647  27.601  28.728  1.00  0.00     0.074 A 
ATOM     57  C   UNL A   1      39.734  26.590  28.243  1.00  0.00     0.031 C 
ATOM     58  C   UNL A   1      46.368  24.700  28.349  1.00  0.00     0.029 A 
ATOM     59  C   UNL A   1      46.089  26.068  28.772  1.00  0.00     0.049 A 
ATOM     60  H   UNL A   1      44.228  26.989  28.942  1.00  0.00     0.167 HD
ATOM     61  C   UNL A   1      40.268  28.838  29.125  1.00  0.00     0.031 A 
ATOM     62  C   UNL A   1      47.015  26.977  29.128  1.00  0.00     0.031 A 
ATOM     63  C   UNL A   1      41.175  29.840  29.615  1.00  0.00     0.049 A 
ATOM     64  C   UNL A   1      46.570  28.351  29.550  1.00  0.00     0.074 A 
ATOM     65  C   UNL A   1      40.883  31.103  30.100  1.00  0.00     0.029 A 
ATOM     66  N   UNL A   1      42.553  29.697  29.674  1.00  0.00    -0.354 N 
ATOM     67  N   UNL A   1      45.354  28.837  29.633  1.00  0.00    -0.248 NA
ATOM     68  C   UNL A   1      47.624  29.297  29.940  1.00  0.00     0.031 C 
ATOM     69  C   UNL A   1      42.089  31.746  30.394  1.00  0.00     0.029 A 
ATOM     70  C   UNL A   1      43.127  30.859  30.158  1.00  0.00     0.049 A 
ATOM     71  H   UNL A   1      43.048  28.888  29.411  1.00  0.00     0.167 HD
ATOM     72  C   UNL A   1      45.496  30.133  30.111  1.00  0.00     0.074 A 
ATOM     73  C   UNL A   1      46.913  30.349  30.318  1.00  0.00     0.031 C 
ATOM     74  C   UNL A   1      44.539  31.060  30.357  1.00  0.00     0.031 A 
BRANCH  61  75
ATOM     75  C   UNL A   1      38.806  29.179  29.036  1.00  0.00    -0.014 A 
ATOM     76  C   UNL A   1      37.945  29.000  30.130  1.00  0.00     0.009 A 
ATOM     77  C   UNL A   1      38.288  29.723  27.850  1.00  0.00     0.009 A 
ATOM     78  C   UNL A   1      36.590  29.323  30.028  1.00  0.00     0.001 A 
ATOM     79  C   UNL A   1      36.941  30.076  27.760  1.00  0.00     0.001 A 
ATOM     80  C   UNL A   1      36.091  29.867  28.845  1.00  0.00     0.000 A 
ENDBRANCH  61  75
BRANCH  62  81
ATOM     81  C   UNL A   1      48.459  26.620  29.111  1.00  0.00    -0.014 A 
ATOM     82  C   UNL A   1      49.222  26.783  27.946  1.00  0.00     0.009 A 
ATOM     83  C   UNL A   1      49.078  26.098  30.258  1.00  0.00     0.009 A 
ATOM     84  C   UNL A   1      50.567  26.402  27.919  1.00  0.00     0.001 A 
ATOM     85  C   UNL A   1      50.430  25.751  30.239  1.00  0.00     0.001 A 
ATOM     86  C   UNL A   1      51.170  25.891  29.067  1.00  0.00     0.000 A 
ENDBRANCH  62  81
BRANCH  74  87
ATOM     87  C   UNL A   1      44.989  32.382  30.917  1.00  0.00    -0.014 A 
ATOM     88  C   UNL A   1      45.334  33.453  30.079  1.00  0.00     0.009 A 
ATOM     89  C   UNL A   1      45.023  32.568  32.308  1.00  0.00     0.009 A 
ATOM     90  C   UNL A   1      45.741  34.672  30.624  1.00  0.00     0.001 A 
ATOM     91  C   UNL A   1      45.397  33.798  32.850  1.00  0.00     0.001 A 
ATOM     92  C   UNL A   1      45.766  34.846  32.009  1.00  0.00     0.000 A 
ENDBRANCH  74  87
ENDBRANCH  48  49
ENDBRANCH  40  43
ENDBRANCH  38  39
ENDBRANCH  37  38
ENDBRANCH  36  37
ENDBRANCH  35  36
ENDBRANCH   3  35
TORSDOF 24
ENDMDL
MODEL 3
REMARK VINA RESULT:     -10.3      2.372      7.910
REMARK SMILES CCCC[C@@H](Sc1nc(OCCC2CCCCC2)cc(OCCC2CCCCC2)n1)C(=O)NCCCCNC(=O)c1ccc(-c2c3nc(c(-c4ccccc4)c4ccc([nH]4)c(-c4ccccc4)c4nc(c(-c5ccccc5)c5ccc2[nH]5)C=C4)C=C3)cc1
REMARK SMILES IDX 31 1 32 2 33 3 5 5 4 6 3 7 2 8 1 9 6 10 7 11 8 12 30 13 9 14
REMARK SMILES IDX 20 15 19 16 10 17 11 18 12 19 13 20 14 21 18 22 15 23 17 24
REMARK SMILES IDX 16 25 21 26 22 27 23 28 24 29 25 30 29 31 26 32 28 33 27 34
REMARK SMILES IDX 34 35 35 36 36 37 37 38 38 39 39 40 40 42 41 43 42 44 88 45
REMARK SMILES IDX 43 46 87 47 44 48 45 49 46 50 81 51 47 52 86 53 80 54 82 55
REMARK SMILES IDX 48 56 85 57 79 58 78 59 49 61 71 62 56 63 70 64 57 65 60 66
REMARK SMILES IDX 69 67 83 68 58 69 59 70 68 72 84 73 61 74 50 75 51 76 55 77
REMARK SMILES IDX 52 78 54 79 53 80 72 81 73 82 77 83 74 84 76 85 75 86 62 87
REMARK SMILES IDX 63 88 67 89 64 90 66 91 65 92
REMARK H PARENT 33 4 38 41 82 60 60 71
REMARK Flexibility Score: inf
ROOT
ATOM      1  C   UNL A   1      34.715  23.010  26.925  1.00  0.00     0.233 C 
ATOM      2  O   UNL A   1      34.480  22.638  28.077  1.00  0.00    -0.274 OA
ATOM      3  N   UNL A   1      35.982  22.799  26.438  1.00  0.00    -0.355 N 
ATOM      4  H   UNL A   1      36.596  22.350  27.063  1.00  0.00     0.163 HD
ENDROOT
BRANCH   1   5
ATOM      5  C   UNL A   1      33.626  23.704  26.066  1.00  0.00     0.144 C 
BRANCH   5   6
ATOM      6  C   UNL A   1      32.292  23.490  26.819  1.00  0.00     0.025 C 
BRANCH   6   7
ATOM      7  C   UNL A   1      30.954  23.353  26.105  1.00  0.00     0.001 C 
BRANCH   7   8
ATOM      8  C   UNL A   1      30.591  24.437  25.098  1.00  0.00    -0.003 C 
ATOM      9  C   UNL A   1      30.115  25.717  25.752  1.00  0.00     0.004 C 
ENDBRANCH   7   8
ENDBRANCH   6   7
ENDBRANCH   5   6
BRANCH   5  10
ATOM     10  S   UNL A   1      34.419  25.340  25.646  1.00  0.00    -0.073 SA
BRANCH  10  11
ATOM     11  C   UNL A   1      33.831  25.817  24.059  1.00  0.00     0.195 A 
ATOM     12  N   UNL A   1      34.016  25.004  23.019  1.00  0.00    -0.187 NA
ATOM     13  N   UNL A   1      33.061  26.923  24.049  1.00  0.00    -0.187 NA
ATOM     14  C   UNL A   1      33.235  25.218  21.960  1.00  0.00     0.221 A 
ATOM     15  C   UNL A   1      32.326  27.139  22.955  1.00  0.00     0.221 A 
ATOM     16  C   UNL A   1      32.322  26.236  21.933  1.00  0.00     0.136 A 
BRANCH  14  17
ATOM     17  O   UNL A   1      33.081  24.158  21.083  1.00  0.00    -0.477 OA
BRANCH  17  18
ATOM     18  C   UNL A   1      33.432  22.867  21.592  1.00  0.00     0.231 C 
BRANCH  18  19
ATOM     19  C   UNL A   1      32.314  22.263  22.494  1.00  0.00     0.045 C 
BRANCH  19  20
ATOM     20  C   UNL A   1      32.627  20.846  22.985  1.00  0.00    -0.008 C 
ATOM     21  C   UNL A   1      32.570  20.599  24.492  1.00  0.00     0.004 C 
ATOM     22  C   UNL A   1      31.846  19.750  22.261  1.00  0.00     0.004 C 
ATOM     23  C   UNL A   1      33.275  19.268  24.803  1.00  0.00     0.000 C 
ATOM     24  C   UNL A   1      32.544  18.408  22.486  1.00  0.00     0.000 C 
ATOM     25  C   UNL A   1      32.759  18.093  23.968  1.00  0.00     0.000 C 
ENDBRANCH  19  20
ENDBRANCH  18  19
ENDBRANCH  17  18
ENDBRANCH  14  17
BRANCH  15  26
ATOM     26  O   UNL A   1      31.563  28.277  22.990  1.00  0.00    -0.477 OA
BRANCH  26  27
ATOM     27  C   UNL A   1      30.160  28.211  22.698  1.00  0.00     0.231 C 
BRANCH  27  28
ATOM     28  C   UNL A   1      29.339  29.339  23.360  1.00  0.00     0.045 C 
BRANCH  28  29
ATOM     29  C   UNL A   1      29.120  30.603  22.509  1.00  0.00    -0.008 C 
ATOM     30  C   UNL A   1      28.135  30.389  21.361  1.00  0.00     0.004 C 
ATOM     31  C   UNL A   1      28.574  31.795  23.311  1.00  0.00     0.004 C 
ATOM     32  C   UNL A   1      28.223  31.569  20.407  1.00  0.00     0.000 C 
ATOM     33  C   UNL A   1      28.508  33.058  22.436  1.00  0.00     0.000 C 
ATOM     34  C   UNL A   1      27.806  32.857  21.091  1.00  0.00     0.000 C 
ENDBRANCH  28  29
ENDBRANCH  27  28
ENDBRANCH  26  27
ENDBRANCH  15  26
ENDBRANCH  10  11
ENDBRANCH   5  10
ENDBRANCH   1   5
BRANCH   3  35
ATOM     35  C   UNL A   1      36.564  23.134  25.146  1.00  0.00     0.116 C 
BRANCH  35  36
ATOM     36  C   UNL A   1      36.683  21.899  24.248  1.00  0.00     0.023 C 
BRANCH  36  37
ATOM     37  C   UNL A   1      37.327  20.695  24.928  1.00  0.00     0.023 C 
BRANCH  37  38
ATOM     38  C   UNL A   1      38.658  20.994  25.600  1.00  0.00     0.116 C 
BRANCH  38  39
ATOM     39  N   UNL A   1      39.549  19.844  25.623  1.00  0.00    -0.352 N 
ATOM     40  C   UNL A   1      40.873  19.801  26.004  1.00  0.00     0.251 C 
ATOM     41  H   UNL A   1      39.157  18.989  25.332  1.00  0.00     0.163 HD
ATOM     42  O   UNL A   1      41.544  18.800  25.834  1.00  0.00    -0.269 OA
BRANCH  40  43
ATOM     43  C   UNL A   1      41.471  21.018  26.593  1.00  0.00     0.039 A 
ATOM     44  C   UNL A   1      42.035  21.970  25.744  1.00  0.00     0.014 A 
ATOM     45  C   UNL A   1      41.408  21.236  27.972  1.00  0.00     0.014 A 
ATOM     46  C   UNL A   1      42.479  23.180  26.277  1.00  0.00     0.010 A 
ATOM     47  C   UNL A   1      41.768  22.475  28.486  1.00  0.00     0.010 A 
ATOM     48  C   UNL A   1      42.313  23.457  27.645  1.00  0.00    -0.014 A 
BRANCH  48  49
ATOM     49  C   UNL A   1      42.705  24.769  28.216  1.00  0.00     0.031 A 
ATOM     50  C   UNL A   1      41.669  25.836  28.430  1.00  0.00     0.074 A 
ATOM     51  C   UNL A   1      44.002  25.019  28.485  1.00  0.00     0.049 A 
ATOM     52  N   UNL A   1      41.823  27.057  28.876  1.00  0.00    -0.248 NA
ATOM     53  C   UNL A   1      40.281  25.500  28.070  1.00  0.00     0.031 C 
ATOM     54  C   UNL A   1      45.109  24.081  28.278  1.00  0.00     0.029 A 
ATOM     55  N   UNL A   1      44.608  26.142  28.988  1.00  0.00    -0.354 N 
ATOM     56  C   UNL A   1      40.560  27.635  28.834  1.00  0.00     0.074 A 
ATOM     57  C   UNL A   1      39.663  26.654  28.268  1.00  0.00     0.031 C 
ATOM     58  C   UNL A   1      46.253  24.657  28.681  1.00  0.00     0.029 A 
ATOM     59  C   UNL A   1      45.970  26.016  29.130  1.00  0.00     0.049 A 
ATOM     60  H   UNL A   1      44.115  26.960  29.226  1.00  0.00     0.167 HD
ATOM     61  C   UNL A   1      40.177  28.865  29.248  1.00  0.00     0.031 A 
ATOM     62  C   UNL A   1      46.888  26.900  29.565  1.00  0.00     0.031 A 
ATOM     63  C   UNL A   1      41.070  29.837  29.819  1.00  0.00     0.049 A 
ATOM     64  C   UNL A   1      46.439  28.266  30.005  1.00  0.00     0.074 A 
ATOM     65  C   UNL A   1      40.769  31.089  30.326  1.00  0.00     0.029 A 
ATOM     66  N   UNL A   1      42.440  29.671  29.950  1.00  0.00    -0.354 N 
ATOM     67  N   UNL A   1      45.227  28.768  30.035  1.00  0.00    -0.248 NA
ATOM     68  C   UNL A   1      47.483  29.184  30.481  1.00  0.00     0.031 C 
ATOM     69  C   UNL A   1      41.965  31.704  30.707  1.00  0.00     0.029 A 
ATOM     70  C   UNL A   1      43.003  30.808  30.501  1.00  0.00     0.049 A 
ATOM     71  H   UNL A   1      42.938  28.862  29.688  1.00  0.00     0.167 HD
ATOM     72  C   UNL A   1      45.360  30.047  30.561  1.00  0.00     0.074 A 
ATOM     73  C   UNL A   1      46.767  30.235  30.852  1.00  0.00     0.031 C 
ATOM     74  C   UNL A   1      44.405  30.981  30.784  1.00  0.00     0.031 A 
BRANCH  61  75
ATOM     75  C   UNL A   1      38.728  29.232  29.090  1.00  0.00    -0.014 A 
ATOM     76  C   UNL A   1      38.224  29.713  27.871  1.00  0.00     0.009 A 
ATOM     77  C   UNL A   1      37.844  29.059  30.166  1.00  0.00     0.009 A 
ATOM     78  C   UNL A   1      36.874  30.048  27.744  1.00  0.00     0.001 A 
ATOM     79  C   UNL A   1      36.489  29.363  30.027  1.00  0.00     0.001 A 
ATOM     80  C   UNL A   1      36.007  29.866  28.820  1.00  0.00     0.000 A 
ENDBRANCH  61  75
BRANCH  62  81
ATOM     81  C   UNL A   1      48.325  26.520  29.616  1.00  0.00    -0.014 A 
ATOM     82  C   UNL A   1      48.853  25.870  30.742  1.00  0.00     0.009 A 
ATOM     83  C   UNL A   1      49.180  26.820  28.545  1.00  0.00     0.009 A 
ATOM     84  C   UNL A   1      50.214  25.557  30.807  1.00  0.00     0.001 A 
ATOM     85  C   UNL A   1      50.532  26.475  28.598  1.00  0.00     0.001 A 
ATOM     86  C   UNL A   1      51.051  25.856  29.733  1.00  0.00     0.000 A 
ENDBRANCH  62  81
BRANCH  74  87
ATOM     87  C   UNL A   1      44.840  32.278  31.409  1.00  0.00    -0.014 A 
ATOM     88  C   UNL A   1      45.093  32.379  32.785  1.00  0.00     0.009 A 
ATOM     89  C   UNL A   1      45.043  33.404  30.595  1.00  0.00     0.009 A 
ATOM     90  C   UNL A   1      45.503  33.593  33.340  1.00  0.00     0.001 A 
ATOM     91  C   UNL A   1      45.485  34.607  31.147  1.00  0.00     0.001 A 
ATOM     92  C   UNL A   1      45.705  34.704  32.519  1.00  0.00     0.000 A 
ENDBRANCH  74  87
ENDBRANCH  48  49
ENDBRANCH  40  43
ENDBRANCH  38  39
ENDBRANCH  37  38
ENDBRANCH  36  37
ENDBRANCH  35  36
ENDBRANCH   3  35
TORSDOF 24
ENDMDL
