MODEL 1
REMARK VINA RESULT:     -10.4      0.000      0.000
REMARK SMILES CCN(C(=O)N(C)Cc1cccc(C)n1)C(C)(C)C(=O)NCCCCNC(=O)c1ccc(-c2c3nc(c(-c4ccccc4)c4ccc([nH]4)c(-c4ccccc4)c4nc(c(-c5ccccc5)c5ccc2[nH]5)C=C4)C=C3)cc1
REMARK SMILES IDX 22 1 21 2 19 3 20 4 16 6 17 7 18 8 3 9 2 10 1 11 4 12 5 13
REMARK SMILES IDX 6 14 7 15 8 16 9 17 10 18 15 19 11 20 13 21 12 22 14 23
REMARK SMILES IDX 23 24 24 25 25 26 26 27 27 28 28 30 29 31 30 32 76 33 31 34
REMARK SMILES IDX 75 35 32 36 33 37 34 38 69 39 35 40 74 41 68 42 70 43 36 44
REMARK SMILES IDX 73 45 67 46 66 47 37 49 59 50 44 51 58 52 45 53 48 54 57 55
REMARK SMILES IDX 71 56 46 57 47 58 56 60 72 61 49 62 38 63 39 64 43 65 40 66
REMARK SMILES IDX 42 67 41 68 60 69 61 70 65 71 62 72 64 73 63 74 50 75 51 76
REMARK SMILES IDX 55 77 52 78 54 79 53 80
REMARK H PARENT 21 5 26 29 70 48 48 59
REMARK Flexibility Score: inf
ROOT
ATOM      1  C   UNL A   1      32.065  29.866  25.748  1.00  0.00     0.116 C 
ENDROOT
BRANCH   1   2
ATOM      2  N   UNL A   1      32.786  29.704  24.496  1.00  0.00    -0.354 N 
ATOM      3  C   UNL A   1      33.365  28.600  23.922  1.00  0.00     0.245 C 
ATOM      4  O   UNL A   1      34.283  28.846  23.133  1.00  0.00    -0.272 OA
ATOM      5  H   UNL A   1      32.874  30.529  23.967  1.00  0.00     0.163 HD
BRANCH   3   6
ATOM      6  C   UNL A   1      32.987  27.127  24.368  1.00  0.00     0.117 C 
ATOM      7  C   UNL A   1      33.584  26.785  25.756  1.00  0.00     0.045 C 
ATOM      8  C   UNL A   1      33.600  26.259  23.241  1.00  0.00     0.045 C 
BRANCH   6   9
ATOM      9  N   UNL A   1      31.483  26.859  24.424  1.00  0.00    -0.311 N 
BRANCH   9  10
ATOM     10  C   UNL A   1      30.709  27.116  23.197  1.00  0.00     0.119 C 
ATOM     11  C   UNL A   1      29.621  28.178  23.330  1.00  0.00     0.027 C 
ENDBRANCH   9  10
BRANCH   9  12
ATOM     12  C   UNL A   1      31.074  25.850  25.306  1.00  0.00     0.320 C 
ATOM     13  O   UNL A   1      30.597  26.146  26.406  1.00  0.00    -0.248 OA
BRANCH  12  14
ATOM     14  N   UNL A   1      31.071  24.532  24.865  1.00  0.00    -0.322 N 
ATOM     15  C   UNL A   1      30.656  23.986  23.582  1.00  0.00     0.149 C 
BRANCH  14  16
ATOM     16  C   UNL A   1      31.476  23.517  25.850  1.00  0.00     0.177 C 
BRANCH  16  17
ATOM     17  C   UNL A   1      32.612  22.611  25.378  1.00  0.00     0.060 A 
ATOM     18  C   UNL A   1      32.451  21.231  25.246  1.00  0.00     0.026 A 
ATOM     19  N   UNL A   1      33.809  23.209  25.134  1.00  0.00    -0.256 NA
ATOM     20  C   UNL A   1      33.532  20.444  24.870  1.00  0.00     0.004 A 
ATOM     21  C   UNL A   1      34.861  22.424  24.788  1.00  0.00     0.038 A 
ATOM     22  C   UNL A   1      34.759  21.046  24.640  1.00  0.00     0.023 A 
ATOM     23  C   UNL A   1      36.175  23.114  24.579  1.00  0.00     0.067 C 
ENDBRANCH  16  17
ENDBRANCH  14  16
ENDBRANCH  12  14
ENDBRANCH   9  12
ENDBRANCH   6   9
ENDBRANCH   3   6
ENDBRANCH   1   2
BRANCH   1  24
ATOM     24  C   UNL A   1      31.330  31.208  25.784  1.00  0.00     0.023 C 
BRANCH  24  25
ATOM     25  C   UNL A   1      31.437  31.951  27.116  1.00  0.00     0.023 C 
BRANCH  25  26
ATOM     26  C   UNL A   1      32.681  32.818  27.269  1.00  0.00     0.116 C 
BRANCH  26  27
ATOM     27  N   UNL A   1      32.373  34.207  27.578  1.00  0.00    -0.352 N 
ATOM     28  C   UNL A   1      32.922  35.022  28.542  1.00  0.00     0.251 C 
ATOM     29  H   UNL A   1      31.675  34.621  27.020  1.00  0.00     0.163 HD
ATOM     30  O   UNL A   1      32.463  36.132  28.755  1.00  0.00    -0.269 OA
BRANCH  28  31
ATOM     31  C   UNL A   1      34.055  34.517  29.344  1.00  0.00     0.039 A 
ATOM     32  C   UNL A   1      33.799  33.966  30.601  1.00  0.00     0.014 A 
ATOM     33  C   UNL A   1      35.353  34.535  28.826  1.00  0.00     0.014 A 
ATOM     34  C   UNL A   1      34.835  33.349  31.305  1.00  0.00     0.010 A 
ATOM     35  C   UNL A   1      36.369  33.865  29.499  1.00  0.00     0.010 A 
ATOM     36  C   UNL A   1      36.116  33.251  30.736  1.00  0.00    -0.014 A 
BRANCH  36  37
ATOM     37  C   UNL A   1      37.199  32.478  31.392  1.00  0.00     0.031 A 
ATOM     38  C   UNL A   1      37.748  32.923  32.718  1.00  0.00     0.074 A 
ATOM     39  C   UNL A   1      37.758  31.438  30.742  1.00  0.00     0.049 A 
ATOM     40  N   UNL A   1      38.770  32.452  33.386  1.00  0.00    -0.248 NA
ATOM     41  C   UNL A   1      37.078  34.063  33.366  1.00  0.00     0.031 C 
ATOM     42  C   UNL A   1      37.349  30.936  29.427  1.00  0.00     0.029 A 
ATOM     43  N   UNL A   1      38.812  30.630  31.090  1.00  0.00    -0.354 N 
ATOM     44  C   UNL A   1      38.884  33.255  34.512  1.00  0.00     0.074 A 
ATOM     45  C   UNL A   1      37.846  34.259  34.428  1.00  0.00     0.031 C 
ATOM     46  C   UNL A   1      38.137  29.905  29.085  1.00  0.00     0.029 A 
ATOM     47  C   UNL A   1      39.131  29.698  30.133  1.00  0.00     0.049 A 
ATOM     48  H   UNL A   1      39.292  30.710  31.945  1.00  0.00     0.167 HD
ATOM     49  C   UNL A   1      39.771  33.158  35.532  1.00  0.00     0.031 A 
ATOM     50  C   UNL A   1      40.126  28.791  30.092  1.00  0.00     0.031 A 
ATOM     51  C   UNL A   1      40.784  32.144  35.632  1.00  0.00     0.049 A 
ATOM     52  C   UNL A   1      41.090  28.705  31.242  1.00  0.00     0.074 A 
ATOM     53  C   UNL A   1      41.668  31.911  36.672  1.00  0.00     0.029 A 
ATOM     54  N   UNL A   1      41.052  31.196  34.658  1.00  0.00    -0.354 N 
ATOM     55  N   UNL A   1      41.128  29.415  32.343  1.00  0.00    -0.248 NA
ATOM     56  C   UNL A   1      42.147  27.687  31.144  1.00  0.00     0.031 C 
ATOM     57  C   UNL A   1      42.504  30.852  36.306  1.00  0.00     0.029 A 
ATOM     58  C   UNL A   1      42.108  30.396  35.059  1.00  0.00     0.049 A 
ATOM     59  H   UNL A   1      40.566  31.106  33.807  1.00  0.00     0.167 HD
ATOM     60  C   UNL A   1      42.194  28.915  33.078  1.00  0.00     0.074 A 
ATOM     61  C   UNL A   1      42.765  27.830  32.308  1.00  0.00     0.031 C 
ATOM     62  C   UNL A   1      42.661  29.318  34.283  1.00  0.00     0.031 A 
BRANCH  49  63
ATOM     63  C   UNL A   1      39.692  34.183  36.626  1.00  0.00    -0.014 A 
ATOM     64  C   UNL A   1      38.935  33.952  37.785  1.00  0.00     0.009 A 
ATOM     65  C   UNL A   1      40.443  35.365  36.525  1.00  0.00     0.009 A 
ATOM     66  C   UNL A   1      38.915  34.897  38.813  1.00  0.00     0.001 A 
ATOM     67  C   UNL A   1      40.439  36.296  37.564  1.00  0.00     0.001 A 
ATOM     68  C   UNL A   1      39.672  36.064  38.705  1.00  0.00     0.000 A 
ENDBRANCH  49  63
BRANCH  50  69
ATOM     69  C   UNL A   1      40.279  27.895  28.916  1.00  0.00    -0.014 A 
ATOM     70  C   UNL A   1      41.024  28.304  27.800  1.00  0.00     0.009 A 
ATOM     71  C   UNL A   1      39.649  26.641  28.890  1.00  0.00     0.009 A 
ATOM     72  C   UNL A   1      41.106  27.492  26.667  1.00  0.00     0.001 A 
ATOM     73  C   UNL A   1      39.758  25.817  27.767  1.00  0.00     0.001 A 
ATOM     74  C   UNL A   1      40.475  26.249  26.653  1.00  0.00     0.000 A 
ENDBRANCH  50  69
BRANCH  62  75
ATOM     75  C   UNL A   1      43.826  28.564  34.856  1.00  0.00    -0.014 A 
ATOM     76  C   UNL A   1      43.633  27.418  35.641  1.00  0.00     0.009 A 
ATOM     77  C   UNL A   1      45.135  28.985  34.571  1.00  0.00     0.009 A 
ATOM     78  C   UNL A   1      44.730  26.725  36.157  1.00  0.00     0.001 A 
ATOM     79  C   UNL A   1      46.229  28.275  35.065  1.00  0.00     0.001 A 
ATOM     80  C   UNL A   1      46.025  27.151  35.864  1.00  0.00     0.000 A 
ENDBRANCH  62  75
ENDBRANCH  36  37
ENDBRANCH  28  31
ENDBRANCH  26  27
ENDBRANCH  25  26
ENDBRANCH  24  25
ENDBRANCH   1  24
TORSDOF 17
ENDMDL
MODEL 2
REMARK VINA RESULT:     -10.4      4.884      9.608
REMARK SMILES CCN(C(=O)N(C)Cc1cccc(C)n1)C(C)(C)C(=O)NCCCCNC(=O)c1ccc(-c2c3nc(c(-c4ccccc4)c4ccc([nH]4)c(-c4ccccc4)c4nc(c(-c5ccccc5)c5ccc2[nH]5)C=C4)C=C3)cc1
REMARK SMILES IDX 22 1 21 2 19 3 20 4 16 6 17 7 18 8 3 9 2 10 1 11 4 12 5 13
REMARK SMILES IDX 6 14 7 15 8 16 9 17 10 18 15 19 11 20 13 21 12 22 14 23
REMARK SMILES IDX 23 24 24 25 25 26 26 27 27 28 28 30 29 31 30 32 76 33 31 34
REMARK SMILES IDX 75 35 32 36 33 37 34 38 69 39 35 40 74 41 68 42 70 43 36 44
REMARK SMILES IDX 73 45 67 46 66 47 37 49 59 50 44 51 58 52 45 53 48 54 57 55
REMARK SMILES IDX 71 56 46 57 47 58 56 60 72 61 49 62 38 63 39 64 43 65 40 66
REMARK SMILES IDX 42 67 41 68 60 69 61 70 65 71 62 72 64 73 63 74 50 75 51 76
REMARK SMILES IDX 55 77 52 78 54 79 53 80
REMARK H PARENT 21 5 26 29 70 48 48 59
REMARK Flexibility Score: inf
ROOT
ATOM      1  C   UNL A   1      35.344  21.086  25.178  1.00  0.00     0.116 C 
ENDROOT
BRANCH   1   2
ATOM      2  N   UNL A   1      34.576  21.265  26.400  1.00  0.00    -0.354 N 
ATOM      3  C   UNL A   1      33.307  21.746  26.609  1.00  0.00     0.245 C 
ATOM      4  O   UNL A   1      33.110  22.216  27.733  1.00  0.00    -0.272 OA
ATOM      5  H   UNL A   1      35.047  20.992  27.220  1.00  0.00     0.163 HD
BRANCH   3   6
ATOM      6  C   UNL A   1      32.241  21.835  25.440  1.00  0.00     0.117 C 
ATOM      7  C   UNL A   1      30.837  22.202  25.982  1.00  0.00     0.045 C 
ATOM      8  C   UNL A   1      32.277  20.410  24.834  1.00  0.00     0.045 C 
BRANCH   6   9
ATOM      9  N   UNL A   1      32.599  22.839  24.344  1.00  0.00    -0.311 N 
BRANCH   9  10
ATOM     10  C   UNL A   1      32.682  22.326  22.965  1.00  0.00     0.119 C 
ATOM     11  C   UNL A   1      33.354  23.264  21.967  1.00  0.00     0.027 C 
ENDBRANCH   9  10
BRANCH   9  12
ATOM     12  C   UNL A   1      32.196  24.161  24.571  1.00  0.00     0.320 C 
ATOM     13  O   UNL A   1      31.090  24.547  24.180  1.00  0.00    -0.248 OA
BRANCH  12  14
ATOM     14  N   UNL A   1      32.990  24.977  25.369  1.00  0.00    -0.322 N 
ATOM     15  C   UNL A   1      34.437  25.131  25.387  1.00  0.00     0.149 C 
BRANCH  14  16
ATOM     16  C   UNL A   1      32.288  25.754  26.404  1.00  0.00     0.177 C 
BRANCH  16  17
ATOM     17  C   UNL A   1      32.280  27.261  26.151  1.00  0.00     0.060 A 
ATOM     18  C   UNL A   1      33.015  28.146  26.940  1.00  0.00     0.026 A 
ATOM     19  N   UNL A   1      31.483  27.706  25.143  1.00  0.00    -0.256 NA
ATOM     20  C   UNL A   1      32.927  29.513  26.706  1.00  0.00     0.004 A 
ATOM     21  C   UNL A   1      31.392  29.046  24.940  1.00  0.00     0.038 A 
ATOM     22  C   UNL A   1      32.101  29.974  25.693  1.00  0.00     0.023 A 
ATOM     23  C   UNL A   1      30.463  29.501  23.855  1.00  0.00     0.067 C 
ENDBRANCH  16  17
ENDBRANCH  14  16
ENDBRANCH  12  14
ENDBRANCH   9  12
ENDBRANCH   6   9
ENDBRANCH   3   6
ENDBRANCH   1   2
BRANCH   1  24
ATOM     24  C   UNL A   1      36.758  21.648  25.337  1.00  0.00     0.023 C 
BRANCH  24  25
ATOM     25  C   UNL A   1      37.873  20.639  25.062  1.00  0.00     0.023 C 
BRANCH  25  26
ATOM     26  C   UNL A   1      39.094  20.769  25.965  1.00  0.00     0.116 C 
BRANCH  26  27
ATOM     27  N   UNL A   1      40.002  19.636  25.863  1.00  0.00    -0.352 N 
ATOM     28  C   UNL A   1      41.364  19.596  26.063  1.00  0.00     0.251 C 
ATOM     29  H   UNL A   1      39.584  18.779  25.616  1.00  0.00     0.163 HD
ATOM     30  O   UNL A   1      42.001  18.586  25.815  1.00  0.00    -0.269 OA
BRANCH  28  31
ATOM     31  C   UNL A   1      42.050  20.811  26.549  1.00  0.00     0.039 A 
ATOM     32  C   UNL A   1      42.581  21.704  25.615  1.00  0.00     0.014 A 
ATOM     33  C   UNL A   1      42.113  21.089  27.916  1.00  0.00     0.014 A 
ATOM     34  C   UNL A   1      43.098  22.926  26.050  1.00  0.00     0.010 A 
ATOM     35  C   UNL A   1      42.569  22.333  28.342  1.00  0.00     0.010 A 
ATOM     36  C   UNL A   1      43.050  23.269  27.412  1.00  0.00    -0.014 A 
BRANCH  36  37
ATOM     37  C   UNL A   1      43.456  24.614  27.887  1.00  0.00     0.031 A 
ATOM     38  C   UNL A   1      42.415  25.653  28.194  1.00  0.00     0.074 A 
ATOM     39  C   UNL A   1      44.765  24.931  27.938  1.00  0.00     0.049 A 
ATOM     40  N   UNL A   1      42.576  26.915  28.501  1.00  0.00    -0.248 NA
ATOM     41  C   UNL A   1      41.008  25.225  28.120  1.00  0.00     0.031 C 
ATOM     42  C   UNL A   1      45.874  24.028  27.618  1.00  0.00     0.029 A 
ATOM     43  N   UNL A   1      45.385  26.115  28.256  1.00  0.00    -0.354 N 
ATOM     44  C   UNL A   1      41.296  27.437  28.626  1.00  0.00     0.074 A 
ATOM     45  C   UNL A   1      40.368  26.365  28.337  1.00  0.00     0.031 C 
ATOM     46  C   UNL A   1      47.035  24.687  27.762  1.00  0.00     0.029 A 
ATOM     47  C   UNL A   1      46.753  26.067  28.143  1.00  0.00     0.049 A 
ATOM     48  H   UNL A   1      44.895  26.920  28.539  1.00  0.00     0.167 HD
ATOM     49  C   UNL A   1      40.927  28.696  28.961  1.00  0.00     0.031 A 
ATOM     50  C   UNL A   1      47.679  27.031  28.308  1.00  0.00     0.031 A 
ATOM     51  C   UNL A   1      41.847  29.754  29.278  1.00  0.00     0.049 A 
ATOM     52  C   UNL A   1      47.237  28.417  28.685  1.00  0.00     0.074 A 
ATOM     53  C   UNL A   1      41.565  31.037  29.717  1.00  0.00     0.029 A 
ATOM     54  N   UNL A   1      43.226  29.656  29.186  1.00  0.00    -0.354 N 
ATOM     55  N   UNL A   1      46.024  28.872  28.887  1.00  0.00    -0.248 NA
ATOM     56  C   UNL A   1      48.295  29.423  28.862  1.00  0.00     0.031 C 
ATOM     57  C   UNL A   1      42.772  31.730  29.845  1.00  0.00     0.029 A 
ATOM     58  C   UNL A   1      43.807  30.864  29.530  1.00  0.00     0.049 A 
ATOM     59  H   UNL A   1      43.719  28.848  28.915  1.00  0.00     0.167 HD
ATOM     60  C   UNL A   1      46.175  30.206  29.238  1.00  0.00     0.074 A 
ATOM     61  C   UNL A   1      47.596  30.484  29.239  1.00  0.00     0.031 C 
ATOM     62  C   UNL A   1      45.222  31.122  29.531  1.00  0.00     0.031 A 
BRANCH  49  63
ATOM     63  C   UNL A   1      39.459  29.007  28.999  1.00  0.00    -0.014 A 
ATOM     64  C   UNL A   1      38.782  29.457  27.854  1.00  0.00     0.009 A 
ATOM     65  C   UNL A   1      38.731  28.779  30.176  1.00  0.00     0.009 A 
ATOM     66  C   UNL A   1      37.406  29.694  27.897  1.00  0.00     0.001 A 
ATOM     67  C   UNL A   1      37.352  28.994  30.209  1.00  0.00     0.001 A 
ATOM     68  C   UNL A   1      36.692  29.455  29.072  1.00  0.00     0.000 A 
ENDBRANCH  49  63
BRANCH  50  69
ATOM     69  C   UNL A   1      49.121  26.733  28.103  1.00  0.00    -0.014 A 
ATOM     70  C   UNL A   1      49.694  26.830  26.827  1.00  0.00     0.009 A 
ATOM     71  C   UNL A   1      49.921  26.314  29.178  1.00  0.00     0.009 A 
ATOM     72  C   UNL A   1      51.031  26.479  26.623  1.00  0.00     0.001 A 
ATOM     73  C   UNL A   1      51.265  25.993  28.976  1.00  0.00     0.001 A 
ATOM     74  C   UNL A   1      51.815  26.063  27.698  1.00  0.00     0.000 A 
ENDBRANCH  50  69
BRANCH  62  75
ATOM     75  C   UNL A   1      45.686  32.499  29.908  1.00  0.00    -0.014 A 
ATOM     76  C   UNL A   1      45.994  32.823  31.237  1.00  0.00     0.009 A 
ATOM     77  C   UNL A   1      45.854  33.473  28.910  1.00  0.00     0.009 A 
ATOM     78  C   UNL A   1      46.432  34.107  31.566  1.00  0.00     0.001 A 
ATOM     79  C   UNL A   1      46.318  34.747  29.238  1.00  0.00     0.001 A 
ATOM     80  C   UNL A   1      46.599  35.065  30.566  1.00  0.00     0.000 A 
ENDBRANCH  62  75
ENDBRANCH  36  37
ENDBRANCH  28  31
ENDBRANCH  26  27
ENDBRANCH  25  26
ENDBRANCH  24  25
ENDBRANCH   1  24
TORSDOF 17
ENDMDL
MODEL 3
REMARK VINA RESULT:     -10.4      4.997      9.069
REMARK SMILES CCN(C(=O)N(C)Cc1cccc(C)n1)C(C)(C)C(=O)NCCCCNC(=O)c1ccc(-c2c3nc(c(-c4ccccc4)c4ccc([nH]4)c(-c4ccccc4)c4nc(c(-c5ccccc5)c5ccc2[nH]5)C=C4)C=C3)cc1
REMARK SMILES IDX 22 1 21 2 19 3 20 4 16 6 17 7 18 8 3 9 2 10 1 11 4 12 5 13
REMARK SMILES IDX 6 14 7 15 8 16 9 17 10 18 15 19 11 20 13 21 12 22 14 23
REMARK SMILES IDX 23 24 24 25 25 26 26 27 27 28 28 30 29 31 30 32 76 33 31 34
REMARK SMILES IDX 75 35 32 36 33 37 34 38 69 39 35 40 74 41 68 42 70 43 36 44
REMARK SMILES IDX 73 45 67 46 66 47 37 49 59 50 44 51 58 52 45 53 48 54 57 55
REMARK SMILES IDX 71 56 46 57 47 58 56 60 72 61 49 62 38 63 39 64 43 65 40 66
REMARK SMILES IDX 42 67 41 68 60 69 61 70 65 71 62 72 64 73 63 74 50 75 51 76
REMARK SMILES IDX 55 77 52 78 54 79 53 80
REMARK H PARENT 21 5 26 29 70 48 48 59
REMARK Flexibility Score: inf
ROOT
ATOM      1  C   UNL A   1      35.575  22.222  24.122  1.00  0.00     0.116 C 
ENDROOT
BRANCH   1   2
ATOM      2  N   UNL A   1      35.186  23.288  23.212  1.00  0.00    -0.354 N 
ATOM      3  C   UNL A   1      34.217  24.255  23.314  1.00  0.00     0.245 C 
ATOM      4  O   UNL A   1      33.809  24.696  22.235  1.00  0.00    -0.272 OA
ATOM      5  H   UNL A   1      35.709  23.324  22.379  1.00  0.00     0.163 HD
BRANCH   3   6
ATOM      6  C   UNL A   1      33.566  24.648  24.704  1.00  0.00     0.117 C 
ATOM      7  C   UNL A   1      32.715  25.937  24.587  1.00  0.00     0.045 C 
ATOM      8  C   UNL A   1      34.801  24.846  25.617  1.00  0.00     0.045 C 
BRANCH   6   9
ATOM      9  N   UNL A   1      32.683  23.556  25.310  1.00  0.00    -0.311 N 
BRANCH   9  10
ATOM     10  C   UNL A   1      32.408  23.641  26.755  1.00  0.00     0.119 C 
ATOM     11  C   UNL A   1      33.070  22.558  27.603  1.00  0.00     0.027 C 
ENDBRANCH   9  10
BRANCH   9  12
ATOM     12  C   UNL A   1      31.729  22.995  24.452  1.00  0.00     0.320 C 
ATOM     13  O   UNL A   1      30.737  23.651  24.117  1.00  0.00    -0.248 OA
BRANCH  12  14
ATOM     14  N   UNL A   1      31.992  21.761  23.869  1.00  0.00    -0.322 N 
ATOM     15  C   UNL A   1      32.110  21.407  22.463  1.00  0.00     0.149 C 
BRANCH  14  16
ATOM     16  C   UNL A   1      32.096  20.617  24.789  1.00  0.00     0.177 C 
BRANCH  16  17
ATOM     17  C   UNL A   1      32.775  19.390  24.182  1.00  0.00     0.060 A 
ATOM     18  C   UNL A   1      32.195  18.664  23.141  1.00  0.00     0.026 A 
ATOM     19  N   UNL A   1      33.958  19.011  24.736  1.00  0.00    -0.256 NA
ATOM     20  C   UNL A   1      32.825  17.522  22.663  1.00  0.00     0.004 A 
ATOM     21  C   UNL A   1      34.551  17.881  24.272  1.00  0.00     0.038 A 
ATOM     22  C   UNL A   1      34.021  17.119  23.237  1.00  0.00     0.023 A 
ATOM     23  C   UNL A   1      35.825  17.465  24.943  1.00  0.00     0.067 C 
ENDBRANCH  16  17
ENDBRANCH  14  16
ENDBRANCH  12  14
ENDBRANCH   9  12
ENDBRANCH   6   9
ENDBRANCH   3   6
ENDBRANCH   1   2
BRANCH   1  24
ATOM     24  C   UNL A   1      37.090  22.218  24.340  1.00  0.00     0.023 C 
BRANCH  24  25
ATOM     25  C   UNL A   1      37.654  20.883  24.824  1.00  0.00     0.023 C 
BRANCH  25  26
ATOM     26  C   UNL A   1      38.817  20.995  25.803  1.00  0.00     0.116 C 
BRANCH  26  27
ATOM     27  N   UNL A   1      39.706  19.842  25.765  1.00  0.00    -0.352 N 
ATOM     28  C   UNL A   1      41.050  19.774  26.060  1.00  0.00     0.251 C 
ATOM     29  H   UNL A   1      39.289  18.993  25.492  1.00  0.00     0.163 HD
ATOM     30  O   UNL A   1      41.681  18.750  25.857  1.00  0.00    -0.269 OA
BRANCH  28  31
ATOM     31  C   UNL A   1      41.726  20.976  26.590  1.00  0.00     0.039 A 
ATOM     32  C   UNL A   1      42.264  21.899  25.690  1.00  0.00     0.014 A 
ATOM     33  C   UNL A   1      41.773  21.212  27.966  1.00  0.00     0.014 A 
ATOM     34  C   UNL A   1      42.771  23.109  26.168  1.00  0.00     0.010 A 
ATOM     35  C   UNL A   1      42.220  22.444  28.435  1.00  0.00     0.010 A 
ATOM     36  C   UNL A   1      42.707  23.409  27.539  1.00  0.00    -0.014 A 
BRANCH  36  37
ATOM     37  C   UNL A   1      43.103  24.741  28.060  1.00  0.00     0.031 A 
ATOM     38  C   UNL A   1      42.060  25.788  28.328  1.00  0.00     0.074 A 
ATOM     39  C   UNL A   1      44.412  25.039  28.189  1.00  0.00     0.049 A 
ATOM     40  N   UNL A   1      42.219  27.042  28.666  1.00  0.00    -0.248 NA
ATOM     41  C   UNL A   1      40.653  25.381  28.169  1.00  0.00     0.031 C 
ATOM     42  C   UNL A   1      45.525  24.127  27.914  1.00  0.00     0.029 A 
ATOM     43  N   UNL A   1      45.027  26.209  28.562  1.00  0.00    -0.354 N 
ATOM     44  C   UNL A   1      40.940  27.579  28.730  1.00  0.00     0.074 A 
ATOM     45  C   UNL A   1      40.017  26.525  28.371  1.00  0.00     0.031 C 
ATOM     46  C   UNL A   1      46.684  24.768  28.133  1.00  0.00     0.029 A 
ATOM     47  C   UNL A   1      46.399  26.145  28.523  1.00  0.00     0.049 A 
ATOM     48  H   UNL A   1      44.533  27.015  28.832  1.00  0.00     0.167 HD
ATOM     49  C   UNL A   1      40.570  28.837  29.067  1.00  0.00     0.031 A 
ATOM     50  C   UNL A   1      47.326  27.094  28.755  1.00  0.00     0.031 A 
ATOM     51  C   UNL A   1      41.484  29.877  29.452  1.00  0.00     0.049 A 
ATOM     52  C   UNL A   1      46.881  28.479  29.133  1.00  0.00     0.074 A 
ATOM     53  C   UNL A   1      41.193  31.156  29.898  1.00  0.00     0.029 A 
ATOM     54  N   UNL A   1      42.864  29.762  29.434  1.00  0.00    -0.354 N 
ATOM     55  N   UNL A   1      45.665  28.946  29.276  1.00  0.00    -0.248 NA
ATOM     56  C   UNL A   1      47.940  29.468  29.385  1.00  0.00     0.031 C 
ATOM     57  C   UNL A   1      42.400  31.831  30.105  1.00  0.00     0.029 A 
ATOM     58  C   UNL A   1      43.440  30.956  29.832  1.00  0.00     0.049 A 
ATOM     59  H   UNL A   1      43.361  28.952  29.177  1.00  0.00     0.167 HD
ATOM     60  C   UNL A   1      45.813  30.272  29.659  1.00  0.00     0.074 A 
ATOM     61  C   UNL A   1      47.235  30.531  29.743  1.00  0.00     0.031 C 
ATOM     62  C   UNL A   1      44.856  31.195  29.915  1.00  0.00     0.031 A 
BRANCH  49  63
ATOM     63  C   UNL A   1      39.106  29.167  29.029  1.00  0.00    -0.014 A 
ATOM     64  C   UNL A   1      38.500  29.655  27.860  1.00  0.00     0.009 A 
ATOM     65  C   UNL A   1      38.308  28.919  30.157  1.00  0.00     0.009 A 
ATOM     66  C   UNL A   1      37.127  29.909  27.831  1.00  0.00     0.001 A 
ATOM     67  C   UNL A   1      36.933  29.152  30.117  1.00  0.00     0.001 A 
ATOM     68  C   UNL A   1      36.345  29.651  28.957  1.00  0.00     0.000 A 
ENDBRANCH  49  63
BRANCH  50  69
ATOM     69  C   UNL A   1      48.773  26.780  28.625  1.00  0.00    -0.014 A 
ATOM     70  C   UNL A   1      49.425  26.924  27.392  1.00  0.00     0.009 A 
ATOM     71  C   UNL A   1      49.499  26.299  29.726  1.00  0.00     0.009 A 
ATOM     72  C   UNL A   1      50.766  26.560  27.253  1.00  0.00     0.001 A 
ATOM     73  C   UNL A   1      50.849  25.963  29.592  1.00  0.00     0.001 A 
ATOM     74  C   UNL A   1      51.476  26.082  28.354  1.00  0.00     0.000 A 
ENDBRANCH  50  69
BRANCH  62  75
ATOM     75  C   UNL A   1      45.315  32.560  30.341  1.00  0.00    -0.014 A 
ATOM     76  C   UNL A   1      45.559  32.854  31.690  1.00  0.00     0.009 A 
ATOM     77  C   UNL A   1      45.544  33.550  29.373  1.00  0.00     0.009 A 
ATOM     78  C   UNL A   1      45.995  34.127  32.065  1.00  0.00     0.001 A 
ATOM     79  C   UNL A   1      46.005  34.812  29.748  1.00  0.00     0.001 A 
ATOM     80  C   UNL A   1      46.222  35.101  31.094  1.00  0.00     0.000 A 
ENDBRANCH  62  75
ENDBRANCH  36  37
ENDBRANCH  28  31
ENDBRANCH  26  27
ENDBRANCH  25  26
ENDBRANCH  24  25
ENDBRANCH   1  24
TORSDOF 17
ENDMDL
