MODEL 1
REMARK VINA RESULT:     -11.5      0.000      0.000
REMARK SMILES C[C@@H]1[C@@H](C(=O)NCCCCNC(=O)c2ccc(-c3c4nc(c(-c5ccccc5)c5ccc([nH]5)c(-c5ccccc5)c5nc(c(-c6ccccc6)c6ccc3[nH]6)C=C5)C=C4)cc2)CCN1C(=O)N1CCC[C@H]2CCC[C@@H]21
REMARK SMILES IDX 8 1 7 2 6 3 4 4 5 5 3 7 1 8 2 9 64 10 62 11 63 12 65 13
REMARK SMILES IDX 66 14 67 15 68 16 75 17 69 18 71 19 74 20 70 21 72 22 73 23
REMARK SMILES IDX 9 24 10 25 11 26 12 27 13 29 14 30 15 31 61 32 16 33 60 34
REMARK SMILES IDX 17 35 18 36 19 37 54 38 20 39 59 40 53 41 55 42 21 43 58 44
REMARK SMILES IDX 52 45 51 46 22 48 44 49 29 50 43 51 30 52 33 53 42 54 56 55
REMARK SMILES IDX 31 56 32 57 41 59 57 60 34 61 23 62 24 63 28 64 25 65 27 66
REMARK SMILES IDX 26 67 45 68 46 69 50 70 47 71 49 72 48 73 35 74 36 75 40 76
REMARK SMILES IDX 37 77 39 78 38 79
REMARK H PARENT 6 6 11 28 55 47 33 58
REMARK Flexibility Score: inf
ROOT
ATOM      1  C   UNL A   1      36.689  20.710  24.925  1.00  0.00     0.023 C 
ENDROOT
BRANCH   1   2
ATOM      2  C   UNL A   1      36.911  22.115  25.470  1.00  0.00     0.116 C 
BRANCH   2   3
ATOM      3  N   UNL A   1      35.961  22.507  26.493  1.00  0.00    -0.356 N 
ATOM      4  C   UNL A   1      34.702  23.024  26.339  1.00  0.00     0.225 C 
ATOM      5  O   UNL A   1      34.042  23.235  27.355  1.00  0.00    -0.275 OA
ATOM      6  H   UNL A   1      36.261  22.384  27.423  1.00  0.00     0.163 HD
BRANCH   4   7
ATOM      7  C   UNL A   1      34.231  23.404  24.940  1.00  0.00     0.102 C 
ATOM      8  C   UNL A   1      33.821  25.439  23.572  1.00  0.00     0.032 C 
ATOM      9  C   UNL A   1      33.474  24.754  24.901  1.00  0.00     0.096 C 
ATOM     10  N   UNL A   1      32.049  24.376  25.009  1.00  0.00    -0.321 N 
ATOM     11  C   UNL A   1      33.213  22.440  24.324  1.00  0.00     0.037 C 
ATOM     12  C   UNL A   1      31.881  22.949  24.832  1.00  0.00     0.122 C 
BRANCH  10  13
ATOM     13  C   UNL A   1      31.030  25.036  25.682  1.00  0.00     0.320 C 
ATOM     14  O   UNL A   1      30.537  24.579  26.713  1.00  0.00    -0.248 OA
BRANCH  13  15
ATOM     15  N   UNL A   1      30.694  26.279  25.217  1.00  0.00    -0.321 N 
ATOM     16  C   UNL A   1      29.615  26.478  24.261  1.00  0.00     0.121 C 
ATOM     17  C   UNL A   1      31.031  27.486  25.945  1.00  0.00     0.090 C 
ATOM     18  C   UNL A   1      30.011  27.524  23.212  1.00  0.00     0.022 C 
ATOM     19  C   UNL A   1      31.602  28.468  24.918  1.00  0.00     0.012 C 
ATOM     20  C   UNL A   1      32.126  27.468  27.005  1.00  0.00     0.025 C 
ATOM     21  C   UNL A   1      30.554  28.812  23.860  1.00  0.00     0.007 C 
ATOM     22  C   UNL A   1      32.119  29.607  25.780  1.00  0.00     0.006 C 
ATOM     23  C   UNL A   1      32.627  28.918  27.054  1.00  0.00     0.002 C 
ENDBRANCH  13  15
ENDBRANCH  10  13
ENDBRANCH   4   7
ENDBRANCH   2   3
ENDBRANCH   1   2
BRANCH   1  24
ATOM     24  C   UNL A   1      37.921  19.808  24.903  1.00  0.00     0.023 C 
BRANCH  24  25
ATOM     25  C   UNL A   1      39.021  20.172  25.893  1.00  0.00     0.116 C 
BRANCH  25  26
ATOM     26  N   UNL A   1      40.168  19.280  25.829  1.00  0.00    -0.352 N 
ATOM     27  C   UNL A   1      41.500  19.537  26.058  1.00  0.00     0.251 C 
ATOM     28  H   UNL A   1      39.960  18.350  25.583  1.00  0.00     0.163 HD
ATOM     29  O   UNL A   1      42.341  18.680  25.817  1.00  0.00    -0.269 OA
BRANCH  27  30
ATOM     30  C   UNL A   1      41.923  20.862  26.565  1.00  0.00     0.039 A 
ATOM     31  C   UNL A   1      42.329  21.838  25.650  1.00  0.00     0.014 A 
ATOM     32  C   UNL A   1      41.913  21.147  27.931  1.00  0.00     0.014 A 
ATOM     33  C   UNL A   1      42.648  23.120  26.101  1.00  0.00     0.010 A 
ATOM     34  C   UNL A   1      42.139  22.449  28.368  1.00  0.00     0.010 A 
ATOM     35  C   UNL A   1      42.516  23.449  27.459  1.00  0.00    -0.014 A 
BRANCH  35  36
ATOM     36  C   UNL A   1      42.778  24.825  27.955  1.00  0.00     0.031 A 
ATOM     37  C   UNL A   1      44.173  25.234  28.345  1.00  0.00     0.074 A 
ATOM     38  C   UNL A   1      41.755  25.688  28.119  1.00  0.00     0.049 A 
ATOM     39  N   UNL A   1      44.591  26.364  28.858  1.00  0.00    -0.248 NA
ATOM     40  C   UNL A   1      45.234  24.231  28.159  1.00  0.00     0.031 C 
ATOM     41  C   UNL A   1      40.350  25.409  27.816  1.00  0.00     0.029 A 
ATOM     42  N   UNL A   1      41.742  26.978  28.587  1.00  0.00    -0.354 N 
ATOM     43  C   UNL A   1      45.954  26.199  29.072  1.00  0.00     0.074 A 
ATOM     44  C   UNL A   1      46.281  24.844  28.690  1.00  0.00     0.031 C 
ATOM     45  C   UNL A   1      39.619  26.505  28.075  1.00  0.00     0.029 A 
ATOM     46  C   UNL A   1      40.492  27.547  28.604  1.00  0.00     0.049 A 
ATOM     47  H   UNL A   1      42.553  27.452  28.884  1.00  0.00     0.167 HD
ATOM     48  C   UNL A   1      46.860  27.099  29.524  1.00  0.00     0.031 A 
ATOM     49  C   UNL A   1      40.090  28.768  29.007  1.00  0.00     0.031 A 
ATOM     50  C   UNL A   1      46.539  28.449  29.899  1.00  0.00     0.049 A 
ATOM     51  C   UNL A   1      41.110  29.743  29.529  1.00  0.00     0.074 A 
ATOM     52  C   UNL A   1      47.392  29.453  30.323  1.00  0.00     0.029 A 
ATOM     53  N   UNL A   1      45.260  28.985  29.899  1.00  0.00    -0.354 N 
ATOM     54  N   UNL A   1      42.405  29.592  29.665  1.00  0.00    -0.248 NA
ATOM     55  C   UNL A   1      40.611  31.062  29.940  1.00  0.00     0.031 C 
ATOM     56  C   UNL A   1      46.622  30.579  30.634  1.00  0.00     0.029 A 
ATOM     57  C   UNL A   1      45.298  30.298  30.338  1.00  0.00     0.049 A 
ATOM     58  H   UNL A   1      44.444  28.503  29.627  1.00  0.00     0.167 HD
ATOM     59  C   UNL A   1      42.880  30.807  30.141  1.00  0.00     0.074 A 
ATOM     60  C   UNL A   1      41.736  31.687  30.259  1.00  0.00     0.031 C 
ATOM     61  C   UNL A   1      44.152  31.164  30.448  1.00  0.00     0.031 A 
BRANCH  48  62
ATOM     62  C   UNL A   1      48.288  26.640  29.646  1.00  0.00    -0.014 A 
ATOM     63  C   UNL A   1      48.761  26.027  30.818  1.00  0.00     0.009 A 
ATOM     64  C   UNL A   1      49.168  26.803  28.566  1.00  0.00     0.009 A 
ATOM     65  C   UNL A   1      50.095  25.629  30.923  1.00  0.00     0.001 A 
ATOM     66  C   UNL A   1      50.494  26.372  28.659  1.00  0.00     0.001 A 
ATOM     67  C   UNL A   1      50.959  25.798  29.841  1.00  0.00     0.000 A 
ENDBRANCH  48  62
BRANCH  49  68
ATOM     68  C   UNL A   1      38.656  29.151  28.913  1.00  0.00    -0.014 A 
ATOM     69  C   UNL A   1      37.809  29.017  30.025  1.00  0.00     0.009 A 
ATOM     70  C   UNL A   1      38.122  29.642  27.711  1.00  0.00     0.009 A 
ATOM     71  C   UNL A   1      36.453  29.337  29.926  1.00  0.00     0.001 A 
ATOM     72  C   UNL A   1      36.773  29.992  27.626  1.00  0.00     0.001 A 
ATOM     73  C   UNL A   1      35.938  29.829  28.729  1.00  0.00     0.000 A 
ENDBRANCH  49  68
BRANCH  61  74
ATOM     74  C   UNL A   1      44.383  32.584  30.890  1.00  0.00    -0.014 A 
ATOM     75  C   UNL A   1      44.367  32.944  32.246  1.00  0.00     0.009 A 
ATOM     76  C   UNL A   1      44.662  33.568  29.928  1.00  0.00     0.009 A 
ATOM     77  C   UNL A   1      44.588  34.270  32.626  1.00  0.00     0.001 A 
ATOM     78  C   UNL A   1      44.915  34.885  30.313  1.00  0.00     0.001 A 
ATOM     79  C   UNL A   1      44.867  35.237  31.661  1.00  0.00     0.000 A 
ENDBRANCH  61  74
ENDBRANCH  35  36
ENDBRANCH  27  30
ENDBRANCH  25  26
ENDBRANCH  24  25
ENDBRANCH   1  24
TORSDOF 13
ENDMDL
MODEL 2
REMARK VINA RESULT:     -11.4      3.359      8.894
REMARK SMILES C[C@@H]1[C@@H](C(=O)NCCCCNC(=O)c2ccc(-c3c4nc(c(-c5ccccc5)c5ccc([nH]5)c(-c5ccccc5)c5nc(c(-c6ccccc6)c6ccc3[nH]6)C=C5)C=C4)cc2)CCN1C(=O)N1CCC[C@H]2CCC[C@@H]21
REMARK SMILES IDX 8 1 7 2 6 3 4 4 5 5 3 7 1 8 2 9 64 10 62 11 63 12 65 13
REMARK SMILES IDX 66 14 67 15 68 16 75 17 69 18 71 19 74 20 70 21 72 22 73 23
REMARK SMILES IDX 9 24 10 25 11 26 12 27 13 29 14 30 15 31 61 32 16 33 60 34
REMARK SMILES IDX 17 35 18 36 19 37 54 38 20 39 59 40 53 41 55 42 21 43 58 44
REMARK SMILES IDX 52 45 51 46 22 48 44 49 29 50 43 51 30 52 33 53 42 54 56 55
REMARK SMILES IDX 31 56 32 57 41 59 57 60 34 61 23 62 24 63 28 64 25 65 27 66
REMARK SMILES IDX 26 67 45 68 46 69 50 70 47 71 49 72 48 73 35 74 36 75 40 76
REMARK SMILES IDX 37 77 39 78 38 79
REMARK H PARENT 6 6 11 28 55 47 33 58
REMARK Flexibility Score: inf
ROOT
ATOM      1  C   UNL A   1      31.588  30.537  25.817  1.00  0.00     0.023 C 
ENDROOT
BRANCH   1   2
ATOM      2  C   UNL A   1      32.961  29.901  25.991  1.00  0.00     0.116 C 
BRANCH   2   3
ATOM      3  N   UNL A   1      33.545  29.415  24.756  1.00  0.00    -0.356 N 
ATOM      4  C   UNL A   1      33.357  28.207  24.139  1.00  0.00     0.225 C 
ATOM      5  O   UNL A   1      33.914  28.024  23.057  1.00  0.00    -0.275 OA
ATOM      6  H   UNL A   1      34.158  30.037  24.300  1.00  0.00     0.163 HD
BRANCH   4   7
ATOM      7  C   UNL A   1      32.562  27.128  24.863  1.00  0.00     0.102 C 
ATOM      8  C   UNL A   1      32.949  25.008  26.105  1.00  0.00     0.032 C 
ATOM      9  C   UNL A   1      33.220  25.729  24.776  1.00  0.00     0.096 C 
ATOM     10  N   UNL A   1      32.560  25.088  23.619  1.00  0.00    -0.321 N 
ATOM     11  C   UNL A   1      31.165  26.869  24.292  1.00  0.00     0.037 C 
ATOM     12  C   UNL A   1      31.406  25.853  23.197  1.00  0.00     0.122 C 
BRANCH  10  13
ATOM     13  C   UNL A   1      33.114  24.238  22.672  1.00  0.00     0.320 C 
ATOM     14  O   UNL A   1      33.476  24.649  21.570  1.00  0.00    -0.248 OA
BRANCH  13  15
ATOM     15  N   UNL A   1      33.358  22.952  23.072  1.00  0.00    -0.321 N 
ATOM     16  C   UNL A   1      32.431  21.867  22.788  1.00  0.00     0.121 C 
ATOM     17  C   UNL A   1      34.698  22.484  23.371  1.00  0.00     0.090 C 
ATOM     18  C   UNL A   1      32.308  20.934  23.998  1.00  0.00     0.022 C 
ATOM     19  C   UNL A   1      34.603  21.703  24.685  1.00  0.00     0.012 C 
ATOM     20  C   UNL A   1      35.813  23.478  23.675  1.00  0.00     0.025 C 
ATOM     21  C   UNL A   1      33.686  20.491  24.528  1.00  0.00     0.007 C 
ATOM     22  C   UNL A   1      36.057  21.433  25.031  1.00  0.00     0.006 C 
ATOM     23  C   UNL A   1      36.803  22.680  24.536  1.00  0.00     0.002 C 
ENDBRANCH  13  15
ENDBRANCH  10  13
ENDBRANCH   4   7
ENDBRANCH   2   3
ENDBRANCH   1   2
BRANCH   1  24
ATOM     24  C   UNL A   1      31.391  31.883  26.512  1.00  0.00     0.023 C 
BRANCH  24  25
ATOM     25  C   UNL A   1      32.631  32.470  27.173  1.00  0.00     0.116 C 
BRANCH  25  26
ATOM     26  N   UNL A   1      32.441  33.835  27.638  1.00  0.00    -0.352 N 
ATOM     27  C   UNL A   1      33.191  34.579  28.522  1.00  0.00     0.251 C 
ATOM     28  H   UNL A   1      31.657  34.298  27.266  1.00  0.00     0.163 HD
ATOM     29  O   UNL A   1      32.788  35.673  28.897  1.00  0.00    -0.269 OA
BRANCH  27  30
ATOM     30  C   UNL A   1      34.467  34.043  29.046  1.00  0.00     0.039 A 
ATOM     31  C   UNL A   1      34.457  33.323  30.243  1.00  0.00     0.014 A 
ATOM     32  C   UNL A   1      35.666  34.242  28.360  1.00  0.00     0.014 A 
ATOM     33  C   UNL A   1      35.635  32.736  30.709  1.00  0.00     0.010 A 
ATOM     34  C   UNL A   1      36.818  33.579  28.774  1.00  0.00     0.010 A 
ATOM     35  C   UNL A   1      36.818  32.824  29.956  1.00  0.00    -0.014 A 
BRANCH  35  36
ATOM     36  C   UNL A   1      38.067  32.147  30.390  1.00  0.00     0.031 A 
ATOM     37  C   UNL A   1      38.966  32.801  31.406  1.00  0.00     0.074 A 
ATOM     38  C   UNL A   1      38.432  30.978  29.827  1.00  0.00     0.049 A 
ATOM     39  N   UNL A   1      40.126  32.402  31.864  1.00  0.00    -0.248 NA
ATOM     40  C   UNL A   1      38.513  34.087  31.961  1.00  0.00     0.031 C 
ATOM     41  C   UNL A   1      37.673  30.255  28.805  1.00  0.00     0.029 A 
ATOM     42  N   UNL A   1      39.540  30.195  30.033  1.00  0.00    -0.354 N 
ATOM     43  C   UNL A   1      40.547  33.394  32.741  1.00  0.00     0.074 A 
ATOM     44  C   UNL A   1      39.549  34.439  32.708  1.00  0.00     0.031 C 
ATOM     45  C   UNL A   1      38.321  29.119  28.499  1.00  0.00     0.029 A 
ATOM     46  C   UNL A   1      39.560  29.055  29.265  1.00  0.00     0.049 A 
ATOM     47  H   UNL A   1      40.253  30.427  30.671  1.00  0.00     0.167 HD
ATOM     48  C   UNL A   1      41.653  33.425  33.523  1.00  0.00     0.031 A 
ATOM     49  C   UNL A   1      40.478  28.072  29.182  1.00  0.00     0.031 A 
ATOM     50  C   UNL A   1      42.644  32.385  33.563  1.00  0.00     0.049 A 
ATOM     51  C   UNL A   1      41.710  28.140  30.042  1.00  0.00     0.074 A 
ATOM     52  C   UNL A   1      43.774  32.300  34.357  1.00  0.00     0.029 A 
ATOM     53  N   UNL A   1      42.625  31.247  32.770  1.00  0.00    -0.354 N 
ATOM     54  N   UNL A   1      42.061  29.054  30.914  1.00  0.00    -0.248 NA
ATOM     55  C   UNL A   1      42.665  27.032  29.915  1.00  0.00     0.031 C 
ATOM     56  C   UNL A   1      44.470  31.139  34.004  1.00  0.00     0.029 A 
ATOM     57  C   UNL A   1      43.737  30.466  33.040  1.00  0.00     0.049 A 
ATOM     58  H   UNL A   1      41.925  31.027  32.113  1.00  0.00     0.167 HD
ATOM     59  C   UNL A   1      43.257  28.613  31.465  1.00  0.00     0.074 A 
ATOM     60  C   UNL A   1      43.564  27.344  30.838  1.00  0.00     0.031 C 
ATOM     61  C   UNL A   1      44.029  29.204  32.411  1.00  0.00     0.031 A 
BRANCH  48  62
ATOM     62  C   UNL A   1      41.848  34.638  34.393  1.00  0.00    -0.014 A 
ATOM     63  C   UNL A   1      41.355  34.681  35.708  1.00  0.00     0.009 A 
ATOM     64  C   UNL A   1      42.553  35.746  33.899  1.00  0.00     0.009 A 
ATOM     65  C   UNL A   1      41.524  35.823  36.492  1.00  0.00     0.001 A 
ATOM     66  C   UNL A   1      42.752  36.875  34.697  1.00  0.00     0.001 A 
ATOM     67  C   UNL A   1      42.226  36.918  35.987  1.00  0.00     0.000 A 
ENDBRANCH  48  62
BRANCH  49  68
ATOM     68  C   UNL A   1      40.258  26.922  28.265  1.00  0.00    -0.014 A 
ATOM     69  C   UNL A   1      40.781  26.940  26.962  1.00  0.00     0.009 A 
ATOM     70  C   UNL A   1      39.516  25.805  28.681  1.00  0.00     0.009 A 
ATOM     71  C   UNL A   1      40.540  25.879  26.087  1.00  0.00     0.001 A 
ATOM     72  C   UNL A   1      39.305  24.731  27.813  1.00  0.00     0.001 A 
ATOM     73  C   UNL A   1      39.807  24.774  26.514  1.00  0.00     0.000 A 
ENDBRANCH  49  68
BRANCH  61  74
ATOM     74  C   UNL A   1      45.255  28.459  32.865  1.00  0.00    -0.014 A 
ATOM     75  C   UNL A   1      45.208  27.544  33.929  1.00  0.00     0.009 A 
ATOM     76  C   UNL A   1      46.469  28.649  32.186  1.00  0.00     0.009 A 
ATOM     77  C   UNL A   1      46.362  26.865  34.326  1.00  0.00     0.001 A 
ATOM     78  C   UNL A   1      47.612  27.945  32.563  1.00  0.00     0.001 A 
ATOM     79  C   UNL A   1      47.560  27.061  33.640  1.00  0.00     0.000 A 
ENDBRANCH  61  74
ENDBRANCH  35  36
ENDBRANCH  27  30
ENDBRANCH  25  26
ENDBRANCH  24  25
ENDBRANCH   1  24
TORSDOF 13
ENDMDL
MODEL 3
REMARK VINA RESULT:     -11.3      4.111      9.003
REMARK SMILES C[C@@H]1[C@@H](C(=O)NCCCCNC(=O)c2ccc(-c3c4nc(c(-c5ccccc5)c5ccc([nH]5)c(-c5ccccc5)c5nc(c(-c6ccccc6)c6ccc3[nH]6)C=C5)C=C4)cc2)CCN1C(=O)N1CCC[C@H]2CCC[C@@H]21
REMARK SMILES IDX 8 1 7 2 6 3 4 4 5 5 3 7 1 8 2 9 64 10 62 11 63 12 65 13
REMARK SMILES IDX 66 14 67 15 68 16 75 17 69 18 71 19 74 20 70 21 72 22 73 23
REMARK SMILES IDX 9 24 10 25 11 26 12 27 13 29 14 30 15 31 61 32 16 33 60 34
REMARK SMILES IDX 17 35 18 36 19 37 54 38 20 39 59 40 53 41 55 42 21 43 58 44
REMARK SMILES IDX 52 45 51 46 22 48 44 49 29 50 43 51 30 52 33 53 42 54 56 55
REMARK SMILES IDX 31 56 32 57 41 59 57 60 34 61 23 62 24 63 28 64 25 65 27 66
REMARK SMILES IDX 26 67 45 68 46 69 50 70 47 71 49 72 48 73 35 74 36 75 40 76
REMARK SMILES IDX 37 77 39 78 38 79
REMARK H PARENT 6 6 11 28 55 47 33 58
REMARK Flexibility Score: inf
ROOT
ATOM      1  C   UNL A   1      31.418  30.752  26.078  1.00  0.00     0.023 C 
ENDROOT
BRANCH   1   2
ATOM      2  C   UNL A   1      32.292  29.866  26.957  1.00  0.00     0.116 C 
BRANCH   2   3
ATOM      3  N   UNL A   1      31.750  28.539  27.177  1.00  0.00    -0.356 N 
ATOM      4  C   UNL A   1      32.145  27.351  26.623  1.00  0.00     0.225 C 
ATOM      5  O   UNL A   1      31.575  26.326  26.997  1.00  0.00    -0.275 OA
ATOM      6  H   UNL A   1      30.998  28.485  27.811  1.00  0.00     0.163 HD
BRANCH   4   7
ATOM      7  C   UNL A   1      33.184  27.370  25.508  1.00  0.00     0.102 C 
ATOM      8  C   UNL A   1      33.871  28.796  23.589  1.00  0.00     0.032 C 
ATOM      9  C   UNL A   1      32.678  28.062  24.219  1.00  0.00     0.096 C 
ATOM     10  N   UNL A   1      32.170  26.952  23.386  1.00  0.00    -0.321 N 
ATOM     11  C   UNL A   1      33.601  25.989  24.997  1.00  0.00     0.037 C 
ATOM     12  C   UNL A   1      32.572  25.673  23.932  1.00  0.00     0.122 C 
BRANCH  10  13
ATOM     13  C   UNL A   1      31.066  26.940  22.544  1.00  0.00     0.320 C 
ATOM     14  O   UNL A   1      31.115  26.433  21.424  1.00  0.00    -0.248 OA
BRANCH  13  15
ATOM     15  N   UNL A   1      29.889  27.402  23.070  1.00  0.00    -0.321 N 
ATOM     16  C   UNL A   1      29.163  26.668  24.097  1.00  0.00     0.121 C 
ATOM     17  C   UNL A   1      29.522  28.803  23.015  1.00  0.00     0.090 C 
ATOM     18  C   UNL A   1      27.656  26.714  23.827  1.00  0.00     0.022 C 
ATOM     19  C   UNL A   1      28.060  28.853  22.564  1.00  0.00     0.012 C 
ATOM     20  C   UNL A   1      30.192  29.737  22.014  1.00  0.00     0.025 C 
ATOM     21  C   UNL A   1      27.158  28.151  23.578  1.00  0.00     0.007 C 
ATOM     22  C   UNL A   1      27.821  30.334  22.329  1.00  0.00     0.006 C 
ATOM     23  C   UNL A   1      29.163  30.855  21.795  1.00  0.00     0.002 C 
ENDBRANCH  13  15
ENDBRANCH  10  13
ENDBRANCH   4   7
ENDBRANCH   2   3
ENDBRANCH   1   2
BRANCH   1  24
ATOM     24  C   UNL A   1      31.319  32.214  26.507  1.00  0.00     0.023 C 
BRANCH  24  25
ATOM     25  C   UNL A   1      32.502  32.748  27.306  1.00  0.00     0.116 C 
BRANCH  25  26
ATOM     26  N   UNL A   1      32.327  34.126  27.737  1.00  0.00    -0.352 N 
ATOM     27  C   UNL A   1      33.046  34.862  28.652  1.00  0.00     0.251 C 
ATOM     28  H   UNL A   1      31.581  34.605  27.311  1.00  0.00     0.163 HD
ATOM     29  O   UNL A   1      32.657  35.974  28.985  1.00  0.00    -0.269 OA
BRANCH  27  30
ATOM     30  C   UNL A   1      34.272  34.297  29.260  1.00  0.00     0.039 A 
ATOM     31  C   UNL A   1      34.162  33.555  30.439  1.00  0.00     0.014 A 
ATOM     32  C   UNL A   1      35.522  34.489  28.669  1.00  0.00     0.014 A 
ATOM     33  C   UNL A   1      35.293  32.941  30.979  1.00  0.00     0.010 A 
ATOM     34  C   UNL A   1      36.630  33.801  29.155  1.00  0.00     0.010 A 
ATOM     35  C   UNL A   1      36.530  33.025  30.319  1.00  0.00    -0.014 A 
BRANCH  35  36
ATOM     36  C   UNL A   1      37.734  32.322  30.833  1.00  0.00     0.031 A 
ATOM     37  C   UNL A   1      38.481  32.871  32.019  1.00  0.00     0.074 A 
ATOM     38  C   UNL A   1      38.197  31.227  30.197  1.00  0.00     0.049 A 
ATOM     39  N   UNL A   1      39.586  32.439  32.573  1.00  0.00    -0.248 NA
ATOM     40  C   UNL A   1      37.928  34.082  32.647  1.00  0.00     0.031 C 
ATOM     41  C   UNL A   1      37.591  30.610  29.015  1.00  0.00     0.029 A 
ATOM     42  N   UNL A   1      39.292  30.440  30.456  1.00  0.00    -0.354 N 
ATOM     43  C   UNL A   1      39.868  33.335  33.598  1.00  0.00     0.074 A 
ATOM     44  C   UNL A   1      38.854  34.364  33.552  1.00  0.00     0.031 C 
ATOM     45  C   UNL A   1      38.303  29.524  28.673  1.00  0.00     0.029 A 
ATOM     46  C   UNL A   1      39.438  29.392  29.579  1.00  0.00     0.049 A 
ATOM     47  H   UNL A   1      39.914  30.610  31.201  1.00  0.00     0.167 HD
ATOM     48  C   UNL A   1      40.866  33.294  34.513  1.00  0.00     0.031 A 
ATOM     49  C   UNL A   1      40.385  28.437  29.507  1.00  0.00     0.031 A 
ATOM     50  C   UNL A   1      41.873  32.269  34.565  1.00  0.00     0.049 A 
ATOM     51  C   UNL A   1      41.498  28.426  30.519  1.00  0.00     0.074 A 
ATOM     52  C   UNL A   1      42.898  32.112  35.482  1.00  0.00     0.029 A 
ATOM     53  N   UNL A   1      41.983  31.225  33.659  1.00  0.00    -0.354 N 
ATOM     54  N   UNL A   1      41.714  29.243  31.521  1.00  0.00    -0.248 NA
ATOM     55  C   UNL A   1      42.492  27.351  30.395  1.00  0.00     0.031 C 
ATOM     56  C   UNL A   1      43.663  31.006  35.097  1.00  0.00     0.029 A 
ATOM     57  C   UNL A   1      43.074  30.434  33.981  1.00  0.00     0.049 A 
ATOM     58  H   UNL A   1      41.376  31.069  32.898  1.00  0.00     0.167 HD
ATOM     59  C   UNL A   1      42.843  28.760  32.168  1.00  0.00     0.074 A 
ATOM     60  C   UNL A   1      43.260  27.572  31.452  1.00  0.00     0.031 C 
ATOM     61  C   UNL A   1      43.476  29.252  33.262  1.00  0.00     0.031 A 
BRANCH  48  62
ATOM     62  C   UNL A   1      40.919  34.406  35.526  1.00  0.00    -0.014 A 
ATOM     63  C   UNL A   1      40.214  34.324  36.737  1.00  0.00     0.009 A 
ATOM     64  C   UNL A   1      41.703  35.542  35.275  1.00  0.00     0.009 A 
ATOM     65  C   UNL A   1      40.255  35.376  37.655  1.00  0.00     0.001 A 
ATOM     66  C   UNL A   1      41.771  36.579  36.209  1.00  0.00     0.001 A 
ATOM     67  C   UNL A   1      41.037  36.500  37.392  1.00  0.00     0.000 A 
ENDBRANCH  48  62
BRANCH  49  68
ATOM     68  C   UNL A   1      40.312  27.392  28.451  1.00  0.00    -0.014 A 
ATOM     69  C   UNL A   1      40.939  27.589  27.210  1.00  0.00     0.009 A 
ATOM     70  C   UNL A   1      39.607  26.198  28.671  1.00  0.00     0.009 A 
ATOM     71  C   UNL A   1      40.836  26.626  26.204  1.00  0.00     0.001 A 
ATOM     72  C   UNL A   1      39.535  25.223  27.674  1.00  0.00     0.001 A 
ATOM     73  C   UNL A   1      40.139  25.443  26.438  1.00  0.00     0.000 A 
ENDBRANCH  49  68
BRANCH  61  74
ATOM     74  C   UNL A   1      44.655  28.478  33.784  1.00  0.00    -0.014 A 
ATOM     75  C   UNL A   1      45.966  28.766  33.372  1.00  0.00     0.009 A 
ATOM     76  C   UNL A   1      44.449  27.469  34.739  1.00  0.00     0.009 A 
ATOM     77  C   UNL A   1      47.041  28.031  33.878  1.00  0.00     0.001 A 
ATOM     78  C   UNL A   1      45.527  26.760  35.267  1.00  0.00     0.001 A 
ATOM     79  C   UNL A   1      46.822  27.034  34.828  1.00  0.00     0.000 A 
ENDBRANCH  61  74
ENDBRANCH  35  36
ENDBRANCH  27  30
ENDBRANCH  25  26
ENDBRANCH  24  25
ENDBRANCH   1  24
TORSDOF 13
ENDMDL
