MODEL 1
REMARK VINA RESULT:     -10.2      0.000      0.000
REMARK SMILES C[NH2+][C@]1(C(=O)NCCCCNC(=O)c2ccc(-c3c4nc(c(-c5ccccc5)c5ccc([nH]5)c(-c5ccccc5)c5nc(c(-c6ccccc6)c6ccc3[nH]6)C=C5)C=C4)cc2)CC[C@H](SC2CCCCC2)C1
REMARK SMILES IDX 8 1 7 2 6 3 4 4 5 5 3 7 62 8 72 9 63 10 64 11 2 12 1 13
REMARK SMILES IDX 65 16 66 17 67 18 71 19 68 20 70 21 69 22 9 23 10 24 11 25
REMARK SMILES IDX 12 26 13 28 14 29 15 30 61 31 16 32 60 33 17 34 18 35 19 36
REMARK SMILES IDX 54 37 20 38 59 39 53 40 55 41 21 42 58 43 52 44 51 45 22 47
REMARK SMILES IDX 44 48 29 49 43 50 30 51 33 52 42 53 56 54 31 55 32 56 41 58
REMARK SMILES IDX 57 59 34 60 23 61 24 62 28 63 25 64 27 65 26 66 45 67 46 68
REMARK SMILES IDX 50 69 47 70 49 71 48 72 35 73 36 74 40 75 37 76 39 77 38 78
REMARK H PARENT 6 6 2 14 2 15 11 27 55 46 33 57
REMARK Flexibility Score: inf
ROOT
ATOM      1  C   UNL A   1      38.924  22.690  26.309  1.00  0.00     0.023 C 
ENDROOT
BRANCH   1   2
ATOM      2  C   UNL A   1      37.758  23.564  25.831  1.00  0.00     0.116 C 
BRANCH   2   3
ATOM      3  N   UNL A   1      37.471  23.356  24.424  1.00  0.00    -0.351 N 
ATOM      4  C   UNL A   1      36.313  23.215  23.712  1.00  0.00     0.281 C 
ATOM      5  O   UNL A   1      36.496  22.950  22.517  1.00  0.00    -0.268 OA
ATOM      6  H   UNL A   1      38.280  23.308  23.865  1.00  0.00     0.163 HD
BRANCH   4   7
ATOM      7  C   UNL A   1      34.881  23.412  24.335  1.00  0.00     0.176 C 
ATOM      8  C   UNL A   1      34.619  22.423  25.480  1.00  0.00     0.080 C 
ATOM      9  C   UNL A   1      34.704  24.780  25.023  1.00  0.00     0.093 C 
ATOM     10  C   UNL A   1      33.586  23.074  26.381  1.00  0.00     0.022 C 
ATOM     11  C   UNL A   1      33.665  24.584  26.145  1.00  0.00     0.054 C 
BRANCH   7  12
ATOM     12  N   UNL A   1      33.804  23.125  23.341  1.00  0.00    -0.336 N 
ATOM     13  C   UNL A   1      33.391  24.242  22.501  1.00  0.00     0.331 C 
ATOM     14  H   UNL A   1      34.136  22.380  22.729  1.00  0.00     0.346 HD
ATOM     15  H   UNL A   1      32.981  22.878  23.893  1.00  0.00     0.346 HD
ENDBRANCH   7  12
BRANCH  11  16
ATOM     16  S   UNL A   1      32.036  25.286  25.675  1.00  0.00    -0.155 SA
BRANCH  16  17
ATOM     17  C   UNL A   1      32.392  27.084  25.444  1.00  0.00     0.047 C 
ATOM     18  C   UNL A   1      31.163  27.919  25.072  1.00  0.00     0.014 C 
ATOM     19  C   UNL A   1      33.148  27.690  26.633  1.00  0.00     0.014 C 
ATOM     20  C   UNL A   1      31.530  29.378  24.811  1.00  0.00     0.001 C 
ATOM     21  C   UNL A   1      33.489  29.161  26.380  1.00  0.00     0.001 C 
ATOM     22  C   UNL A   1      32.254  29.977  26.012  1.00  0.00     0.000 C 
ENDBRANCH  16  17
ENDBRANCH  11  16
ENDBRANCH   4   7
ENDBRANCH   2   3
ENDBRANCH   1   2
BRANCH   1  23
ATOM     23  C   UNL A   1      39.031  21.322  25.642  1.00  0.00     0.023 C 
BRANCH  23  24
ATOM     24  C   UNL A   1      39.534  20.205  26.542  1.00  0.00     0.116 C 
BRANCH  24  25
ATOM     25  N   UNL A   1      40.635  19.448  25.966  1.00  0.00    -0.352 N 
ATOM     26  C   UNL A   1      41.953  19.820  25.842  1.00  0.00     0.251 C 
ATOM     27  H   UNL A   1      40.406  18.554  25.621  1.00  0.00     0.163 HD
ATOM     28  O   UNL A   1      42.749  19.108  25.246  1.00  0.00    -0.269 OA
BRANCH  26  29
ATOM     29  C   UNL A   1      42.383  21.117  26.402  1.00  0.00     0.039 A 
ATOM     30  C   UNL A   1      42.719  22.149  25.523  1.00  0.00     0.014 A 
ATOM     31  C   UNL A   1      42.402  21.326  27.783  1.00  0.00     0.014 A 
ATOM     32  C   UNL A   1      43.004  23.417  26.030  1.00  0.00     0.010 A 
ATOM     33  C   UNL A   1      42.615  22.605  28.282  1.00  0.00     0.010 A 
ATOM     34  C   UNL A   1      42.919  23.663  27.410  1.00  0.00    -0.014 A 
BRANCH  34  35
ATOM     35  C   UNL A   1      43.138  25.019  27.966  1.00  0.00     0.031 A 
ATOM     36  C   UNL A   1      44.512  25.439  28.404  1.00  0.00     0.074 A 
ATOM     37  C   UNL A   1      42.088  25.844  28.145  1.00  0.00     0.049 A 
ATOM     38  N   UNL A   1      44.892  26.556  28.969  1.00  0.00    -0.248 NA
ATOM     39  C   UNL A   1      45.599  24.465  28.206  1.00  0.00     0.031 C 
ATOM     40  C   UNL A   1      40.696  25.534  27.809  1.00  0.00     0.029 A 
ATOM     41  N   UNL A   1      42.029  27.112  28.666  1.00  0.00    -0.354 N 
ATOM     42  C   UNL A   1      46.251  26.410  29.214  1.00  0.00     0.074 A 
ATOM     43  C   UNL A   1      46.622  25.081  28.778  1.00  0.00     0.031 C 
ATOM     44  C   UNL A   1      39.926  26.592  28.109  1.00  0.00     0.029 A 
ATOM     45  C   UNL A   1      40.761  27.638  28.691  1.00  0.00     0.049 A 
ATOM     46  H   UNL A   1      42.821  27.598  28.991  1.00  0.00     0.167 HD
ATOM     47  C   UNL A   1      47.118  27.308  29.738  1.00  0.00     0.031 A 
ATOM     48  C   UNL A   1      40.319  28.829  29.136  1.00  0.00     0.031 A 
ATOM     49  C   UNL A   1      46.755  28.635  30.153  1.00  0.00     0.049 A 
ATOM     50  C   UNL A   1      41.303  29.812  29.703  1.00  0.00     0.074 A 
ATOM     51  C   UNL A   1      47.574  29.642  30.633  1.00  0.00     0.029 A 
ATOM     52  N   UNL A   1      45.463  29.138  30.140  1.00  0.00    -0.354 N 
ATOM     53  N   UNL A   1      42.599  29.687  29.858  1.00  0.00    -0.248 NA
ATOM     54  C   UNL A   1      40.764  31.106  30.146  1.00  0.00     0.031 C 
ATOM     55  C   UNL A   1      46.771  30.742  30.951  1.00  0.00     0.029 A 
ATOM     56  C   UNL A   1      45.460  30.435  30.623  1.00  0.00     0.049 A 
ATOM     57  H   UNL A   1      44.668  28.647  29.833  1.00  0.00     0.167 HD
ATOM     58  C   UNL A   1      43.034  30.893  30.392  1.00  0.00     0.074 A 
ATOM     59  C   UNL A   1      41.867  31.742  30.519  1.00  0.00     0.031 C 
ATOM     60  C   UNL A   1      44.289  31.265  30.744  1.00  0.00     0.031 A 
BRANCH  47  61
ATOM     61  C   UNL A   1      48.550  26.877  29.893  1.00  0.00    -0.014 A 
ATOM     62  C   UNL A   1      48.989  26.218  31.053  1.00  0.00     0.009 A 
ATOM     63  C   UNL A   1      49.465  27.106  28.854  1.00  0.00     0.009 A 
ATOM     64  C   UNL A   1      50.324  25.830  31.182  1.00  0.00     0.001 A 
ATOM     65  C   UNL A   1      50.792  26.691  28.975  1.00  0.00     0.001 A 
ATOM     66  C   UNL A   1      51.223  26.063  30.142  1.00  0.00     0.000 A 
ENDBRANCH  47  61
BRANCH  48  67
ATOM     67  C   UNL A   1      38.875  29.167  29.044  1.00  0.00    -0.014 A 
ATOM     68  C   UNL A   1      38.041  29.026  30.162  1.00  0.00     0.009 A 
ATOM     69  C   UNL A   1      38.325  29.633  27.840  1.00  0.00     0.009 A 
ATOM     70  C   UNL A   1      36.679  29.321  30.071  1.00  0.00     0.001 A 
ATOM     71  C   UNL A   1      36.969  29.954  27.759  1.00  0.00     0.001 A 
ATOM     72  C   UNL A   1      36.145  29.789  28.871  1.00  0.00     0.000 A 
ENDBRANCH  48  67
BRANCH  60  73
ATOM     73  C   UNL A   1      44.468  32.659  31.272  1.00  0.00    -0.014 A 
ATOM     74  C   UNL A   1      44.396  32.931  32.646  1.00  0.00     0.009 A 
ATOM     75  C   UNL A   1      44.758  33.705  30.383  1.00  0.00     0.009 A 
ATOM     76  C   UNL A   1      44.580  34.233  33.117  1.00  0.00     0.001 A 
ATOM     77  C   UNL A   1      44.968  35.000  30.859  1.00  0.00     0.001 A 
ATOM     78  C   UNL A   1      44.871  35.264  32.224  1.00  0.00     0.000 A 
ENDBRANCH  60  73
ENDBRANCH  34  35
ENDBRANCH  26  29
ENDBRANCH  24  25
ENDBRANCH  23  24
ENDBRANCH   1  23
TORSDOF 14
ENDMDL
MODEL 2
REMARK VINA RESULT:     -10.2      2.739      8.036
REMARK SMILES C[NH2+][C@]1(C(=O)NCCCCNC(=O)c2ccc(-c3c4nc(c(-c5ccccc5)c5ccc([nH]5)c(-c5ccccc5)c5nc(c(-c6ccccc6)c6ccc3[nH]6)C=C5)C=C4)cc2)CC[C@H](SC2CCCCC2)C1
REMARK SMILES IDX 8 1 7 2 6 3 4 4 5 5 3 7 62 8 72 9 63 10 64 11 2 12 1 13
REMARK SMILES IDX 65 16 66 17 67 18 71 19 68 20 70 21 69 22 9 23 10 24 11 25
REMARK SMILES IDX 12 26 13 28 14 29 15 30 61 31 16 32 60 33 17 34 18 35 19 36
REMARK SMILES IDX 54 37 20 38 59 39 53 40 55 41 21 42 58 43 52 44 51 45 22 47
REMARK SMILES IDX 44 48 29 49 43 50 30 51 33 52 42 53 56 54 31 55 32 56 41 58
REMARK SMILES IDX 57 59 34 60 23 61 24 62 28 63 25 64 27 65 26 66 45 67 46 68
REMARK SMILES IDX 50 69 47 70 49 71 48 72 35 73 36 74 40 75 37 76 39 77 38 78
REMARK H PARENT 6 6 2 14 2 15 11 27 55 46 33 57
REMARK Flexibility Score: inf
ROOT
ATOM      1  C   UNL A   1      31.401  27.948  26.488  1.00  0.00     0.023 C 
ENDROOT
BRANCH   1   2
ATOM      2  C   UNL A   1      31.377  26.639  25.691  1.00  0.00     0.116 C 
BRANCH   2   3
ATOM      3  N   UNL A   1      30.741  25.567  26.435  1.00  0.00    -0.351 N 
ATOM      4  C   UNL A   1      30.960  24.221  26.515  1.00  0.00     0.281 C 
ATOM      5  O   UNL A   1      30.120  23.622  27.200  1.00  0.00    -0.268 OA
ATOM      6  H   UNL A   1      29.996  25.875  27.000  1.00  0.00     0.163 HD
BRANCH   4   7
ATOM      7  C   UNL A   1      32.185  23.498  25.841  1.00  0.00     0.176 C 
ATOM      8  C   UNL A   1      33.522  24.004  26.402  1.00  0.00     0.080 C 
ATOM      9  C   UNL A   1      32.240  21.988  26.145  1.00  0.00     0.093 C 
ATOM     10  C   UNL A   1      34.522  22.879  26.207  1.00  0.00     0.022 C 
ATOM     11  C   UNL A   1      33.724  21.577  26.099  1.00  0.00     0.054 C 
BRANCH   7  12
ATOM     12  N   UNL A   1      32.260  23.791  24.378  1.00  0.00    -0.336 N 
ATOM     13  C   UNL A   1      31.124  23.355  23.576  1.00  0.00     0.331 C 
ATOM     14  H   UNL A   1      32.350  24.802  24.268  1.00  0.00     0.346 HD
ATOM     15  H   UNL A   1      33.060  23.260  24.033  1.00  0.00     0.346 HD
ENDBRANCH   7  12
BRANCH  11  16
ATOM     16  S   UNL A   1      34.115  20.666  24.554  1.00  0.00    -0.155 SA
BRANCH  16  17
ATOM     17  C   UNL A   1      33.945  18.893  25.045  1.00  0.00     0.047 C 
ATOM     18  C   UNL A   1      32.506  18.370  24.998  1.00  0.00     0.014 C 
ATOM     19  C   UNL A   1      34.904  17.976  24.277  1.00  0.00     0.014 C 
ATOM     20  C   UNL A   1      32.412  16.929  25.494  1.00  0.00     0.001 C 
ATOM     21  C   UNL A   1      34.787  16.527  24.756  1.00  0.00     0.001 C 
ATOM     22  C   UNL A   1      33.348  16.023  24.702  1.00  0.00     0.000 C 
ENDBRANCH  16  17
ENDBRANCH  11  16
ENDBRANCH   4   7
ENDBRANCH   2   3
ENDBRANCH   1   2
BRANCH   1  23
ATOM     23  C   UNL A   1      32.488  28.044  27.555  1.00  0.00     0.023 C 
BRANCH  23  24
ATOM     24  C   UNL A   1      33.703  28.869  27.164  1.00  0.00     0.116 C 
BRANCH  24  25
ATOM     25  N   UNL A   1      33.685  30.219  27.705  1.00  0.00    -0.352 N 
ATOM     26  C   UNL A   1      34.688  30.885  28.370  1.00  0.00     0.251 C 
ATOM     27  H   UNL A   1      32.847  30.721  27.578  1.00  0.00     0.163 HD
ATOM     28  O   UNL A   1      34.490  31.991  28.852  1.00  0.00    -0.269 OA
BRANCH  26  29
ATOM     29  C   UNL A   1      35.997  30.221  28.534  1.00  0.00     0.039 A 
ATOM     30  C   UNL A   1      36.918  30.286  27.486  1.00  0.00     0.014 A 
ATOM     31  C   UNL A   1      36.330  29.588  29.734  1.00  0.00     0.014 A 
ATOM     32  C   UNL A   1      38.204  29.776  27.669  1.00  0.00     0.010 A 
ATOM     33  C   UNL A   1      37.631  29.147  29.940  1.00  0.00     0.010 A 
ATOM     34  C   UNL A   1      38.580  29.236  28.909  1.00  0.00    -0.014 A 
BRANCH  34  35
ATOM     35  C   UNL A   1      39.963  28.762  29.155  1.00  0.00     0.031 A 
ATOM     36  C   UNL A   1      40.973  29.680  29.782  1.00  0.00     0.074 A 
ATOM     37  C   UNL A   1      40.327  27.531  28.745  1.00  0.00     0.049 A 
ATOM     38  N   UNL A   1      42.242  29.470  30.019  1.00  0.00    -0.248 NA
ATOM     39  C   UNL A   1      40.501  31.020  30.169  1.00  0.00     0.031 C 
ATOM     40  C   UNL A   1      39.454  26.564  28.077  1.00  0.00     0.029 A 
ATOM     41  N   UNL A   1      41.537  26.888  28.822  1.00  0.00    -0.354 N 
ATOM     42  C   UNL A   1      42.724  30.655  30.559  1.00  0.00     0.074 A 
ATOM     43  C   UNL A   1      41.624  31.594  30.574  1.00  0.00     0.031 C 
ATOM     44  C   UNL A   1      40.150  25.442  27.828  1.00  0.00     0.029 A 
ATOM     45  C   UNL A   1      41.523  25.624  28.285  1.00  0.00     0.049 A 
ATOM     46  H   UNL A   1      42.339  27.294  29.226  1.00  0.00     0.167 HD
ATOM     47  C   UNL A   1      43.967  30.932  31.020  1.00  0.00     0.031 A 
ATOM     48  C   UNL A   1      42.509  24.714  28.170  1.00  0.00     0.031 A 
ATOM     49  C   UNL A   1      45.055  29.994  31.023  1.00  0.00     0.049 A 
ATOM     50  C   UNL A   1      43.877  25.042  28.698  1.00  0.00     0.074 A 
ATOM     51  C   UNL A   1      46.333  30.157  31.530  1.00  0.00     0.029 A 
ATOM     52  N   UNL A   1      44.994  28.715  30.491  1.00  0.00    -0.354 N 
ATOM     53  N   UNL A   1      44.296  26.142  29.276  1.00  0.00    -0.248 NA
ATOM     54  C   UNL A   1      44.903  23.997  28.569  1.00  0.00     0.031 C 
ATOM     55  C   UNL A   1      47.059  28.992  31.266  1.00  0.00     0.029 A 
ATOM     56  C   UNL A   1      46.218  28.086  30.639  1.00  0.00     0.049 A 
ATOM     57  H   UNL A   1      44.200  28.314  30.071  1.00  0.00     0.167 HD
ATOM     58  C   UNL A   1      45.627  25.913  29.602  1.00  0.00     0.074 A 
ATOM     59  C   UNL A   1      45.939  24.565  29.172  1.00  0.00     0.031 C 
ATOM     60  C   UNL A   1      46.512  26.745  30.204  1.00  0.00     0.031 A 
BRANCH  47  61
ATOM     61  C   UNL A   1      44.212  32.314  31.556  1.00  0.00    -0.014 A 
ATOM     62  C   UNL A   1      44.632  33.357  30.714  1.00  0.00     0.009 A 
ATOM     63  C   UNL A   1      43.994  32.585  32.916  1.00  0.00     0.009 A 
ATOM     64  C   UNL A   1      44.861  34.634  31.231  1.00  0.00     0.001 A 
ATOM     65  C   UNL A   1      44.196  33.869  33.423  1.00  0.00     0.001 A 
ATOM     66  C   UNL A   1      44.640  34.890  32.583  1.00  0.00     0.000 A 
ENDBRANCH  47  61
BRANCH  48  67
ATOM     67  C   UNL A   1      42.233  23.395  27.545  1.00  0.00    -0.014 A 
ATOM     68  C   UNL A   1      41.654  22.362  28.296  1.00  0.00     0.009 A 
ATOM     69  C   UNL A   1      42.544  23.164  26.196  1.00  0.00     0.009 A 
ATOM     70  C   UNL A   1      41.416  21.113  27.715  1.00  0.00     0.001 A 
ATOM     71  C   UNL A   1      42.279  21.924  25.611  1.00  0.00     0.001 A 
ATOM     72  C   UNL A   1      41.724  20.897  26.373  1.00  0.00     0.000 A 
ENDBRANCH  48  67
BRANCH  60  73
ATOM     73  C   UNL A   1      47.891  26.210  30.461  1.00  0.00    -0.014 A 
ATOM     74  C   UNL A   1      48.877  26.234  29.464  1.00  0.00     0.009 A 
ATOM     75  C   UNL A   1      48.217  25.716  31.734  1.00  0.00     0.009 A 
ATOM     76  C   UNL A   1      50.158  25.745  29.730  1.00  0.00     0.001 A 
ATOM     77  C   UNL A   1      49.505  25.252  32.003  1.00  0.00     0.001 A 
ATOM     78  C   UNL A   1      50.471  25.259  30.999  1.00  0.00     0.000 A 
ENDBRANCH  60  73
ENDBRANCH  34  35
ENDBRANCH  26  29
ENDBRANCH  24  25
ENDBRANCH  23  24
ENDBRANCH   1  23
TORSDOF 14
ENDMDL
MODEL 3
REMARK VINA RESULT:     -10.2      3.991      9.185
REMARK SMILES C[NH2+][C@]1(C(=O)NCCCCNC(=O)c2ccc(-c3c4nc(c(-c5ccccc5)c5ccc([nH]5)c(-c5ccccc5)c5nc(c(-c6ccccc6)c6ccc3[nH]6)C=C5)C=C4)cc2)CC[C@H](SC2CCCCC2)C1
REMARK SMILES IDX 8 1 7 2 6 3 4 4 5 5 3 7 62 8 72 9 63 10 64 11 2 12 1 13
REMARK SMILES IDX 65 16 66 17 67 18 71 19 68 20 70 21 69 22 9 23 10 24 11 25
REMARK SMILES IDX 12 26 13 28 14 29 15 30 61 31 16 32 60 33 17 34 18 35 19 36
REMARK SMILES IDX 54 37 20 38 59 39 53 40 55 41 21 42 58 43 52 44 51 45 22 47
REMARK SMILES IDX 44 48 29 49 43 50 30 51 33 52 42 53 56 54 31 55 32 56 41 58
REMARK SMILES IDX 57 59 34 60 23 61 24 62 28 63 25 64 27 65 26 66 45 67 46 68
REMARK SMILES IDX 50 69 47 70 49 71 48 72 35 73 36 74 40 75 37 76 39 77 38 78
REMARK H PARENT 6 6 2 14 2 15 11 27 55 46 33 57
REMARK Flexibility Score: inf
ROOT
ATOM      1  C   UNL A   1      31.814  30.479  26.280  1.00  0.00     0.023 C 
ENDROOT
BRANCH   1   2
ATOM      2  C   UNL A   1      31.183  30.002  24.967  1.00  0.00     0.116 C 
BRANCH   2   3
ATOM      3  N   UNL A   1      32.189  29.684  23.971  1.00  0.00    -0.351 N 
ATOM      4  C   UNL A   1      32.787  28.519  23.578  1.00  0.00     0.281 C 
ATOM      5  O   UNL A   1      33.688  28.681  22.746  1.00  0.00    -0.268 OA
ATOM      6  H   UNL A   1      32.507  30.471  23.473  1.00  0.00     0.163 HD
BRANCH   4   7
ATOM      7  C   UNL A   1      32.348  27.100  24.097  1.00  0.00     0.176 C 
ATOM      8  C   UNL A   1      30.842  26.865  23.905  1.00  0.00     0.080 C 
ATOM      9  C   UNL A   1      32.975  25.942  23.296  1.00  0.00     0.093 C 
ATOM     10  C   UNL A   1      30.651  25.363  23.812  1.00  0.00     0.022 C 
ATOM     11  C   UNL A   1      31.986  24.762  23.368  1.00  0.00     0.054 C 
BRANCH   7  12
ATOM     12  N   UNL A   1      32.561  26.961  25.569  1.00  0.00    -0.336 N 
ATOM     13  C   UNL A   1      33.892  27.294  26.059  1.00  0.00     0.331 C 
ATOM     14  H   UNL A   1      31.893  27.573  26.039  1.00  0.00     0.346 HD
ATOM     15  H   UNL A   1      32.434  25.969  25.772  1.00  0.00     0.346 HD
ENDBRANCH   7  12
BRANCH  11  16
ATOM     16  S   UNL A   1      32.572  23.472  24.536  1.00  0.00    -0.155 SA
BRANCH  16  17
ATOM     17  C   UNL A   1      34.410  23.661  24.497  1.00  0.00     0.047 C 
ATOM     18  C   UNL A   1      35.070  23.606  25.879  1.00  0.00     0.014 C 
ATOM     19  C   UNL A   1      35.079  22.693  23.513  1.00  0.00     0.014 C 
ATOM     20  C   UNL A   1      36.574  23.852  25.796  1.00  0.00     0.001 C 
ATOM     21  C   UNL A   1      36.592  22.922  23.454  1.00  0.00     0.001 C 
ATOM     22  C   UNL A   1      37.232  22.864  24.838  1.00  0.00     0.000 C 
ENDBRANCH  16  17
ENDBRANCH  11  16
ENDBRANCH   4   7
ENDBRANCH   2   3
ENDBRANCH   1   2
BRANCH   1  23
ATOM     23  C   UNL A   1      31.570  31.945  26.627  1.00  0.00     0.023 C 
BRANCH  23  24
ATOM     24  C   UNL A   1      32.742  32.653  27.288  1.00  0.00     0.116 C 
BRANCH  24  25
ATOM     25  N   UNL A   1      32.433  34.009  27.716  1.00  0.00    -0.352 N 
ATOM     26  C   UNL A   1      33.104  34.789  28.629  1.00  0.00     0.251 C 
ATOM     27  H   UNL A   1      31.642  34.421  27.299  1.00  0.00     0.163 HD
ATOM     28  O   UNL A   1      32.666  35.882  28.957  1.00  0.00    -0.269 OA
BRANCH  26  29
ATOM     29  C   UNL A   1      34.341  34.264  29.242  1.00  0.00     0.039 A 
ATOM     30  C   UNL A   1      34.252  33.592  30.464  1.00  0.00     0.014 A 
ATOM     31  C   UNL A   1      35.569  34.388  28.587  1.00  0.00     0.014 A 
ATOM     32  C   UNL A   1      35.388  32.980  30.995  1.00  0.00     0.010 A 
ATOM     33  C   UNL A   1      36.681  33.717  29.080  1.00  0.00     0.010 A 
ATOM     34  C   UNL A   1      36.601  33.007  30.289  1.00  0.00    -0.014 A 
BRANCH  34  35
ATOM     35  C   UNL A   1      37.801  32.296  30.792  1.00  0.00     0.031 A 
ATOM     36  C   UNL A   1      38.578  32.859  31.948  1.00  0.00     0.074 A 
ATOM     37  C   UNL A   1      38.230  31.186  30.162  1.00  0.00     0.049 A 
ATOM     38  N   UNL A   1      39.685  32.418  32.490  1.00  0.00    -0.248 NA
ATOM     39  C   UNL A   1      38.060  34.095  32.558  1.00  0.00     0.031 C 
ATOM     40  C   UNL A   1      37.593  30.569  28.997  1.00  0.00     0.029 A 
ATOM     41  N   UNL A   1      39.316  30.385  30.410  1.00  0.00    -0.354 N 
ATOM     42  C   UNL A   1      40.005  33.332  33.485  1.00  0.00     0.074 A 
ATOM     43  C   UNL A   1      39.003  34.375  33.444  1.00  0.00     0.031 C 
ATOM     44  C   UNL A   1      38.285  29.473  28.647  1.00  0.00     0.029 A 
ATOM     45  C   UNL A   1      39.431  29.330  29.538  1.00  0.00     0.049 A 
ATOM     46  H   UNL A   1      39.952  30.550  31.144  1.00  0.00     0.167 HD
ATOM     47  C   UNL A   1      41.032  33.297  34.367  1.00  0.00     0.031 A 
ATOM     48  C   UNL A   1      40.360  28.358  29.462  1.00  0.00     0.031 A 
ATOM     49  C   UNL A   1      42.016  32.252  34.421  1.00  0.00     0.049 A 
ATOM     50  C   UNL A   1      41.483  28.336  30.459  1.00  0.00     0.074 A 
ATOM     51  C   UNL A   1      43.055  32.091  35.321  1.00  0.00     0.029 A 
ATOM     52  N   UNL A   1      42.085  31.188  33.534  1.00  0.00    -0.354 N 
ATOM     53  N   UNL A   1      41.730  29.167  31.443  1.00  0.00    -0.248 NA
ATOM     54  C   UNL A   1      42.449  27.234  30.343  1.00  0.00     0.031 C 
ATOM     55  C   UNL A   1      43.779  30.953  34.954  1.00  0.00     0.029 A 
ATOM     56  C   UNL A   1      43.161  30.378  33.854  1.00  0.00     0.049 A 
ATOM     57  H   UNL A   1      41.461  31.032  32.790  1.00  0.00     0.167 HD
ATOM     58  C   UNL A   1      42.863  28.675  32.078  1.00  0.00     0.074 A 
ATOM     59  C   UNL A   1      43.245  27.466  31.377  1.00  0.00     0.031 C 
ATOM     60  C   UNL A   1      43.528  29.180  33.146  1.00  0.00     0.031 A 
BRANCH  47  61
ATOM     61  C   UNL A   1      41.140  34.432  35.346  1.00  0.00    -0.014 A 
ATOM     62  C   UNL A   1      40.499  34.380  36.594  1.00  0.00     0.009 A 
ATOM     63  C   UNL A   1      41.916  35.558  35.027  1.00  0.00     0.009 A 
ATOM     64  C   UNL A   1      40.605  35.447  37.488  1.00  0.00     0.001 A 
ATOM     65  C   UNL A   1      42.043  36.610  35.935  1.00  0.00     0.001 A 
ATOM     66  C   UNL A   1      41.380  36.559  37.160  1.00  0.00     0.000 A 
ENDBRANCH  47  61
BRANCH  48  67
ATOM     67  C   UNL A   1      40.256  27.312  28.413  1.00  0.00    -0.014 A 
ATOM     68  C   UNL A   1      40.874  27.492  27.167  1.00  0.00     0.009 A 
ATOM     69  C   UNL A   1      39.540  26.128  28.652  1.00  0.00     0.009 A 
ATOM     70  C   UNL A   1      40.757  26.519  26.171  1.00  0.00     0.001 A 
ATOM     71  C   UNL A   1      39.448  25.145  27.664  1.00  0.00     0.001 A 
ATOM     72  C   UNL A   1      40.048  25.345  26.422  1.00  0.00     0.000 A 
ENDBRANCH  48  67
BRANCH  60  73
ATOM     73  C   UNL A   1      44.717  28.409  33.640  1.00  0.00    -0.014 A 
ATOM     74  C   UNL A   1      44.577  27.382  34.586  1.00  0.00     0.009 A 
ATOM     75  C   UNL A   1      45.990  28.687  33.118  1.00  0.00     0.009 A 
ATOM     76  C   UNL A   1      45.695  26.668  35.020  1.00  0.00     0.001 A 
ATOM     77  C   UNL A   1      47.101  27.953  33.535  1.00  0.00     0.001 A 
ATOM     78  C   UNL A   1      46.954  26.950  34.491  1.00  0.00     0.000 A 
ENDBRANCH  60  73
ENDBRANCH  34  35
ENDBRANCH  26  29
ENDBRANCH  24  25
ENDBRANCH  23  24
ENDBRANCH   1  23
TORSDOF 14
ENDMDL
