MODEL 1
REMARK VINA RESULT:     -11.7      0.000      0.000
REMARK SMILES CCn1nc(-c2cccnc2)c2cc(C(=O)NCCCCNC(=O)c3ccc(-c4c5nc(c(-c6ccccc6)c6ccc([nH]6)c(-c6ccccc6)c6nc(c(-c7ccccc7)c7ccc4[nH]7)C=C6)C=C5)cc3)sc21
REMARK SMILES IDX 20 1 19 2 18 3 17 4 15 5 16 6 14 8 3 9 4 10 74 11 5 12 12 13
REMARK SMILES IDX 73 14 13 15 2 16 1 17 6 18 7 19 11 20 8 21 10 22 9 23 21 24
REMARK SMILES IDX 22 25 23 26 24 28 25 29 26 30 72 31 27 32 71 33 28 34 29 35
REMARK SMILES IDX 30 36 65 37 31 38 70 39 64 40 66 41 32 42 69 43 63 44 62 45
REMARK SMILES IDX 33 47 55 48 40 49 54 50 41 51 44 52 53 53 67 54 42 55 43 56
REMARK SMILES IDX 52 58 68 59 45 60 34 61 35 62 39 63 36 64 38 65 37 66 56 67
REMARK SMILES IDX 57 68 61 69 58 70 60 71 59 72 46 73 47 74 51 75 48 76 50 77
REMARK SMILES IDX 49 78
REMARK H PARENT 17 7 22 27 66 46 44 57
REMARK Flexibility Score: inf
ROOT
ATOM      1  C   UNL A   1      39.094  21.097  25.550  1.00  0.00     0.023 C 
ENDROOT
BRANCH   1   2
ATOM      2  C   UNL A   1      39.105  22.475  26.209  1.00  0.00     0.023 C 
BRANCH   2   3
ATOM      3  C   UNL A   1      37.961  23.427  25.855  1.00  0.00     0.116 C 
BRANCH   3   4
ATOM      4  N   UNL A   1      37.372  23.230  24.533  1.00  0.00    -0.351 N 
ATOM      5  C   UNL A   1      36.086  23.435  24.046  1.00  0.00     0.261 C 
ATOM      6  O   UNL A   1      35.901  23.122  22.867  1.00  0.00    -0.268 OA
ATOM      7  H   UNL A   1      38.004  22.889  23.861  1.00  0.00     0.163 HD
BRANCH   5   8
ATOM      8  C   UNL A   1      34.999  23.913  24.891  1.00  0.00     0.095 A 
ATOM      9  N   UNL A   1      31.634  23.868  26.411  1.00  0.00    -0.254 N 
ATOM     10  N   UNL A   1      31.130  25.134  26.459  1.00  0.00    -0.171 NA
ATOM     11  C   UNL A   1      32.935  23.892  26.074  1.00  0.00     0.122 A 
ATOM     12  C   UNL A   1      32.137  25.928  26.004  1.00  0.00     0.103 A 
ATOM     13  C   UNL A   1      33.213  25.119  25.628  1.00  0.00     0.040 A 
ATOM     14  S   UNL A   1      34.245  22.888  26.082  1.00  0.00    -0.110 S 
ATOM     15  C   UNL A   1      34.452  25.211  24.983  1.00  0.00     0.038 A 
BRANCH   9  16
ATOM     16  C   UNL A   1      30.728  22.738  26.506  1.00  0.00     0.142 C 
ATOM     17  C   UNL A   1      29.434  22.972  27.278  1.00  0.00     0.029 C 
ENDBRANCH   9  16
BRANCH  12  18
ATOM     18  C   UNL A   1      32.022  27.370  26.107  1.00  0.00     0.021 A 
ATOM     19  C   UNL A   1      31.503  28.085  25.020  1.00  0.00     0.013 A 
ATOM     20  C   UNL A   1      32.403  28.092  27.226  1.00  0.00     0.121 A 
ATOM     21  C   UNL A   1      31.377  29.468  25.090  1.00  0.00     0.021 A 
ATOM     22  N   UNL A   1      32.293  29.443  27.324  1.00  0.00    -0.264 NA
ATOM     23  C   UNL A   1      31.785  30.096  26.254  1.00  0.00     0.111 A 
ENDBRANCH  12  18
ENDBRANCH   5   8
ENDBRANCH   3   4
ENDBRANCH   2   3
ENDBRANCH   1   2
BRANCH   1  24
ATOM     24  C   UNL A   1      39.593  19.963  26.436  1.00  0.00     0.116 C 
BRANCH  24  25
ATOM     25  N   UNL A   1      40.766  19.268  25.911  1.00  0.00    -0.352 N 
ATOM     26  C   UNL A   1      42.030  19.800  25.698  1.00  0.00     0.251 C 
ATOM     27  H   UNL A   1      40.648  18.316  25.685  1.00  0.00     0.163 HD
ATOM     28  O   UNL A   1      42.834  19.260  24.960  1.00  0.00    -0.269 OA
BRANCH  26  29
ATOM     29  C   UNL A   1      42.384  21.046  26.405  1.00  0.00     0.039 A 
ATOM     30  C   UNL A   1      42.795  22.190  25.713  1.00  0.00     0.014 A 
ATOM     31  C   UNL A   1      42.257  21.056  27.792  1.00  0.00     0.014 A 
ATOM     32  C   UNL A   1      42.990  23.373  26.426  1.00  0.00     0.010 A 
ATOM     33  C   UNL A   1      42.316  22.246  28.471  1.00  0.00     0.010 A 
ATOM     34  C   UNL A   1      42.725  23.398  27.804  1.00  0.00    -0.014 A 
BRANCH  34  35
ATOM     35  C   UNL A   1      42.728  24.649  28.554  1.00  0.00     0.031 A 
ATOM     36  C   UNL A   1      41.608  25.577  28.228  1.00  0.00     0.074 A 
ATOM     37  C   UNL A   1      43.523  24.842  29.631  1.00  0.00     0.049 A 
ATOM     38  N   UNL A   1      41.698  26.773  27.751  1.00  0.00    -0.248 NA
ATOM     39  C   UNL A   1      40.223  25.086  28.338  1.00  0.00     0.031 C 
ATOM     40  C   UNL A   1      44.465  23.895  30.243  1.00  0.00     0.029 A 
ATOM     41  N   UNL A   1      43.553  25.886  30.502  1.00  0.00    -0.354 N 
ATOM     42  C   UNL A   1      40.397  27.264  27.672  1.00  0.00     0.074 A 
ATOM     43  C   UNL A   1      39.528  26.137  27.895  1.00  0.00     0.031 C 
ATOM     44  C   UNL A   1      44.762  24.299  31.497  1.00  0.00     0.029 A 
ATOM     45  C   UNL A   1      44.169  25.605  31.717  1.00  0.00     0.049 A 
ATOM     46  H   UNL A   1      43.168  26.768  30.290  1.00  0.00     0.167 HD
ATOM     47  C   UNL A   1      40.147  28.603  27.660  1.00  0.00     0.031 A 
ATOM     48  C   UNL A   1      44.169  26.374  32.835  1.00  0.00     0.031 A 
ATOM     49  C   UNL A   1      41.346  29.361  27.406  1.00  0.00     0.049 A 
ATOM     50  C   UNL A   1      43.809  27.751  32.424  1.00  0.00     0.074 A 
ATOM     51  C   UNL A   1      42.259  29.419  26.373  1.00  0.00     0.029 A 
ATOM     52  N   UNL A   1      41.971  29.919  28.497  1.00  0.00    -0.354 N 
ATOM     53  N   UNL A   1      44.590  28.499  31.701  1.00  0.00    -0.248 NA
ATOM     54  C   UNL A   1      42.401  28.115  32.407  1.00  0.00     0.031 C 
ATOM     55  C   UNL A   1      43.526  29.534  27.016  1.00  0.00     0.029 A 
ATOM     56  C   UNL A   1      43.308  29.636  28.392  1.00  0.00     0.049 A 
ATOM     57  H   UNL A   1      41.539  30.429  29.220  1.00  0.00     0.167 HD
ATOM     58  C   UNL A   1      43.740  29.098  30.783  1.00  0.00     0.074 A 
ATOM     59  C   UNL A   1      42.396  28.915  31.335  1.00  0.00     0.031 C 
ATOM     60  C   UNL A   1      44.173  29.414  29.527  1.00  0.00     0.031 A 
BRANCH  47  61
ATOM     61  C   UNL A   1      38.933  29.245  28.286  1.00  0.00    -0.014 A 
ATOM     62  C   UNL A   1      38.700  29.043  29.660  1.00  0.00     0.009 A 
ATOM     63  C   UNL A   1      37.868  29.777  27.536  1.00  0.00     0.009 A 
ATOM     64  C   UNL A   1      37.440  29.268  30.229  1.00  0.00     0.001 A 
ATOM     65  C   UNL A   1      36.620  30.041  28.110  1.00  0.00     0.001 A 
ATOM     66  C   UNL A   1      36.397  29.754  29.449  1.00  0.00     0.000 A 
ENDBRANCH  47  61
BRANCH  48  67
ATOM     67  C   UNL A   1      44.247  25.979  34.258  1.00  0.00    -0.014 A 
ATOM     68  C   UNL A   1      43.157  25.371  34.902  1.00  0.00     0.009 A 
ATOM     69  C   UNL A   1      45.492  25.948  34.913  1.00  0.00     0.009 A 
ATOM     70  C   UNL A   1      43.316  24.719  36.133  1.00  0.00     0.001 A 
ATOM     71  C   UNL A   1      45.652  25.298  36.143  1.00  0.00     0.001 A 
ATOM     72  C   UNL A   1      44.567  24.669  36.745  1.00  0.00     0.000 A 
ENDBRANCH  48  67
BRANCH  60  73
ATOM     73  C   UNL A   1      45.650  29.282  29.235  1.00  0.00    -0.014 A 
ATOM     74  C   UNL A   1      46.566  30.342  29.373  1.00  0.00     0.009 A 
ATOM     75  C   UNL A   1      46.156  28.007  28.946  1.00  0.00     0.009 A 
ATOM     76  C   UNL A   1      47.937  30.139  29.183  1.00  0.00     0.001 A 
ATOM     77  C   UNL A   1      47.527  27.799  28.780  1.00  0.00     0.001 A 
ATOM     78  C   UNL A   1      48.417  28.865  28.888  1.00  0.00     0.000 A 
ENDBRANCH  60  73
ENDBRANCH  34  35
ENDBRANCH  26  29
ENDBRANCH  24  25
ENDBRANCH   1  24
TORSDOF 13
ENDMDL
MODEL 2
REMARK VINA RESULT:     -11.7      2.731      6.583
REMARK SMILES CCn1nc(-c2cccnc2)c2cc(C(=O)NCCCCNC(=O)c3ccc(-c4c5nc(c(-c6ccccc6)c6ccc([nH]6)c(-c6ccccc6)c6nc(c(-c7ccccc7)c7ccc4[nH]7)C=C6)C=C5)cc3)sc21
REMARK SMILES IDX 20 1 19 2 18 3 17 4 15 5 16 6 14 8 3 9 4 10 74 11 5 12 12 13
REMARK SMILES IDX 73 14 13 15 2 16 1 17 6 18 7 19 11 20 8 21 10 22 9 23 21 24
REMARK SMILES IDX 22 25 23 26 24 28 25 29 26 30 72 31 27 32 71 33 28 34 29 35
REMARK SMILES IDX 30 36 65 37 31 38 70 39 64 40 66 41 32 42 69 43 63 44 62 45
REMARK SMILES IDX 33 47 55 48 40 49 54 50 41 51 44 52 53 53 67 54 42 55 43 56
REMARK SMILES IDX 52 58 68 59 45 60 34 61 35 62 39 63 36 64 38 65 37 66 56 67
REMARK SMILES IDX 57 68 61 69 58 70 60 71 59 72 46 73 47 74 51 75 48 76 50 77
REMARK SMILES IDX 49 78
REMARK H PARENT 17 7 22 27 66 46 44 57
REMARK Flexibility Score: inf
ROOT
ATOM      1  C   UNL A   1      41.560  19.085  25.882  1.00  0.00     0.023 C 
ENDROOT
BRANCH   1   2
ATOM      2  C   UNL A   1      40.821  20.266  26.509  1.00  0.00     0.023 C 
BRANCH   2   3
ATOM      3  C   UNL A   1      39.582  20.782  25.777  1.00  0.00     0.116 C 
BRANCH   3   4
ATOM      4  N   UNL A   1      39.183  22.148  26.111  1.00  0.00    -0.351 N 
ATOM      5  C   UNL A   1      38.005  22.853  25.898  1.00  0.00     0.261 C 
ATOM      6  O   UNL A   1      38.007  24.029  26.270  1.00  0.00    -0.268 OA
ATOM      7  H   UNL A   1      39.881  22.665  26.573  1.00  0.00     0.163 HD
BRANCH   5   8
ATOM      8  C   UNL A   1      36.862  22.270  25.206  1.00  0.00     0.095 A 
ATOM      9  N   UNL A   1      33.435  22.179  23.832  1.00  0.00    -0.254 N 
ATOM     10  N   UNL A   1      32.879  20.954  24.057  1.00  0.00    -0.171 NA
ATOM     11  C   UNL A   1      34.749  22.158  24.119  1.00  0.00     0.122 A 
ATOM     12  C   UNL A   1      33.873  20.218  24.624  1.00  0.00     0.103 A 
ATOM     13  C   UNL A   1      34.996  21.031  24.791  1.00  0.00     0.040 A 
ATOM     14  S   UNL A   1      36.097  23.075  23.863  1.00  0.00    -0.110 S 
ATOM     15  C   UNL A   1      36.259  21.008  25.396  1.00  0.00     0.038 A 
BRANCH   9  16
ATOM     16  C   UNL A   1      32.573  23.310  23.546  1.00  0.00     0.142 C 
ATOM     17  C   UNL A   1      32.141  24.151  24.743  1.00  0.00     0.029 C 
ENDBRANCH   9  16
BRANCH  12  18
ATOM     18  C   UNL A   1      33.694  18.791  24.815  1.00  0.00     0.021 A 
ATOM     19  C   UNL A   1      34.625  17.912  24.246  1.00  0.00     0.013 A 
ATOM     20  C   UNL A   1      32.645  18.239  25.529  1.00  0.00     0.121 A 
ATOM     21  C   UNL A   1      34.482  16.540  24.414  1.00  0.00     0.021 A 
ATOM     22  N   UNL A   1      32.477  16.902  25.710  1.00  0.00    -0.264 NA
ATOM     23  C   UNL A   1      33.399  16.087  25.147  1.00  0.00     0.111 A 
ENDBRANCH  12  18
ENDBRANCH   5   8
ENDBRANCH   3   4
ENDBRANCH   2   3
ENDBRANCH   1   2
BRANCH   1  24
ATOM     24  C   UNL A   1      43.036  18.991  26.246  1.00  0.00     0.116 C 
BRANCH  24  25
ATOM     25  N   UNL A   1      43.927  18.844  25.097  1.00  0.00    -0.352 N 
ATOM     26  C   UNL A   1      44.442  19.858  24.301  1.00  0.00     0.251 C 
ATOM     27  H   UNL A   1      44.192  17.924  24.861  1.00  0.00     0.163 HD
ATOM     28  O   UNL A   1      44.887  19.633  23.190  1.00  0.00    -0.269 OA
BRANCH  26  29
ATOM     29  C   UNL A   1      44.448  21.229  24.846  1.00  0.00     0.039 A 
ATOM     30  C   UNL A   1      43.429  22.140  24.550  1.00  0.00     0.014 A 
ATOM     31  C   UNL A   1      45.491  21.576  25.701  1.00  0.00     0.014 A 
ATOM     32  C   UNL A   1      43.422  23.375  25.198  1.00  0.00     0.010 A 
ATOM     33  C   UNL A   1      45.411  22.730  26.437  1.00  0.00     0.010 A 
ATOM     34  C   UNL A   1      44.405  23.653  26.159  1.00  0.00    -0.014 A 
BRANCH  34  35
ATOM     35  C   UNL A   1      44.331  24.845  26.998  1.00  0.00     0.031 A 
ATOM     36  C   UNL A   1      45.395  25.856  26.744  1.00  0.00     0.074 A 
ATOM     37  C   UNL A   1      43.246  25.125  27.756  1.00  0.00     0.049 A 
ATOM     38  N   UNL A   1      46.284  26.281  27.579  1.00  0.00    -0.248 NA
ATOM     39  C   UNL A   1      45.569  26.380  25.377  1.00  0.00     0.031 C 
ATOM     40  C   UNL A   1      41.997  24.360  27.869  1.00  0.00     0.029 A 
ATOM     41  N   UNL A   1      42.971  26.242  28.483  1.00  0.00    -0.354 N 
ATOM     42  C   UNL A   1      47.015  27.260  26.911  1.00  0.00     0.074 A 
ATOM     43  C   UNL A   1      46.637  27.167  25.523  1.00  0.00     0.031 C 
ATOM     44  C   UNL A   1      41.031  25.146  28.392  1.00  0.00     0.029 A 
ATOM     45  C   UNL A   1      41.627  26.405  28.800  1.00  0.00     0.049 A 
ATOM     46  H   UNL A   1      43.666  26.882  28.760  1.00  0.00     0.167 HD
ATOM     47  C   UNL A   1      47.699  28.221  27.593  1.00  0.00     0.031 A 
ATOM     48  C   UNL A   1      41.036  27.505  29.332  1.00  0.00     0.031 A 
ATOM     49  C   UNL A   1      47.826  27.887  28.989  1.00  0.00     0.049 A 
ATOM     50  C   UNL A   1      42.105  28.328  29.945  1.00  0.00     0.074 A 
ATOM     51  C   UNL A   1      48.392  26.841  29.690  1.00  0.00     0.029 A 
ATOM     52  N   UNL A   1      46.949  28.495  29.856  1.00  0.00    -0.354 N 
ATOM     53  N   UNL A   1      42.762  27.956  31.004  1.00  0.00    -0.248 NA
ATOM     54  C   UNL A   1      42.767  29.321  29.115  1.00  0.00     0.031 C 
ATOM     55  C   UNL A   1      47.470  26.571  30.743  1.00  0.00     0.029 A 
ATOM     56  C   UNL A   1      46.449  27.522  30.682  1.00  0.00     0.049 A 
ATOM     57  H   UNL A   1      46.722  29.452  29.881  1.00  0.00     0.167 HD
ATOM     58  C   UNL A   1      44.080  28.284  30.725  1.00  0.00     0.074 A 
ATOM     59  C   UNL A   1      44.007  29.222  29.603  1.00  0.00     0.031 C 
ATOM     60  C   UNL A   1      45.111  27.540  31.225  1.00  0.00     0.031 A 
BRANCH  47  61
ATOM     61  C   UNL A   1      47.881  29.638  27.108  1.00  0.00    -0.014 A 
ATOM     62  C   UNL A   1      49.168  30.209  27.172  1.00  0.00     0.009 A 
ATOM     63  C   UNL A   1      46.810  30.520  26.879  1.00  0.00     0.009 A 
ATOM     64  C   UNL A   1      49.355  31.596  27.109  1.00  0.00     0.001 A 
ATOM     65  C   UNL A   1      46.999  31.902  26.775  1.00  0.00     0.001 A 
ATOM     66  C   UNL A   1      48.268  32.441  26.923  1.00  0.00     0.000 A 
ENDBRANCH  47  61
BRANCH  48  67
ATOM     67  C   UNL A   1      39.656  28.011  29.173  1.00  0.00    -0.014 A 
ATOM     68  C   UNL A   1      38.784  28.096  30.272  1.00  0.00     0.009 A 
ATOM     69  C   UNL A   1      39.279  28.671  27.989  1.00  0.00     0.009 A 
ATOM     70  C   UNL A   1      37.604  28.849  30.201  1.00  0.00     0.001 A 
ATOM     71  C   UNL A   1      38.100  29.423  27.918  1.00  0.00     0.001 A 
ATOM     72  C   UNL A   1      37.270  29.525  29.029  1.00  0.00     0.000 A 
ENDBRANCH  48  67
BRANCH  60  73
ATOM     73  C   UNL A   1      44.783  26.479  32.250  1.00  0.00    -0.014 A 
ATOM     74  C   UNL A   1      44.504  25.140  31.918  1.00  0.00     0.009 A 
ATOM     75  C   UNL A   1      44.895  26.812  33.608  1.00  0.00     0.009 A 
ATOM     76  C   UNL A   1      44.300  24.178  32.914  1.00  0.00     0.001 A 
ATOM     77  C   UNL A   1      44.717  25.848  34.601  1.00  0.00     0.001 A 
ATOM     78  C   UNL A   1      44.409  24.534  34.256  1.00  0.00     0.000 A 
ENDBRANCH  60  73
ENDBRANCH  34  35
ENDBRANCH  26  29
ENDBRANCH  24  25
ENDBRANCH   1  24
TORSDOF 13
ENDMDL
MODEL 3
REMARK VINA RESULT:     -11.5      4.830      9.602
REMARK SMILES CCn1nc(-c2cccnc2)c2cc(C(=O)NCCCCNC(=O)c3ccc(-c4c5nc(c(-c6ccccc6)c6ccc([nH]6)c(-c6ccccc6)c6nc(c(-c7ccccc7)c7ccc4[nH]7)C=C6)C=C5)cc3)sc21
REMARK SMILES IDX 20 1 19 2 18 3 17 4 15 5 16 6 14 8 3 9 4 10 74 11 5 12 12 13
REMARK SMILES IDX 73 14 13 15 2 16 1 17 6 18 7 19 11 20 8 21 10 22 9 23 21 24
REMARK SMILES IDX 22 25 23 26 24 28 25 29 26 30 72 31 27 32 71 33 28 34 29 35
REMARK SMILES IDX 30 36 65 37 31 38 70 39 64 40 66 41 32 42 69 43 63 44 62 45
REMARK SMILES IDX 33 47 55 48 40 49 54 50 41 51 44 52 53 53 67 54 42 55 43 56
REMARK SMILES IDX 52 58 68 59 45 60 34 61 35 62 39 63 36 64 38 65 37 66 56 67
REMARK SMILES IDX 57 68 61 69 58 70 60 71 59 72 46 73 47 74 51 75 48 76 50 77
REMARK SMILES IDX 49 78
REMARK H PARENT 17 7 22 27 66 46 44 57
REMARK Flexibility Score: inf
ROOT
ATOM      1  C   UNL A   1      32.809  35.020  28.709  1.00  0.00     0.023 C 
ENDROOT
BRANCH   1   2
ATOM      2  C   UNL A   1      33.864  33.968  28.372  1.00  0.00     0.023 C 
BRANCH   2   3
ATOM      3  C   UNL A   1      33.372  32.542  28.122  1.00  0.00     0.116 C 
BRANCH   3   4
ATOM      4  N   UNL A   1      34.421  31.552  27.886  1.00  0.00    -0.351 N 
ATOM      5  C   UNL A   1      34.410  30.316  27.251  1.00  0.00     0.261 C 
ATOM      6  O   UNL A   1      35.477  29.696  27.263  1.00  0.00    -0.268 OA
ATOM      7  H   UNL A   1      35.300  31.810  28.246  1.00  0.00     0.163 HD
BRANCH   5   8
ATOM      8  C   UNL A   1      33.199  29.745  26.676  1.00  0.00     0.095 A 
ATOM      9  N   UNL A   1      31.073  27.096  25.226  1.00  0.00    -0.254 N 
ATOM     10  N   UNL A   1      30.338  27.605  24.196  1.00  0.00    -0.171 NA
ATOM     11  C   UNL A   1      31.678  28.087  25.906  1.00  0.00     0.122 A 
ATOM     12  C   UNL A   1      30.625  28.935  24.186  1.00  0.00     0.103 A 
ATOM     13  C   UNL A   1      31.579  29.197  25.171  1.00  0.00     0.040 A 
ATOM     14  S   UNL A   1      32.449  28.322  27.345  1.00  0.00    -0.110 S 
ATOM     15  C   UNL A   1      32.401  30.238  25.620  1.00  0.00     0.038 A 
BRANCH   9  16
ATOM     16  C   UNL A   1      31.272  25.662  25.318  1.00  0.00     0.142 C 
ATOM     17  C   UNL A   1      32.712  25.171  25.215  1.00  0.00     0.029 C 
ENDBRANCH   9  16
BRANCH  12  18
ATOM     18  C   UNL A   1      29.860  29.830  23.339  1.00  0.00     0.021 A 
ATOM     19  C   UNL A   1      29.269  30.963  23.914  1.00  0.00     0.013 A 
ATOM     20  C   UNL A   1      29.671  29.629  21.982  1.00  0.00     0.121 A 
ATOM     21  C   UNL A   1      28.533  31.842  23.129  1.00  0.00     0.021 A 
ATOM     22  N   UNL A   1      28.955  30.468  21.188  1.00  0.00    -0.264 NA
ATOM     23  C   UNL A   1      28.404  31.552  21.781  1.00  0.00     0.111 A 
ENDBRANCH  12  18
ENDBRANCH   5   8
ENDBRANCH   3   4
ENDBRANCH   2   3
ENDBRANCH   1   2
BRANCH   1  24
ATOM     24  C   UNL A   1      33.274  36.102  29.675  1.00  0.00     0.116 C 
BRANCH  24  25
ATOM     25  N   UNL A   1      32.519  36.152  30.925  1.00  0.00    -0.352 N 
ATOM     26  C   UNL A   1      32.682  35.335  32.035  1.00  0.00     0.251 C 
ATOM     27  H   UNL A   1      31.818  36.841  30.987  1.00  0.00     0.163 HD
ATOM     28  O   UNL A   1      31.811  35.222  32.878  1.00  0.00    -0.269 OA
BRANCH  26  29
ATOM     29  C   UNL A   1      33.958  34.607  32.177  1.00  0.00     0.039 A 
ATOM     30  C   UNL A   1      34.050  33.234  31.927  1.00  0.00     0.014 A 
ATOM     31  C   UNL A   1      35.083  35.346  32.534  1.00  0.00     0.014 A 
ATOM     32  C   UNL A   1      35.306  32.629  31.951  1.00  0.00     0.010 A 
ATOM     33  C   UNL A   1      36.328  34.783  32.424  1.00  0.00     0.010 A 
ATOM     34  C   UNL A   1      36.445  33.417  32.178  1.00  0.00    -0.014 A 
BRANCH  34  35
ATOM     35  C   UNL A   1      37.789  32.869  32.024  1.00  0.00     0.031 A 
ATOM     36  C   UNL A   1      38.558  32.730  33.293  1.00  0.00     0.074 A 
ATOM     37  C   UNL A   1      38.206  32.299  30.871  1.00  0.00     0.049 A 
ATOM     38  N   UNL A   1      39.674  33.303  33.597  1.00  0.00    -0.248 NA
ATOM     39  C   UNL A   1      37.970  31.954  34.399  1.00  0.00     0.031 C 
ATOM     40  C   UNL A   1      37.445  32.101  29.630  1.00  0.00     0.029 A 
ATOM     41  N   UNL A   1      39.366  31.637  30.610  1.00  0.00    -0.354 N 
ATOM     42  C   UNL A   1      40.033  32.822  34.854  1.00  0.00     0.074 A 
ATOM     43  C   UNL A   1      38.880  32.124  35.362  1.00  0.00     0.031 C 
ATOM     44  C   UNL A   1      38.053  31.165  28.869  1.00  0.00     0.029 A 
ATOM     45  C   UNL A   1      39.322  30.820  29.485  1.00  0.00     0.049 A 
ATOM     46  H   UNL A   1      40.170  31.730  31.171  1.00  0.00     0.167 HD
ATOM     47  C   UNL A   1      41.329  32.841  35.274  1.00  0.00     0.031 A 
ATOM     48  C   UNL A   1      40.244  29.901  29.101  1.00  0.00     0.031 A 
ATOM     49  C   UNL A   1      42.143  33.683  34.435  1.00  0.00     0.049 A 
ATOM     50  C   UNL A   1      41.509  30.226  29.800  1.00  0.00     0.074 A 
ATOM     51  C   UNL A   1      42.127  35.021  34.093  1.00  0.00     0.029 A 
ATOM     52  N   UNL A   1      42.907  33.056  33.479  1.00  0.00    -0.354 N 
ATOM     53  N   UNL A   1      42.207  31.291  29.538  1.00  0.00    -0.248 NA
ATOM     54  C   UNL A   1      41.743  29.630  31.106  1.00  0.00     0.031 C 
ATOM     55  C   UNL A   1      42.445  35.042  32.704  1.00  0.00     0.029 A 
ATOM     56  C   UNL A   1      42.729  33.735  32.301  1.00  0.00     0.049 A 
ATOM     57  H   UNL A   1      43.478  32.266  33.615  1.00  0.00     0.167 HD
ATOM     58  C   UNL A   1      42.588  31.769  30.783  1.00  0.00     0.074 A 
ATOM     59  C   UNL A   1      42.373  30.649  31.700  1.00  0.00     0.031 C 
ATOM     60  C   UNL A   1      42.753  33.107  31.001  1.00  0.00     0.031 A 
BRANCH  47  61
ATOM     61  C   UNL A   1      41.948  31.791  36.164  1.00  0.00    -0.014 A 
ATOM     62  C   UNL A   1      42.755  32.212  37.238  1.00  0.00     0.009 A 
ATOM     63  C   UNL A   1      42.017  30.429  35.818  1.00  0.00     0.009 A 
ATOM     64  C   UNL A   1      43.653  31.338  37.864  1.00  0.00     0.001 A 
ATOM     65  C   UNL A   1      42.884  29.545  36.467  1.00  0.00     0.001 A 
ATOM     66  C   UNL A   1      43.725  30.008  37.468  1.00  0.00     0.000 A 
ENDBRANCH  47  61
BRANCH  48  67
ATOM     67  C   UNL A   1      40.070  28.642  28.344  1.00  0.00    -0.014 A 
ATOM     68  C   UNL A   1      40.666  28.467  27.085  1.00  0.00     0.009 A 
ATOM     69  C   UNL A   1      39.544  27.503  28.982  1.00  0.00     0.009 A 
ATOM     70  C   UNL A   1      40.770  27.194  26.506  1.00  0.00     0.001 A 
ATOM     71  C   UNL A   1      39.648  26.232  28.404  1.00  0.00     0.001 A 
ATOM     72  C   UNL A   1      40.275  26.075  27.173  1.00  0.00     0.000 A 
ENDBRANCH  48  67
BRANCH  60  73
ATOM     73  C   UNL A   1      42.708  34.029  29.804  1.00  0.00    -0.014 A 
ATOM     74  C   UNL A   1      43.769  34.164  28.890  1.00  0.00     0.009 A 
ATOM     75  C   UNL A   1      41.499  34.677  29.513  1.00  0.00     0.009 A 
ATOM     76  C   UNL A   1      43.638  34.959  27.746  1.00  0.00     0.001 A 
ATOM     77  C   UNL A   1      41.360  35.451  28.359  1.00  0.00     0.001 A 
ATOM     78  C   UNL A   1      42.431  35.601  27.481  1.00  0.00     0.000 A 
ENDBRANCH  60  73
ENDBRANCH  34  35
ENDBRANCH  26  29
ENDBRANCH  24  25
ENDBRANCH   1  24
TORSDOF 13
ENDMDL
