MODEL 1
REMARK VINA RESULT:     -14.1      0.000      0.000
REMARK SMILES CC1(C)O[C@H]2C[C@H]3[C@@H]4CCC5=CC(=O)C=C[C@]5(C)[C@@]4(F)[C@H](O)C[C@@]3(C)[C@@]2(C(=O)NCCCCNC(=O)c2ccc(-c3c4nc(c(-c5ccccc5)c5ccc([nH]5)c(-c5ccccc5)c5nc(c(-c6ccccc6)c6ccc3[nH]6)C=C5)C=C4)cc2)O1
REMARK SMILES IDX 32 1 31 2 30 3 29 4 27 5 28 6 26 8 1 9 2 10 3 11 4 12 85 13
REMARK SMILES IDX 5 14 6 15 24 16 7 17 23 18 25 19 8 20 21 21 9 22 19 23 10 24
REMARK SMILES IDX 17 25 20 26 11 27 16 28 18 29 12 30 15 31 13 32 14 33 22 34
REMARK SMILES IDX 33 36 34 37 35 38 36 40 37 41 38 42 84 43 39 44 83 45 40 46
REMARK SMILES IDX 41 47 42 48 77 49 43 50 82 51 76 52 78 53 44 54 81 55 75 56
REMARK SMILES IDX 74 57 45 59 67 60 52 61 66 62 53 63 56 64 65 65 79 66 54 67
REMARK SMILES IDX 55 68 64 70 80 71 57 72 46 73 47 74 51 75 48 76 50 77 49 78
REMARK SMILES IDX 68 79 69 80 73 81 70 82 72 83 71 84 58 85 59 86 63 87 60 88
REMARK SMILES IDX 62 89 61 90
REMARK H PARENT 29 7 22 35 34 39 78 58 56 69
REMARK Flexibility Score: inf
ROOT
ATOM      1  C   UNL A   1      31.683  32.108  26.877  1.00  0.00     0.023 C 
ENDROOT
BRANCH   1   2
ATOM      2  C   UNL A   1      32.037  30.641  26.662  1.00  0.00     0.023 C 
BRANCH   2   3
ATOM      3  C   UNL A   1      31.813  30.106  25.259  1.00  0.00     0.116 C 
BRANCH   3   4
ATOM      4  N   UNL A   1      32.948  29.769  24.431  1.00  0.00    -0.353 N 
ATOM      5  C   UNL A   1      33.277  28.503  23.961  1.00  0.00     0.255 C 
ATOM      6  O   UNL A   1      34.114  28.411  23.063  1.00  0.00    -0.272 OA
ATOM      7  H   UNL A   1      33.546  30.507  24.173  1.00  0.00     0.163 HD
BRANCH   5   8
ATOM      8  C   UNL A   1      32.621  27.253  24.609  1.00  0.00     0.181 C 
ATOM      9  C   UNL A   1      30.091  25.293  23.095  1.00  0.00     0.075 C 
ATOM     10  C   UNL A   1      30.770  26.649  23.316  1.00  0.00     0.164 C 
ATOM     11  C   UNL A   1      30.514  27.553  22.119  1.00  0.00     0.075 C 
ATOM     12  O   UNL A   1      30.210  27.274  24.468  1.00  0.00    -0.344 OA
ATOM     13  O   UNL A   1      32.186  26.437  23.483  1.00  0.00    -0.331 OA
ATOM     14  C   UNL A   1      31.272  27.486  25.401  1.00  0.00     0.164 C 
ATOM     15  C   UNL A   1      31.185  26.342  26.524  1.00  0.00     0.040 C 
ATOM     16  C   UNL A   1      33.454  26.455  25.714  1.00  0.00     0.014 C 
ATOM     17  C   UNL A   1      32.335  25.429  26.084  1.00  0.00     0.008 C 
ATOM     18  C   UNL A   1      34.782  25.718  25.518  1.00  0.00     0.046 C 
ATOM     19  C   UNL A   1      33.813  27.491  26.838  1.00  0.00     0.015 C 
ATOM     20  C   UNL A   1      32.484  23.894  25.808  1.00  0.00     0.035 C 
ATOM     21  C   UNL A   1      34.735  24.391  24.789  1.00  0.00     0.154 C 
ATOM     22  C   UNL A   1      31.628  22.952  26.638  1.00  0.00     0.012 C 
ATOM     23  C   UNL A   1      33.905  23.332  25.566  1.00  0.00     0.152 C 
ATOM     24  C   UNL A   1      31.388  21.685  25.800  1.00  0.00     0.032 C 
ATOM     25  C   UNL A   1      33.830  21.933  24.799  1.00  0.00     0.044 C 
ATOM     26  F   UNL A   1      34.470  23.148  26.797  1.00  0.00    -0.239 F 
ATOM     27  C   UNL A   1      32.654  21.043  25.276  1.00  0.00    -0.053 C 
ATOM     28  C   UNL A   1      35.132  21.139  24.904  1.00  0.00    -0.009 C 
ATOM     29  C   UNL A   1      33.613  22.161  23.266  1.00  0.00     0.024 C 
ATOM     30  C   UNL A   1      32.708  19.703  25.146  1.00  0.00     0.052 C 
ATOM     31  C   UNL A   1      35.190  19.804  24.793  1.00  0.00     0.048 C 
ATOM     32  C   UNL A   1      33.939  19.030  24.671  1.00  0.00     0.178 C 
ATOM     33  O   UNL A   1      33.926  17.880  24.253  1.00  0.00    -0.290 OA
BRANCH  21  34
ATOM     34  O   UNL A   1      36.077  23.962  24.554  1.00  0.00    -0.390 OA
ATOM     35  H   UNL A   1      36.184  23.050  24.866  1.00  0.00     0.211 HD
ENDBRANCH  21  34
ENDBRANCH   5   8
ENDBRANCH   3   4
ENDBRANCH   2   3
ENDBRANCH   1   2
BRANCH   1  36
ATOM     36  C   UNL A   1      32.759  32.998  27.498  1.00  0.00     0.116 C 
BRANCH  36  37
ATOM     37  N   UNL A   1      32.344  34.355  27.823  1.00  0.00    -0.352 N 
ATOM     38  C   UNL A   1      32.953  35.258  28.675  1.00  0.00     0.251 C 
ATOM     39  H   UNL A   1      31.524  34.670  27.378  1.00  0.00     0.163 HD
ATOM     40  O   UNL A   1      32.469  36.373  28.850  1.00  0.00    -0.269 OA
BRANCH  38  41
ATOM     41  C   UNL A   1      34.152  34.846  29.438  1.00  0.00     0.039 A 
ATOM     42  C   UNL A   1      33.981  34.317  30.720  1.00  0.00     0.014 A 
ATOM     43  C   UNL A   1      35.420  34.879  28.855  1.00  0.00     0.014 A 
ATOM     44  C   UNL A   1      35.061  33.709  31.366  1.00  0.00     0.010 A 
ATOM     45  C   UNL A   1      36.469  34.192  29.458  1.00  0.00     0.010 A 
ATOM     46  C   UNL A   1      36.297  33.584  30.713  1.00  0.00    -0.014 A 
BRANCH  46  47
ATOM     47  C   UNL A   1      37.413  32.802  31.306  1.00  0.00     0.031 A 
ATOM     48  C   UNL A   1      37.991  33.194  32.636  1.00  0.00     0.074 A 
ATOM     49  C   UNL A   1      37.962  31.783  30.612  1.00  0.00     0.049 A 
ATOM     50  N   UNL A   1      39.002  32.673  33.285  1.00  0.00    -0.248 NA
ATOM     51  C   UNL A   1      37.368  34.342  33.312  1.00  0.00     0.031 C 
ATOM     52  C   UNL A   1      37.528  31.319  29.293  1.00  0.00     0.029 A 
ATOM     53  N   UNL A   1      39.010  30.953  30.927  1.00  0.00    -0.354 N 
ATOM     54  C   UNL A   1      39.148  33.443  34.432  1.00  0.00     0.074 A 
ATOM     55  C   UNL A   1      38.163  34.499  34.359  1.00  0.00     0.031 C 
ATOM     56  C   UNL A   1      38.271  30.260  28.933  1.00  0.00     0.029 A 
ATOM     57  C   UNL A   1      39.262  29.997  29.972  1.00  0.00     0.049 A 
ATOM     58  H   UNL A   1      39.532  31.034  31.757  1.00  0.00     0.167 HD
ATOM     59  C   UNL A   1      40.007  33.275  35.467  1.00  0.00     0.031 A 
ATOM     60  C   UNL A   1      40.183  29.016  29.936  1.00  0.00     0.031 A 
ATOM     61  C   UNL A   1      40.983  32.222  35.547  1.00  0.00     0.049 A 
ATOM     62  C   UNL A   1      41.145  28.865  31.080  1.00  0.00     0.074 A 
ATOM     63  C   UNL A   1      41.860  31.934  36.579  1.00  0.00     0.029 A 
ATOM     64  N   UNL A   1      41.215  31.285  34.552  1.00  0.00    -0.354 N 
ATOM     65  N   UNL A   1      41.228  29.561  32.188  1.00  0.00    -0.248 NA
ATOM     66  C   UNL A   1      42.138  27.786  30.970  1.00  0.00     0.031 C 
ATOM     67  C   UNL A   1      42.657  30.853  36.184  1.00  0.00     0.029 A 
ATOM     68  C   UNL A   1      42.239  30.434  34.932  1.00  0.00     0.049 A 
ATOM     69  H   UNL A   1      40.724  31.234  33.699  1.00  0.00     0.167 HD
ATOM     70  C   UNL A   1      42.259  28.986  32.920  1.00  0.00     0.074 A 
ATOM     71  C   UNL A   1      42.765  27.879  32.134  1.00  0.00     0.031 C 
ATOM     72  C   UNL A   1      42.738  29.340  34.138  1.00  0.00     0.031 A 
BRANCH  59  73
ATOM     73  C   UNL A   1      39.922  34.274  36.588  1.00  0.00    -0.014 A 
ATOM     74  C   UNL A   1      39.124  34.036  37.719  1.00  0.00     0.009 A 
ATOM     75  C   UNL A   1      40.640  35.478  36.506  1.00  0.00     0.009 A 
ATOM     76  C   UNL A   1      39.001  35.004  38.717  1.00  0.00     0.001 A 
ATOM     77  C   UNL A   1      40.541  36.430  37.522  1.00  0.00     0.001 A 
ATOM     78  C   UNL A   1      39.711  36.200  38.618  1.00  0.00     0.000 A 
ENDBRANCH  59  73
BRANCH  60  79
ATOM     79  C   UNL A   1      40.212  28.065  28.794  1.00  0.00    -0.014 A 
ATOM     80  C   UNL A   1      40.939  28.382  27.636  1.00  0.00     0.009 A 
ATOM     81  C   UNL A   1      39.527  26.842  28.853  1.00  0.00     0.009 A 
ATOM     82  C   UNL A   1      40.967  27.500  26.553  1.00  0.00     0.001 A 
ATOM     83  C   UNL A   1      39.577  25.951  27.777  1.00  0.00     0.001 A 
ATOM     84  C   UNL A   1      40.290  26.284  26.627  1.00  0.00     0.000 A 
ENDBRANCH  60  79
BRANCH  72  85
ATOM     85  C   UNL A   1      43.844  28.500  34.712  1.00  0.00    -0.014 A 
ATOM     86  C   UNL A   1      45.192  28.832  34.512  1.00  0.00     0.009 A 
ATOM     87  C   UNL A   1      43.526  27.380  35.495  1.00  0.00     0.009 A 
ATOM     88  C   UNL A   1      46.202  28.038  35.061  1.00  0.00     0.001 A 
ATOM     89  C   UNL A   1      44.537  26.605  36.065  1.00  0.00     0.001 A 
ATOM     90  C   UNL A   1      45.874  26.929  35.841  1.00  0.00     0.000 A 
ENDBRANCH  72  85
ENDBRANCH  46  47
ENDBRANCH  38  41
ENDBRANCH  36  37
ENDBRANCH   1  36
TORSDOF 12
ENDMDL
MODEL 2
REMARK VINA RESULT:     -13.9      4.400      9.577
REMARK SMILES CC1(C)O[C@H]2C[C@H]3[C@@H]4CCC5=CC(=O)C=C[C@]5(C)[C@@]4(F)[C@H](O)C[C@@]3(C)[C@@]2(C(=O)NCCCCNC(=O)c2ccc(-c3c4nc(c(-c5ccccc5)c5ccc([nH]5)c(-c5ccccc5)c5nc(c(-c6ccccc6)c6ccc3[nH]6)C=C5)C=C4)cc2)O1
REMARK SMILES IDX 32 1 31 2 30 3 29 4 27 5 28 6 26 8 1 9 2 10 3 11 4 12 85 13
REMARK SMILES IDX 5 14 6 15 24 16 7 17 23 18 25 19 8 20 21 21 9 22 19 23 10 24
REMARK SMILES IDX 17 25 20 26 11 27 16 28 18 29 12 30 15 31 13 32 14 33 22 34
REMARK SMILES IDX 33 36 34 37 35 38 36 40 37 41 38 42 84 43 39 44 83 45 40 46
REMARK SMILES IDX 41 47 42 48 77 49 43 50 82 51 76 52 78 53 44 54 81 55 75 56
REMARK SMILES IDX 74 57 45 59 67 60 52 61 66 62 53 63 56 64 65 65 79 66 54 67
REMARK SMILES IDX 55 68 64 70 80 71 57 72 46 73 47 74 51 75 48 76 50 77 49 78
REMARK SMILES IDX 68 79 69 80 73 81 70 82 72 83 71 84 58 85 59 86 63 87 60 88
REMARK SMILES IDX 62 89 61 90
REMARK H PARENT 29 7 22 35 34 39 78 58 56 69
REMARK Flexibility Score: inf
ROOT
ATOM      1  C   UNL A   1      38.007  20.932  25.005  1.00  0.00     0.023 C 
ENDROOT
BRANCH   1   2
ATOM      2  C   UNL A   1      36.930  19.854  25.001  1.00  0.00     0.023 C 
BRANCH   2   3
ATOM      3  C   UNL A   1      35.516  20.332  25.280  1.00  0.00     0.116 C 
BRANCH   3   4
ATOM      4  N   UNL A   1      35.236  21.078  26.485  1.00  0.00    -0.353 N 
ATOM      5  C   UNL A   1      34.450  22.220  26.583  1.00  0.00     0.255 C 
ATOM      6  O   UNL A   1      34.094  22.591  27.701  1.00  0.00    -0.272 OA
ATOM      7  H   UNL A   1      35.641  20.745  27.319  1.00  0.00     0.163 HD
BRANCH   5   8
ATOM      8  C   UNL A   1      34.089  23.011  25.296  1.00  0.00     0.181 C 
ATOM      9  C   UNL A   1      31.159  22.499  23.373  1.00  0.00     0.075 C 
ATOM     10  C   UNL A   1      32.270  21.953  24.278  1.00  0.00     0.164 C 
ATOM     11  C   UNL A   1      31.778  20.708  25.001  1.00  0.00     0.075 C 
ATOM     12  O   UNL A   1      33.390  21.583  23.477  1.00  0.00    -0.344 OA
ATOM     13  O   UNL A   1      32.633  22.970  25.232  1.00  0.00    -0.331 OA
ATOM     14  C   UNL A   1      34.507  22.359  23.918  1.00  0.00     0.164 C 
ATOM     15  C   UNL A   1      34.720  23.562  22.876  1.00  0.00     0.040 C 
ATOM     16  C   UNL A   1      34.712  24.470  25.111  1.00  0.00     0.014 C 
ATOM     17  C   UNL A   1      34.143  24.733  23.679  1.00  0.00     0.008 C 
ATOM     18  C   UNL A   1      34.471  25.698  25.993  1.00  0.00     0.046 C 
ATOM     19  C   UNL A   1      36.271  24.303  25.193  1.00  0.00     0.015 C 
ATOM     20  C   UNL A   1      33.094  25.861  23.392  1.00  0.00     0.035 C 
ATOM     21  C   UNL A   1      33.135  26.398  25.853  1.00  0.00     0.154 C 
ATOM     22  C   UNL A   1      33.000  26.375  21.965  1.00  0.00     0.012 C 
ATOM     23  C   UNL A   1      32.939  26.994  24.432  1.00  0.00     0.152 C 
ATOM     24  C   UNL A   1      31.565  26.882  21.749  1.00  0.00     0.032 C 
ATOM     25  C   UNL A   1      31.526  27.718  24.264  1.00  0.00     0.044 C 
ATOM     26  F   UNL A   1      33.943  27.891  24.190  1.00  0.00    -0.239 F 
ATOM     27  C   UNL A   1      31.104  27.888  22.782  1.00  0.00    -0.053 C 
ATOM     28  C   UNL A   1      31.482  29.083  24.954  1.00  0.00    -0.009 C 
ATOM     29  C   UNL A   1      30.395  26.879  24.948  1.00  0.00     0.024 C 
ATOM     30  C   UNL A   1      30.256  28.868  22.415  1.00  0.00     0.052 C 
ATOM     31  C   UNL A   1      30.653  30.069  24.582  1.00  0.00     0.048 C 
ATOM     32  C   UNL A   1      29.808  29.895  23.385  1.00  0.00     0.178 C 
ATOM     33  O   UNL A   1      28.825  30.593  23.177  1.00  0.00    -0.290 OA
BRANCH  21  34
ATOM     34  O   UNL A   1      33.040  27.390  26.876  1.00  0.00    -0.390 OA
ATOM     35  H   UNL A   1      33.881  27.439  27.357  1.00  0.00     0.211 HD
ENDBRANCH  21  34
ENDBRANCH   5   8
ENDBRANCH   3   4
ENDBRANCH   2   3
ENDBRANCH   1   2
BRANCH   1  36
ATOM     36  C   UNL A   1      39.093  20.824  26.074  1.00  0.00     0.116 C 
BRANCH  36  37
ATOM     37  N   UNL A   1      40.065  19.758  25.878  1.00  0.00    -0.352 N 
ATOM     38  C   UNL A   1      41.426  19.781  26.126  1.00  0.00     0.251 C 
ATOM     39  H   UNL A   1      39.708  18.911  25.524  1.00  0.00     0.163 HD
ATOM     40  O   UNL A   1      42.118  18.792  25.899  1.00  0.00    -0.269 OA
BRANCH  38  41
ATOM     41  C   UNL A   1      42.061  21.033  26.594  1.00  0.00     0.039 A 
ATOM     42  C   UNL A   1      42.437  21.988  25.647  1.00  0.00     0.014 A 
ATOM     43  C   UNL A   1      42.182  21.309  27.958  1.00  0.00     0.014 A 
ATOM     44  C   UNL A   1      42.820  23.265  26.068  1.00  0.00     0.010 A 
ATOM     45  C   UNL A   1      42.473  22.606  28.370  1.00  0.00     0.010 A 
ATOM     46  C   UNL A   1      42.778  23.603  27.430  1.00  0.00    -0.014 A 
BRANCH  46  47
ATOM     47  C   UNL A   1      43.020  24.995  27.892  1.00  0.00     0.031 A 
ATOM     48  C   UNL A   1      44.419  25.468  28.174  1.00  0.00     0.074 A 
ATOM     49  C   UNL A   1      41.976  25.813  28.136  1.00  0.00     0.049 A 
ATOM     50  N   UNL A   1      44.824  26.622  28.640  1.00  0.00    -0.248 NA
ATOM     51  C   UNL A   1      45.502  24.503  27.927  1.00  0.00     0.031 C 
ATOM     52  C   UNL A   1      40.565  25.473  27.945  1.00  0.00     0.029 A 
ATOM     53  N   UNL A   1      41.946  27.106  28.598  1.00  0.00    -0.354 N 
ATOM     54  C   UNL A   1      46.203  26.515  28.761  1.00  0.00     0.074 A 
ATOM     55  C   UNL A   1      46.557  25.165  28.378  1.00  0.00     0.031 C 
ATOM     56  C   UNL A   1      39.810  26.544  28.243  1.00  0.00     0.029 A 
ATOM     57  C   UNL A   1      40.678  27.630  28.687  1.00  0.00     0.049 A 
ATOM     58  H   UNL A   1      42.755  27.610  28.844  1.00  0.00     0.167 HD
ATOM     59  C   UNL A   1      47.102  27.458  29.133  1.00  0.00     0.031 A 
ATOM     60  C   UNL A   1      40.260  28.848  29.079  1.00  0.00     0.031 A 
ATOM     61  C   UNL A   1      46.756  28.803  29.508  1.00  0.00     0.049 A 
ATOM     62  C   UNL A   1      41.270  29.871  29.516  1.00  0.00     0.074 A 
ATOM     63  C   UNL A   1      47.599  29.848  29.847  1.00  0.00     0.029 A 
ATOM     64  N   UNL A   1      45.461  29.287  29.600  1.00  0.00    -0.354 N 
ATOM     65  N   UNL A   1      42.576  29.774  29.562  1.00  0.00    -0.248 NA
ATOM     66  C   UNL A   1      40.744  31.174  29.949  1.00  0.00     0.031 C 
ATOM     67  C   UNL A   1      46.808  30.950  30.192  1.00  0.00     0.029 A 
ATOM     68  C   UNL A   1      45.477  30.608  30.014  1.00  0.00     0.049 A 
ATOM     69  H   UNL A   1      44.649  28.767  29.399  1.00  0.00     0.167 HD
ATOM     70  C   UNL A   1      43.031  31.012  29.999  1.00  0.00     0.074 A 
ATOM     71  C   UNL A   1      41.862  31.844  30.194  1.00  0.00     0.031 C 
ATOM     72  C   UNL A   1      44.306  31.423  30.211  1.00  0.00     0.031 A 
BRANCH  59  73
ATOM     73  C   UNL A   1      48.549  27.045  29.160  1.00  0.00    -0.014 A 
ATOM     74  C   UNL A   1      49.375  27.213  28.036  1.00  0.00     0.009 A 
ATOM     75  C   UNL A   1      49.089  26.468  30.319  1.00  0.00     0.009 A 
ATOM     76  C   UNL A   1      50.695  26.759  28.054  1.00  0.00     0.001 A 
ATOM     77  C   UNL A   1      50.420  26.046  30.345  1.00  0.00     0.001 A 
ATOM     78  C   UNL A   1      51.216  26.177  29.209  1.00  0.00     0.000 A 
ENDBRANCH  59  73
BRANCH  60  79
ATOM     79  C   UNL A   1      38.813  29.187  29.031  1.00  0.00    -0.014 A 
ATOM     80  C   UNL A   1      38.015  29.021  30.174  1.00  0.00     0.009 A 
ATOM     81  C   UNL A   1      38.224  29.682  27.858  1.00  0.00     0.009 A 
ATOM     82  C   UNL A   1      36.653  29.328  30.138  1.00  0.00     0.001 A 
ATOM     83  C   UNL A   1      36.866  30.012  27.832  1.00  0.00     0.001 A 
ATOM     84  C   UNL A   1      36.081  29.828  28.970  1.00  0.00     0.000 A 
ENDBRANCH  60  79
BRANCH  72  85
ATOM     85  C   UNL A   1      44.504  32.848  30.646  1.00  0.00    -0.014 A 
ATOM     86  C   UNL A   1      44.568  33.196  32.003  1.00  0.00     0.009 A 
ATOM     87  C   UNL A   1      44.666  33.851  29.678  1.00  0.00     0.009 A 
ATOM     88  C   UNL A   1      44.759  34.526  32.382  1.00  0.00     0.001 A 
ATOM     89  C   UNL A   1      44.884  35.175  30.059  1.00  0.00     0.001 A 
ATOM     90  C   UNL A   1      44.922  35.513  31.411  1.00  0.00     0.000 A 
ENDBRANCH  72  85
ENDBRANCH  46  47
ENDBRANCH  38  41
ENDBRANCH  36  37
ENDBRANCH   1  36
TORSDOF 12
ENDMDL
MODEL 3
REMARK VINA RESULT:     -13.9      4.316      9.286
REMARK SMILES CC1(C)O[C@H]2C[C@H]3[C@@H]4CCC5=CC(=O)C=C[C@]5(C)[C@@]4(F)[C@H](O)C[C@@]3(C)[C@@]2(C(=O)NCCCCNC(=O)c2ccc(-c3c4nc(c(-c5ccccc5)c5ccc([nH]5)c(-c5ccccc5)c5nc(c(-c6ccccc6)c6ccc3[nH]6)C=C5)C=C4)cc2)O1
REMARK SMILES IDX 32 1 31 2 30 3 29 4 27 5 28 6 26 8 1 9 2 10 3 11 4 12 85 13
REMARK SMILES IDX 5 14 6 15 24 16 7 17 23 18 25 19 8 20 21 21 9 22 19 23 10 24
REMARK SMILES IDX 17 25 20 26 11 27 16 28 18 29 12 30 15 31 13 32 14 33 22 34
REMARK SMILES IDX 33 36 34 37 35 38 36 40 37 41 38 42 84 43 39 44 83 45 40 46
REMARK SMILES IDX 41 47 42 48 77 49 43 50 82 51 76 52 78 53 44 54 81 55 75 56
REMARK SMILES IDX 74 57 45 59 67 60 52 61 66 62 53 63 56 64 65 65 79 66 54 67
REMARK SMILES IDX 55 68 64 70 80 71 57 72 46 73 47 74 51 75 48 76 50 77 49 78
REMARK SMILES IDX 68 79 69 80 73 81 70 82 72 83 71 84 58 85 59 86 63 87 60 88
REMARK SMILES IDX 62 89 61 90
REMARK H PARENT 29 7 22 35 34 39 78 58 56 69
REMARK Flexibility Score: inf
ROOT
ATOM      1  C   UNL A   1      38.452  19.625  24.917  1.00  0.00     0.023 C 
ENDROOT
BRANCH   1   2
ATOM      2  C   UNL A   1      37.612  20.895  24.972  1.00  0.00     0.023 C 
BRANCH   2   3
ATOM      3  C   UNL A   1      36.139  20.699  25.282  1.00  0.00     0.116 C 
BRANCH   3   4
ATOM      4  N   UNL A   1      35.575  21.281  26.479  1.00  0.00    -0.353 N 
ATOM      5  C   UNL A   1      34.544  22.211  26.535  1.00  0.00     0.255 C 
ATOM      6  O   UNL A   1      34.000  22.417  27.620  1.00  0.00    -0.272 OA
ATOM      7  H   UNL A   1      35.958  20.991  27.338  1.00  0.00     0.163 HD
BRANCH   5   8
ATOM      8  C   UNL A   1      34.144  22.987  25.251  1.00  0.00     0.181 C 
ATOM      9  C   UNL A   1      31.166  22.445  23.413  1.00  0.00     0.075 C 
ATOM     10  C   UNL A   1      32.303  21.912  24.293  1.00  0.00     0.164 C 
ATOM     11  C   UNL A   1      31.836  20.672  25.041  1.00  0.00     0.075 C 
ATOM     12  O   UNL A   1      33.403  21.539  23.465  1.00  0.00    -0.344 OA
ATOM     13  O   UNL A   1      32.687  22.940  25.227  1.00  0.00    -0.331 OA
ATOM     14  C   UNL A   1      34.528  22.323  23.868  1.00  0.00     0.164 C 
ATOM     15  C   UNL A   1      34.707  23.517  22.809  1.00  0.00     0.040 C 
ATOM     16  C   UNL A   1      34.756  24.447  25.034  1.00  0.00     0.014 C 
ATOM     17  C   UNL A   1      34.147  24.694  23.617  1.00  0.00     0.008 C 
ATOM     18  C   UNL A   1      34.533  25.683  25.911  1.00  0.00     0.046 C 
ATOM     19  C   UNL A   1      36.318  24.288  25.077  1.00  0.00     0.015 C 
ATOM     20  C   UNL A   1      33.087  25.814  23.346  1.00  0.00     0.035 C 
ATOM     21  C   UNL A   1      33.191  26.376  25.800  1.00  0.00     0.154 C 
ATOM     22  C   UNL A   1      32.952  26.314  21.918  1.00  0.00     0.012 C 
ATOM     23  C   UNL A   1      32.955  26.957  24.380  1.00  0.00     0.152 C 
ATOM     24  C   UNL A   1      31.509  26.813  21.735  1.00  0.00     0.032 C 
ATOM     25  C   UNL A   1      31.534  27.674  24.242  1.00  0.00     0.044 C 
ATOM     26  F   UNL A   1      33.948  27.856  24.102  1.00  0.00    -0.239 F 
ATOM     27  C   UNL A   1      31.072  27.827  22.771  1.00  0.00    -0.053 C 
ATOM     28  C   UNL A   1      31.504  29.045  24.920  1.00  0.00    -0.009 C 
ATOM     29  C   UNL A   1      30.427  26.837  24.965  1.00  0.00     0.024 C 
ATOM     30  C   UNL A   1      30.210  28.801  22.417  1.00  0.00     0.052 C 
ATOM     31  C   UNL A   1      30.660  30.024  24.561  1.00  0.00     0.048 C 
ATOM     32  C   UNL A   1      29.784  29.835  23.388  1.00  0.00     0.178 C 
ATOM     33  O   UNL A   1      28.793  30.527  23.200  1.00  0.00    -0.290 OA
BRANCH  21  34
ATOM     34  O   UNL A   1      33.120  27.378  26.815  1.00  0.00    -0.390 OA
ATOM     35  H   UNL A   1      33.784  27.195  27.498  1.00  0.00     0.211 HD
ENDBRANCH  21  34
ENDBRANCH   5   8
ENDBRANCH   3   4
ENDBRANCH   2   3
ENDBRANCH   1   2
BRANCH   1  36
ATOM     36  C   UNL A   1      39.335  19.324  26.128  1.00  0.00     0.116 C 
BRANCH  36  37
ATOM     37  N   UNL A   1      40.687  18.876  25.826  1.00  0.00    -0.352 N 
ATOM     38  C   UNL A   1      41.879  19.547  26.028  1.00  0.00     0.251 C 
ATOM     39  H   UNL A   1      40.762  17.979  25.425  1.00  0.00     0.163 HD
ATOM     40  O   UNL A   1      42.947  19.030  25.710  1.00  0.00    -0.269 OA
BRANCH  38  41
ATOM     41  C   UNL A   1      41.858  20.927  26.562  1.00  0.00     0.039 A 
ATOM     42  C   UNL A   1      41.858  21.110  27.947  1.00  0.00     0.014 A 
ATOM     43  C   UNL A   1      41.948  22.028  25.707  1.00  0.00     0.014 A 
ATOM     44  C   UNL A   1      42.072  22.386  28.475  1.00  0.00     0.010 A 
ATOM     45  C   UNL A   1      42.254  23.279  26.233  1.00  0.00     0.010 A 
ATOM     46  C   UNL A   1      42.337  23.470  27.622  1.00  0.00    -0.014 A 
BRANCH  46  47
ATOM     47  C   UNL A   1      42.728  24.800  28.156  1.00  0.00     0.031 A 
ATOM     48  C   UNL A   1      41.692  25.867  28.370  1.00  0.00     0.074 A 
ATOM     49  C   UNL A   1      44.030  25.079  28.376  1.00  0.00     0.049 A 
ATOM     50  N   UNL A   1      41.848  27.104  28.769  1.00  0.00    -0.248 NA
ATOM     51  C   UNL A   1      40.300  25.503  28.066  1.00  0.00     0.031 C 
ATOM     52  C   UNL A   1      45.145  24.152  28.174  1.00  0.00     0.029 A 
ATOM     53  N   UNL A   1      44.632  26.230  28.822  1.00  0.00    -0.354 N 
ATOM     54  C   UNL A   1      40.579  27.669  28.743  1.00  0.00     0.074 A 
ATOM     55  C   UNL A   1      39.678  26.660  28.233  1.00  0.00     0.031 C 
ATOM     56  C   UNL A   1      46.289  24.755  28.537  1.00  0.00     0.029 A 
ATOM     57  C   UNL A   1      45.996  26.122  28.955  1.00  0.00     0.049 A 
ATOM     58  H   UNL A   1      44.135  27.055  29.025  1.00  0.00     0.167 HD
ATOM     59  C   UNL A   1      40.191  28.908  29.132  1.00  0.00     0.031 A 
ATOM     60  C   UNL A   1      46.909  27.020  29.372  1.00  0.00     0.031 A 
ATOM     61  C   UNL A   1      41.082  29.913  29.646  1.00  0.00     0.049 A 
ATOM     62  C   UNL A   1      46.461  28.398  29.770  1.00  0.00     0.074 A 
ATOM     63  C   UNL A   1      40.776  31.177  30.119  1.00  0.00     0.029 A 
ATOM     64  N   UNL A   1      42.456  29.768  29.751  1.00  0.00    -0.354 N 
ATOM     65  N   UNL A   1      45.249  28.895  29.801  1.00  0.00    -0.248 NA
ATOM     66  C   UNL A   1      47.510  29.335  30.196  1.00  0.00     0.031 C 
ATOM     67  C   UNL A   1      41.974  31.815  30.462  1.00  0.00     0.029 A 
ATOM     68  C   UNL A   1      43.018  30.928  30.256  1.00  0.00     0.049 A 
ATOM     69  H   UNL A   1      42.959  28.958  29.502  1.00  0.00     0.167 HD
ATOM     70  C   UNL A   1      45.385  30.192  30.280  1.00  0.00     0.074 A 
ATOM     71  C   UNL A   1      46.796  30.400  30.534  1.00  0.00     0.031 C 
ATOM     72  C   UNL A   1      44.425  31.125  30.497  1.00  0.00     0.031 A 
BRANCH  59  73
ATOM     73  C   UNL A   1      38.728  29.235  28.995  1.00  0.00    -0.014 A 
ATOM     74  C   UNL A   1      38.204  29.743  27.795  1.00  0.00     0.009 A 
ATOM     75  C   UNL A   1      37.865  29.046  30.085  1.00  0.00     0.009 A 
ATOM     76  C   UNL A   1      36.860  30.108  27.707  1.00  0.00     0.001 A 
ATOM     77  C   UNL A   1      36.514  29.380  29.984  1.00  0.00     0.001 A 
ATOM     78  C   UNL A   1      36.016  29.925  28.801  1.00  0.00     0.000 A 
ENDBRANCH  59  73
BRANCH  60  79
ATOM     79  C   UNL A   1      48.339  26.630  29.479  1.00  0.00    -0.014 A 
ATOM     80  C   UNL A   1      48.811  26.005  30.644  1.00  0.00     0.009 A 
ATOM     81  C   UNL A   1      49.235  26.869  28.426  1.00  0.00     0.009 A 
ATOM     82  C   UNL A   1      50.155  25.642  30.759  1.00  0.00     0.001 A 
ATOM     83  C   UNL A   1      50.574  26.483  28.534  1.00  0.00     0.001 A 
ATOM     84  C   UNL A   1      51.033  25.876  29.702  1.00  0.00     0.000 A 
ENDBRANCH  60  79
BRANCH  72  85
ATOM     85  C   UNL A   1      44.864  32.443  31.069  1.00  0.00    -0.014 A 
ATOM     86  C   UNL A   1      45.204  33.522  30.240  1.00  0.00     0.009 A 
ATOM     87  C   UNL A   1      44.901  32.616  32.461  1.00  0.00     0.009 A 
ATOM     88  C   UNL A   1      45.605  34.739  30.795  1.00  0.00     0.001 A 
ATOM     89  C   UNL A   1      45.274  33.842  33.013  1.00  0.00     0.001 A 
ATOM     90  C   UNL A   1      45.634  34.900  32.180  1.00  0.00     0.000 A 
ENDBRANCH  72  85
ENDBRANCH  46  47
ENDBRANCH  38  41
ENDBRANCH  36  37
ENDBRANCH   1  36
TORSDOF 12
ENDMDL
