MODEL 1
REMARK VINA RESULT:     -10.6      0.000      0.000
REMARK SMILES CC1(C)CCN(C(=O)[C@@H]([NH3+])CC(=O)NCCCCNC(=O)c2ccc(-c3c4nc(c(-c5ccccc5)c5ccc([nH]5)c(-c5ccccc5)c5nc(c(-c6ccccc6)c6ccc3[nH]6)C=C5)C=C4)cc2)C1
REMARK SMILES IDX 16 1 15 2 14 3 12 4 13 5 11 7 9 8 7 9 8 10 6 11 1 12 2 13
REMARK SMILES IDX 3 14 4 15 70 16 5 17 10 18 17 22 18 23 19 24 20 25 21 27
REMARK SMILES IDX 22 28 23 29 69 30 24 31 68 32 25 33 26 34 27 35 62 36 28 37
REMARK SMILES IDX 67 38 61 39 63 40 29 41 66 42 60 43 59 44 30 46 52 47 37 48
REMARK SMILES IDX 51 49 38 50 41 51 50 52 64 53 39 54 40 55 49 57 65 58 42 59
REMARK SMILES IDX 31 60 32 61 36 62 33 63 35 64 34 65 53 66 54 67 58 68 55 69
REMARK SMILES IDX 57 70 56 71 43 72 44 73 48 74 45 75 47 76 46 77
REMARK H PARENT 14 6 10 19 10 20 10 21 19 26 63 45 41 56
REMARK Flexibility Score: inf
ROOT
ATOM      1  C   UNL A   1      37.139  22.659  24.144  1.00  0.00     0.023 C 
ENDROOT
BRANCH   1   2
ATOM      2  C   UNL A   1      35.797  23.302  24.496  1.00  0.00     0.116 C 
BRANCH   2   3
ATOM      3  N   UNL A   1      35.090  23.684  23.290  1.00  0.00    -0.356 N 
ATOM      4  C   UNL A   1      33.890  23.250  22.816  1.00  0.00     0.226 C 
ATOM      5  O   UNL A   1      33.548  23.593  21.683  1.00  0.00    -0.275 OA
ATOM      6  H   UNL A   1      35.543  24.357  22.732  1.00  0.00     0.163 HD
BRANCH   4   7
ATOM      7  C   UNL A   1      32.988  22.390  23.677  1.00  0.00     0.175 C 
BRANCH   7   8
ATOM      8  C   UNL A   1      32.790  20.992  23.091  1.00  0.00     0.280 C 
BRANCH   8   9
ATOM      9  C   UNL A   1      32.521  19.884  24.143  1.00  0.00     0.281 C 
ATOM     10  O   UNL A   1      31.703  20.107  25.044  1.00  0.00    -0.268 OA
BRANCH   9  11
ATOM     11  N   UNL A   1      33.178  18.674  24.086  1.00  0.00    -0.337 N 
ATOM     12  C   UNL A   1      32.774  15.809  25.310  1.00  0.00     0.013 C 
ATOM     13  C   UNL A   1      34.000  16.541  24.740  1.00  0.00    -0.016 C 
ATOM     14  C   UNL A   1      35.278  15.848  25.213  1.00  0.00     0.013 C 
ATOM     15  C   UNL A   1      33.928  16.619  23.207  1.00  0.00     0.030 C 
ATOM     16  C   UNL A   1      33.978  18.032  25.126  1.00  0.00     0.126 C 
ATOM     17  C   UNL A   1      32.963  17.769  22.965  1.00  0.00     0.120 C 
ENDBRANCH   9  11
ENDBRANCH   8   9
BRANCH   8  18
ATOM     18  N   UNL A   1      31.696  20.967  22.089  1.00  0.00    -0.347 N 
ATOM     19  H   UNL A   1      30.862  21.401  22.487  1.00  0.00     0.345 HD
ATOM     20  H   UNL A   1      31.488  20.000  21.836  1.00  0.00     0.345 HD
ATOM     21  H   UNL A   1      31.984  21.482  21.258  1.00  0.00     0.345 HD
ENDBRANCH   8  18
ENDBRANCH   7   8
ENDBRANCH   4   7
ENDBRANCH   2   3
ENDBRANCH   1   2
BRANCH   1  22
ATOM     22  C   UNL A   1      37.341  21.251  24.689  1.00  0.00     0.023 C 
BRANCH  22  23
ATOM     23  C   UNL A   1      38.452  21.125  25.723  1.00  0.00     0.116 C 
BRANCH  23  24
ATOM     24  N   UNL A   1      39.321  19.968  25.547  1.00  0.00    -0.352 N 
ATOM     25  C   UNL A   1      40.646  19.838  25.907  1.00  0.00     0.251 C 
ATOM     26  H   UNL A   1      38.912  19.182  25.119  1.00  0.00     0.163 HD
ATOM     27  O   UNL A   1      41.267  18.811  25.674  1.00  0.00    -0.269 OA
BRANCH  25  28
ATOM     28  C   UNL A   1      41.320  21.001  26.524  1.00  0.00     0.039 A 
ATOM     29  C   UNL A   1      41.968  21.918  25.694  1.00  0.00     0.014 A 
ATOM     30  C   UNL A   1      41.198  21.242  27.893  1.00  0.00     0.014 A 
ATOM     31  C   UNL A   1      42.400  23.135  26.225  1.00  0.00     0.010 A 
ATOM     32  C   UNL A   1      41.548  22.487  28.400  1.00  0.00     0.010 A 
ATOM     33  C   UNL A   1      42.140  23.451  27.569  1.00  0.00    -0.014 A 
BRANCH  33  34
ATOM     34  C   UNL A   1      42.453  24.793  28.121  1.00  0.00     0.031 A 
ATOM     35  C   UNL A   1      43.843  25.109  28.592  1.00  0.00     0.074 A 
ATOM     36  C   UNL A   1      41.465  25.695  28.282  1.00  0.00     0.049 A 
ATOM     37  N   UNL A   1      44.293  26.195  29.168  1.00  0.00    -0.248 NA
ATOM     38  C   UNL A   1      44.855  24.052  28.428  1.00  0.00     0.031 C 
ATOM     39  C   UNL A   1      40.057  25.490  27.931  1.00  0.00     0.029 A 
ATOM     40  N   UNL A   1      41.495  26.968  28.795  1.00  0.00    -0.354 N 
ATOM     41  C   UNL A   1      45.626  25.941  29.459  1.00  0.00     0.074 A 
ATOM     42  C   UNL A   1      45.900  24.583  29.043  1.00  0.00     0.031 C 
ATOM     43  C   UNL A   1      39.367  26.609  28.205  1.00  0.00     0.029 A 
ATOM     44  C   UNL A   1      40.273  27.596  28.783  1.00  0.00     0.049 A 
ATOM     45  H   UNL A   1      42.315  27.390  29.138  1.00  0.00     0.167 HD
ATOM     46  C   UNL A   1      46.548  26.769  30.004  1.00  0.00     0.031 A 
ATOM     47  C   UNL A   1      39.922  28.831  29.187  1.00  0.00     0.031 A 
ATOM     48  C   UNL A   1      46.288  28.128  30.390  1.00  0.00     0.049 A 
ATOM     49  C   UNL A   1      40.971  29.746  29.754  1.00  0.00     0.074 A 
ATOM     50  C   UNL A   1      47.173  29.072  30.879  1.00  0.00     0.029 A 
ATOM     51  N   UNL A   1      45.045  28.740  30.326  1.00  0.00    -0.354 N 
ATOM     52  N   UNL A   1      42.246  29.516  29.952  1.00  0.00    -0.248 NA
ATOM     53  C   UNL A   1      40.532  31.094  30.142  1.00  0.00     0.031 C 
ATOM     54  C   UNL A   1      46.459  30.245  31.144  1.00  0.00     0.029 A 
ATOM     55  C   UNL A   1      45.137  30.044  30.781  1.00  0.00     0.049 A 
ATOM     56  H   UNL A   1      44.219  28.310  30.004  1.00  0.00     0.167 HD
ATOM     57  C   UNL A   1      42.767  30.696  30.464  1.00  0.00     0.074 A 
ATOM     58  C   UNL A   1      41.673  31.644  30.533  1.00  0.00     0.031 C 
ATOM     59  C   UNL A   1      44.039  30.971  30.844  1.00  0.00     0.031 A 
BRANCH  46  60
ATOM     60  C   UNL A   1      47.928  26.214  30.210  1.00  0.00    -0.014 A 
ATOM     61  C   UNL A   1      48.830  26.094  29.140  1.00  0.00     0.009 A 
ATOM     62  C   UNL A   1      48.337  25.813  31.491  1.00  0.00     0.009 A 
ATOM     63  C   UNL A   1      50.096  25.543  29.340  1.00  0.00     0.001 A 
ATOM     64  C   UNL A   1      49.614  25.288  31.694  1.00  0.00     0.001 A 
ATOM     65  C   UNL A   1      50.489  25.143  30.617  1.00  0.00     0.000 A 
ENDBRANCH  46  60
BRANCH  47  66
ATOM     66  C   UNL A   1      38.518  29.291  29.037  1.00  0.00    -0.014 A 
ATOM     67  C   UNL A   1      38.069  29.799  27.809  1.00  0.00     0.009 A 
ATOM     68  C   UNL A   1      37.623  29.224  30.115  1.00  0.00     0.009 A 
ATOM     69  C   UNL A   1      36.755  30.253  27.670  1.00  0.00     0.001 A 
ATOM     70  C   UNL A   1      36.303  29.657  29.965  1.00  0.00     0.001 A 
ATOM     71  C   UNL A   1      35.873  30.178  28.746  1.00  0.00     0.000 A 
ENDBRANCH  47  66
BRANCH  59  72
ATOM     72  C   UNL A   1      44.318  32.359  31.342  1.00  0.00    -0.014 A 
ATOM     73  C   UNL A   1      44.231  32.672  32.706  1.00  0.00     0.009 A 
ATOM     74  C   UNL A   1      44.709  33.356  30.435  1.00  0.00     0.009 A 
ATOM     75  C   UNL A   1      44.505  33.967  33.150  1.00  0.00     0.001 A 
ATOM     76  C   UNL A   1      45.005  34.643  30.885  1.00  0.00     0.001 A 
ATOM     77  C   UNL A   1      44.894  34.950  32.240  1.00  0.00     0.000 A 
ENDBRANCH  59  72
ENDBRANCH  33  34
ENDBRANCH  25  28
ENDBRANCH  23  24
ENDBRANCH  22  23
ENDBRANCH   1  22
TORSDOF 15
ENDMDL
MODEL 2
REMARK VINA RESULT:     -10.6      0.455      6.110
REMARK SMILES CC1(C)CCN(C(=O)[C@@H]([NH3+])CC(=O)NCCCCNC(=O)c2ccc(-c3c4nc(c(-c5ccccc5)c5ccc([nH]5)c(-c5ccccc5)c5nc(c(-c6ccccc6)c6ccc3[nH]6)C=C5)C=C4)cc2)C1
REMARK SMILES IDX 16 1 15 2 14 3 12 4 13 5 11 7 9 8 7 9 8 10 6 11 1 12 2 13
REMARK SMILES IDX 3 14 4 15 70 16 5 17 10 18 17 22 18 23 19 24 20 25 21 27
REMARK SMILES IDX 22 28 23 29 69 30 24 31 68 32 25 33 26 34 27 35 62 36 28 37
REMARK SMILES IDX 67 38 61 39 63 40 29 41 66 42 60 43 59 44 30 46 52 47 37 48
REMARK SMILES IDX 51 49 38 50 41 51 50 52 64 53 39 54 40 55 49 57 65 58 42 59
REMARK SMILES IDX 31 60 32 61 36 62 33 63 35 64 34 65 53 66 54 67 58 68 55 69
REMARK SMILES IDX 57 70 56 71 43 72 44 73 48 74 45 75 47 76 46 77
REMARK H PARENT 14 6 10 19 10 20 10 21 19 26 63 45 41 56
REMARK Flexibility Score: inf
ROOT
ATOM      1  C   UNL A   1      36.636  22.067  24.064  1.00  0.00     0.023 C 
ENDROOT
BRANCH   1   2
ATOM      2  C   UNL A   1      35.842  23.331  24.398  1.00  0.00     0.116 C 
BRANCH   2   3
ATOM      3  N   UNL A   1      35.106  23.785  23.235  1.00  0.00    -0.356 N 
ATOM      4  C   UNL A   1      33.874  23.412  22.790  1.00  0.00     0.226 C 
ATOM      5  O   UNL A   1      33.504  23.812  21.685  1.00  0.00    -0.275 OA
ATOM      6  H   UNL A   1      35.562  24.464  22.687  1.00  0.00     0.163 HD
BRANCH   4   7
ATOM      7  C   UNL A   1      32.973  22.551  23.650  1.00  0.00     0.175 C 
BRANCH   7   8
ATOM      8  C   UNL A   1      32.825  21.134  23.095  1.00  0.00     0.280 C 
BRANCH   8   9
ATOM      9  C   UNL A   1      32.542  20.048  24.165  1.00  0.00     0.281 C 
ATOM     10  O   UNL A   1      31.762  20.313  25.088  1.00  0.00    -0.268 OA
BRANCH   9  11
ATOM     11  N   UNL A   1      33.147  18.811  24.101  1.00  0.00    -0.337 N 
ATOM     12  C   UNL A   1      32.701  15.993  25.415  1.00  0.00     0.013 C 
ATOM     13  C   UNL A   1      33.920  16.661  24.760  1.00  0.00    -0.016 C 
ATOM     14  C   UNL A   1      35.195  15.928  25.176  1.00  0.00     0.013 C 
ATOM     15  C   UNL A   1      33.763  16.708  23.232  1.00  0.00     0.030 C 
ATOM     16  C   UNL A   1      33.979  18.160  25.109  1.00  0.00     0.126 C 
ATOM     17  C   UNL A   1      32.831  17.891  23.017  1.00  0.00     0.120 C 
ENDBRANCH   9  11
ENDBRANCH   8   9
BRANCH   8  18
ATOM     18  N   UNL A   1      31.766  21.061  22.057  1.00  0.00    -0.347 N 
ATOM     19  H   UNL A   1      30.860  20.926  22.506  1.00  0.00     0.345 HD
ATOM     20  H   UNL A   1      31.956  20.276  21.433  1.00  0.00     0.345 HD
ATOM     21  H   UNL A   1      31.756  21.928  21.521  1.00  0.00     0.345 HD
ENDBRANCH   8  18
ENDBRANCH   7   8
ENDBRANCH   4   7
ENDBRANCH   2   3
ENDBRANCH   1   2
BRANCH   1  22
ATOM     22  C   UNL A   1      37.033  21.219  25.265  1.00  0.00     0.023 C 
BRANCH  22  23
ATOM     23  C   UNL A   1      38.494  21.347  25.676  1.00  0.00     0.116 C 
BRANCH  23  24
ATOM     24  N   UNL A   1      39.263  20.112  25.592  1.00  0.00    -0.352 N 
ATOM     25  C   UNL A   1      40.556  19.886  26.012  1.00  0.00     0.251 C 
ATOM     26  H   UNL A   1      38.801  19.343  25.185  1.00  0.00     0.163 HD
ATOM     27  O   UNL A   1      41.092  18.798  25.854  1.00  0.00    -0.269 OA
BRANCH  25  28
ATOM     28  C   UNL A   1      41.308  21.015  26.600  1.00  0.00     0.039 A 
ATOM     29  C   UNL A   1      41.932  21.924  25.743  1.00  0.00     0.014 A 
ATOM     30  C   UNL A   1      41.282  21.238  27.978  1.00  0.00     0.014 A 
ATOM     31  C   UNL A   1      42.439  23.117  26.263  1.00  0.00     0.010 A 
ATOM     32  C   UNL A   1      41.706  22.463  28.479  1.00  0.00     0.010 A 
ATOM     33  C   UNL A   1      42.277  23.420  27.624  1.00  0.00    -0.014 A 
BRANCH  33  34
ATOM     34  C   UNL A   1      42.670  24.741  28.174  1.00  0.00     0.031 A 
ATOM     35  C   UNL A   1      41.633  25.806  28.389  1.00  0.00     0.074 A 
ATOM     36  C   UNL A   1      43.971  25.012  28.394  1.00  0.00     0.049 A 
ATOM     37  N   UNL A   1      41.790  27.042  28.791  1.00  0.00    -0.248 NA
ATOM     38  C   UNL A   1      40.239  25.448  28.077  1.00  0.00     0.031 C 
ATOM     39  C   UNL A   1      45.086  24.091  28.161  1.00  0.00     0.029 A 
ATOM     40  N   UNL A   1      44.578  26.153  28.857  1.00  0.00    -0.354 N 
ATOM     41  C   UNL A   1      40.526  27.613  28.751  1.00  0.00     0.074 A 
ATOM     42  C   UNL A   1      39.621  26.606  28.240  1.00  0.00     0.031 C 
ATOM     43  C   UNL A   1      46.234  24.690  28.515  1.00  0.00     0.029 A 
ATOM     44  C   UNL A   1      45.943  26.047  28.966  1.00  0.00     0.049 A 
ATOM     45  H   UNL A   1      44.081  26.971  29.089  1.00  0.00     0.167 HD
ATOM     46  C   UNL A   1      40.144  28.857  29.127  1.00  0.00     0.031 A 
ATOM     47  C   UNL A   1      46.858  26.939  29.386  1.00  0.00     0.031 A 
ATOM     48  C   UNL A   1      41.034  29.848  29.664  1.00  0.00     0.049 A 
ATOM     49  C   UNL A   1      46.407  28.301  29.833  1.00  0.00     0.074 A 
ATOM     50  C   UNL A   1      40.732  31.110  30.145  1.00  0.00     0.029 A 
ATOM     51  N   UNL A   1      42.405  29.687  29.794  1.00  0.00    -0.354 N 
ATOM     52  N   UNL A   1      45.195  28.800  29.863  1.00  0.00    -0.248 NA
ATOM     53  C   UNL A   1      47.450  29.217  30.317  1.00  0.00     0.031 C 
ATOM     54  C   UNL A   1      41.926  31.726  30.535  1.00  0.00     0.029 A 
ATOM     55  C   UNL A   1      42.966  30.832  30.334  1.00  0.00     0.049 A 
ATOM     56  H   UNL A   1      42.906  28.878  29.540  1.00  0.00     0.167 HD
ATOM     57  C   UNL A   1      45.326  30.078  30.389  1.00  0.00     0.074 A 
ATOM     58  C   UNL A   1      46.732  30.272  30.678  1.00  0.00     0.031 C 
ATOM     59  C   UNL A   1      44.366  31.008  30.613  1.00  0.00     0.031 A 
BRANCH  46  60
ATOM     60  C   UNL A   1      38.692  29.203  28.966  1.00  0.00    -0.014 A 
ATOM     61  C   UNL A   1      38.194  29.702  27.751  1.00  0.00     0.009 A 
ATOM     62  C   UNL A   1      37.807  29.022  30.040  1.00  0.00     0.009 A 
ATOM     63  C   UNL A   1      36.849  30.054  27.629  1.00  0.00     0.001 A 
ATOM     64  C   UNL A   1      36.456  29.348  29.907  1.00  0.00     0.001 A 
ATOM     65  C   UNL A   1      35.981  29.874  28.706  1.00  0.00     0.000 A 
ENDBRANCH  46  60
BRANCH  47  66
ATOM     66  C   UNL A   1      48.294  26.563  29.439  1.00  0.00    -0.014 A 
ATOM     67  C   UNL A   1      49.138  26.843  28.353  1.00  0.00     0.009 A 
ATOM     68  C   UNL A   1      48.828  25.927  30.569  1.00  0.00     0.009 A 
ATOM     69  C   UNL A   1      50.484  26.472  28.390  1.00  0.00     0.001 A 
ATOM     70  C   UNL A   1      50.180  25.578  30.612  1.00  0.00     0.001 A 
ATOM     71  C   UNL A   1      51.004  25.844  29.520  1.00  0.00     0.000 A 
ENDBRANCH  47  66
BRANCH  59  72
ATOM     72  C   UNL A   1      44.803  32.307  31.223  1.00  0.00    -0.014 A 
ATOM     73  C   UNL A   1      45.170  33.398  30.422  1.00  0.00     0.009 A 
ATOM     74  C   UNL A   1      44.812  32.450  32.619  1.00  0.00     0.009 A 
ATOM     75  C   UNL A   1      45.565  34.602  31.010  1.00  0.00     0.001 A 
ATOM     76  C   UNL A   1      45.184  33.662  33.203  1.00  0.00     0.001 A 
ATOM     77  C   UNL A   1      45.568  34.733  32.399  1.00  0.00     0.000 A 
ENDBRANCH  59  72
ENDBRANCH  33  34
ENDBRANCH  25  28
ENDBRANCH  23  24
ENDBRANCH  22  23
ENDBRANCH   1  22
TORSDOF 15
ENDMDL
MODEL 3
REMARK VINA RESULT:     -10.4      4.891     10.820
REMARK SMILES CC1(C)CCN(C(=O)[C@@H]([NH3+])CC(=O)NCCCCNC(=O)c2ccc(-c3c4nc(c(-c5ccccc5)c5ccc([nH]5)c(-c5ccccc5)c5nc(c(-c6ccccc6)c6ccc3[nH]6)C=C5)C=C4)cc2)C1
REMARK SMILES IDX 16 1 15 2 14 3 12 4 13 5 11 7 9 8 7 9 8 10 6 11 1 12 2 13
REMARK SMILES IDX 3 14 4 15 70 16 5 17 10 18 17 22 18 23 19 24 20 25 21 27
REMARK SMILES IDX 22 28 23 29 69 30 24 31 68 32 25 33 26 34 27 35 62 36 28 37
REMARK SMILES IDX 67 38 61 39 63 40 29 41 66 42 60 43 59 44 30 46 52 47 37 48
REMARK SMILES IDX 51 49 38 50 41 51 50 52 64 53 39 54 40 55 49 57 65 58 42 59
REMARK SMILES IDX 31 60 32 61 36 62 33 63 35 64 34 65 53 66 54 67 58 68 55 69
REMARK SMILES IDX 57 70 56 71 43 72 44 73 48 74 45 75 47 76 46 77
REMARK H PARENT 14 6 10 19 10 20 10 21 19 26 63 45 41 56
REMARK Flexibility Score: inf
ROOT
ATOM      1  C   UNL A   1      34.729  34.529  28.105  1.00  0.00     0.023 C 
ENDROOT
BRANCH   1   2
ATOM      2  C   UNL A   1      33.244  34.660  28.445  1.00  0.00     0.116 C 
BRANCH   2   3
ATOM      3  N   UNL A   1      32.996  35.906  29.142  1.00  0.00    -0.356 N 
ATOM      4  C   UNL A   1      32.900  36.145  30.480  1.00  0.00     0.226 C 
ATOM      5  O   UNL A   1      32.526  37.259  30.851  1.00  0.00    -0.275 OA
ATOM      6  H   UNL A   1      32.882  36.696  28.566  1.00  0.00     0.163 HD
BRANCH   4   7
ATOM      7  C   UNL A   1      33.274  35.074  31.482  1.00  0.00     0.175 C 
BRANCH   7   8
ATOM      8  C   UNL A   1      33.916  35.658  32.741  1.00  0.00     0.280 C 
BRANCH   8   9
ATOM      9  C   UNL A   1      34.965  34.737  33.417  1.00  0.00     0.281 C 
ATOM     10  O   UNL A   1      35.121  34.813  34.642  1.00  0.00    -0.268 OA
BRANCH   9  11
ATOM     11  N   UNL A   1      35.716  33.851  32.675  1.00  0.00    -0.337 N 
ATOM     12  C   UNL A   1      38.740  33.012  32.517  1.00  0.00     0.013 C 
ATOM     13  C   UNL A   1      37.570  32.904  31.526  1.00  0.00    -0.016 C 
ATOM     14  C   UNL A   1      38.112  32.682  30.114  1.00  0.00     0.013 C 
ATOM     15  C   UNL A   1      36.598  31.790  31.944  1.00  0.00     0.030 C 
ATOM     16  C   UNL A   1      36.666  34.149  31.606  1.00  0.00     0.126 C 
ATOM     17  C   UNL A   1      35.778  32.444  33.046  1.00  0.00     0.120 C 
ENDBRANCH   9  11
ENDBRANCH   8   9
BRANCH   8  18
ATOM     18  N   UNL A   1      34.547  36.975  32.473  1.00  0.00    -0.347 N 
ATOM     19  H   UNL A   1      35.068  36.929  31.598  1.00  0.00     0.345 HD
ATOM     20  H   UNL A   1      35.183  37.208  33.236  1.00  0.00     0.345 HD
ATOM     21  H   UNL A   1      33.824  37.690  32.402  1.00  0.00     0.345 HD
ENDBRANCH   8  18
ENDBRANCH   7   8
ENDBRANCH   4   7
ENDBRANCH   2   3
ENDBRANCH   1   2
BRANCH   1  22
ATOM     22  C   UNL A   1      35.246  33.099  28.022  1.00  0.00     0.023 C 
BRANCH  22  23
ATOM     23  C   UNL A   1      34.558  32.120  28.965  1.00  0.00     0.116 C 
BRANCH  23  24
ATOM     24  N   UNL A   1      34.081  30.896  28.334  1.00  0.00    -0.352 N 
ATOM     25  C   UNL A   1      34.798  29.756  28.043  1.00  0.00     0.251 C 
ATOM     26  H   UNL A   1      33.128  30.882  28.086  1.00  0.00     0.163 HD
ATOM     27  O   UNL A   1      34.273  28.804  27.482  1.00  0.00    -0.269 OA
BRANCH  25  28
ATOM     28  C   UNL A   1      36.242  29.736  28.363  1.00  0.00     0.039 A 
ATOM     29  C   UNL A   1      36.646  29.238  29.603  1.00  0.00     0.014 A 
ATOM     30  C   UNL A   1      37.183  30.085  27.394  1.00  0.00     0.014 A 
ATOM     31  C   UNL A   1      38.001  28.988  29.831  1.00  0.00     0.010 A 
ATOM     32  C   UNL A   1      38.519  29.753  27.590  1.00  0.00     0.010 A 
ATOM     33  C   UNL A   1      38.939  29.190  28.805  1.00  0.00    -0.014 A 
BRANCH  33  34
ATOM     34  C   UNL A   1      40.359  28.792  28.968  1.00  0.00     0.031 A 
ATOM     35  C   UNL A   1      40.813  27.425  28.543  1.00  0.00     0.074 A 
ATOM     36  C   UNL A   1      41.220  29.628  29.583  1.00  0.00     0.049 A 
ATOM     37  N   UNL A   1      41.992  26.871  28.669  1.00  0.00    -0.248 NA
ATOM     38  C   UNL A   1      39.801  26.553  27.925  1.00  0.00     0.031 C 
ATOM     39  C   UNL A   1      40.892  30.956  30.107  1.00  0.00     0.029 A 
ATOM     40  N   UNL A   1      42.552  29.476  29.878  1.00  0.00    -0.354 N 
ATOM     41  C   UNL A   1      41.854  25.580  28.176  1.00  0.00     0.074 A 
ATOM     42  C   UNL A   1      40.468  25.417  27.795  1.00  0.00     0.031 C 
ATOM     43  C   UNL A   1      41.999  31.510  30.627  1.00  0.00     0.029 A 
ATOM     44  C   UNL A   1      43.105  30.566  30.506  1.00  0.00     0.049 A 
ATOM     45  H   UNL A   1      43.062  28.663  29.661  1.00  0.00     0.167 HD
ATOM     46  C   UNL A   1      42.799  24.621  28.033  1.00  0.00     0.031 A 
ATOM     47  C   UNL A   1      44.363  30.783  30.931  1.00  0.00     0.031 A 
ATOM     48  C   UNL A   1      44.182  24.790  28.381  1.00  0.00     0.049 A 
ATOM     49  C   UNL A   1      45.404  29.719  30.727  1.00  0.00     0.074 A 
ATOM     50  C   UNL A   1      45.232  23.906  28.202  1.00  0.00     0.029 A 
ATOM     51  N   UNL A   1      44.711  25.924  28.979  1.00  0.00    -0.354 N 
ATOM     52  N   UNL A   1      45.273  28.531  30.187  1.00  0.00    -0.248 NA
ATOM     53  C   UNL A   1      46.767  30.032  31.179  1.00  0.00     0.031 C 
ATOM     54  C   UNL A   1      46.390  24.493  28.723  1.00  0.00     0.029 A 
ATOM     55  C   UNL A   1      46.068  25.757  29.190  1.00  0.00     0.049 A 
ATOM     56  H   UNL A   1      44.196  26.729  29.218  1.00  0.00     0.167 HD
ATOM     57  C   UNL A   1      46.540  27.964  30.214  1.00  0.00     0.074 A 
ATOM     58  C   UNL A   1      47.427  28.943  30.808  1.00  0.00     0.031 C 
ATOM     59  C   UNL A   1      46.934  26.741  29.783  1.00  0.00     0.031 A 
BRANCH  46  60
ATOM     60  C   UNL A   1      42.354  23.303  27.468  1.00  0.00    -0.014 A 
ATOM     61  C   UNL A   1      42.518  23.002  26.106  1.00  0.00     0.009 A 
ATOM     62  C   UNL A   1      41.770  22.343  28.310  1.00  0.00     0.009 A 
ATOM     63  C   UNL A   1      42.067  21.787  25.590  1.00  0.00     0.001 A 
ATOM     64  C   UNL A   1      41.345  21.117  27.797  1.00  0.00     0.001 A 
ATOM     65  C   UNL A   1      41.483  20.844  26.436  1.00  0.00     0.000 A 
ENDBRANCH  46  60
BRANCH  47  66
ATOM     66  C   UNL A   1      44.720  32.079  31.563  1.00  0.00    -0.014 A 
ATOM     67  C   UNL A   1      44.628  32.236  32.954  1.00  0.00     0.009 A 
ATOM     68  C   UNL A   1      45.155  33.161  30.783  1.00  0.00     0.009 A 
ATOM     69  C   UNL A   1      44.943  33.460  33.550  1.00  0.00     0.001 A 
ATOM     70  C   UNL A   1      45.492  34.376  31.385  1.00  0.00     0.001 A 
ATOM     71  C   UNL A   1      45.378  34.527  32.766  1.00  0.00     0.000 A 
ENDBRANCH  47  66
BRANCH  59  72
ATOM     72  C   UNL A   1      48.391  26.406  29.916  1.00  0.00    -0.014 A 
ATOM     73  C   UNL A   1      49.314  26.779  28.929  1.00  0.00     0.009 A 
ATOM     74  C   UNL A   1      48.849  25.741  31.064  1.00  0.00     0.009 A 
ATOM     75  C   UNL A   1      50.667  26.466  29.076  1.00  0.00     0.001 A 
ATOM     76  C   UNL A   1      50.205  25.451  31.219  1.00  0.00     0.001 A 
ATOM     77  C   UNL A   1      51.111  25.806  30.222  1.00  0.00     0.000 A 
ENDBRANCH  59  72
ENDBRANCH  33  34
ENDBRANCH  25  28
ENDBRANCH  23  24
ENDBRANCH  22  23
ENDBRANCH   1  22
TORSDOF 15
ENDMDL
