MODEL 1
REMARK VINA RESULT:     -13.3      0.000      0.000
REMARK SMILES CC(=O)O[C@@H]1CC[C@@]23C(=O)O[C@]4(CC[C@]2(O)C1)[C@H]3CC[C@]1(C)[C@H](C(=O)NCCCCNC(=O)c2ccc(-c3c5nc(c(-c6ccccc6)c6ccc([nH]6)c(-c6ccccc6)c6nc(c(-c7ccccc7)c7ccc3[nH]7)C=C6)C=C5)cc2)CC[C@@H]14
REMARK SMILES IDX 28 1 27 2 26 3 24 4 25 5 23 7 5 8 6 9 17 10 7 11 15 12 8 13
REMARK SMILES IDX 14 14 9 15 18 16 13 17 10 18 11 19 12 20 19 21 84 22 20 23
REMARK SMILES IDX 21 24 83 25 22 26 82 27 4 28 2 29 1 30 3 31 16 32 29 34
REMARK SMILES IDX 30 35 31 36 32 37 33 39 34 40 35 41 81 42 36 43 80 44 37 45
REMARK SMILES IDX 38 46 39 47 74 48 40 49 79 50 73 51 75 52 41 53 78 54 72 55
REMARK SMILES IDX 71 56 42 58 64 59 49 60 63 61 50 62 53 63 62 64 76 65 51 66
REMARK SMILES IDX 52 67 61 69 77 70 54 71 43 72 44 73 48 74 45 75 47 76 46 77
REMARK SMILES IDX 65 78 66 79 70 80 67 81 69 82 68 83 55 84 56 85 60 86 57 87
REMARK SMILES IDX 59 88 58 89
REMARK H PARENT 26 6 16 33 31 38 75 57 53 68
REMARK Flexibility Score: inf
ROOT
ATOM      1  C   UNL A   1      36.514  21.427  24.955  1.00  0.00     0.023 C 
ENDROOT
BRANCH   1   2
ATOM      2  C   UNL A   1      35.326  20.596  25.476  1.00  0.00     0.116 C 
BRANCH   2   3
ATOM      3  N   UNL A   1      34.219  20.663  24.540  1.00  0.00    -0.356 N 
ATOM      4  C   UNL A   1      33.002  21.256  24.556  1.00  0.00     0.223 C 
ATOM      5  O   UNL A   1      32.248  20.905  23.634  1.00  0.00    -0.275 OA
ATOM      6  H   UNL A   1      34.392  20.166  23.708  1.00  0.00     0.163 HD
BRANCH   4   7
ATOM      7  C   UNL A   1      32.496  22.328  25.539  1.00  0.00     0.085 C 
ATOM      8  C   UNL A   1      29.864  29.522  22.816  1.00  0.00     0.179 C 
ATOM      9  C   UNL A   1      29.377  28.091  22.885  1.00  0.00     0.047 C 
ATOM     10  C   UNL A   1      31.368  29.676  23.050  1.00  0.00     0.081 C 
ATOM     11  C   UNL A   1      30.073  27.330  23.996  1.00  0.00     0.026 C 
ATOM     12  C   UNL A   1      32.080  28.722  24.026  1.00  0.00     0.085 C 
ATOM     13  C   UNL A   1      31.812  27.293  23.797  1.00  0.00     0.103 C 
ATOM     14  C   UNL A   1      31.694  28.760  25.600  1.00  0.00     0.041 C 
ATOM     15  C   UNL A   1      31.691  26.014  23.148  1.00  0.00     0.316 C 
ATOM     16  C   UNL A   1      32.981  26.598  24.840  1.00  0.00     0.054 C 
ATOM     17  C   UNL A   1      31.420  27.203  26.340  1.00  0.00     0.052 C 
ATOM     18  O   UNL A   1      31.653  25.664  21.979  1.00  0.00    -0.251 OA
ATOM     19  O   UNL A   1      31.366  25.264  24.285  1.00  0.00    -0.458 OA
ATOM     20  C   UNL A   1      31.933  25.867  25.530  1.00  0.00     0.120 C 
ATOM     21  C   UNL A   1      34.174  25.740  24.401  1.00  0.00     0.009 C 
ATOM     22  C   UNL A   1      32.193  24.650  26.413  1.00  0.00     0.040 C 
ATOM     23  C   UNL A   1      34.020  24.237  24.638  1.00  0.00     0.008 C 
ATOM     24  C   UNL A   1      33.275  23.668  25.852  1.00  0.00    -0.014 C 
ATOM     25  C   UNL A   1      30.888  23.804  26.469  1.00  0.00     0.009 C 
ATOM     26  C   UNL A   1      34.302  23.352  26.959  1.00  0.00     0.012 C 
ATOM     27  C   UNL A   1      31.032  22.713  25.402  1.00  0.00     0.014 C 
BRANCH   8  28
ATOM     28  O   UNL A   1      29.198  30.336  23.804  1.00  0.00    -0.462 OA
BRANCH  28  29
ATOM     29  C   UNL A   1      28.159  31.088  23.334  1.00  0.00     0.302 C 
ATOM     30  C   UNL A   1      28.636  32.023  22.267  1.00  0.00     0.139 C 
ATOM     31  O   UNL A   1      26.987  30.980  23.665  1.00  0.00    -0.253 OA
ENDBRANCH  28  29
ENDBRANCH   8  28
BRANCH  12  32
ATOM     32  O   UNL A   1      33.478  29.002  23.879  1.00  0.00    -0.389 OA
ATOM     33  H   UNL A   1      33.623  29.512  23.067  1.00  0.00     0.211 HD
ENDBRANCH  12  32
ENDBRANCH   4   7
ENDBRANCH   2   3
ENDBRANCH   1   2
BRANCH   1  34
ATOM     34  C   UNL A   1      37.772  20.649  24.635  1.00  0.00     0.023 C 
BRANCH  34  35
ATOM     35  C   UNL A   1      38.815  20.717  25.725  1.00  0.00     0.116 C 
BRANCH  35  36
ATOM     36  N   UNL A   1      39.728  19.580  25.728  1.00  0.00    -0.352 N 
ATOM     37  C   UNL A   1      41.063  19.577  26.056  1.00  0.00     0.251 C 
ATOM     38  H   UNL A   1      39.343  18.713  25.463  1.00  0.00     0.163 HD
ATOM     39  O   UNL A   1      41.764  18.586  25.895  1.00  0.00    -0.269 OA
BRANCH  37  40
ATOM     40  C   UNL A   1      41.642  20.829  26.575  1.00  0.00     0.039 A 
ATOM     41  C   UNL A   1      42.119  21.783  25.677  1.00  0.00     0.014 A 
ATOM     42  C   UNL A   1      41.576  21.102  27.944  1.00  0.00     0.014 A 
ATOM     43  C   UNL A   1      42.459  23.048  26.152  1.00  0.00     0.010 A 
ATOM     44  C   UNL A   1      41.788  22.395  28.390  1.00  0.00     0.010 A 
ATOM     45  C   UNL A   1      42.251  23.377  27.502  1.00  0.00    -0.014 A 
BRANCH  45  46
ATOM     46  C   UNL A   1      42.538  24.735  28.022  1.00  0.00     0.031 A 
ATOM     47  C   UNL A   1      43.943  25.092  28.423  1.00  0.00     0.074 A 
ATOM     48  C   UNL A   1      41.535  25.619  28.190  1.00  0.00     0.049 A 
ATOM     49  N   UNL A   1      44.395  26.204  28.942  1.00  0.00    -0.248 NA
ATOM     50  C   UNL A   1      44.970  24.050  28.252  1.00  0.00     0.031 C 
ATOM     51  C   UNL A   1      40.123  25.372  27.887  1.00  0.00     0.029 A 
ATOM     52  N   UNL A   1      41.553  26.908  28.658  1.00  0.00    -0.354 N 
ATOM     53  C   UNL A   1      45.747  25.985  29.174  1.00  0.00     0.074 A 
ATOM     54  C   UNL A   1      46.027  24.616  28.811  1.00  0.00     0.031 C 
ATOM     55  C   UNL A   1      39.419  26.489  28.135  1.00  0.00     0.029 A 
ATOM     56  C   UNL A   1      40.319  27.512  28.657  1.00  0.00     0.049 A 
ATOM     57  H   UNL A   1      42.373  27.358  28.966  1.00  0.00     0.167 HD
ATOM     58  C   UNL A   1      46.682  26.855  29.621  1.00  0.00     0.031 A 
ATOM     59  C   UNL A   1      39.956  28.752  29.037  1.00  0.00     0.031 A 
ATOM     60  C   UNL A   1      46.403  28.220  29.968  1.00  0.00     0.049 A 
ATOM     61  C   UNL A   1      41.010  29.695  29.547  1.00  0.00     0.074 A 
ATOM     62  C   UNL A   1      47.287  29.203  30.375  1.00  0.00     0.029 A 
ATOM     63  N   UNL A   1      45.141  28.793  29.953  1.00  0.00    -0.354 N 
ATOM     64  N   UNL A   1      42.299  29.499  29.686  1.00  0.00    -0.248 NA
ATOM     65  C   UNL A   1      40.559  31.036  29.944  1.00  0.00     0.031 C 
ATOM     66  C   UNL A   1      46.550  30.355  30.667  1.00  0.00     0.029 A 
ATOM     67  C   UNL A   1      45.218  30.110  30.374  1.00  0.00     0.049 A 
ATOM     68  H   UNL A   1      44.313  28.334  29.684  1.00  0.00     0.167 HD
ATOM     69  C   UNL A   1      42.817  30.699  30.157  1.00  0.00     0.074 A 
ATOM     70  C   UNL A   1      41.705  31.621  30.261  1.00  0.00     0.031 C 
ATOM     71  C   UNL A   1      44.098  31.010  30.474  1.00  0.00     0.031 A 
BRANCH  58  72
ATOM     72  C   UNL A   1      48.090  26.344  29.761  1.00  0.00    -0.014 A 
ATOM     73  C   UNL A   1      48.546  25.776  30.963  1.00  0.00     0.009 A 
ATOM     74  C   UNL A   1      48.970  26.418  28.671  1.00  0.00     0.009 A 
ATOM     75  C   UNL A   1      49.864  25.334  31.083  1.00  0.00     0.001 A 
ATOM     76  C   UNL A   1      50.278  25.941  28.782  1.00  0.00     0.001 A 
ATOM     77  C   UNL A   1      50.727  25.412  29.991  1.00  0.00     0.000 A 
ENDBRANCH  58  72
BRANCH  59  78
ATOM     78  C   UNL A   1      38.535  29.181  28.932  1.00  0.00    -0.014 A 
ATOM     79  C   UNL A   1      38.028  29.677  27.722  1.00  0.00     0.009 A 
ATOM     80  C   UNL A   1      37.681  29.103  30.043  1.00  0.00     0.009 A 
ATOM     81  C   UNL A   1      36.704  30.114  27.634  1.00  0.00     0.001 A 
ATOM     82  C   UNL A   1      36.348  29.510  29.943  1.00  0.00     0.001 A 
ATOM     83  C   UNL A   1      35.863  30.026  28.743  1.00  0.00     0.000 A 
ENDBRANCH  59  78
BRANCH  71  84
ATOM     84  C   UNL A   1      44.371  32.417  30.929  1.00  0.00    -0.014 A 
ATOM     85  C   UNL A   1      44.355  32.763  32.289  1.00  0.00     0.009 A 
ATOM     86  C   UNL A   1      44.695  33.400  29.980  1.00  0.00     0.009 A 
ATOM     87  C   UNL A   1      44.623  34.075  32.685  1.00  0.00     0.001 A 
ATOM     88  C   UNL A   1      44.996  34.702  30.382  1.00  0.00     0.001 A 
ATOM     89  C   UNL A   1      44.949  35.040  31.733  1.00  0.00     0.000 A 
ENDBRANCH  71  84
ENDBRANCH  45  46
ENDBRANCH  37  40
ENDBRANCH  35  36
ENDBRANCH  34  35
ENDBRANCH   1  34
TORSDOF 14
ENDMDL
MODEL 2
REMARK VINA RESULT:     -13.2      3.903      9.524
REMARK SMILES CC(=O)O[C@@H]1CC[C@@]23C(=O)O[C@]4(CC[C@]2(O)C1)[C@H]3CC[C@]1(C)[C@H](C(=O)NCCCCNC(=O)c2ccc(-c3c5nc(c(-c6ccccc6)c6ccc([nH]6)c(-c6ccccc6)c6nc(c(-c7ccccc7)c7ccc3[nH]7)C=C6)C=C5)cc2)CC[C@@H]14
REMARK SMILES IDX 28 1 27 2 26 3 24 4 25 5 23 7 5 8 6 9 17 10 7 11 15 12 8 13
REMARK SMILES IDX 14 14 9 15 18 16 13 17 10 18 11 19 12 20 19 21 84 22 20 23
REMARK SMILES IDX 21 24 83 25 22 26 82 27 4 28 2 29 1 30 3 31 16 32 29 34
REMARK SMILES IDX 30 35 31 36 32 37 33 39 34 40 35 41 81 42 36 43 80 44 37 45
REMARK SMILES IDX 38 46 39 47 74 48 40 49 79 50 73 51 75 52 41 53 78 54 72 55
REMARK SMILES IDX 71 56 42 58 64 59 49 60 63 61 50 62 53 63 62 64 76 65 51 66
REMARK SMILES IDX 52 67 61 69 77 70 54 71 43 72 44 73 48 74 45 75 47 76 46 77
REMARK SMILES IDX 65 78 66 79 70 80 67 81 69 82 68 83 55 84 56 85 60 86 57 87
REMARK SMILES IDX 59 88 58 89
REMARK H PARENT 26 6 16 33 31 38 75 57 53 68
REMARK Flexibility Score: inf
ROOT
ATOM      1  C   UNL A   1      32.078  30.413  26.553  1.00  0.00     0.023 C 
ENDROOT
BRANCH   1   2
ATOM      2  C   UNL A   1      32.169  30.044  25.060  1.00  0.00     0.116 C 
BRANCH   2   3
ATOM      3  N   UNL A   1      30.989  29.302  24.656  1.00  0.00    -0.356 N 
ATOM      4  C   UNL A   1      30.753  28.318  23.756  1.00  0.00     0.223 C 
ATOM      5  O   UNL A   1      29.551  28.083  23.556  1.00  0.00    -0.275 OA
ATOM      6  H   UNL A   1      30.179  29.576  25.145  1.00  0.00     0.163 HD
BRANCH   4   7
ATOM      7  C   UNL A   1      31.794  27.451  23.023  1.00  0.00     0.085 C 
ATOM      8  C   UNL A   1      33.218  19.806  25.395  1.00  0.00     0.179 C 
ATOM      9  C   UNL A   1      32.157  20.579  24.642  1.00  0.00     0.047 C 
ATOM     10  C   UNL A   1      34.171  20.690  26.202  1.00  0.00     0.081 C 
ATOM     11  C   UNL A   1      32.727  21.852  24.048  1.00  0.00     0.026 C 
ATOM     12  C   UNL A   1      34.544  22.084  25.664  1.00  0.00     0.085 C 
ATOM     13  C   UNL A   1      33.398  22.918  25.264  1.00  0.00     0.103 C 
ATOM     14  C   UNL A   1      35.385  22.204  24.283  1.00  0.00     0.041 C 
ATOM     15  C   UNL A   1      32.147  23.628  25.305  1.00  0.00     0.316 C 
ATOM     16  C   UNL A   1      34.188  24.421  25.033  1.00  0.00     0.054 C 
ATOM     17  C   UNL A   1      34.774  23.368  23.134  1.00  0.00     0.052 C 
ATOM     18  O   UNL A   1      31.173  23.573  26.039  1.00  0.00    -0.251 OA
ATOM     19  O   UNL A   1      32.258  24.262  24.061  1.00  0.00    -0.458 OA
ATOM     20  C   UNL A   1      33.685  24.477  23.672  1.00  0.00     0.120 C 
ATOM     21  C   UNL A   1      33.948  25.693  25.855  1.00  0.00     0.009 C 
ATOM     22  C   UNL A   1      33.625  25.759  22.846  1.00  0.00     0.040 C 
ATOM     23  C   UNL A   1      33.107  26.768  25.165  1.00  0.00     0.008 C 
ATOM     24  C   UNL A   1      33.179  27.024  23.654  1.00  0.00    -0.014 C 
ATOM     25  C   UNL A   1      32.527  25.583  21.757  1.00  0.00     0.009 C 
ATOM     26  C   UNL A   1      34.175  28.173  23.393  1.00  0.00     0.012 C 
ATOM     27  C   UNL A   1      31.251  26.217  22.321  1.00  0.00     0.014 C 
BRANCH   8  28
ATOM     28  O   UNL A   1      34.028  19.032  24.487  1.00  0.00    -0.462 OA
BRANCH  28  29
ATOM     29  C   UNL A   1      33.778  17.689  24.485  1.00  0.00     0.302 C 
ATOM     30  C   UNL A   1      34.048  17.113  23.130  1.00  0.00     0.139 C 
ATOM     31  O   UNL A   1      33.452  17.019  25.453  1.00  0.00    -0.253 OA
ENDBRANCH  28  29
ENDBRANCH   8  28
BRANCH  12  32
ATOM     32  O   UNL A   1      35.283  22.714  26.718  1.00  0.00    -0.389 OA
ATOM     33  H   UNL A   1      35.225  23.678  26.623  1.00  0.00     0.211 HD
ENDBRANCH  12  32
ENDBRANCH   4   7
ENDBRANCH   2   3
ENDBRANCH   1   2
BRANCH   1  34
ATOM     34  C   UNL A   1      31.661  31.836  26.856  1.00  0.00     0.023 C 
BRANCH  34  35
ATOM     35  C   UNL A   1      32.792  32.702  27.357  1.00  0.00     0.116 C 
BRANCH  35  36
ATOM     36  N   UNL A   1      32.393  34.076  27.638  1.00  0.00    -0.352 N 
ATOM     37  C   UNL A   1      32.949  34.942  28.549  1.00  0.00     0.251 C 
ATOM     38  H   UNL A   1      31.635  34.424  27.113  1.00  0.00     0.163 HD
ATOM     39  O   UNL A   1      32.446  36.030  28.794  1.00  0.00    -0.269 OA
BRANCH  37  40
ATOM     40  C   UNL A   1      34.160  34.497  29.263  1.00  0.00     0.039 A 
ATOM     41  C   UNL A   1      34.029  33.842  30.486  1.00  0.00     0.014 A 
ATOM     42  C   UNL A   1      35.406  34.612  28.639  1.00  0.00     0.014 A 
ATOM     43  C   UNL A   1      35.147  33.231  31.049  1.00  0.00     0.010 A 
ATOM     44  C   UNL A   1      36.480  33.893  29.134  1.00  0.00     0.010 A 
ATOM     45  C   UNL A   1      36.369  33.211  30.354  1.00  0.00    -0.014 A 
BRANCH  45  46
ATOM     46  C   UNL A   1      37.557  32.510  30.895  1.00  0.00     0.031 A 
ATOM     47  C   UNL A   1      38.208  33.018  32.153  1.00  0.00     0.074 A 
ATOM     48  C   UNL A   1      38.084  31.463  30.229  1.00  0.00     0.049 A 
ATOM     49  N   UNL A   1      39.278  32.579  32.763  1.00  0.00    -0.248 NA
ATOM     50  C   UNL A   1      37.595  34.197  32.790  1.00  0.00     0.031 C 
ATOM     51  C   UNL A   1      37.574  30.911  28.971  1.00  0.00     0.029 A 
ATOM     52  N   UNL A   1      39.168  30.677  30.522  1.00  0.00    -0.354 N 
ATOM     53  C   UNL A   1      39.473  33.438  33.837  1.00  0.00     0.074 A 
ATOM     54  C   UNL A   1      38.460  34.463  33.755  1.00  0.00     0.031 C 
ATOM     55  C   UNL A   1      38.318  29.848  28.626  1.00  0.00     0.029 A 
ATOM     56  C   UNL A   1      39.383  29.673  29.608  1.00  0.00     0.049 A 
ATOM     57  H   UNL A   1      39.738  30.818  31.312  1.00  0.00     0.167 HD
ATOM     58  C   UNL A   1      40.396  33.363  34.825  1.00  0.00     0.031 A 
ATOM     59  C   UNL A   1      40.334  28.720  29.569  1.00  0.00     0.031 A 
ATOM     60  C   UNL A   1      41.394  32.334  34.910  1.00  0.00     0.049 A 
ATOM     61  C   UNL A   1      41.359  28.669  30.668  1.00  0.00     0.074 A 
ATOM     62  C   UNL A   1      42.338  32.132  35.901  1.00  0.00     0.029 A 
ATOM     63  N   UNL A   1      41.577  31.336  33.966  1.00  0.00    -0.354 N 
ATOM     64  N   UNL A   1      41.483  29.440  31.721  1.00  0.00    -0.248 NA
ATOM     65  C   UNL A   1      42.370  27.607  30.577  1.00  0.00     0.031 C 
ATOM     66  C   UNL A   1      43.136  31.047  35.522  1.00  0.00     0.029 A 
ATOM     67  C   UNL A   1      42.642  30.532  34.334  1.00  0.00     0.049 A 
ATOM     68  H   UNL A   1      41.033  31.217  33.155  1.00  0.00     0.167 HD
ATOM     69  C   UNL A   1      42.565  28.939  32.432  1.00  0.00     0.074 A 
ATOM     70  C   UNL A   1      43.050  27.787  31.700  1.00  0.00     0.031 C 
ATOM     71  C   UNL A   1      43.111  29.392  33.589  1.00  0.00     0.031 A 
BRANCH  58  72
ATOM     72  C   UNL A   1      40.362  34.432  35.882  1.00  0.00    -0.014 A 
ATOM     73  C   UNL A   1      39.576  34.294  37.038  1.00  0.00     0.009 A 
ATOM     74  C   UNL A   1      41.140  35.590  35.727  1.00  0.00     0.009 A 
ATOM     75  C   UNL A   1      39.535  35.311  37.994  1.00  0.00     0.001 A 
ATOM     76  C   UNL A   1      41.127  36.589  36.702  1.00  0.00     0.001 A 
ATOM     77  C   UNL A   1      40.316  36.454  37.828  1.00  0.00     0.000 A 
ENDBRANCH  58  72
BRANCH  59  78
ATOM     78  C   UNL A   1      40.351  27.726  28.463  1.00  0.00    -0.014 A 
ATOM     79  C   UNL A   1      39.673  26.504  28.590  1.00  0.00     0.009 A 
ATOM     80  C   UNL A   1      41.052  27.989  27.275  1.00  0.00     0.009 A 
ATOM     81  C   UNL A   1      39.720  25.556  27.566  1.00  0.00     0.001 A 
ATOM     82  C   UNL A   1      41.071  27.053  26.239  1.00  0.00     0.001 A 
ATOM     83  C   UNL A   1      40.414  25.832  26.389  1.00  0.00     0.000 A 
ENDBRANCH  59  78
BRANCH  71  84
ATOM     84  C   UNL A   1      44.269  28.616  34.153  1.00  0.00    -0.014 A 
ATOM     85  C   UNL A   1      45.596  28.955  33.845  1.00  0.00     0.009 A 
ATOM     86  C   UNL A   1      44.025  27.558  35.043  1.00  0.00     0.009 A 
ATOM     87  C   UNL A   1      46.653  28.226  34.390  1.00  0.00     0.001 A 
ATOM     88  C   UNL A   1      45.086  26.854  35.614  1.00  0.00     0.001 A 
ATOM     89  C   UNL A   1      46.398  27.181  35.278  1.00  0.00     0.000 A 
ENDBRANCH  71  84
ENDBRANCH  45  46
ENDBRANCH  37  40
ENDBRANCH  35  36
ENDBRANCH  34  35
ENDBRANCH   1  34
TORSDOF 14
ENDMDL
MODEL 3
REMARK VINA RESULT:     -13.1      0.451      5.628
REMARK SMILES CC(=O)O[C@@H]1CC[C@@]23C(=O)O[C@]4(CC[C@]2(O)C1)[C@H]3CC[C@]1(C)[C@H](C(=O)NCCCCNC(=O)c2ccc(-c3c5nc(c(-c6ccccc6)c6ccc([nH]6)c(-c6ccccc6)c6nc(c(-c7ccccc7)c7ccc3[nH]7)C=C6)C=C5)cc2)CC[C@@H]14
REMARK SMILES IDX 28 1 27 2 26 3 24 4 25 5 23 7 5 8 6 9 17 10 7 11 15 12 8 13
REMARK SMILES IDX 14 14 9 15 18 16 13 17 10 18 11 19 12 20 19 21 84 22 20 23
REMARK SMILES IDX 21 24 83 25 22 26 82 27 4 28 2 29 1 30 3 31 16 32 29 34
REMARK SMILES IDX 30 35 31 36 32 37 33 39 34 40 35 41 81 42 36 43 80 44 37 45
REMARK SMILES IDX 38 46 39 47 74 48 40 49 79 50 73 51 75 52 41 53 78 54 72 55
REMARK SMILES IDX 71 56 42 58 64 59 49 60 63 61 50 62 53 63 62 64 76 65 51 66
REMARK SMILES IDX 52 67 61 69 77 70 54 71 43 72 44 73 48 74 45 75 47 76 46 77
REMARK SMILES IDX 65 78 66 79 70 80 67 81 69 82 68 83 55 84 56 85 60 86 57 87
REMARK SMILES IDX 59 88 58 89
REMARK H PARENT 26 6 16 33 31 38 75 57 53 68
REMARK Flexibility Score: inf
ROOT
ATOM      1  C   UNL A   1      36.536  20.275  24.747  1.00  0.00     0.023 C 
ENDROOT
BRANCH   1   2
ATOM      2  C   UNL A   1      35.195  20.470  25.479  1.00  0.00     0.116 C 
BRANCH   2   3
ATOM      3  N   UNL A   1      34.113  20.584  24.519  1.00  0.00    -0.356 N 
ATOM      4  C   UNL A   1      32.917  21.219  24.511  1.00  0.00     0.223 C 
ATOM      5  O   UNL A   1      32.173  20.903  23.570  1.00  0.00    -0.275 OA
ATOM      6  H   UNL A   1      34.288  20.088  23.686  1.00  0.00     0.163 HD
BRANCH   4   7
ATOM      7  C   UNL A   1      32.426  22.301  25.493  1.00  0.00     0.085 C 
ATOM      8  C   UNL A   1      29.896  29.525  22.752  1.00  0.00     0.179 C 
ATOM      9  C   UNL A   1      29.390  28.101  22.823  1.00  0.00     0.047 C 
ATOM     10  C   UNL A   1      31.402  29.658  22.985  1.00  0.00     0.081 C 
ATOM     11  C   UNL A   1      30.074  27.333  23.937  1.00  0.00     0.026 C 
ATOM     12  C   UNL A   1      32.101  28.696  23.963  1.00  0.00     0.085 C 
ATOM     13  C   UNL A   1      31.813  27.270  23.738  1.00  0.00     0.103 C 
ATOM     14  C   UNL A   1      31.716  28.744  25.537  1.00  0.00     0.041 C 
ATOM     15  C   UNL A   1      31.673  25.991  23.092  1.00  0.00     0.316 C 
ATOM     16  C   UNL A   1      32.972  26.562  24.782  1.00  0.00     0.054 C 
ATOM     17  C   UNL A   1      31.419  27.192  26.281  1.00  0.00     0.052 C 
ATOM     18  O   UNL A   1      31.630  25.640  21.923  1.00  0.00    -0.251 OA
ATOM     19  O   UNL A   1      31.338  25.249  24.231  1.00  0.00    -0.458 OA
ATOM     20  C   UNL A   1      31.913  25.848  25.474  1.00  0.00     0.120 C 
ATOM     21  C   UNL A   1      34.153  25.685  24.345  1.00  0.00     0.009 C 
ATOM     22  C   UNL A   1      32.156  24.629  26.360  1.00  0.00     0.040 C 
ATOM     23  C   UNL A   1      33.977  24.185  24.586  1.00  0.00     0.008 C 
ATOM     24  C   UNL A   1      33.225  23.630  25.802  1.00  0.00    -0.014 C 
ATOM     25  C   UNL A   1      30.839  23.802  26.419  1.00  0.00     0.009 C 
ATOM     26  C   UNL A   1      34.246  23.303  26.910  1.00  0.00     0.012 C 
ATOM     27  C   UNL A   1      30.968  22.706  25.355  1.00  0.00     0.014 C 
BRANCH   8  28
ATOM     28  O   UNL A   1      29.242  30.350  23.737  1.00  0.00    -0.462 OA
BRANCH  28  29
ATOM     29  C   UNL A   1      28.148  31.034  23.289  1.00  0.00     0.302 C 
ATOM     30  C   UNL A   1      28.418  31.619  21.938  1.00  0.00     0.139 C 
ATOM     31  O   UNL A   1      27.068  31.111  23.856  1.00  0.00    -0.253 OA
ENDBRANCH  28  29
ENDBRANCH   8  28
BRANCH  12  32
ATOM     32  O   UNL A   1      33.503  28.956  23.816  1.00  0.00    -0.389 OA
ATOM     33  H   UNL A   1      33.691  29.211  22.899  1.00  0.00     0.211 HD
ENDBRANCH  12  32
ENDBRANCH   4   7
ENDBRANCH   2   3
ENDBRANCH   1   2
BRANCH   1  34
ATOM     34  C   UNL A   1      37.468  21.467  24.751  1.00  0.00     0.023 C 
BRANCH  34  35
ATOM     35  C   UNL A   1      38.548  21.384  25.803  1.00  0.00     0.116 C 
BRANCH  35  36
ATOM     36  N   UNL A   1      39.355  20.173  25.714  1.00  0.00    -0.352 N 
ATOM     37  C   UNL A   1      40.692  20.032  26.004  1.00  0.00     0.251 C 
ATOM     38  H   UNL A   1      38.888  19.361  25.411  1.00  0.00     0.163 HD
ATOM     39  O   UNL A   1      41.298  18.995  25.766  1.00  0.00    -0.269 OA
BRANCH  37  40
ATOM     40  C   UNL A   1      41.393  21.195  26.579  1.00  0.00     0.039 A 
ATOM     41  C   UNL A   1      41.945  22.148  25.724  1.00  0.00     0.014 A 
ATOM     42  C   UNL A   1      41.370  21.398  27.961  1.00  0.00     0.014 A 
ATOM     43  C   UNL A   1      42.408  23.348  26.259  1.00  0.00     0.010 A 
ATOM     44  C   UNL A   1      41.708  22.640  28.470  1.00  0.00     0.010 A 
ATOM     45  C   UNL A   1      42.250  23.621  27.628  1.00  0.00    -0.014 A 
BRANCH  45  46
ATOM     46  C   UNL A   1      42.670  24.916  28.214  1.00  0.00     0.031 A 
ATOM     47  C   UNL A   1      41.643  25.990  28.451  1.00  0.00     0.074 A 
ATOM     48  C   UNL A   1      43.972  25.147  28.475  1.00  0.00     0.049 A 
ATOM     49  N   UNL A   1      41.809  27.203  28.909  1.00  0.00    -0.248 NA
ATOM     50  C   UNL A   1      40.250  25.670  28.093  1.00  0.00     0.031 C 
ATOM     51  C   UNL A   1      45.069  24.205  28.239  1.00  0.00     0.029 A 
ATOM     52  N   UNL A   1      44.592  26.253  28.997  1.00  0.00    -0.354 N 
ATOM     53  C   UNL A   1      40.551  27.790  28.873  1.00  0.00     0.074 A 
ATOM     54  C   UNL A   1      39.648  26.832  28.283  1.00  0.00     0.031 C 
ATOM     55  C   UNL A   1      46.219  24.756  28.658  1.00  0.00     0.029 A 
ATOM     56  C   UNL A   1      45.950  26.105  29.146  1.00  0.00     0.049 A 
ATOM     57  H   UNL A   1      44.110  27.076  29.243  1.00  0.00     0.167 HD
ATOM     58  C   UNL A   1      40.172  29.010  29.322  1.00  0.00     0.031 A 
ATOM     59  C   UNL A   1      46.873  26.962  29.621  1.00  0.00     0.031 A 
ATOM     60  C   UNL A   1      41.072  29.956  29.921  1.00  0.00     0.049 A 
ATOM     61  C   UNL A   1      46.431  28.318  30.097  1.00  0.00     0.074 A 
ATOM     62  C   UNL A   1      40.781  31.196  30.462  1.00  0.00     0.029 A 
ATOM     63  N   UNL A   1      42.438  29.768  30.053  1.00  0.00    -0.354 N 
ATOM     64  N   UNL A   1      45.224  28.830  30.131  1.00  0.00    -0.248 NA
ATOM     65  C   UNL A   1      47.479  29.212  30.609  1.00  0.00     0.031 C 
ATOM     66  C   UNL A   1      41.984  31.785  30.865  1.00  0.00     0.029 A 
ATOM     67  C   UNL A   1      43.012  30.883  30.640  1.00  0.00     0.049 A 
ATOM     68  H   UNL A   1      42.928  28.962  29.772  1.00  0.00     0.167 HD
ATOM     69  C   UNL A   1      45.363  30.092  30.695  1.00  0.00     0.074 A 
ATOM     70  C   UNL A   1      46.768  30.259  31.004  1.00  0.00     0.031 C 
ATOM     71  C   UNL A   1      44.413  31.030  30.936  1.00  0.00     0.031 A 
BRANCH  58  72
ATOM     72  C   UNL A   1      38.723  29.382  29.170  1.00  0.00    -0.014 A 
ATOM     73  C   UNL A   1      38.225  29.910  27.967  1.00  0.00     0.009 A 
ATOM     74  C   UNL A   1      37.838  29.189  30.241  1.00  0.00     0.009 A 
ATOM     75  C   UNL A   1      36.883  30.276  27.855  1.00  0.00     0.001 A 
ATOM     76  C   UNL A   1      36.488  29.521  30.115  1.00  0.00     0.001 A 
ATOM     77  C   UNL A   1      36.014  30.076  28.927  1.00  0.00     0.000 A 
ENDBRANCH  58  72
BRANCH  59  78
ATOM     78  C   UNL A   1      48.303  26.559  29.691  1.00  0.00    -0.014 A 
ATOM     79  C   UNL A   1      49.190  26.891  28.655  1.00  0.00     0.009 A 
ATOM     80  C   UNL A   1      48.789  25.833  30.790  1.00  0.00     0.009 A 
ATOM     81  C   UNL A   1      50.524  26.480  28.703  1.00  0.00     0.001 A 
ATOM     82  C   UNL A   1      50.131  25.451  30.852  1.00  0.00     0.001 A 
ATOM     83  C   UNL A   1      50.995  25.765  29.804  1.00  0.00     0.000 A 
ENDBRANCH  59  78
BRANCH  71  84
ATOM     84  C   UNL A   1      44.858  32.304  31.599  1.00  0.00    -0.014 A 
ATOM     85  C   UNL A   1      45.246  33.423  30.847  1.00  0.00     0.009 A 
ATOM     86  C   UNL A   1      44.842  32.396  33.000  1.00  0.00     0.009 A 
ATOM     87  C   UNL A   1      45.644  34.598  31.488  1.00  0.00     0.001 A 
ATOM     88  C   UNL A   1      45.207  33.583  33.636  1.00  0.00     0.001 A 
ATOM     89  C   UNL A   1      45.618  34.679  32.880  1.00  0.00     0.000 A 
ENDBRANCH  71  84
ENDBRANCH  45  46
ENDBRANCH  37  40
ENDBRANCH  35  36
ENDBRANCH  34  35
ENDBRANCH   1  34
TORSDOF 14
ENDMDL
