MODEL 1
REMARK VINA RESULT:     -12.2      0.000      0.000
REMARK SMILES Cc1ccc(Nc2c(F)cccc2Cl)c(CC(=O)NCCCCNC(=O)c2ccc(-c3c4nc(c(-c5ccccc5)c5ccc([nH]5)c(-c5ccccc5)c5nc(c(-c6ccccc6)c6ccc3[nH]6)C=C5)C=C4)cc2)c1
REMARK SMILES IDX 21 1 20 2 19 3 17 4 18 5 16 7 15 8 1 9 2 10 3 11 75 12 4 13
REMARK SMILES IDX 5 14 6 15 7 17 8 18 13 19 9 20 10 21 12 22 14 23 11 24 22 25
REMARK SMILES IDX 23 26 24 27 25 28 26 30 27 31 28 32 74 33 29 34 73 35 30 36
REMARK SMILES IDX 31 37 32 38 67 39 33 40 72 41 66 42 68 43 34 44 71 45 65 46
REMARK SMILES IDX 64 47 35 49 57 50 42 51 56 52 43 53 46 54 55 55 69 56 44 57
REMARK SMILES IDX 45 58 54 60 70 61 47 62 36 63 37 64 41 65 38 66 40 67 39 68
REMARK SMILES IDX 58 69 59 70 63 71 60 72 62 73 61 74 48 75 49 76 53 77 50 78
REMARK SMILES IDX 52 79 51 80
REMARK H PARENT 19 6 6 16 24 29 68 48 46 59
REMARK Flexibility Score: inf
ROOT
ATOM      1  C   UNL A   1      38.278  23.463  26.166  1.00  0.00     0.023 C 
ENDROOT
BRANCH   1   2
ATOM      2  C   UNL A   1      36.793  23.744  25.884  1.00  0.00     0.116 C 
BRANCH   2   3
ATOM      3  N   UNL A   1      35.888  22.889  26.633  1.00  0.00    -0.356 N 
ATOM      4  C   UNL A   1      35.179  21.798  26.228  1.00  0.00     0.224 C 
ATOM      5  O   UNL A   1      34.380  21.293  27.021  1.00  0.00    -0.275 OA
ATOM      6  H   UNL A   1      35.768  23.137  27.579  1.00  0.00     0.163 HD
BRANCH   4   7
ATOM      7  C   UNL A   1      35.340  21.222  24.834  1.00  0.00     0.137 C 
BRANCH   7   8
ATOM      8  C   UNL A   1      34.249  20.248  24.449  1.00  0.00    -0.015 A 
ATOM      9  C   UNL A   1      33.985  16.436  24.257  1.00  0.00     0.044 C 
ATOM     10  C   UNL A   1      33.635  17.891  24.179  1.00  0.00    -0.051 A 
ATOM     11  C   UNL A   1      32.436  18.292  23.595  1.00  0.00     0.005 A 
ATOM     12  C   UNL A   1      34.517  18.872  24.637  1.00  0.00     0.009 A 
ATOM     13  C   UNL A   1      32.136  19.650  23.458  1.00  0.00     0.026 A 
ATOM     14  C   UNL A   1      33.032  20.655  23.858  1.00  0.00     0.042 A 
BRANCH  14  15
ATOM     15  N   UNL A   1      32.721  22.021  23.680  1.00  0.00    -0.352 N 
ATOM     16  H   UNL A   1      32.694  22.327  22.745  1.00  0.00     0.167 HD
BRANCH  15  17
ATOM     17  C   UNL A   1      32.444  23.016  24.648  1.00  0.00     0.094 A 
ATOM     18  C   UNL A   1      31.460  22.848  25.635  1.00  0.00     0.148 A 
ATOM     19  C   UNL A   1      33.091  24.266  24.594  1.00  0.00     0.067 A 
ATOM     20  F   UNL A   1      30.817  21.676  25.759  1.00  0.00    -0.205 F 
ATOM     21  C   UNL A   1      31.124  23.870  26.524  1.00  0.00     0.041 A 
ATOM     22  C   UNL A   1      32.756  25.298  25.480  1.00  0.00     0.023 A 
ATOM     23  Cl  UNL A   1      34.293  24.597  23.391  1.00  0.00    -0.082 Cl
ATOM     24  C   UNL A   1      31.769  25.100  26.444  1.00  0.00     0.005 A 
ENDBRANCH  15  17
ENDBRANCH  14  15
ENDBRANCH   7   8
ENDBRANCH   4   7
ENDBRANCH   2   3
ENDBRANCH   1   2
BRANCH   1  25
ATOM     25  C   UNL A   1      38.753  22.038  25.879  1.00  0.00     0.023 C 
BRANCH  25  26
ATOM     26  C   UNL A   1      39.914  21.589  26.751  1.00  0.00     0.116 C 
BRANCH  26  27
ATOM     27  N   UNL A   1      40.851  20.681  26.098  1.00  0.00    -0.352 N 
ATOM     28  C   UNL A   1      42.234  20.751  26.028  1.00  0.00     0.251 C 
ATOM     29  H   UNL A   1      40.443  19.910  25.643  1.00  0.00     0.163 HD
ATOM     30  O   UNL A   1      42.863  19.927  25.383  1.00  0.00    -0.269 OA
BRANCH  28  31
ATOM     31  C   UNL A   1      42.953  21.745  26.866  1.00  0.00     0.039 A 
ATOM     32  C   UNL A   1      42.679  21.744  28.238  1.00  0.00     0.014 A 
ATOM     33  C   UNL A   1      43.658  22.799  26.293  1.00  0.00     0.014 A 
ATOM     34  C   UNL A   1      42.851  22.917  28.964  1.00  0.00     0.010 A 
ATOM     35  C   UNL A   1      43.730  23.995  26.981  1.00  0.00     0.010 A 
ATOM     36  C   UNL A   1      43.242  24.070  28.288  1.00  0.00    -0.014 A 
BRANCH  36  37
ATOM     37  C   UNL A   1      43.012  25.408  28.814  1.00  0.00     0.031 A 
ATOM     38  C   UNL A   1      41.859  26.207  28.368  1.00  0.00     0.074 A 
ATOM     39  C   UNL A   1      43.843  25.904  29.759  1.00  0.00     0.049 A 
ATOM     40  N   UNL A   1      41.786  27.488  28.506  1.00  0.00    -0.248 NA
ATOM     41  C   UNL A   1      40.729  25.640  27.640  1.00  0.00     0.031 C 
ATOM     42  C   UNL A   1      43.640  27.071  30.613  1.00  0.00     0.029 A 
ATOM     43  N   UNL A   1      45.184  25.566  29.952  1.00  0.00    -0.354 N 
ATOM     44  C   UNL A   1      40.502  27.856  28.199  1.00  0.00     0.074 A 
ATOM     45  C   UNL A   1      39.941  26.714  27.519  1.00  0.00     0.031 C 
ATOM     46  C   UNL A   1      44.837  27.512  31.034  1.00  0.00     0.029 A 
ATOM     47  C   UNL A   1      45.851  26.744  30.336  1.00  0.00     0.049 A 
ATOM     48  H   UNL A   1      45.584  24.673  29.840  1.00  0.00     0.167 HD
ATOM     49  C   UNL A   1      40.018  29.026  28.697  1.00  0.00     0.031 A 
ATOM     50  C   UNL A   1      46.829  27.277  29.547  1.00  0.00     0.031 A 
ATOM     51  C   UNL A   1      41.081  29.876  29.242  1.00  0.00     0.049 A 
ATOM     52  C   UNL A   1      46.533  28.671  29.021  1.00  0.00     0.074 A 
ATOM     53  C   UNL A   1      41.426  30.324  30.506  1.00  0.00     0.029 A 
ATOM     54  N   UNL A   1      42.147  30.211  28.417  1.00  0.00    -0.354 N 
ATOM     55  N   UNL A   1      45.415  29.317  29.203  1.00  0.00    -0.248 NA
ATOM     56  C   UNL A   1      47.453  29.397  28.146  1.00  0.00     0.031 C 
ATOM     57  C   UNL A   1      42.723  30.917  30.429  1.00  0.00     0.029 A 
ATOM     58  C   UNL A   1      43.148  30.856  29.115  1.00  0.00     0.049 A 
ATOM     59  H   UNL A   1      42.182  30.013  27.454  1.00  0.00     0.167 HD
ATOM     60  C   UNL A   1      45.419  30.468  28.456  1.00  0.00     0.074 A 
ATOM     61  C   UNL A   1      46.719  30.471  27.810  1.00  0.00     0.031 C 
ATOM     62  C   UNL A   1      44.332  31.295  28.386  1.00  0.00     0.031 A 
BRANCH  49  63
ATOM     63  C   UNL A   1      38.542  29.322  28.861  1.00  0.00    -0.014 A 
ATOM     64  C   UNL A   1      37.805  29.813  27.768  1.00  0.00     0.009 A 
ATOM     65  C   UNL A   1      37.842  29.254  30.082  1.00  0.00     0.009 A 
ATOM     66  C   UNL A   1      36.468  30.226  27.895  1.00  0.00     0.001 A 
ATOM     67  C   UNL A   1      36.499  29.634  30.211  1.00  0.00     0.001 A 
ATOM     68  C   UNL A   1      35.814  30.133  29.117  1.00  0.00     0.000 A 
ENDBRANCH  49  63
BRANCH  50  69
ATOM     69  C   UNL A   1      47.621  26.249  28.811  1.00  0.00    -0.014 A 
ATOM     70  C   UNL A   1      47.385  26.079  27.431  1.00  0.00     0.009 A 
ATOM     71  C   UNL A   1      48.793  25.711  29.359  1.00  0.00     0.009 A 
ATOM     72  C   UNL A   1      48.348  25.493  26.605  1.00  0.00     0.001 A 
ATOM     73  C   UNL A   1      49.748  25.108  28.530  1.00  0.00     0.001 A 
ATOM     74  C   UNL A   1      49.543  25.033  27.153  1.00  0.00     0.000 A 
ENDBRANCH  50  69
BRANCH  62  75
ATOM     75  C   UNL A   1      44.240  32.568  27.569  1.00  0.00    -0.014 A 
ATOM     76  C   UNL A   1      44.428  32.636  26.183  1.00  0.00     0.009 A 
ATOM     77  C   UNL A   1      44.035  33.801  28.229  1.00  0.00     0.009 A 
ATOM     78  C   UNL A   1      44.323  33.852  25.487  1.00  0.00     0.001 A 
ATOM     79  C   UNL A   1      43.954  35.018  27.547  1.00  0.00     0.001 A 
ATOM     80  C   UNL A   1      44.080  35.041  26.168  1.00  0.00     0.000 A 
ENDBRANCH  62  75
ENDBRANCH  36  37
ENDBRANCH  28  31
ENDBRANCH  26  27
ENDBRANCH  25  26
ENDBRANCH   1  25
TORSDOF 14
ENDMDL
MODEL 2
REMARK VINA RESULT:     -12.1      3.437      8.190
REMARK SMILES Cc1ccc(Nc2c(F)cccc2Cl)c(CC(=O)NCCCCNC(=O)c2ccc(-c3c4nc(c(-c5ccccc5)c5ccc([nH]5)c(-c5ccccc5)c5nc(c(-c6ccccc6)c6ccc3[nH]6)C=C5)C=C4)cc2)c1
REMARK SMILES IDX 21 1 20 2 19 3 17 4 18 5 16 7 15 8 1 9 2 10 3 11 75 12 4 13
REMARK SMILES IDX 5 14 6 15 7 17 8 18 13 19 9 20 10 21 12 22 14 23 11 24 22 25
REMARK SMILES IDX 23 26 24 27 25 28 26 30 27 31 28 32 74 33 29 34 73 35 30 36
REMARK SMILES IDX 31 37 32 38 67 39 33 40 72 41 66 42 68 43 34 44 71 45 65 46
REMARK SMILES IDX 64 47 35 49 57 50 42 51 56 52 43 53 46 54 55 55 69 56 44 57
REMARK SMILES IDX 45 58 54 60 70 61 47 62 36 63 37 64 41 65 38 66 40 67 39 68
REMARK SMILES IDX 58 69 59 70 63 71 60 72 62 73 61 74 48 75 49 76 53 77 50 78
REMARK SMILES IDX 52 79 51 80
REMARK H PARENT 19 6 6 16 24 29 68 48 46 59
REMARK Flexibility Score: inf
ROOT
ATOM      1  C   UNL A   1      31.786  29.204  26.922  1.00  0.00     0.023 C 
ENDROOT
BRANCH   1   2
ATOM      2  C   UNL A   1      32.410  27.799  26.891  1.00  0.00     0.116 C 
BRANCH   2   3
ATOM      3  N   UNL A   1      31.432  26.728  26.974  1.00  0.00    -0.356 N 
ATOM      4  C   UNL A   1      31.531  25.421  26.599  1.00  0.00     0.224 C 
ATOM      5  O   UNL A   1      30.520  24.717  26.664  1.00  0.00    -0.275 OA
ATOM      6  H   UNL A   1      30.563  26.986  27.360  1.00  0.00     0.163 HD
BRANCH   4   7
ATOM      7  C   UNL A   1      32.837  24.840  26.092  1.00  0.00     0.137 C 
BRANCH   7   8
ATOM      8  C   UNL A   1      32.689  24.026  24.826  1.00  0.00    -0.015 A 
ATOM      9  C   UNL A   1      32.672  20.288  24.011  1.00  0.00     0.044 C 
ATOM     10  C   UNL A   1      32.619  21.778  23.855  1.00  0.00    -0.051 A 
ATOM     11  C   UNL A   1      32.630  22.349  22.585  1.00  0.00     0.005 A 
ATOM     12  C   UNL A   1      32.610  22.621  24.967  1.00  0.00     0.009 A 
ATOM     13  C   UNL A   1      32.649  23.738  22.435  1.00  0.00     0.026 A 
ATOM     14  C   UNL A   1      32.699  24.606  23.537  1.00  0.00     0.042 A 
BRANCH  14  15
ATOM     15  N   UNL A   1      32.751  26.006  23.361  1.00  0.00    -0.352 N 
ATOM     16  H   UNL A   1      33.649  26.378  23.212  1.00  0.00     0.167 HD
BRANCH  15  17
ATOM     17  C   UNL A   1      31.699  26.955  23.367  1.00  0.00     0.094 A 
ATOM     18  C   UNL A   1      30.348  26.576  23.384  1.00  0.00     0.148 A 
ATOM     19  C   UNL A   1      31.977  28.331  23.258  1.00  0.00     0.067 A 
ATOM     20  F   UNL A   1      30.008  25.283  23.507  1.00  0.00    -0.205 F 
ATOM     21  C   UNL A   1      29.317  27.511  23.291  1.00  0.00     0.041 A 
ATOM     22  C   UNL A   1      30.948  29.276  23.159  1.00  0.00     0.023 A 
ATOM     23  Cl  UNL A   1      33.609  28.908  23.187  1.00  0.00    -0.082 Cl
ATOM     24  C   UNL A   1      29.617  28.865  23.172  1.00  0.00     0.005 A 
ENDBRANCH  15  17
ENDBRANCH  14  15
ENDBRANCH   7   8
ENDBRANCH   4   7
ENDBRANCH   2   3
ENDBRANCH   1   2
BRANCH   1  25
ATOM     25  C   UNL A   1      32.762  30.370  26.767  1.00  0.00     0.023 C 
BRANCH  25  26
ATOM     26  C   UNL A   1      34.183  30.045  27.198  1.00  0.00     0.116 C 
BRANCH  26  27
ATOM     27  N   UNL A   1      34.880  31.135  27.873  1.00  0.00    -0.352 N 
ATOM     28  C   UNL A   1      36.133  31.141  28.466  1.00  0.00     0.251 C 
ATOM     29  H   UNL A   1      34.390  31.988  27.912  1.00  0.00     0.163 HD
ATOM     30  O   UNL A   1      36.540  32.136  29.043  1.00  0.00    -0.269 OA
BRANCH  28  31
ATOM     31  C   UNL A   1      37.035  29.977  28.263  1.00  0.00     0.039 A 
ATOM     32  C   UNL A   1      37.105  29.034  29.294  1.00  0.00     0.014 A 
ATOM     33  C   UNL A   1      37.965  29.955  27.228  1.00  0.00     0.014 A 
ATOM     34  C   UNL A   1      38.259  28.272  29.437  1.00  0.00     0.010 A 
ATOM     35  C   UNL A   1      39.154  29.281  27.425  1.00  0.00     0.010 A 
ATOM     36  C   UNL A   1      39.329  28.511  28.578  1.00  0.00    -0.014 A 
BRANCH  36  37
ATOM     37  C   UNL A   1      40.698  28.136  28.902  1.00  0.00     0.031 A 
ATOM     38  C   UNL A   1      41.284  26.891  28.381  1.00  0.00     0.074 A 
ATOM     39  C   UNL A   1      41.455  28.967  29.654  1.00  0.00     0.049 A 
ATOM     40  N   UNL A   1      42.325  26.326  28.893  1.00  0.00    -0.248 NA
ATOM     41  C   UNL A   1      40.687  26.121  27.293  1.00  0.00     0.031 C 
ATOM     42  C   UNL A   1      42.901  28.933  29.855  1.00  0.00     0.029 A 
ATOM     43  N   UNL A   1      40.997  29.880  30.606  1.00  0.00    -0.354 N 
ATOM     44  C   UNL A   1      42.717  25.338  28.027  1.00  0.00     0.074 A 
ATOM     45  C   UNL A   1      41.590  25.146  27.148  1.00  0.00     0.031 C 
ATOM     46  C   UNL A   1      43.194  29.565  31.002  1.00  0.00     0.029 A 
ATOM     47  C   UNL A   1      41.936  29.883  31.654  1.00  0.00     0.049 A 
ATOM     48  H   UNL A   1      40.175  30.419  30.552  1.00  0.00     0.167 HD
ATOM     49  C   UNL A   1      44.009  24.911  28.060  1.00  0.00     0.031 A 
ATOM     50  C   UNL A   1      41.581  29.472  32.906  1.00  0.00     0.031 A 
ATOM     51  C   UNL A   1      44.713  25.374  29.260  1.00  0.00     0.049 A 
ATOM     52  C   UNL A   1      42.337  28.257  33.417  1.00  0.00     0.074 A 
ATOM     53  C   UNL A   1      45.758  26.247  29.509  1.00  0.00     0.029 A 
ATOM     54  N   UNL A   1      44.167  25.074  30.502  1.00  0.00    -0.354 N 
ATOM     55  N   UNL A   1      43.202  27.571  32.724  1.00  0.00    -0.248 NA
ATOM     56  C   UNL A   1      42.082  27.661  34.727  1.00  0.00     0.031 C 
ATOM     57  C   UNL A   1      45.820  26.479  30.916  1.00  0.00     0.029 A 
ATOM     58  C   UNL A   1      44.834  25.724  31.522  1.00  0.00     0.049 A 
ATOM     59  H   UNL A   1      43.401  24.472  30.638  1.00  0.00     0.167 HD
ATOM     60  C   UNL A   1      43.567  26.447  33.423  1.00  0.00     0.074 A 
ATOM     61  C   UNL A   1      42.835  26.550  34.672  1.00  0.00     0.031 C 
ATOM     62  C   UNL A   1      44.396  25.496  32.894  1.00  0.00     0.031 A 
BRANCH  49  63
ATOM     63  C   UNL A   1      44.697  24.224  26.899  1.00  0.00    -0.014 A 
ATOM     64  C   UNL A   1      44.524  22.840  26.710  1.00  0.00     0.009 A 
ATOM     65  C   UNL A   1      45.613  24.845  26.029  1.00  0.00     0.009 A 
ATOM     66  C   UNL A   1      45.236  22.127  25.731  1.00  0.00     0.001 A 
ATOM     67  C   UNL A   1      46.306  24.148  25.030  1.00  0.00     0.001 A 
ATOM     68  C   UNL A   1      46.126  22.783  24.888  1.00  0.00     0.000 A 
ENDBRANCH  49  63
BRANCH  50  69
ATOM     69  C   UNL A   1      40.165  29.790  33.253  1.00  0.00    -0.014 A 
ATOM     70  C   UNL A   1      39.827  31.129  33.538  1.00  0.00     0.009 A 
ATOM     71  C   UNL A   1      39.132  28.886  32.973  1.00  0.00     0.009 A 
ATOM     72  C   UNL A   1      38.506  31.575  33.428  1.00  0.00     0.001 A 
ATOM     73  C   UNL A   1      37.807  29.333  32.881  1.00  0.00     0.001 A 
ATOM     74  C   UNL A   1      37.501  30.679  33.072  1.00  0.00     0.000 A 
ENDBRANCH  50  69
BRANCH  62  75
ATOM     75  C   UNL A   1      44.828  24.218  33.582  1.00  0.00    -0.014 A 
ATOM     76  C   UNL A   1      43.979  23.140  33.859  1.00  0.00     0.009 A 
ATOM     77  C   UNL A   1      46.153  24.105  34.066  1.00  0.00     0.009 A 
ATOM     78  C   UNL A   1      44.449  21.979  34.497  1.00  0.00     0.001 A 
ATOM     79  C   UNL A   1      46.621  22.965  34.724  1.00  0.00     0.001 A 
ATOM     80  C   UNL A   1      45.771  21.890  34.923  1.00  0.00     0.000 A 
ENDBRANCH  62  75
ENDBRANCH  36  37
ENDBRANCH  28  31
ENDBRANCH  26  27
ENDBRANCH  25  26
ENDBRANCH   1  25
TORSDOF 14
ENDMDL
MODEL 3
REMARK VINA RESULT:     -12.0      2.839      4.616
REMARK SMILES Cc1ccc(Nc2c(F)cccc2Cl)c(CC(=O)NCCCCNC(=O)c2ccc(-c3c4nc(c(-c5ccccc5)c5ccc([nH]5)c(-c5ccccc5)c5nc(c(-c6ccccc6)c6ccc3[nH]6)C=C5)C=C4)cc2)c1
REMARK SMILES IDX 21 1 20 2 19 3 17 4 18 5 16 7 15 8 1 9 2 10 3 11 75 12 4 13
REMARK SMILES IDX 5 14 6 15 7 17 8 18 13 19 9 20 10 21 12 22 14 23 11 24 22 25
REMARK SMILES IDX 23 26 24 27 25 28 26 30 27 31 28 32 74 33 29 34 73 35 30 36
REMARK SMILES IDX 31 37 32 38 67 39 33 40 72 41 66 42 68 43 34 44 71 45 65 46
REMARK SMILES IDX 64 47 35 49 57 50 42 51 56 52 43 53 46 54 55 55 69 56 44 57
REMARK SMILES IDX 45 58 54 60 70 61 47 62 36 63 37 64 41 65 38 66 40 67 39 68
REMARK SMILES IDX 58 69 59 70 63 71 60 72 62 73 61 74 48 75 49 76 53 77 50 78
REMARK SMILES IDX 52 79 51 80
REMARK H PARENT 19 6 6 16 24 29 68 48 46 59
REMARK Flexibility Score: inf
ROOT
ATOM      1  C   UNL A   1      36.982  21.395  24.321  1.00  0.00     0.023 C 
ENDROOT
BRANCH   1   2
ATOM      2  C   UNL A   1      36.322  22.730  24.707  1.00  0.00     0.116 C 
BRANCH   2   3
ATOM      3  N   UNL A   1      35.516  23.306  23.645  1.00  0.00    -0.356 N 
ATOM      4  C   UNL A   1      34.627  24.339  23.684  1.00  0.00     0.224 C 
ATOM      5  O   UNL A   1      33.969  24.581  22.668  1.00  0.00    -0.275 OA
ATOM      6  H   UNL A   1      35.628  22.885  22.761  1.00  0.00     0.163 HD
BRANCH   4   7
ATOM      7  C   UNL A   1      34.424  25.162  24.941  1.00  0.00     0.137 C 
BRANCH   7   8
ATOM      8  C   UNL A   1      32.987  25.211  25.410  1.00  0.00    -0.015 A 
ATOM      9  C   UNL A   1      30.414  22.596  26.493  1.00  0.00     0.044 C 
ATOM     10  C   UNL A   1      31.052  23.911  26.161  1.00  0.00    -0.051 A 
ATOM     11  C   UNL A   1      30.280  25.070  26.111  1.00  0.00     0.005 A 
ATOM     12  C   UNL A   1      32.409  23.998  25.848  1.00  0.00     0.009 A 
ATOM     13  C   UNL A   1      30.856  26.286  25.736  1.00  0.00     0.026 A 
ATOM     14  C   UNL A   1      32.205  26.388  25.360  1.00  0.00     0.042 A 
BRANCH  14  15
ATOM     15  N   UNL A   1      32.758  27.622  24.954  1.00  0.00    -0.352 N 
ATOM     16  H   UNL A   1      33.176  27.622  24.063  1.00  0.00     0.167 HD
BRANCH  15  17
ATOM     17  C   UNL A   1      32.800  28.860  25.640  1.00  0.00     0.094 A 
ATOM     18  C   UNL A   1      33.758  29.137  26.627  1.00  0.00     0.148 A 
ATOM     19  C   UNL A   1      31.808  29.835  25.418  1.00  0.00     0.067 A 
ATOM     20  F   UNL A   1      34.745  28.263  26.879  1.00  0.00    -0.205 F 
ATOM     21  C   UNL A   1      33.734  30.319  27.368  1.00  0.00     0.041 A 
ATOM     22  C   UNL A   1      31.775  31.022  26.160  1.00  0.00     0.023 A 
ATOM     23  Cl  UNL A   1      30.553  29.580  24.251  1.00  0.00    -0.082 Cl
ATOM     24  C   UNL A   1      32.737  31.262  27.139  1.00  0.00     0.005 A 
ENDBRANCH  15  17
ENDBRANCH  14  15
ENDBRANCH   7   8
ENDBRANCH   4   7
ENDBRANCH   2   3
ENDBRANCH   1   2
BRANCH   1  25
ATOM     25  C   UNL A   1      38.279  21.056  25.056  1.00  0.00     0.023 C 
BRANCH  25  26
ATOM     26  C   UNL A   1      38.695  22.096  26.083  1.00  0.00     0.116 C 
BRANCH  26  27
ATOM     27  N   UNL A   1      40.136  22.230  26.266  1.00  0.00    -0.352 N 
ATOM     28  C   UNL A   1      40.886  23.371  26.507  1.00  0.00     0.251 C 
ATOM     29  H   UNL A   1      40.648  21.391  26.209  1.00  0.00     0.163 HD
ATOM     30  O   UNL A   1      42.103  23.307  26.576  1.00  0.00    -0.269 OA
BRANCH  28  31
ATOM     31  C   UNL A   1      40.188  24.642  26.831  1.00  0.00     0.039 A 
ATOM     32  C   UNL A   1      40.583  25.786  26.129  1.00  0.00     0.014 A 
ATOM     33  C   UNL A   1      39.375  24.754  27.954  1.00  0.00     0.014 A 
ATOM     34  C   UNL A   1      40.408  27.034  26.716  1.00  0.00     0.010 A 
ATOM     35  C   UNL A   1      39.294  25.978  28.590  1.00  0.00     0.010 A 
ATOM     36  C   UNL A   1      39.891  27.099  28.007  1.00  0.00    -0.014 A 
BRANCH  36  37
ATOM     37  C   UNL A   1      40.089  28.250  28.878  1.00  0.00     0.031 A 
ATOM     38  C   UNL A   1      39.080  29.318  28.960  1.00  0.00     0.074 A 
ATOM     39  C   UNL A   1      41.195  28.313  29.655  1.00  0.00     0.049 A 
ATOM     40  N   UNL A   1      39.331  30.500  29.412  1.00  0.00    -0.248 NA
ATOM     41  C   UNL A   1      37.721  29.173  28.448  1.00  0.00     0.031 C 
ATOM     42  C   UNL A   1      41.451  29.204  30.784  1.00  0.00     0.029 A 
ATOM     43  N   UNL A   1      42.433  27.722  29.395  1.00  0.00    -0.354 N 
ATOM     44  C   UNL A   1      38.129  31.142  29.557  1.00  0.00     0.074 A 
ATOM     45  C   UNL A   1      37.191  30.349  28.802  1.00  0.00     0.031 C 
ATOM     46  C   UNL A   1      42.778  29.307  30.961  1.00  0.00     0.029 A 
ATOM     47  C   UNL A   1      43.417  28.618  29.855  1.00  0.00     0.049 A 
ATOM     48  H   UNL A   1      42.586  26.847  28.972  1.00  0.00     0.167 HD
ATOM     49  C   UNL A   1      38.042  32.183  30.429  1.00  0.00     0.031 A 
ATOM     50  C   UNL A   1      44.297  29.190  28.982  1.00  0.00     0.031 A 
ATOM     51  C   UNL A   1      39.362  32.658  30.855  1.00  0.00     0.049 A 
ATOM     52  C   UNL A   1      44.219  30.705  28.900  1.00  0.00     0.074 A 
ATOM     53  C   UNL A   1      40.064  32.664  32.049  1.00  0.00     0.029 A 
ATOM     54  N   UNL A   1      40.273  33.039  29.878  1.00  0.00    -0.354 N 
ATOM     55  N   UNL A   1      43.344  31.442  29.524  1.00  0.00    -0.248 NA
ATOM     56  C   UNL A   1      45.070  31.492  28.009  1.00  0.00     0.031 C 
ATOM     57  C   UNL A   1      41.414  33.037  31.770  1.00  0.00     0.029 A 
ATOM     58  C   UNL A   1      41.521  33.287  30.415  1.00  0.00     0.049 A 
ATOM     59  H   UNL A   1      40.055  33.122  28.922  1.00  0.00     0.167 HD
ATOM     60  C   UNL A   1      43.448  32.744  29.098  1.00  0.00     0.074 A 
ATOM     61  C   UNL A   1      44.545  32.721  28.147  1.00  0.00     0.031 C 
ATOM     62  C   UNL A   1      42.589  33.720  29.520  1.00  0.00     0.031 A 
BRANCH  49  63
ATOM     63  C   UNL A   1      36.743  32.653  31.049  1.00  0.00    -0.014 A 
ATOM     64  C   UNL A   1      35.953  33.601  30.372  1.00  0.00     0.009 A 
ATOM     65  C   UNL A   1      36.294  32.299  32.336  1.00  0.00     0.009 A 
ATOM     66  C   UNL A   1      34.807  34.168  30.955  1.00  0.00     0.001 A 
ATOM     67  C   UNL A   1      35.136  32.837  32.913  1.00  0.00     0.001 A 
ATOM     68  C   UNL A   1      34.397  33.783  32.225  1.00  0.00     0.000 A 
ENDBRANCH  49  63
BRANCH  50  69
ATOM     69  C   UNL A   1      44.658  28.301  27.839  1.00  0.00    -0.014 A 
ATOM     70  C   UNL A   1      45.462  27.171  28.093  1.00  0.00     0.009 A 
ATOM     71  C   UNL A   1      43.958  28.364  26.627  1.00  0.00     0.009 A 
ATOM     72  C   UNL A   1      45.470  26.084  27.214  1.00  0.00     0.001 A 
ATOM     73  C   UNL A   1      43.983  27.280  25.740  1.00  0.00     0.001 A 
ATOM     74  C   UNL A   1      44.707  26.129  26.050  1.00  0.00     0.000 A 
ENDBRANCH  50  69
BRANCH  62  75
ATOM     75  C   UNL A   1      42.615  35.171  29.084  1.00  0.00    -0.014 A 
ATOM     76  C   UNL A   1      43.503  36.132  29.580  1.00  0.00     0.009 A 
ATOM     77  C   UNL A   1      41.635  35.638  28.177  1.00  0.00     0.009 A 
ATOM     78  C   UNL A   1      43.475  37.461  29.125  1.00  0.00     0.001 A 
ATOM     79  C   UNL A   1      41.585  36.964  27.739  1.00  0.00     0.001 A 
ATOM     80  C   UNL A   1      42.521  37.875  28.201  1.00  0.00     0.000 A 
ENDBRANCH  62  75
ENDBRANCH  36  37
ENDBRANCH  28  31
ENDBRANCH  26  27
ENDBRANCH  25  26
ENDBRANCH   1  25
TORSDOF 14
ENDMDL
