MODEL 1
REMARK VINA RESULT:     -11.9      0.000      0.000
REMARK SMILES O=C(NCCCCNC(=O)[C@@H](CO)NC(=O)c1ccc2noc(-c3ccccc3)c2c1)c1ccc(-c2c3nc(c(-c4ccccc4)c4ccc([nH]4)c(-c4ccccc4)c4nc(c(-c5ccccc5)c5ccc2[nH]5)C=C4)C=C3)cc1
REMARK SMILES IDX 6 1 5 2 4 3 3 4 1 5 2 6 32 8 33 9 79 10 34 11 78 12 35 13
REMARK SMILES IDX 36 14 37 15 72 16 38 17 77 18 71 19 73 20 39 21 76 22 70 23
REMARK SMILES IDX 69 24 40 26 62 27 47 28 61 29 48 30 51 31 60 32 74 33 49 34
REMARK SMILES IDX 50 35 59 37 75 38 52 39 41 40 42 41 46 42 43 43 45 44 44 45
REMARK SMILES IDX 63 46 64 47 68 48 65 49 67 50 66 51 53 52 54 53 58 54 55 55
REMARK SMILES IDX 57 56 56 57 7 58 8 59 9 60 10 62 11 63 12 64 13 65 14 67
REMARK SMILES IDX 15 68 16 70 17 71 18 72 31 73 19 74 30 75 20 76 23 77 21 78
REMARK SMILES IDX 22 79 24 80 25 81 29 82 26 83 28 84 27 85
REMARK H PARENT 3 7 73 25 51 36 8 61 13 66 14 69
REMARK Flexibility Score: inf
ROOT
ATOM      1  C   UNL A   1      34.014  29.289  27.255  1.00  0.00     0.023 C 
ENDROOT
BRANCH   1   2
ATOM      2  C   UNL A   1      33.471  30.703  27.487  1.00  0.00     0.023 C 
BRANCH   2   3
ATOM      3  C   UNL A   1      34.535  31.769  27.664  1.00  0.00     0.116 C 
BRANCH   3   4
ATOM      4  N   UNL A   1      34.577  32.360  29.007  1.00  0.00    -0.352 N 
ATOM      5  O   UNL A   1      35.066  32.239  31.238  1.00  0.00    -0.269 OA
ATOM      6  C   UNL A   1      35.346  31.943  30.091  1.00  0.00     0.251 C 
ATOM      7  H   UNL A   1      33.996  33.139  29.159  1.00  0.00     0.163 HD
BRANCH   6   8
ATOM      8  C   UNL A   1      36.541  31.136  29.788  1.00  0.00     0.039 A 
ATOM      9  C   UNL A   1      37.801  31.684  29.548  1.00  0.00     0.014 A 
ATOM     10  C   UNL A   1      36.370  29.767  29.908  1.00  0.00     0.014 A 
ATOM     11  C   UNL A   1      38.895  30.821  29.529  1.00  0.00     0.010 A 
ATOM     12  C   UNL A   1      37.456  28.999  30.201  1.00  0.00     0.010 A 
ATOM     13  C   UNL A   1      38.717  29.473  29.894  1.00  0.00    -0.014 A 
BRANCH  13  14
ATOM     14  C   UNL A   1      39.826  28.534  30.006  1.00  0.00     0.031 A 
ATOM     15  C   UNL A   1      40.356  28.359  31.378  1.00  0.00     0.074 A 
ATOM     16  C   UNL A   1      40.286  27.783  28.979  1.00  0.00     0.049 A 
ATOM     17  N   UNL A   1      41.468  28.827  31.831  1.00  0.00    -0.248 NA
ATOM     18  C   UNL A   1      39.503  27.739  32.401  1.00  0.00     0.031 C 
ATOM     19  C   UNL A   1      39.741  27.604  27.623  1.00  0.00     0.029 A 
ATOM     20  N   UNL A   1      41.342  26.928  28.975  1.00  0.00    -0.354 N 
ATOM     21  C   UNL A   1      41.556  28.411  33.151  1.00  0.00     0.074 A 
ATOM     22  C   UNL A   1      40.257  27.888  33.494  1.00  0.00     0.031 C 
ATOM     23  C   UNL A   1      40.315  26.533  27.031  1.00  0.00     0.029 A 
ATOM     24  C   UNL A   1      41.412  26.094  27.868  1.00  0.00     0.049 A 
ATOM     25  H   UNL A   1      42.006  26.903  29.701  1.00  0.00     0.167 HD
ATOM     26  C   UNL A   1      42.761  28.342  33.780  1.00  0.00     0.031 A 
ATOM     27  C   UNL A   1      42.329  25.127  27.635  1.00  0.00     0.031 A 
ATOM     28  C   UNL A   1      43.778  29.061  33.049  1.00  0.00     0.049 A 
ATOM     29  C   UNL A   1      43.516  25.462  28.453  1.00  0.00     0.074 A 
ATOM     30  C   UNL A   1      43.941  30.381  32.678  1.00  0.00     0.029 A 
ATOM     31  N   UNL A   1      44.591  28.330  32.213  1.00  0.00    -0.354 N 
ATOM     32  N   UNL A   1      44.257  26.512  28.240  1.00  0.00    -0.248 NA
ATOM     33  C   UNL A   1      43.599  24.893  29.788  1.00  0.00     0.031 C 
ATOM     34  C   UNL A   1      44.445  30.326  31.346  1.00  0.00     0.029 A 
ATOM     35  C   UNL A   1      44.651  28.987  31.009  1.00  0.00     0.049 A 
ATOM     36  H   UNL A   1      45.048  27.488  32.439  1.00  0.00     0.167 HD
ATOM     37  C   UNL A   1      44.545  26.999  29.506  1.00  0.00     0.074 A 
ATOM     38  C   UNL A   1      44.192  25.912  30.418  1.00  0.00     0.031 C 
ATOM     39  C   UNL A   1      44.776  28.329  29.721  1.00  0.00     0.031 A 
BRANCH  26  40
ATOM     40  C   UNL A   1      43.096  27.325  34.837  1.00  0.00    -0.014 A 
ATOM     41  C   UNL A   1      42.888  27.540  36.213  1.00  0.00     0.009 A 
ATOM     42  C   UNL A   1      43.390  26.008  34.441  1.00  0.00     0.009 A 
ATOM     43  C   UNL A   1      42.948  26.500  37.143  1.00  0.00     0.001 A 
ATOM     44  C   UNL A   1      43.410  24.957  35.366  1.00  0.00     0.001 A 
ATOM     45  C   UNL A   1      43.184  25.202  36.716  1.00  0.00     0.000 A 
ENDBRANCH  26  40
BRANCH  27  46
ATOM     46  C   UNL A   1      42.081  23.760  27.124  1.00  0.00    -0.014 A 
ATOM     47  C   UNL A   1      41.376  22.827  27.907  1.00  0.00     0.009 A 
ATOM     48  C   UNL A   1      42.805  23.277  26.023  1.00  0.00     0.009 A 
ATOM     49  C   UNL A   1      41.444  21.456  27.638  1.00  0.00     0.001 A 
ATOM     50  C   UNL A   1      42.874  21.903  25.754  1.00  0.00     0.001 A 
ATOM     51  C   UNL A   1      42.211  20.992  26.574  1.00  0.00     0.000 A 
ENDBRANCH  27  46
BRANCH  39  52
ATOM     52  C   UNL A   1      44.929  29.243  28.522  1.00  0.00    -0.014 A 
ATOM     53  C   UNL A   1      46.230  29.591  28.124  1.00  0.00     0.009 A 
ATOM     54  C   UNL A   1      43.852  29.914  27.914  1.00  0.00     0.009 A 
ATOM     55  C   UNL A   1      46.453  30.590  27.173  1.00  0.00     0.001 A 
ATOM     56  C   UNL A   1      44.075  30.896  26.940  1.00  0.00     0.001 A 
ATOM     57  C   UNL A   1      45.376  31.243  26.580  1.00  0.00     0.000 A 
ENDBRANCH  39  52
ENDBRANCH  13  14
ENDBRANCH   6   8
ENDBRANCH   3   4
ENDBRANCH   2   3
ENDBRANCH   1   2
BRANCH   1  58
ATOM     58  C   UNL A   1      33.451  28.502  26.060  1.00  0.00     0.116 C 
BRANCH  58  59
ATOM     59  N   UNL A   1      34.009  28.930  24.790  1.00  0.00    -0.354 N 
ATOM     60  C   UNL A   1      33.656  28.659  23.503  1.00  0.00     0.244 C 
ATOM     61  H   UNL A   1      34.787  29.528  24.875  1.00  0.00     0.163 HD
ATOM     62  O   UNL A   1      34.441  29.050  22.628  1.00  0.00    -0.273 OA
BRANCH  60  63
ATOM     63  C   UNL A   1      32.416  27.835  23.095  1.00  0.00     0.197 C 
BRANCH  63  64
ATOM     64  C   UNL A   1      31.122  28.660  23.180  1.00  0.00     0.191 C 
BRANCH  64  65
ATOM     65  O   UNL A   1      31.234  29.805  24.013  1.00  0.00    -0.394 OA
ATOM     66  H   UNL A   1      30.375  30.253  24.065  1.00  0.00     0.210 HD
ENDBRANCH  64  65
ENDBRANCH  63  64
BRANCH  63  67
ATOM     67  N   UNL A   1      32.575  27.099  21.833  1.00  0.00    -0.338 N 
ATOM     68  C   UNL A   1      32.776  25.754  21.634  1.00  0.00     0.252 C 
ATOM     69  H   UNL A   1      32.531  27.645  21.017  1.00  0.00     0.164 HD
ATOM     70  O   UNL A   1      33.146  25.344  20.538  1.00  0.00    -0.269 OA
BRANCH  68  71
ATOM     71  C   UNL A   1      32.570  24.786  22.744  1.00  0.00     0.040 A 
ATOM     72  C   UNL A   1      31.238  24.364  23.070  1.00  0.00     0.016 A 
ATOM     73  C   UNL A   1      33.725  24.300  23.398  1.00  0.00     0.028 A 
ATOM     74  C   UNL A   1      30.925  23.511  24.151  1.00  0.00     0.033 A 
ATOM     75  C   UNL A   1      33.383  23.440  24.441  1.00  0.00     0.050 A 
ATOM     76  C   UNL A   1      32.054  23.043  24.841  1.00  0.00     0.114 A 
ATOM     77  C   UNL A   1      34.238  22.754  25.260  1.00  0.00     0.174 A 
ATOM     78  N   UNL A   1      32.137  22.207  25.887  1.00  0.00    -0.079 NA
ATOM     79  O   UNL A   1      33.487  22.017  26.131  1.00  0.00    -0.355 OA
BRANCH  77  80
ATOM     80  C   UNL A   1      35.672  22.621  25.409  1.00  0.00     0.021 A 
ATOM     81  C   UNL A   1      36.296  21.402  25.111  1.00  0.00     0.012 A 
ATOM     82  C   UNL A   1      36.451  23.700  25.842  1.00  0.00     0.012 A 
ATOM     83  C   UNL A   1      37.678  21.265  25.241  1.00  0.00     0.001 A 
ATOM     84  C   UNL A   1      37.833  23.559  25.981  1.00  0.00     0.001 A 
ATOM     85  C   UNL A   1      38.447  22.343  25.679  1.00  0.00     0.000 A 
ENDBRANCH  77  80
ENDBRANCH  68  71
ENDBRANCH  63  67
ENDBRANCH  60  63
ENDBRANCH  58  59
ENDBRANCH   1  58
TORSDOF 16
ENDMDL
MODEL 2
REMARK VINA RESULT:     -11.7      2.266      8.142
REMARK SMILES O=C(NCCCCNC(=O)[C@@H](CO)NC(=O)c1ccc2noc(-c3ccccc3)c2c1)c1ccc(-c2c3nc(c(-c4ccccc4)c4ccc([nH]4)c(-c4ccccc4)c4nc(c(-c5ccccc5)c5ccc2[nH]5)C=C4)C=C3)cc1
REMARK SMILES IDX 6 1 5 2 4 3 3 4 1 5 2 6 32 8 33 9 79 10 34 11 78 12 35 13
REMARK SMILES IDX 36 14 37 15 72 16 38 17 77 18 71 19 73 20 39 21 76 22 70 23
REMARK SMILES IDX 69 24 40 26 62 27 47 28 61 29 48 30 51 31 60 32 74 33 49 34
REMARK SMILES IDX 50 35 59 37 75 38 52 39 41 40 42 41 46 42 43 43 45 44 44 45
REMARK SMILES IDX 63 46 64 47 68 48 65 49 67 50 66 51 53 52 54 53 58 54 55 55
REMARK SMILES IDX 57 56 56 57 7 58 8 59 9 60 10 62 11 63 12 64 13 65 14 67
REMARK SMILES IDX 15 68 16 70 17 71 18 72 31 73 19 74 30 75 20 76 23 77 21 78
REMARK SMILES IDX 22 79 24 80 25 81 29 82 26 83 28 84 27 85
REMARK H PARENT 3 7 73 25 51 36 8 61 13 66 14 69
REMARK Flexibility Score: inf
ROOT
ATOM      1  C   UNL A   1      37.619  21.113  25.247  1.00  0.00     0.023 C 
ENDROOT
BRANCH   1   2
ATOM      2  C   UNL A   1      38.523  22.288  25.637  1.00  0.00     0.023 C 
BRANCH   2   3
ATOM      3  C   UNL A   1      39.619  21.943  26.627  1.00  0.00     0.116 C 
BRANCH   3   4
ATOM      4  N   UNL A   1      40.976  22.007  26.070  1.00  0.00    -0.352 N 
ATOM      5  O   UNL A   1      42.704  23.169  25.125  1.00  0.00    -0.269 OA
ATOM      6  C   UNL A   1      41.770  23.139  25.905  1.00  0.00     0.251 C 
ATOM      7  H   UNL A   1      41.368  21.153  25.779  1.00  0.00     0.163 HD
BRANCH   6   8
ATOM      8  C   UNL A   1      41.444  24.309  26.739  1.00  0.00     0.039 A 
ATOM      9  C   UNL A   1      42.028  24.556  27.982  1.00  0.00     0.014 A 
ATOM     10  C   UNL A   1      40.619  25.246  26.140  1.00  0.00     0.014 A 
ATOM     11  C   UNL A   1      41.835  25.812  28.555  1.00  0.00     0.010 A 
ATOM     12  C   UNL A   1      40.705  26.543  26.547  1.00  0.00     0.010 A 
ATOM     13  C   UNL A   1      41.195  26.820  27.808  1.00  0.00    -0.014 A 
BRANCH  13  14
ATOM     14  C   UNL A   1      41.054  28.188  28.291  1.00  0.00     0.031 A 
ATOM     15  C   UNL A   1      42.161  29.097  27.917  1.00  0.00     0.074 A 
ATOM     16  C   UNL A   1      39.958  28.651  28.937  1.00  0.00     0.049 A 
ATOM     17  N   UNL A   1      43.086  29.534  28.701  1.00  0.00    -0.248 NA
ATOM     18  C   UNL A   1      42.361  29.436  26.501  1.00  0.00     0.031 C 
ATOM     19  C   UNL A   1      38.657  28.003  29.171  1.00  0.00     0.029 A 
ATOM     20  N   UNL A   1      39.760  29.884  29.469  1.00  0.00    -0.354 N 
ATOM     21  C   UNL A   1      43.893  30.356  27.929  1.00  0.00     0.074 A 
ATOM     22  C   UNL A   1      43.500  30.133  26.560  1.00  0.00     0.031 C 
ATOM     23  C   UNL A   1      37.747  28.920  29.567  1.00  0.00     0.029 A 
ATOM     24  C   UNL A   1      38.447  30.160  29.826  1.00  0.00     0.049 A 
ATOM     25  H   UNL A   1      40.490  30.532  29.592  1.00  0.00     0.167 HD
ATOM     26  C   UNL A   1      44.674  31.309  28.508  1.00  0.00     0.031 A 
ATOM     27  C   UNL A   1      37.969  31.320  30.334  1.00  0.00     0.031 A 
ATOM     28  C   UNL A   1      44.801  31.091  29.930  1.00  0.00     0.049 A 
ATOM     29  C   UNL A   1      39.121  32.027  30.936  1.00  0.00     0.074 A 
ATOM     30  C   UNL A   1      45.313  30.067  30.703  1.00  0.00     0.029 A 
ATOM     31  N   UNL A   1      43.963  31.804  30.756  1.00  0.00    -0.354 N 
ATOM     32  N   UNL A   1      39.761  31.586  31.982  1.00  0.00    -0.248 NA
ATOM     33  C   UNL A   1      39.852  32.965  30.101  1.00  0.00     0.031 C 
ATOM     34  C   UNL A   1      44.391  29.927  31.781  1.00  0.00     0.029 A 
ATOM     35  C   UNL A   1      43.423  30.927  31.664  1.00  0.00     0.049 A 
ATOM     36  H   UNL A   1      43.783  32.771  30.706  1.00  0.00     0.167 HD
ATOM     37  C   UNL A   1      41.098  31.828  31.702  1.00  0.00     0.074 A 
ATOM     38  C   UNL A   1      41.084  32.759  30.574  1.00  0.00     0.031 C 
ATOM     39  C   UNL A   1      42.087  31.039  32.219  1.00  0.00     0.031 A 
BRANCH  26  40
ATOM     40  C   UNL A   1      45.003  32.627  27.863  1.00  0.00    -0.014 A 
ATOM     41  C   UNL A   1      46.272  32.939  27.340  1.00  0.00     0.009 A 
ATOM     42  C   UNL A   1      43.952  33.499  27.528  1.00  0.00     0.009 A 
ATOM     43  C   UNL A   1      46.483  34.044  26.513  1.00  0.00     0.001 A 
ATOM     44  C   UNL A   1      44.151  34.585  26.667  1.00  0.00     0.001 A 
ATOM     45  C   UNL A   1      45.416  34.854  26.156  1.00  0.00     0.000 A 
ENDBRANCH  26  40
BRANCH  27  46
ATOM     46  C   UNL A   1      36.725  32.024  29.947  1.00  0.00    -0.014 A 
ATOM     47  C   UNL A   1      36.639  32.681  28.706  1.00  0.00     0.009 A 
ATOM     48  C   UNL A   1      35.753  32.320  30.914  1.00  0.00     0.009 A 
ATOM     49  C   UNL A   1      35.657  33.648  28.464  1.00  0.00     0.001 A 
ATOM     50  C   UNL A   1      34.769  33.289  30.672  1.00  0.00     0.001 A 
ATOM     51  C   UNL A   1      34.735  33.967  29.455  1.00  0.00     0.000 A 
ENDBRANCH  27  46
BRANCH  39  52
ATOM     52  C   UNL A   1      41.725  30.024  33.284  1.00  0.00    -0.014 A 
ATOM     53  C   UNL A   1      41.935  30.377  34.627  1.00  0.00     0.009 A 
ATOM     54  C   UNL A   1      41.379  28.690  33.000  1.00  0.00     0.009 A 
ATOM     55  C   UNL A   1      41.831  29.430  35.649  1.00  0.00     0.001 A 
ATOM     56  C   UNL A   1      41.248  27.746  34.028  1.00  0.00     0.001 A 
ATOM     57  C   UNL A   1      41.487  28.115  35.350  1.00  0.00     0.000 A 
ENDBRANCH  39  52
ENDBRANCH  13  14
ENDBRANCH   6   8
ENDBRANCH   3   4
ENDBRANCH   2   3
ENDBRANCH   1   2
BRANCH   1  58
ATOM     58  C   UNL A   1      36.104  21.370  25.202  1.00  0.00     0.116 C 
BRANCH  58  59
ATOM     59  N   UNL A   1      35.553  21.718  26.500  1.00  0.00    -0.354 N 
ATOM     60  C   UNL A   1      34.271  21.893  26.927  1.00  0.00     0.244 C 
ATOM     61  H   UNL A   1      36.231  21.852  27.201  1.00  0.00     0.163 HD
ATOM     62  O   UNL A   1      34.136  22.354  28.069  1.00  0.00    -0.273 OA
BRANCH  60  63
ATOM     63  C   UNL A   1      33.021  21.644  26.056  1.00  0.00     0.197 C 
BRANCH  63  64
ATOM     64  C   UNL A   1      32.977  20.209  25.508  1.00  0.00     0.191 C 
BRANCH  64  65
ATOM     65  O   UNL A   1      33.007  19.215  26.521  1.00  0.00    -0.394 OA
ATOM     66  H   UNL A   1      32.602  19.565  27.331  1.00  0.00     0.210 HD
ENDBRANCH  64  65
ENDBRANCH  63  64
BRANCH  63  67
ATOM     67  N   UNL A   1      31.764  22.088  26.674  1.00  0.00    -0.338 N 
ATOM     68  C   UNL A   1      31.104  23.285  26.531  1.00  0.00     0.252 C 
ATOM     69  H   UNL A   1      31.334  21.437  27.272  1.00  0.00     0.164 HD
ATOM     70  O   UNL A   1      30.210  23.591  27.313  1.00  0.00    -0.269 OA
BRANCH  68  71
ATOM     71  C   UNL A   1      31.479  24.230  25.447  1.00  0.00     0.040 A 
ATOM     72  C   UNL A   1      31.265  23.851  24.079  1.00  0.00     0.016 A 
ATOM     73  C   UNL A   1      31.997  25.486  25.836  1.00  0.00     0.028 A 
ATOM     74  C   UNL A   1      31.655  24.638  22.973  1.00  0.00     0.033 A 
ATOM     75  C   UNL A   1      32.344  26.250  24.722  1.00  0.00     0.050 A 
ATOM     76  C   UNL A   1      32.206  25.877  23.334  1.00  0.00     0.114 A 
ATOM     77  C   UNL A   1      32.835  27.528  24.717  1.00  0.00     0.174 A 
ATOM     78  N   UNL A   1      32.653  26.878  22.560  1.00  0.00    -0.079 NA
ATOM     79  O   UNL A   1      33.025  27.901  23.417  1.00  0.00    -0.355 OA
BRANCH  77  80
ATOM     80  C   UNL A   1      33.173  28.528  25.707  1.00  0.00     0.021 A 
ATOM     81  C   UNL A   1      32.295  29.593  25.953  1.00  0.00     0.012 A 
ATOM     82  C   UNL A   1      34.368  28.445  26.432  1.00  0.00     0.012 A 
ATOM     83  C   UNL A   1      32.606  30.558  26.912  1.00  0.00     0.001 A 
ATOM     84  C   UNL A   1      34.681  29.417  27.385  1.00  0.00     0.001 A 
ATOM     85  C   UNL A   1      33.801  30.472  27.625  1.00  0.00     0.000 A 
ENDBRANCH  77  80
ENDBRANCH  68  71
ENDBRANCH  63  67
ENDBRANCH  60  63
ENDBRANCH  58  59
ENDBRANCH   1  58
TORSDOF 16
ENDMDL
MODEL 3
REMARK VINA RESULT:     -11.7      2.277      7.764
REMARK SMILES O=C(NCCCCNC(=O)[C@@H](CO)NC(=O)c1ccc2noc(-c3ccccc3)c2c1)c1ccc(-c2c3nc(c(-c4ccccc4)c4ccc([nH]4)c(-c4ccccc4)c4nc(c(-c5ccccc5)c5ccc2[nH]5)C=C4)C=C3)cc1
REMARK SMILES IDX 6 1 5 2 4 3 3 4 1 5 2 6 32 8 33 9 79 10 34 11 78 12 35 13
REMARK SMILES IDX 36 14 37 15 72 16 38 17 77 18 71 19 73 20 39 21 76 22 70 23
REMARK SMILES IDX 69 24 40 26 62 27 47 28 61 29 48 30 51 31 60 32 74 33 49 34
REMARK SMILES IDX 50 35 59 37 75 38 52 39 41 40 42 41 46 42 43 43 45 44 44 45
REMARK SMILES IDX 63 46 64 47 68 48 65 49 67 50 66 51 53 52 54 53 58 54 55 55
REMARK SMILES IDX 57 56 56 57 7 58 8 59 9 60 10 62 11 63 12 64 13 65 14 67
REMARK SMILES IDX 15 68 16 70 17 71 18 72 31 73 19 74 30 75 20 76 23 77 21 78
REMARK SMILES IDX 22 79 24 80 25 81 29 82 26 83 28 84 27 85
REMARK H PARENT 3 7 73 25 51 36 8 61 13 66 14 69
REMARK Flexibility Score: inf
ROOT
ATOM      1  C   UNL A   1      37.048  21.181  24.837  1.00  0.00     0.023 C 
ENDROOT
BRANCH   1   2
ATOM      2  C   UNL A   1      38.038  20.019  24.983  1.00  0.00     0.023 C 
BRANCH   2   3
ATOM      3  C   UNL A   1      39.224  20.306  25.883  1.00  0.00     0.116 C 
BRANCH   3   4
ATOM      4  N   UNL A   1      40.275  19.282  25.838  1.00  0.00    -0.352 N 
ATOM      5  O   UNL A   1      42.442  18.643  25.484  1.00  0.00    -0.269 OA
ATOM      6  C   UNL A   1      41.653  19.479  25.883  1.00  0.00     0.251 C 
ATOM      7  H   UNL A   1      39.971  18.348  25.768  1.00  0.00     0.163 HD
BRANCH   6   8
ATOM      8  C   UNL A   1      42.125  20.750  26.460  1.00  0.00     0.039 A 
ATOM      9  C   UNL A   1      42.394  21.888  25.700  1.00  0.00     0.014 A 
ATOM     10  C   UNL A   1      42.142  20.796  27.844  1.00  0.00     0.014 A 
ATOM     11  C   UNL A   1      42.583  23.093  26.375  1.00  0.00     0.010 A 
ATOM     12  C   UNL A   1      42.011  22.005  28.457  1.00  0.00     0.010 A 
ATOM     13  C   UNL A   1      42.355  23.150  27.763  1.00  0.00    -0.014 A 
BRANCH  13  14
ATOM     14  C   UNL A   1      42.423  24.392  28.523  1.00  0.00     0.031 A 
ATOM     15  C   UNL A   1      41.342  25.360  28.230  1.00  0.00     0.074 A 
ATOM     16  C   UNL A   1      43.324  24.627  29.505  1.00  0.00     0.049 A 
ATOM     17  N   UNL A   1      41.458  26.450  27.551  1.00  0.00    -0.248 NA
ATOM     18  C   UNL A   1      39.958  25.018  28.588  1.00  0.00     0.031 C 
ATOM     19  C   UNL A   1      44.298  23.717  30.130  1.00  0.00     0.029 A 
ATOM     20  N   UNL A   1      43.499  25.766  30.224  1.00  0.00    -0.354 N 
ATOM     21  C   UNL A   1      40.202  27.037  27.542  1.00  0.00     0.074 A 
ATOM     22  C   UNL A   1      39.290  26.043  28.051  1.00  0.00     0.031 C 
ATOM     23  C   UNL A   1      44.771  24.259  31.274  1.00  0.00     0.029 A 
ATOM     24  C   UNL A   1      44.310  25.630  31.342  1.00  0.00     0.049 A 
ATOM     25  H   UNL A   1      43.084  26.622  29.971  1.00  0.00     0.167 HD
ATOM     26  C   UNL A   1      40.059  28.371  27.312  1.00  0.00     0.031 A 
ATOM     27  C   UNL A   1      44.612  26.588  32.250  1.00  0.00     0.031 A 
ATOM     28  C   UNL A   1      41.265  28.941  26.759  1.00  0.00     0.049 A 
ATOM     29  C   UNL A   1      44.394  27.889  31.580  1.00  0.00     0.074 A 
ATOM     30  C   UNL A   1      41.987  28.723  25.602  1.00  0.00     0.029 A 
ATOM     31  N   UNL A   1      42.129  29.562  27.632  1.00  0.00    -0.354 N 
ATOM     32  N   UNL A   1      45.117  28.309  30.582  1.00  0.00    -0.248 NA
ATOM     33  C   UNL A   1      43.085  28.506  31.712  1.00  0.00     0.031 C 
ATOM     34  C   UNL A   1      43.352  28.769  26.010  1.00  0.00     0.029 A 
ATOM     35  C   UNL A   1      43.395  29.104  27.365  1.00  0.00     0.049 A 
ATOM     36  H   UNL A   1      41.883  30.219  28.324  1.00  0.00     0.167 HD
ATOM     37  C   UNL A   1      44.208  28.895  29.713  1.00  0.00     0.074 A 
ATOM     38  C   UNL A   1      42.989  29.067  30.504  1.00  0.00     0.031 C 
ATOM     39  C   UNL A   1      44.431  28.927  28.365  1.00  0.00     0.031 A 
BRANCH  26  40
ATOM     40  C   UNL A   1      38.979  29.216  27.930  1.00  0.00    -0.014 A 
ATOM     41  C   UNL A   1      37.915  29.774  27.197  1.00  0.00     0.009 A 
ATOM     42  C   UNL A   1      38.864  29.250  29.332  1.00  0.00     0.009 A 
ATOM     43  C   UNL A   1      36.790  30.319  27.818  1.00  0.00     0.001 A 
ATOM     44  C   UNL A   1      37.719  29.758  29.958  1.00  0.00     0.001 A 
ATOM     45  C   UNL A   1      36.680  30.288  29.200  1.00  0.00     0.000 A 
ENDBRANCH  26  40
BRANCH  27  46
ATOM     46  C   UNL A   1      44.639  26.451  33.724  1.00  0.00    -0.014 A 
ATOM     47  C   UNL A   1      45.861  26.506  34.419  1.00  0.00     0.009 A 
ATOM     48  C   UNL A   1      43.519  25.949  34.405  1.00  0.00     0.009 A 
ATOM     49  C   UNL A   1      45.975  26.019  35.725  1.00  0.00     0.001 A 
ATOM     50  C   UNL A   1      43.634  25.460  35.714  1.00  0.00     0.001 A 
ATOM     51  C   UNL A   1      44.866  25.475  36.364  1.00  0.00     0.000 A 
ENDBRANCH  27  46
BRANCH  39  52
ATOM     52  C   UNL A   1      45.791  28.508  27.844  1.00  0.00    -0.014 A 
ATOM     53  C   UNL A   1      46.686  29.519  27.457  1.00  0.00     0.009 A 
ATOM     54  C   UNL A   1      46.131  27.176  27.542  1.00  0.00     0.009 A 
ATOM     55  C   UNL A   1      47.866  29.218  26.772  1.00  0.00     0.001 A 
ATOM     56  C   UNL A   1      47.327  26.872  26.878  1.00  0.00     0.001 A 
ATOM     57  C   UNL A   1      48.187  27.895  26.482  1.00  0.00     0.000 A 
ENDBRANCH  39  52
ENDBRANCH  13  14
ENDBRANCH   6   8
ENDBRANCH   3   4
ENDBRANCH   2   3
ENDBRANCH   1   2
BRANCH   1  58
ATOM     58  C   UNL A   1      35.552  20.857  24.973  1.00  0.00     0.116 C 
BRANCH  58  59
ATOM     59  N   UNL A   1      35.030  21.143  26.297  1.00  0.00    -0.354 N 
ATOM     60  C   UNL A   1      33.785  21.483  26.731  1.00  0.00     0.244 C 
ATOM     61  H   UNL A   1      35.701  21.079  27.015  1.00  0.00     0.163 HD
ATOM     62  O   UNL A   1      33.696  21.827  27.917  1.00  0.00    -0.273 OA
BRANCH  60  63
ATOM     63  C   UNL A   1      32.536  21.551  25.826  1.00  0.00     0.197 C 
BRANCH  63  64
ATOM     64  C   UNL A   1      32.353  20.268  25.000  1.00  0.00     0.191 C 
BRANCH  64  65
ATOM     65  O   UNL A   1      32.429  19.080  25.774  1.00  0.00    -0.394 OA
ATOM     66  H   UNL A   1      33.309  18.684  25.674  1.00  0.00     0.210 HD
ENDBRANCH  64  65
ENDBRANCH  63  64
BRANCH  63  67
ATOM     67  N   UNL A   1      31.319  21.995  26.519  1.00  0.00    -0.338 N 
ATOM     68  C   UNL A   1      30.646  23.189  26.408  1.00  0.00     0.252 C 
ATOM     69  H   UNL A   1      30.931  21.348  27.150  1.00  0.00     0.164 HD
ATOM     70  O   UNL A   1      29.802  23.498  27.244  1.00  0.00    -0.269 OA
BRANCH  68  71
ATOM     71  C   UNL A   1      30.945  24.125  25.294  1.00  0.00     0.040 A 
ATOM     72  C   UNL A   1      30.745  23.693  23.939  1.00  0.00     0.016 A 
ATOM     73  C   UNL A   1      31.381  25.424  25.641  1.00  0.00     0.028 A 
ATOM     74  C   UNL A   1      31.070  24.472  22.808  1.00  0.00     0.033 A 
ATOM     75  C   UNL A   1      31.666  26.177  24.502  1.00  0.00     0.050 A 
ATOM     76  C   UNL A   1      31.540  25.755  23.127  1.00  0.00     0.114 A 
ATOM     77  C   UNL A   1      32.070  27.483  24.455  1.00  0.00     0.174 A 
ATOM     78  N   UNL A   1      31.912  26.760  22.320  1.00  0.00    -0.079 NA
ATOM     79  O   UNL A   1      32.221  27.831  23.143  1.00  0.00    -0.355 OA
BRANCH  77  80
ATOM     80  C   UNL A   1      32.349  28.533  25.412  1.00  0.00     0.021 A 
ATOM     81  C   UNL A   1      31.587  29.709  25.402  1.00  0.00     0.012 A 
ATOM     82  C   UNL A   1      33.370  28.387  26.359  1.00  0.00     0.012 A 
ATOM     83  C   UNL A   1      31.841  30.724  26.326  1.00  0.00     0.001 A 
ATOM     84  C   UNL A   1      33.628  29.407  27.277  1.00  0.00     0.001 A 
ATOM     85  C   UNL A   1      32.863  30.574  27.262  1.00  0.00     0.000 A 
ENDBRANCH  77  80
ENDBRANCH  68  71
ENDBRANCH  63  67
ENDBRANCH  60  63
ENDBRANCH  58  59
ENDBRANCH   1  58
TORSDOF 16
ENDMDL
