MODEL 1
REMARK VINA RESULT:     -11.7      0.000      0.000
REMARK SMILES C[N@H+]1CCO[C@H](CNC(=O)N2CC[C@@](C)(C(=O)NCCCCNC(=O)c3ccc(-c4c5nc(c(-c6ccccc6)c6ccc([nH]6)c(-c6ccccc6)c6nc(c(-c7ccccc7)c7ccc4[nH]7)C=C6)C=C5)cc3)C2)C1
REMARK SMILES IDX 20 1 19 2 18 3 16 4 17 5 14 7 11 8 12 9 74 10 13 11 15 12
REMARK SMILES IDX 9 13 8 14 10 16 7 17 6 18 1 19 2 20 3 21 75 22 4 24 5 25
REMARK SMILES IDX 21 26 22 27 23 28 24 29 25 31 26 32 27 33 73 34 28 35 72 36
REMARK SMILES IDX 29 37 30 38 31 39 66 40 32 41 71 42 65 43 67 44 33 45 70 46
REMARK SMILES IDX 64 47 63 48 34 50 56 51 41 52 55 53 42 54 45 55 54 56 68 57
REMARK SMILES IDX 43 58 44 59 53 61 69 62 46 63 35 64 36 65 40 66 37 67 39 68
REMARK SMILES IDX 38 69 57 70 58 71 62 72 59 73 61 74 60 75 47 76 48 77 52 78
REMARK SMILES IDX 49 79 51 80 50 81
REMARK H PARENT 18 6 8 15 2 23 23 30 67 49 45 60
REMARK Flexibility Score: inf
ROOT
ATOM      1  C   UNL A   1      37.269  21.218  24.641  1.00  0.00     0.023 C 
ENDROOT
BRANCH   1   2
ATOM      2  C   UNL A   1      36.255  21.606  25.721  1.00  0.00     0.116 C 
BRANCH   2   3
ATOM      3  N   UNL A   1      35.137  20.692  25.736  1.00  0.00    -0.356 N 
ATOM      4  C   UNL A   1      33.805  20.849  25.571  1.00  0.00     0.227 C 
ATOM      5  O   UNL A   1      33.150  19.812  25.751  1.00  0.00    -0.274 OA
ATOM      6  H   UNL A   1      35.400  19.757  25.902  1.00  0.00     0.163 HD
BRANCH   4   7
ATOM      7  C   UNL A   1      33.072  22.133  25.118  1.00  0.00     0.066 C 
ATOM      8  N   UNL A   1      31.247  22.867  26.497  1.00  0.00    -0.324 N 
ATOM      9  C   UNL A   1      32.478  23.295  27.139  1.00  0.00     0.122 C 
ATOM     10  C   UNL A   1      31.543  22.251  25.199  1.00  0.00     0.138 C 
ATOM     11  C   UNL A   1      33.521  23.288  26.035  1.00  0.00     0.040 C 
ATOM     12  C   UNL A   1      33.535  22.396  23.671  1.00  0.00     0.024 C 
BRANCH   8  13
ATOM     13  C   UNL A   1      30.061  23.437  26.876  1.00  0.00     0.317 C 
ATOM     14  N   UNL A   1      29.792  24.731  26.574  1.00  0.00    -0.335 N 
ATOM     15  H   UNL A   1      29.235  25.214  27.227  1.00  0.00     0.165 HD
ATOM     16  O   UNL A   1      29.201  22.815  27.501  1.00  0.00    -0.249 OA
BRANCH  14  17
ATOM     17  C   UNL A   1      30.215  25.500  25.416  1.00  0.00     0.155 C 
BRANCH  17  18
ATOM     18  C   UNL A   1      31.007  26.791  25.734  1.00  0.00     0.192 C 
ATOM     19  C   UNL A   1      32.782  29.105  24.654  1.00  0.00     0.332 C 
ATOM     20  N   UNL A   1      33.234  27.940  25.421  1.00  0.00    -0.333 N 
ATOM     21  C   UNL A   1      33.201  28.204  26.875  1.00  0.00     0.290 C 
ATOM     22  C   UNL A   1      32.434  26.730  25.153  1.00  0.00     0.296 C 
ATOM     23  H   UNL A   1      34.193  27.773  25.115  1.00  0.00     0.348 HD
ATOM     24  C   UNL A   1      31.780  28.216  27.475  1.00  0.00     0.222 C 
ATOM     25  O   UNL A   1      31.028  27.039  27.150  1.00  0.00    -0.365 OA
ENDBRANCH  17  18
ENDBRANCH  14  17
ENDBRANCH   8  13
ENDBRANCH   4   7
ENDBRANCH   2   3
ENDBRANCH   1   2
BRANCH   1  26
ATOM     26  C   UNL A   1      38.097  19.970  24.955  1.00  0.00     0.023 C 
BRANCH  26  27
ATOM     27  C   UNL A   1      39.269  20.204  25.902  1.00  0.00     0.116 C 
BRANCH  27  28
ATOM     28  N   UNL A   1      40.236  19.117  25.913  1.00  0.00    -0.352 N 
ATOM     29  C   UNL A   1      41.592  19.178  26.113  1.00  0.00     0.251 C 
ATOM     30  H   UNL A   1      39.867  18.216  25.756  1.00  0.00     0.163 HD
ATOM     31  O   UNL A   1      42.279  18.168  25.985  1.00  0.00    -0.269 OA
BRANCH  29  32
ATOM     32  C   UNL A   1      42.228  20.471  26.428  1.00  0.00     0.039 A 
ATOM     33  C   UNL A   1      42.745  21.231  25.377  1.00  0.00     0.014 A 
ATOM     34  C   UNL A   1      42.284  20.948  27.740  1.00  0.00     0.014 A 
ATOM     35  C   UNL A   1      43.255  22.504  25.633  1.00  0.00     0.010 A 
ATOM     36  C   UNL A   1      42.720  22.246  27.983  1.00  0.00     0.010 A 
ATOM     37  C   UNL A   1      43.211  23.034  26.933  1.00  0.00    -0.014 A 
BRANCH  37  38
ATOM     38  C   UNL A   1      43.668  24.418  27.203  1.00  0.00     0.031 A 
ATOM     39  C   UNL A   1      42.684  25.476  27.611  1.00  0.00     0.074 A 
ATOM     40  C   UNL A   1      44.965  24.731  27.020  1.00  0.00     0.049 A 
ATOM     41  N   UNL A   1      42.895  26.738  27.880  1.00  0.00    -0.248 NA
ATOM     42  C   UNL A   1      41.272  25.070  27.700  1.00  0.00     0.031 C 
ATOM     43  C   UNL A   1      46.005  23.806  26.563  1.00  0.00     0.029 A 
ATOM     44  N   UNL A   1      45.629  25.919  27.195  1.00  0.00    -0.354 N 
ATOM     45  C   UNL A   1      41.646  27.279  28.154  1.00  0.00     0.074 A 
ATOM     46  C   UNL A   1      40.676  26.223  27.965  1.00  0.00     0.031 C 
ATOM     47  C   UNL A   1      47.181  24.454  26.522  1.00  0.00     0.029 A 
ATOM     48  C   UNL A   1      46.972  25.842  26.919  1.00  0.00     0.049 A 
ATOM     49  H   UNL A   1      45.185  26.746  27.489  1.00  0.00     0.167 HD
ATOM     50  C   UNL A   1      41.336  28.537  28.550  1.00  0.00     0.031 A 
ATOM     51  C   UNL A   1      47.931  26.784  26.983  1.00  0.00     0.031 A 
ATOM     52  C   UNL A   1      42.303  29.582  28.746  1.00  0.00     0.049 A 
ATOM     53  C   UNL A   1      47.567  28.166  27.446  1.00  0.00     0.074 A 
ATOM     54  C   UNL A   1      42.102  30.869  29.209  1.00  0.00     0.029 A 
ATOM     55  N   UNL A   1      43.660  29.457  28.483  1.00  0.00    -0.354 N 
ATOM     56  N   UNL A   1      46.393  28.639  27.791  1.00  0.00    -0.248 NA
ATOM     57  C   UNL A   1      48.663  29.140  27.545  1.00  0.00     0.031 C 
ATOM     58  C   UNL A   1      43.329  31.540  29.181  1.00  0.00     0.029 A 
ATOM     59  C   UNL A   1      44.303  30.652  28.753  1.00  0.00     0.049 A 
ATOM     60  H   UNL A   1      44.099  28.640  28.154  1.00  0.00     0.167 HD
ATOM     61  C   UNL A   1      46.613  29.955  28.172  1.00  0.00     0.074 A 
ATOM     62  C   UNL A   1      48.034  30.201  28.031  1.00  0.00     0.031 C 
ATOM     63  C   UNL A   1      45.718  30.879  28.601  1.00  0.00     0.031 A 
BRANCH  50  64
ATOM     64  C   UNL A   1      39.883  28.844  28.786  1.00  0.00    -0.014 A 
ATOM     65  C   UNL A   1      39.063  29.330  27.755  1.00  0.00     0.009 A 
ATOM     66  C   UNL A   1      39.322  28.632  30.055  1.00  0.00     0.009 A 
ATOM     67  C   UNL A   1      37.724  29.641  28.001  1.00  0.00     0.001 A 
ATOM     68  C   UNL A   1      37.975  28.916  30.290  1.00  0.00     0.001 A 
ATOM     69  C   UNL A   1      37.181  29.431  29.267  1.00  0.00     0.000 A 
ENDBRANCH  50  64
BRANCH  51  70
ATOM     70  C   UNL A   1      49.332  26.439  26.629  1.00  0.00    -0.014 A 
ATOM     71  C   UNL A   1      49.816  26.662  25.331  1.00  0.00     0.009 A 
ATOM     72  C   UNL A   1      50.197  25.897  27.592  1.00  0.00     0.009 A 
ATOM     73  C   UNL A   1      51.131  26.327  24.999  1.00  0.00     0.001 A 
ATOM     74  C   UNL A   1      51.520  25.590  27.265  1.00  0.00     0.001 A 
ATOM     75  C   UNL A   1      51.983  25.797  25.967  1.00  0.00     0.000 A 
ENDBRANCH  51  70
BRANCH  63  76
ATOM     76  C   UNL A   1      46.256  32.231  28.976  1.00  0.00    -0.014 A 
ATOM     77  C   UNL A   1      46.678  32.511  30.284  1.00  0.00     0.009 A 
ATOM     78  C   UNL A   1      46.376  33.225  27.993  1.00  0.00     0.009 A 
ATOM     79  C   UNL A   1      47.180  33.773  30.608  1.00  0.00     0.001 A 
ATOM     80  C   UNL A   1      46.905  34.476  28.312  1.00  0.00     0.001 A 
ATOM     81  C   UNL A   1      47.298  34.752  29.622  1.00  0.00     0.000 A 
ENDBRANCH  63  76
ENDBRANCH  37  38
ENDBRANCH  29  32
ENDBRANCH  27  28
ENDBRANCH  26  27
ENDBRANCH   1  26
TORSDOF 14
ENDMDL
MODEL 2
REMARK VINA RESULT:     -11.5      1.025      6.012
REMARK SMILES C[N@H+]1CCO[C@H](CNC(=O)N2CC[C@@](C)(C(=O)NCCCCNC(=O)c3ccc(-c4c5nc(c(-c6ccccc6)c6ccc([nH]6)c(-c6ccccc6)c6nc(c(-c7ccccc7)c7ccc4[nH]7)C=C6)C=C5)cc3)C2)C1
REMARK SMILES IDX 20 1 19 2 18 3 16 4 17 5 14 7 11 8 12 9 74 10 13 11 15 12
REMARK SMILES IDX 9 13 8 14 10 16 7 17 6 18 1 19 2 20 3 21 75 22 4 24 5 25
REMARK SMILES IDX 21 26 22 27 23 28 24 29 25 31 26 32 27 33 73 34 28 35 72 36
REMARK SMILES IDX 29 37 30 38 31 39 66 40 32 41 71 42 65 43 67 44 33 45 70 46
REMARK SMILES IDX 64 47 63 48 34 50 56 51 41 52 55 53 42 54 45 55 54 56 68 57
REMARK SMILES IDX 43 58 44 59 53 61 69 62 46 63 35 64 36 65 40 66 37 67 39 68
REMARK SMILES IDX 38 69 57 70 58 71 62 72 59 73 61 74 60 75 47 76 48 77 52 78
REMARK SMILES IDX 49 79 51 80 50 81
REMARK H PARENT 18 6 8 15 2 23 23 30 67 49 45 60
REMARK Flexibility Score: inf
ROOT
ATOM      1  C   UNL A   1      37.010  21.044  24.632  1.00  0.00     0.023 C 
ENDROOT
BRANCH   1   2
ATOM      2  C   UNL A   1      35.986  21.357  25.726  1.00  0.00     0.116 C 
BRANCH   2   3
ATOM      3  N   UNL A   1      34.832  20.494  25.621  1.00  0.00    -0.356 N 
ATOM      4  C   UNL A   1      33.524  20.718  25.361  1.00  0.00     0.227 C 
ATOM      5  O   UNL A   1      32.814  19.705  25.450  1.00  0.00    -0.274 OA
ATOM      6  H   UNL A   1      35.041  19.544  25.770  1.00  0.00     0.163 HD
BRANCH   4   7
ATOM      7  C   UNL A   1      32.885  22.049  24.903  1.00  0.00     0.066 C 
ATOM      8  N   UNL A   1      31.234  23.001  26.365  1.00  0.00    -0.324 N 
ATOM      9  C   UNL A   1      32.541  23.332  26.908  1.00  0.00     0.122 C 
ATOM     10  C   UNL A   1      31.382  22.314  25.078  1.00  0.00     0.138 C 
ATOM     11  C   UNL A   1      33.501  23.187  25.739  1.00  0.00     0.040 C 
ATOM     12  C   UNL A   1      33.268  22.214  23.418  1.00  0.00     0.024 C 
BRANCH   8  13
ATOM     13  C   UNL A   1      30.135  23.694  26.797  1.00  0.00     0.317 C 
ATOM     14  N   UNL A   1      29.893  24.950  26.347  1.00  0.00    -0.335 N 
ATOM     15  H   UNL A   1      29.448  25.553  26.985  1.00  0.00     0.165 HD
ATOM     16  O   UNL A   1      29.331  23.221  27.601  1.00  0.00    -0.249 OA
BRANCH  14  17
ATOM     17  C   UNL A   1      30.203  25.525  25.049  1.00  0.00     0.155 C 
BRANCH  17  18
ATOM     18  C   UNL A   1      31.228  26.686  25.068  1.00  0.00     0.192 C 
ATOM     19  C   UNL A   1      31.775  29.683  25.691  1.00  0.00     0.332 C 
ATOM     20  N   UNL A   1      31.599  29.083  24.365  1.00  0.00    -0.333 N 
ATOM     21  C   UNL A   1      32.888  28.624  23.804  1.00  0.00     0.290 C 
ATOM     22  C   UNL A   1      30.665  27.941  24.370  1.00  0.00     0.296 C 
ATOM     23  H   UNL A   1      31.206  29.824  23.784  1.00  0.00     0.348 HD
ATOM     24  C   UNL A   1      33.433  27.340  24.462  1.00  0.00     0.222 C 
ATOM     25  O   UNL A   1      32.474  26.273  24.483  1.00  0.00    -0.365 OA
ENDBRANCH  17  18
ENDBRANCH  14  17
ENDBRANCH   8  13
ENDBRANCH   4   7
ENDBRANCH   2   3
ENDBRANCH   1   2
BRANCH   1  26
ATOM     26  C   UNL A   1      37.934  19.864  24.936  1.00  0.00     0.023 C 
BRANCH  26  27
ATOM     27  C   UNL A   1      39.119  20.197  25.836  1.00  0.00     0.116 C 
BRANCH  27  28
ATOM     28  N   UNL A   1      40.151  19.172  25.846  1.00  0.00    -0.352 N 
ATOM     29  C   UNL A   1      41.489  19.304  26.122  1.00  0.00     0.251 C 
ATOM     30  H   UNL A   1      39.849  18.260  25.625  1.00  0.00     0.163 HD
ATOM     31  O   UNL A   1      42.244  18.346  25.983  1.00  0.00    -0.269 OA
BRANCH  29  32
ATOM     32  C   UNL A   1      42.025  20.615  26.534  1.00  0.00     0.039 A 
ATOM     33  C   UNL A   1      42.408  21.519  25.541  1.00  0.00     0.014 A 
ATOM     34  C   UNL A   1      42.117  20.967  27.884  1.00  0.00     0.014 A 
ATOM     35  C   UNL A   1      42.818  22.803  25.899  1.00  0.00     0.010 A 
ATOM     36  C   UNL A   1      42.450  22.270  28.235  1.00  0.00     0.010 A 
ATOM     37  C   UNL A   1      42.804  23.199  27.247  1.00  0.00    -0.014 A 
BRANCH  37  38
ATOM     38  C   UNL A   1      43.151  24.587  27.632  1.00  0.00     0.031 A 
ATOM     39  C   UNL A   1      44.585  25.033  27.653  1.00  0.00     0.074 A 
ATOM     40  C   UNL A   1      42.173  25.428  28.021  1.00  0.00     0.049 A 
ATOM     41  N   UNL A   1      45.080  26.201  27.970  1.00  0.00    -0.248 NA
ATOM     42  C   UNL A   1      45.598  24.025  27.299  1.00  0.00     0.031 C 
ATOM     43  C   UNL A   1      40.750  25.092  28.106  1.00  0.00     0.029 A 
ATOM     44  N   UNL A   1      42.231  26.738  28.422  1.00  0.00    -0.354 N 
ATOM     45  C   UNL A   1      46.459  26.066  27.869  1.00  0.00     0.074 A 
ATOM     46  C   UNL A   1      46.724  24.688  27.517  1.00  0.00     0.031 C 
ATOM     47  C   UNL A   1      40.066  26.177  28.503  1.00  0.00     0.029 A 
ATOM     48  C   UNL A   1      41.003  27.272  28.729  1.00  0.00     0.049 A 
ATOM     49  H   UNL A   1      43.071  27.248  28.483  1.00  0.00     0.167 HD
ATOM     50  C   UNL A   1      47.417  27.008  28.034  1.00  0.00     0.031 A 
ATOM     51  C   UNL A   1      40.668  28.508  29.144  1.00  0.00     0.031 A 
ATOM     52  C   UNL A   1      47.149  28.379  28.375  1.00  0.00     0.049 A 
ATOM     53  C   UNL A   1      41.746  29.544  29.298  1.00  0.00     0.074 A 
ATOM     54  C   UNL A   1      48.041  29.428  28.499  1.00  0.00     0.029 A 
ATOM     55  N   UNL A   1      45.889  28.888  28.651  1.00  0.00    -0.354 N 
ATOM     56  N   UNL A   1      43.039  29.424  29.110  1.00  0.00    -0.248 NA
ATOM     57  C   UNL A   1      41.316  30.889  29.705  1.00  0.00     0.031 C 
ATOM     58  C   UNL A   1      47.328  30.563  28.898  1.00  0.00     0.029 A 
ATOM     59  C   UNL A   1      45.984  30.232  28.968  1.00  0.00     0.049 A 
ATOM     60  H   UNL A   1      45.052  28.371  28.626  1.00  0.00     0.167 HD
ATOM     61  C   UNL A   1      43.574  30.682  29.350  1.00  0.00     0.074 A 
ATOM     62  C   UNL A   1      42.464  31.553  29.681  1.00  0.00     0.031 C 
ATOM     63  C   UNL A   1      44.868  31.082  29.300  1.00  0.00     0.031 A 
BRANCH  50  64
ATOM     64  C   UNL A   1      48.845  26.575  27.852  1.00  0.00    -0.014 A 
ATOM     65  C   UNL A   1      49.477  26.649  26.600  1.00  0.00     0.009 A 
ATOM     66  C   UNL A   1      49.575  26.096  28.952  1.00  0.00     0.009 A 
ATOM     67  C   UNL A   1      50.793  26.211  26.443  1.00  0.00     0.001 A 
ATOM     68  C   UNL A   1      50.901  25.687  28.798  1.00  0.00     0.001 A 
ATOM     69  C   UNL A   1      51.505  25.734  27.542  1.00  0.00     0.000 A 
ENDBRANCH  50  64
BRANCH  51  70
ATOM     70  C   UNL A   1      39.245  28.839  29.412  1.00  0.00    -0.014 A 
ATOM     71  C   UNL A   1      38.421  29.327  28.388  1.00  0.00     0.009 A 
ATOM     72  C   UNL A   1      38.700  28.653  30.692  1.00  0.00     0.009 A 
ATOM     73  C   UNL A   1      37.086  29.647  28.646  1.00  0.00     0.001 A 
ATOM     74  C   UNL A   1      37.357  28.947  30.940  1.00  0.00     0.001 A 
ATOM     75  C   UNL A   1      36.554  29.451  29.919  1.00  0.00     0.000 A 
ENDBRANCH  51  70
BRANCH  63  76
ATOM     76  C   UNL A   1      45.149  32.530  29.583  1.00  0.00    -0.014 A 
ATOM     77  C   UNL A   1      45.127  33.490  28.560  1.00  0.00     0.009 A 
ATOM     78  C   UNL A   1      45.402  32.943  30.900  1.00  0.00     0.009 A 
ATOM     79  C   UNL A   1      45.385  34.833  28.847  1.00  0.00     0.001 A 
ATOM     80  C   UNL A   1      45.631  34.288  31.189  1.00  0.00     0.001 A 
ATOM     81  C   UNL A   1      45.632  35.231  30.161  1.00  0.00     0.000 A 
ENDBRANCH  63  76
ENDBRANCH  37  38
ENDBRANCH  29  32
ENDBRANCH  27  28
ENDBRANCH  26  27
ENDBRANCH   1  26
TORSDOF 14
ENDMDL
MODEL 3
REMARK VINA RESULT:     -11.4      5.060      9.854
REMARK SMILES C[N@H+]1CCO[C@H](CNC(=O)N2CC[C@@](C)(C(=O)NCCCCNC(=O)c3ccc(-c4c5nc(c(-c6ccccc6)c6ccc([nH]6)c(-c6ccccc6)c6nc(c(-c7ccccc7)c7ccc4[nH]7)C=C6)C=C5)cc3)C2)C1
REMARK SMILES IDX 20 1 19 2 18 3 16 4 17 5 14 7 11 8 12 9 74 10 13 11 15 12
REMARK SMILES IDX 9 13 8 14 10 16 7 17 6 18 1 19 2 20 3 21 75 22 4 24 5 25
REMARK SMILES IDX 21 26 22 27 23 28 24 29 25 31 26 32 27 33 73 34 28 35 72 36
REMARK SMILES IDX 29 37 30 38 31 39 66 40 32 41 71 42 65 43 67 44 33 45 70 46
REMARK SMILES IDX 64 47 63 48 34 50 56 51 41 52 55 53 42 54 45 55 54 56 68 57
REMARK SMILES IDX 43 58 44 59 53 61 69 62 46 63 35 64 36 65 40 66 37 67 39 68
REMARK SMILES IDX 38 69 57 70 58 71 62 72 59 73 61 74 60 75 47 76 48 77 52 78
REMARK SMILES IDX 49 79 51 80 50 81
REMARK H PARENT 18 6 8 15 2 23 23 30 67 49 45 60
REMARK Flexibility Score: inf
ROOT
ATOM      1  C   UNL A   1      31.667  30.479  26.821  1.00  0.00     0.023 C 
ENDROOT
BRANCH   1   2
ATOM      2  C   UNL A   1      32.479  29.917  25.651  1.00  0.00     0.116 C 
BRANCH   2   3
ATOM      3  N   UNL A   1      31.694  29.891  24.439  1.00  0.00    -0.356 N 
ATOM      4  C   UNL A   1      31.341  28.909  23.580  1.00  0.00     0.227 C 
ATOM      5  O   UNL A   1      30.723  29.311  22.583  1.00  0.00    -0.274 OA
ATOM      6  H   UNL A   1      31.344  30.776  24.183  1.00  0.00     0.163 HD
BRANCH   4   7
ATOM      7  C   UNL A   1      31.559  27.390  23.769  1.00  0.00     0.066 C 
ATOM      8  N   UNL A   1      32.530  26.210  21.916  1.00  0.00    -0.324 N 
ATOM      9  C   UNL A   1      33.610  26.877  22.622  1.00  0.00     0.122 C 
ATOM     10  C   UNL A   1      31.267  26.395  22.637  1.00  0.00     0.138 C 
ATOM     11  C   UNL A   1      33.062  27.150  24.012  1.00  0.00     0.040 C 
ATOM     12  C   UNL A   1      30.751  26.999  25.023  1.00  0.00     0.024 C 
BRANCH   8  13
ATOM     13  C   UNL A   1      32.827  25.203  21.036  1.00  0.00     0.317 C 
ATOM     14  N   UNL A   1      33.107  23.956  21.488  1.00  0.00    -0.335 N 
ATOM     15  H   UNL A   1      33.750  23.442  20.948  1.00  0.00     0.165 HD
ATOM     16  O   UNL A   1      32.856  25.379  19.818  1.00  0.00    -0.249 OA
BRANCH  14  17
ATOM     17  C   UNL A   1      32.585  23.277  22.662  1.00  0.00     0.155 C 
BRANCH  17  18
ATOM     18  C   UNL A   1      33.637  22.914  23.738  1.00  0.00     0.192 C 
ATOM     19  C   UNL A   1      35.987  23.880  25.531  1.00  0.00     0.332 C 
ATOM     20  N   UNL A   1      36.091  23.065  24.316  1.00  0.00    -0.333 N 
ATOM     21  C   UNL A   1      36.015  21.622  24.625  1.00  0.00     0.290 C 
ATOM     22  C   UNL A   1      35.047  23.380  23.322  1.00  0.00     0.296 C 
ATOM     23  H   UNL A   1      37.001  23.293  23.918  1.00  0.00     0.348 HD
ATOM     24  C   UNL A   1      34.597  21.135  24.992  1.00  0.00     0.222 C 
ATOM     25  O   UNL A   1      33.612  21.504  24.017  1.00  0.00    -0.365 OA
ENDBRANCH  17  18
ENDBRANCH  14  17
ENDBRANCH   8  13
ENDBRANCH   4   7
ENDBRANCH   2   3
ENDBRANCH   1   2
BRANCH   1  26
ATOM     26  C   UNL A   1      31.446  31.993  26.781  1.00  0.00     0.023 C 
BRANCH  26  27
ATOM     27  C   UNL A   1      32.666  32.825  27.162  1.00  0.00     0.116 C 
BRANCH  27  28
ATOM     28  N   UNL A   1      32.338  34.173  27.603  1.00  0.00    -0.352 N 
ATOM     29  C   UNL A   1      32.971  34.945  28.544  1.00  0.00     0.251 C 
ATOM     30  H   UNL A   1      31.556  34.585  27.167  1.00  0.00     0.163 HD
ATOM     31  O   UNL A   1      32.497  36.029  28.871  1.00  0.00    -0.269 OA
BRANCH  29  32
ATOM     32  C   UNL A   1      34.195  34.443  29.198  1.00  0.00     0.039 A 
ATOM     33  C   UNL A   1      34.070  33.776  30.419  1.00  0.00     0.014 A 
ATOM     34  C   UNL A   1      35.449  34.597  28.602  1.00  0.00     0.014 A 
ATOM     35  C   UNL A   1      35.195  33.200  31.007  1.00  0.00     0.010 A 
ATOM     36  C   UNL A   1      36.555  33.956  29.148  1.00  0.00     0.010 A 
ATOM     37  C   UNL A   1      36.438  33.253  30.355  1.00  0.00    -0.014 A 
BRANCH  37  38
ATOM     38  C   UNL A   1      37.623  32.569  30.926  1.00  0.00     0.031 A 
ATOM     39  C   UNL A   1      38.233  33.052  32.209  1.00  0.00     0.074 A 
ATOM     40  C   UNL A   1      38.181  31.545  30.252  1.00  0.00     0.049 A 
ATOM     41  N   UNL A   1      39.272  32.588  32.855  1.00  0.00    -0.248 NA
ATOM     42  C   UNL A   1      37.614  34.232  32.836  1.00  0.00     0.031 C 
ATOM     43  C   UNL A   1      37.718  31.026  28.962  1.00  0.00     0.029 A 
ATOM     44  N   UNL A   1      39.264  30.761  30.557  1.00  0.00    -0.354 N 
ATOM     45  C   UNL A   1      39.440  33.424  33.950  1.00  0.00     0.074 A 
ATOM     46  C   UNL A   1      38.432  34.457  33.853  1.00  0.00     0.031 C 
ATOM     47  C   UNL A   1      38.494  29.990  28.603  1.00  0.00     0.029 A 
ATOM     48  C   UNL A   1      39.524  29.793  29.617  1.00  0.00     0.049 A 
ATOM     49  H   UNL A   1      39.804  30.880  31.372  1.00  0.00     0.167 HD
ATOM     50  C   UNL A   1      40.338  33.328  34.959  1.00  0.00     0.031 A 
ATOM     51  C   UNL A   1      40.482  28.850  29.579  1.00  0.00     0.031 A 
ATOM     52  C   UNL A   1      41.333  32.295  35.057  1.00  0.00     0.049 A 
ATOM     53  C   UNL A   1      41.454  28.749  30.720  1.00  0.00     0.074 A 
ATOM     54  C   UNL A   1      42.246  32.068  36.072  1.00  0.00     0.029 A 
ATOM     55  N   UNL A   1      41.546  31.315  34.099  1.00  0.00    -0.354 N 
ATOM     56  N   UNL A   1      41.543  29.492  31.797  1.00  0.00    -0.248 NA
ATOM     57  C   UNL A   1      42.447  27.668  30.649  1.00  0.00     0.031 C 
ATOM     58  C   UNL A   1      43.045  30.980  35.704  1.00  0.00     0.029 A 
ATOM     59  C   UNL A   1      42.592  30.495  34.488  1.00  0.00     0.049 A 
ATOM     60  H   UNL A   1      41.031  31.217  33.266  1.00  0.00     0.167 HD
ATOM     61  C   UNL A   1      42.582  28.954  32.543  1.00  0.00     0.074 A 
ATOM     62  C   UNL A   1      43.082  27.813  31.803  1.00  0.00     0.031 C 
ATOM     63  C   UNL A   1      43.079  29.368  33.735  1.00  0.00     0.031 A 
BRANCH  50  64
ATOM     64  C   UNL A   1      40.283  34.382  36.030  1.00  0.00    -0.014 A 
ATOM     65  C   UNL A   1      41.014  35.576  35.918  1.00  0.00     0.009 A 
ATOM     66  C   UNL A   1      39.479  34.184  37.163  1.00  0.00     0.009 A 
ATOM     67  C   UNL A   1      40.977  36.529  36.937  1.00  0.00     0.001 A 
ATOM     68  C   UNL A   1      39.420  35.153  38.168  1.00  0.00     0.001 A 
ATOM     69  C   UNL A   1      40.178  36.318  38.060  1.00  0.00     0.000 A 
ENDBRANCH  50  64
BRANCH  51  70
ATOM     70  C   UNL A   1      40.547  27.907  28.433  1.00  0.00    -0.014 A 
ATOM     71  C   UNL A   1      39.879  26.675  28.483  1.00  0.00     0.009 A 
ATOM     72  C   UNL A   1      41.267  28.243  27.274  1.00  0.00     0.009 A 
ATOM     73  C   UNL A   1      39.951  25.787  27.407  1.00  0.00     0.001 A 
ATOM     74  C   UNL A   1      41.314  27.365  26.189  1.00  0.00     0.001 A 
ATOM     75  C   UNL A   1      40.662  26.135  26.259  1.00  0.00     0.000 A 
ENDBRANCH  51  70
BRANCH  63  76
ATOM     76  C   UNL A   1      44.202  28.563  34.325  1.00  0.00    -0.014 A 
ATOM     77  C   UNL A   1      45.543  28.905  34.096  1.00  0.00     0.009 A 
ATOM     78  C   UNL A   1      43.909  27.469  35.154  1.00  0.00     0.009 A 
ATOM     79  C   UNL A   1      46.571  28.145  34.659  1.00  0.00     0.001 A 
ATOM     80  C   UNL A   1      44.937  26.729  35.740  1.00  0.00     0.001 A 
ATOM     81  C   UNL A   1      46.267  27.062  35.484  1.00  0.00     0.000 A 
ENDBRANCH  63  76
ENDBRANCH  37  38
ENDBRANCH  29  32
ENDBRANCH  27  28
ENDBRANCH  26  27
ENDBRANCH   1  26
TORSDOF 14
ENDMDL
