MODEL 1
REMARK VINA RESULT:     -10.8      0.000      0.000
REMARK SMILES CC(C)N(CCCC(=O)NCCCCNC(=O)c1ccc(-c2c3nc(c(-c4ccccc4)c4ccc([nH]4)c(-c4ccccc4)c4nc(c(-c5ccccc5)c5ccc2[nH]5)C=C4)C=C3)cc1)c1cc(Cl)c(Cl)cc1[N+](=O)[O-]
REMARK SMILES IDX 11 1 10 2 8 3 9 4 7 6 6 7 5 8 4 9 2 10 1 11 3 12 66 13 67 14
REMARK SMILES IDX 73 15 68 16 72 17 69 18 70 19 71 20 74 21 75 22 76 23 12 24
REMARK SMILES IDX 13 25 14 26 15 27 16 28 17 30 18 31 19 32 65 33 20 34 64 35
REMARK SMILES IDX 21 36 22 37 23 38 58 39 24 40 63 41 57 42 59 43 25 44 62 45
REMARK SMILES IDX 56 46 55 47 26 49 48 50 33 51 47 52 34 53 37 54 46 55 60 56
REMARK SMILES IDX 35 57 36 58 45 60 61 61 38 62 27 63 28 64 32 65 29 66 31 67
REMARK SMILES IDX 30 68 49 69 50 70 54 71 51 72 53 73 52 74 39 75 40 76 44 77
REMARK SMILES IDX 41 78 43 79 42 80
REMARK H PARENT 10 5 15 29 59 48 37 59
REMARK Flexibility Score: inf
ROOT
ATOM      1  C   UNL A   1      35.127  20.644  25.220  1.00  0.00     0.116 C 
ENDROOT
BRANCH   1   2
ATOM      2  N   UNL A   1      34.158  19.570  25.244  1.00  0.00    -0.356 N 
ATOM      3  C   UNL A   1      32.819  19.630  24.999  1.00  0.00     0.220 C 
ATOM      4  O   UNL A   1      32.118  18.667  25.308  1.00  0.00    -0.275 OA
ATOM      5  H   UNL A   1      34.512  18.679  25.466  1.00  0.00     0.163 HD
BRANCH   3   6
ATOM      6  C   UNL A   1      32.236  20.842  24.299  1.00  0.00     0.102 C 
BRANCH   6   7
ATOM      7  C   UNL A   1      31.818  22.004  25.205  1.00  0.00     0.031 C 
BRANCH   7   8
ATOM      8  C   UNL A   1      31.630  23.398  24.589  1.00  0.00     0.117 C 
BRANCH   8   9
ATOM      9  N   UNL A   1      32.753  24.380  24.626  1.00  0.00    -0.364 N 
BRANCH   9  10
ATOM     10  C   UNL A   1      34.120  23.788  24.538  1.00  0.00     0.076 C 
ATOM     11  C   UNL A   1      34.603  23.531  23.114  1.00  0.00     0.030 C 
ATOM     12  C   UNL A   1      35.141  24.580  25.346  1.00  0.00     0.030 C 
ENDBRANCH   9  10
BRANCH   9  13
ATOM     13  C   UNL A   1      32.529  25.748  24.682  1.00  0.00     0.117 A 
ATOM     14  C   UNL A   1      32.286  26.314  25.951  1.00  0.00     0.055 A 
ATOM     15  C   UNL A   1      32.479  26.666  23.612  1.00  0.00     0.294 A 
ATOM     16  C   UNL A   1      31.874  27.646  26.130  1.00  0.00     0.062 A 
ATOM     17  C   UNL A   1      32.101  28.015  23.773  1.00  0.00     0.110 A 
ATOM     18  Cl  UNL A   1      31.451  28.147  27.728  1.00  0.00    -0.083 Cl
ATOM     19  C   UNL A   1      31.766  28.494  25.032  1.00  0.00     0.066 A 
ATOM     20  Cl  UNL A   1      31.208  30.122  25.152  1.00  0.00    -0.082 Cl
BRANCH  15  21
ATOM     21  N   UNL A   1      32.743  26.298  22.239  1.00  0.00     0.065 N 
ATOM     22  O   UNL A   1      33.736  26.814  21.708  1.00  0.00    -0.258 OA
ATOM     23  O   UNL A   1      31.908  25.590  21.666  1.00  0.00    -0.258 OA
ENDBRANCH  15  21
ENDBRANCH   9  13
ENDBRANCH   8   9
ENDBRANCH   7   8
ENDBRANCH   6   7
ENDBRANCH   3   6
ENDBRANCH   1   2
BRANCH   1  24
ATOM     24  C   UNL A   1      36.508  20.084  24.867  1.00  0.00     0.023 C 
BRANCH  24  25
ATOM     25  C   UNL A   1      37.589  21.146  24.765  1.00  0.00     0.023 C 
BRANCH  25  26
ATOM     26  C   UNL A   1      38.647  21.048  25.856  1.00  0.00     0.116 C 
BRANCH  26  27
ATOM     27  N   UNL A   1      39.554  19.918  25.707  1.00  0.00    -0.352 N 
ATOM     28  C   UNL A   1      40.902  19.873  25.973  1.00  0.00     0.251 C 
ATOM     29  H   UNL A   1      39.150  19.083  25.375  1.00  0.00     0.163 HD
ATOM     30  O   UNL A   1      41.579  18.881  25.720  1.00  0.00    -0.269 OA
BRANCH  28  31
ATOM     31  C   UNL A   1      41.531  21.074  26.550  1.00  0.00     0.039 A 
ATOM     32  C   UNL A   1      41.971  22.087  25.699  1.00  0.00     0.014 A 
ATOM     33  C   UNL A   1      41.576  21.232  27.938  1.00  0.00     0.014 A 
ATOM     34  C   UNL A   1      42.372  23.304  26.245  1.00  0.00     0.010 A 
ATOM     35  C   UNL A   1      41.881  22.475  28.472  1.00  0.00     0.010 A 
ATOM     36  C   UNL A   1      42.280  23.523  27.632  1.00  0.00    -0.014 A 
BRANCH  36  37
ATOM     37  C   UNL A   1      42.580  24.852  28.212  1.00  0.00     0.031 A 
ATOM     38  C   UNL A   1      43.980  25.190  28.642  1.00  0.00     0.074 A 
ATOM     39  C   UNL A   1      41.577  25.729  28.408  1.00  0.00     0.049 A 
ATOM     40  N   UNL A   1      44.434  26.302  29.159  1.00  0.00    -0.248 NA
ATOM     41  C   UNL A   1      44.994  24.133  28.503  1.00  0.00     0.031 C 
ATOM     42  C   UNL A   1      40.162  25.487  28.103  1.00  0.00     0.029 A 
ATOM     43  N   UNL A   1      41.594  27.008  28.903  1.00  0.00    -0.354 N 
ATOM     44  C   UNL A   1      45.778  26.071  29.422  1.00  0.00     0.074 A 
ATOM     45  C   UNL A   1      46.052  24.697  29.065  1.00  0.00     0.031 C 
ATOM     46  C   UNL A   1      39.459  26.599  28.372  1.00  0.00     0.029 A 
ATOM     47  C   UNL A   1      40.364  27.618  28.892  1.00  0.00     0.049 A 
ATOM     48  H   UNL A   1      42.410  27.446  29.236  1.00  0.00     0.167 HD
ATOM     49  C   UNL A   1      46.710  26.933  29.893  1.00  0.00     0.031 A 
ATOM     50  C   UNL A   1      40.008  28.866  29.246  1.00  0.00     0.031 A 
ATOM     51  C   UNL A   1      46.440  28.305  30.227  1.00  0.00     0.049 A 
ATOM     52  C   UNL A   1      41.067  29.816  29.731  1.00  0.00     0.074 A 
ATOM     53  C   UNL A   1      47.327  29.282  30.643  1.00  0.00     0.029 A 
ATOM     54  N   UNL A   1      45.186  28.893  30.181  1.00  0.00    -0.354 N 
ATOM     55  N   UNL A   1      42.353  29.610  29.886  1.00  0.00    -0.248 NA
ATOM     56  C   UNL A   1      40.626  31.175  30.072  1.00  0.00     0.031 C 
ATOM     57  C   UNL A   1      46.600  30.452  30.888  1.00  0.00     0.029 A 
ATOM     58  C   UNL A   1      45.270  30.216  30.579  1.00  0.00     0.049 A 
ATOM     59  H   UNL A   1      44.358  28.437  29.906  1.00  0.00     0.167 HD
ATOM     60  C   UNL A   1      42.878  30.820  30.319  1.00  0.00     0.074 A 
ATOM     61  C   UNL A   1      41.775  31.758  30.381  1.00  0.00     0.031 C 
ATOM     62  C   UNL A   1      44.159  31.129  30.639  1.00  0.00     0.031 A 
BRANCH  49  63
ATOM     63  C   UNL A   1      48.105  26.405  30.070  1.00  0.00    -0.014 A 
ATOM     64  C   UNL A   1      48.519  25.838  31.288  1.00  0.00     0.009 A 
ATOM     65  C   UNL A   1      49.016  26.461  29.005  1.00  0.00     0.009 A 
ATOM     66  C   UNL A   1      49.827  25.378  31.447  1.00  0.00     0.001 A 
ATOM     67  C   UNL A   1      50.315  25.974  29.157  1.00  0.00     0.001 A 
ATOM     68  C   UNL A   1      50.722  25.442  30.380  1.00  0.00     0.000 A 
ENDBRANCH  49  63
BRANCH  50  69
ATOM     69  C   UNL A   1      38.597  29.311  29.106  1.00  0.00    -0.014 A 
ATOM     70  C   UNL A   1      37.733  29.279  30.212  1.00  0.00     0.009 A 
ATOM     71  C   UNL A   1      38.106  29.761  27.873  1.00  0.00     0.009 A 
ATOM     72  C   UNL A   1      36.396  29.663  30.077  1.00  0.00     0.001 A 
ATOM     73  C   UNL A   1      36.776  30.169  27.747  1.00  0.00     0.001 A 
ATOM     74  C   UNL A   1      35.920  30.110  28.846  1.00  0.00     0.000 A 
ENDBRANCH  50  69
BRANCH  62  75
ATOM     75  C   UNL A   1      44.431  32.544  31.058  1.00  0.00    -0.014 A 
ATOM     76  C   UNL A   1      44.398  32.923  32.408  1.00  0.00     0.009 A 
ATOM     77  C   UNL A   1      44.742  33.508  30.085  1.00  0.00     0.009 A 
ATOM     78  C   UNL A   1      44.631  34.249  32.774  1.00  0.00     0.001 A 
ATOM     79  C   UNL A   1      45.003  34.827  30.457  1.00  0.00     0.001 A 
ATOM     80  C   UNL A   1      44.936  35.199  31.800  1.00  0.00     0.000 A 
ENDBRANCH  62  75
ENDBRANCH  36  37
ENDBRANCH  28  31
ENDBRANCH  26  27
ENDBRANCH  25  26
ENDBRANCH  24  25
ENDBRANCH   1  24
TORSDOF 17
ENDMDL
MODEL 2
REMARK VINA RESULT:     -10.7      0.449      5.913
REMARK SMILES CC(C)N(CCCC(=O)NCCCCNC(=O)c1ccc(-c2c3nc(c(-c4ccccc4)c4ccc([nH]4)c(-c4ccccc4)c4nc(c(-c5ccccc5)c5ccc2[nH]5)C=C4)C=C3)cc1)c1cc(Cl)c(Cl)cc1[N+](=O)[O-]
REMARK SMILES IDX 11 1 10 2 8 3 9 4 7 6 6 7 5 8 4 9 2 10 1 11 3 12 66 13 67 14
REMARK SMILES IDX 73 15 68 16 72 17 69 18 70 19 71 20 74 21 75 22 76 23 12 24
REMARK SMILES IDX 13 25 14 26 15 27 16 28 17 30 18 31 19 32 65 33 20 34 64 35
REMARK SMILES IDX 21 36 22 37 23 38 58 39 24 40 63 41 57 42 59 43 25 44 62 45
REMARK SMILES IDX 56 46 55 47 26 49 48 50 33 51 47 52 34 53 37 54 46 55 60 56
REMARK SMILES IDX 35 57 36 58 45 60 61 61 38 62 27 63 28 64 32 65 29 66 31 67
REMARK SMILES IDX 30 68 49 69 50 70 54 71 51 72 53 73 52 74 39 75 40 76 44 77
REMARK SMILES IDX 41 78 43 79 42 80
REMARK H PARENT 10 5 15 29 59 48 37 59
REMARK Flexibility Score: inf
ROOT
ATOM      1  C   UNL A   1      35.150  20.701  25.099  1.00  0.00     0.116 C 
ENDROOT
BRANCH   1   2
ATOM      2  N   UNL A   1      34.208  19.612  25.236  1.00  0.00    -0.356 N 
ATOM      3  C   UNL A   1      32.856  19.634  25.063  1.00  0.00     0.220 C 
ATOM      4  O   UNL A   1      32.194  18.678  25.463  1.00  0.00    -0.275 OA
ATOM      5  H   UNL A   1      34.593  18.742  25.488  1.00  0.00     0.163 HD
BRANCH   3   6
ATOM      6  C   UNL A   1      32.211  20.793  24.329  1.00  0.00     0.102 C 
BRANCH   6   7
ATOM      7  C   UNL A   1      31.809  21.993  25.191  1.00  0.00     0.031 C 
BRANCH   7   8
ATOM      8  C   UNL A   1      31.613  23.360  24.520  1.00  0.00     0.117 C 
BRANCH   8   9
ATOM      9  N   UNL A   1      32.728  24.353  24.525  1.00  0.00    -0.364 N 
BRANCH   9  10
ATOM     10  C   UNL A   1      34.098  23.773  24.400  1.00  0.00     0.076 C 
ATOM     11  C   UNL A   1      34.516  23.453  22.969  1.00  0.00     0.030 C 
ATOM     12  C   UNL A   1      35.144  24.616  25.119  1.00  0.00     0.030 C 
ENDBRANCH   9  10
BRANCH   9  13
ATOM     13  C   UNL A   1      32.493  25.718  24.588  1.00  0.00     0.117 A 
ATOM     14  C   UNL A   1      32.264  26.280  25.861  1.00  0.00     0.055 A 
ATOM     15  C   UNL A   1      32.419  26.638  23.520  1.00  0.00     0.294 A 
ATOM     16  C   UNL A   1      31.843  27.609  26.048  1.00  0.00     0.062 A 
ATOM     17  C   UNL A   1      32.032  27.984  23.688  1.00  0.00     0.110 A 
ATOM     18  Cl  UNL A   1      31.439  28.104  27.653  1.00  0.00    -0.083 Cl
ATOM     19  C   UNL A   1      31.711  28.458  24.953  1.00  0.00     0.066 A 
ATOM     20  Cl  UNL A   1      31.140  30.080  25.084  1.00  0.00    -0.082 Cl
BRANCH  15  21
ATOM     21  N   UNL A   1      32.666  26.274  22.143  1.00  0.00     0.065 N 
ATOM     22  O   UNL A   1      31.750  25.689  21.550  1.00  0.00    -0.258 OA
ATOM     23  O   UNL A   1      33.802  26.470  21.695  1.00  0.00    -0.258 OA
ENDBRANCH  15  21
ENDBRANCH   9  13
ENDBRANCH   8   9
ENDBRANCH   7   8
ENDBRANCH   6   7
ENDBRANCH   3   6
ENDBRANCH   1   2
BRANCH   1  24
ATOM     24  C   UNL A   1      36.572  20.142  24.996  1.00  0.00     0.023 C 
BRANCH  24  25
ATOM     25  C   UNL A   1      37.634  21.208  24.794  1.00  0.00     0.023 C 
BRANCH  25  26
ATOM     26  C   UNL A   1      38.746  21.168  25.834  1.00  0.00     0.116 C 
BRANCH  26  27
ATOM     27  N   UNL A   1      39.581  19.976  25.768  1.00  0.00    -0.352 N 
ATOM     28  C   UNL A   1      40.917  19.860  26.070  1.00  0.00     0.251 C 
ATOM     29  H   UNL A   1      39.131  19.152  25.472  1.00  0.00     0.163 HD
ATOM     30  O   UNL A   1      41.534  18.815  25.888  1.00  0.00    -0.269 OA
BRANCH  28  31
ATOM     31  C   UNL A   1      41.610  21.048  26.597  1.00  0.00     0.039 A 
ATOM     32  C   UNL A   1      42.157  21.969  25.705  1.00  0.00     0.014 A 
ATOM     33  C   UNL A   1      41.611  21.295  27.973  1.00  0.00     0.014 A 
ATOM     34  C   UNL A   1      42.626  23.188  26.191  1.00  0.00     0.010 A 
ATOM     35  C   UNL A   1      41.986  22.545  28.441  1.00  0.00     0.010 A 
ATOM     36  C   UNL A   1      42.495  23.504  27.555  1.00  0.00    -0.014 A 
BRANCH  36  37
ATOM     37  C   UNL A   1      42.869  24.844  28.064  1.00  0.00     0.031 A 
ATOM     38  C   UNL A   1      41.812  25.888  28.290  1.00  0.00     0.074 A 
ATOM     39  C   UNL A   1      44.168  25.137  28.261  1.00  0.00     0.049 A 
ATOM     40  N   UNL A   1      41.946  27.109  28.739  1.00  0.00    -0.248 NA
ATOM     41  C   UNL A   1      40.429  25.525  27.937  1.00  0.00     0.031 C 
ATOM     42  C   UNL A   1      45.294  24.232  28.003  1.00  0.00     0.029 A 
ATOM     43  N   UNL A   1      44.764  26.278  28.735  1.00  0.00    -0.354 N 
ATOM     44  C   UNL A   1      40.673  27.662  28.706  1.00  0.00     0.074 A 
ATOM     45  C   UNL A   1      39.791  26.668  28.136  1.00  0.00     0.031 C 
ATOM     46  C   UNL A   1      46.435  24.837  28.368  1.00  0.00     0.029 A 
ATOM     47  C   UNL A   1      46.128  26.176  28.858  1.00  0.00     0.049 A 
ATOM     48  H   UNL A   1      44.261  27.093  28.964  1.00  0.00     0.167 HD
ATOM     49  C   UNL A   1      40.266  28.880  29.134  1.00  0.00     0.031 A 
ATOM     50  C   UNL A   1      47.027  27.058  29.329  1.00  0.00     0.031 A 
ATOM     51  C   UNL A   1      41.141  29.859  29.720  1.00  0.00     0.049 A 
ATOM     52  C   UNL A   1      46.547  28.390  29.834  1.00  0.00     0.074 A 
ATOM     53  C   UNL A   1      40.819  31.094  30.254  1.00  0.00     0.029 A 
ATOM     54  N   UNL A   1      42.513  29.711  29.849  1.00  0.00    -0.354 N 
ATOM     55  N   UNL A   1      45.325  28.863  29.881  1.00  0.00    -0.248 NA
ATOM     56  C   UNL A   1      47.570  29.300  30.367  1.00  0.00     0.031 C 
ATOM     57  C   UNL A   1      42.004  31.711  30.669  1.00  0.00     0.029 A 
ATOM     58  C   UNL A   1      43.057  30.839  30.437  1.00  0.00     0.049 A 
ATOM     59  H   UNL A   1      43.024  28.919  29.563  1.00  0.00     0.167 HD
ATOM     60  C   UNL A   1      45.429  30.116  30.471  1.00  0.00     0.074 A 
ATOM     61  C   UNL A   1      46.831  30.317  30.783  1.00  0.00     0.031 C 
ATOM     62  C   UNL A   1      44.454  31.021  30.732  1.00  0.00     0.031 A 
BRANCH  49  63
ATOM     63  C   UNL A   1      38.808  29.210  28.982  1.00  0.00    -0.014 A 
ATOM     64  C   UNL A   1      38.298  29.702  27.768  1.00  0.00     0.009 A 
ATOM     65  C   UNL A   1      37.930  29.015  30.058  1.00  0.00     0.009 A 
ATOM     66  C   UNL A   1      36.946  30.031  27.651  1.00  0.00     0.001 A 
ATOM     67  C   UNL A   1      36.573  29.318  29.929  1.00  0.00     0.001 A 
ATOM     68  C   UNL A   1      36.085  29.834  28.729  1.00  0.00     0.000 A 
ENDBRANCH  49  63
BRANCH  50  69
ATOM     69  C   UNL A   1      48.466  26.696  29.397  1.00  0.00    -0.014 A 
ATOM     70  C   UNL A   1      49.331  27.030  28.342  1.00  0.00     0.009 A 
ATOM     71  C   UNL A   1      48.982  26.012  30.507  1.00  0.00     0.009 A 
ATOM     72  C   UNL A   1      50.677  26.660  28.386  1.00  0.00     0.001 A 
ATOM     73  C   UNL A   1      50.335  25.666  30.559  1.00  0.00     0.001 A 
ATOM     74  C   UNL A   1      51.178  25.981  29.495  1.00  0.00     0.000 A 
ENDBRANCH  50  69
BRANCH  62  75
ATOM     75  C   UNL A   1      44.873  32.294  31.407  1.00  0.00    -0.014 A 
ATOM     76  C   UNL A   1      44.909  32.398  32.806  1.00  0.00     0.009 A 
ATOM     77  C   UNL A   1      45.253  33.399  30.630  1.00  0.00     0.009 A 
ATOM     78  C   UNL A   1      45.279  33.598  33.414  1.00  0.00     0.001 A 
ATOM     79  C   UNL A   1      45.650  34.588  31.241  1.00  0.00     0.001 A 
ATOM     80  C   UNL A   1      45.652  34.691  32.632  1.00  0.00     0.000 A 
ENDBRANCH  62  75
ENDBRANCH  36  37
ENDBRANCH  28  31
ENDBRANCH  26  27
ENDBRANCH  25  26
ENDBRANCH  24  25
ENDBRANCH   1  24
TORSDOF 17
ENDMDL
MODEL 3
REMARK VINA RESULT:     -10.2      2.850      4.173
REMARK SMILES CC(C)N(CCCC(=O)NCCCCNC(=O)c1ccc(-c2c3nc(c(-c4ccccc4)c4ccc([nH]4)c(-c4ccccc4)c4nc(c(-c5ccccc5)c5ccc2[nH]5)C=C4)C=C3)cc1)c1cc(Cl)c(Cl)cc1[N+](=O)[O-]
REMARK SMILES IDX 11 1 10 2 8 3 9 4 7 6 6 7 5 8 4 9 2 10 1 11 3 12 66 13 67 14
REMARK SMILES IDX 73 15 68 16 72 17 69 18 70 19 71 20 74 21 75 22 76 23 12 24
REMARK SMILES IDX 13 25 14 26 15 27 16 28 17 30 18 31 19 32 65 33 20 34 64 35
REMARK SMILES IDX 21 36 22 37 23 38 58 39 24 40 63 41 57 42 59 43 25 44 62 45
REMARK SMILES IDX 56 46 55 47 26 49 48 50 33 51 47 52 34 53 37 54 46 55 60 56
REMARK SMILES IDX 35 57 36 58 45 60 61 61 38 62 27 63 28 64 32 65 29 66 31 67
REMARK SMILES IDX 30 68 49 69 50 70 54 71 51 72 53 73 52 74 39 75 40 76 44 77
REMARK SMILES IDX 41 78 43 79 42 80
REMARK H PARENT 10 5 15 29 59 48 37 59
REMARK Flexibility Score: inf
ROOT
ATOM      1  C   UNL A   1      39.621  21.692  26.244  1.00  0.00     0.116 C 
ENDROOT
BRANCH   1   2
ATOM      2  N   UNL A   1      39.381  22.884  27.027  1.00  0.00    -0.356 N 
ATOM      3  C   UNL A   1      38.609  23.963  26.714  1.00  0.00     0.220 C 
ATOM      4  O   UNL A   1      38.723  24.986  27.388  1.00  0.00    -0.275 OA
ATOM      5  H   UNL A   1      39.835  22.922  27.900  1.00  0.00     0.163 HD
BRANCH   3   6
ATOM      6  C   UNL A   1      37.590  23.859  25.597  1.00  0.00     0.102 C 
BRANCH   6   7
ATOM      7  C   UNL A   1      36.234  23.257  25.978  1.00  0.00     0.031 C 
BRANCH   7   8
ATOM      8  C   UNL A   1      35.388  22.579  24.891  1.00  0.00     0.117 C 
BRANCH   8   9
ATOM      9  N   UNL A   1      33.900  22.681  24.942  1.00  0.00    -0.364 N 
BRANCH   9  10
ATOM     10  C   UNL A   1      33.166  21.392  24.775  1.00  0.00     0.076 C 
ATOM     11  C   UNL A   1      32.445  21.249  23.439  1.00  0.00     0.030 C 
ATOM     12  C   UNL A   1      34.050  20.187  25.071  1.00  0.00     0.030 C 
ENDBRANCH   9  10
BRANCH   9  13
ATOM     13  C   UNL A   1      33.256  23.886  25.182  1.00  0.00     0.117 A 
ATOM     14  C   UNL A   1      33.544  24.960  24.314  1.00  0.00     0.055 A 
ATOM     15  C   UNL A   1      32.355  24.199  26.222  1.00  0.00     0.294 A 
ATOM     16  C   UNL A   1      33.100  26.274  24.546  1.00  0.00     0.062 A 
ATOM     17  C   UNL A   1      31.869  25.503  26.453  1.00  0.00     0.110 A 
ATOM     18  Cl  UNL A   1      33.672  27.513  23.488  1.00  0.00    -0.083 Cl
ATOM     19  C   UNL A   1      32.272  26.546  25.631  1.00  0.00     0.066 A 
ATOM     20  Cl  UNL A   1      31.732  28.137  26.026  1.00  0.00    -0.082 Cl
BRANCH  15  21
ATOM     21  N   UNL A   1      31.896  23.229  27.190  1.00  0.00     0.065 N 
ATOM     22  O   UNL A   1      30.682  22.981  27.195  1.00  0.00    -0.258 OA
ATOM     23  O   UNL A   1      32.719  22.805  28.009  1.00  0.00    -0.258 OA
ENDBRANCH  15  21
ENDBRANCH   9  13
ENDBRANCH   8   9
ENDBRANCH   7   8
ENDBRANCH   6   7
ENDBRANCH   3   6
ENDBRANCH   1   2
BRANCH   1  24
ATOM     24  C   UNL A   1      41.121  21.387  26.216  1.00  0.00     0.023 C 
BRANCH  24  25
ATOM     25  C   UNL A   1      41.442  19.914  26.035  1.00  0.00     0.023 C 
BRANCH  25  26
ATOM     26  C   UNL A   1      42.923  19.588  26.177  1.00  0.00     0.116 C 
BRANCH  26  27
ATOM     27  N   UNL A   1      43.546  19.102  24.954  1.00  0.00    -0.352 N 
ATOM     28  C   UNL A   1      44.409  19.772  24.119  1.00  0.00     0.251 C 
ATOM     29  H   UNL A   1      43.322  18.179  24.693  1.00  0.00     0.163 HD
ATOM     30  O   UNL A   1      44.799  19.284  23.064  1.00  0.00    -0.269 OA
BRANCH  28  31
ATOM     31  C   UNL A   1      44.838  21.125  24.515  1.00  0.00     0.039 A 
ATOM     32  C   UNL A   1      44.425  22.219  23.754  1.00  0.00     0.014 A 
ATOM     33  C   UNL A   1      45.552  21.306  25.702  1.00  0.00     0.014 A 
ATOM     34  C   UNL A   1      44.653  23.505  24.238  1.00  0.00     0.010 A 
ATOM     35  C   UNL A   1      45.689  22.581  26.228  1.00  0.00     0.010 A 
ATOM     36  C   UNL A   1      45.239  23.693  25.503  1.00  0.00    -0.014 A 
BRANCH  36  37
ATOM     37  C   UNL A   1      45.369  25.048  26.087  1.00  0.00     0.031 A 
ATOM     38  C   UNL A   1      46.696  25.753  26.072  1.00  0.00     0.074 A 
ATOM     39  C   UNL A   1      44.303  25.615  26.684  1.00  0.00     0.049 A 
ATOM     40  N   UNL A   1      46.999  26.942  26.524  1.00  0.00    -0.248 NA
ATOM     41  C   UNL A   1      47.837  25.015  25.506  1.00  0.00     0.031 C 
ATOM     42  C   UNL A   1      42.981  24.997  26.831  1.00  0.00     0.029 A 
ATOM     43  N   UNL A   1      44.161  26.845  27.274  1.00  0.00    -0.354 N 
ATOM     44  C   UNL A   1      48.364  27.086  26.312  1.00  0.00     0.074 A 
ATOM     45  C   UNL A   1      48.841  25.843  25.749  1.00  0.00     0.031 C 
ATOM     46  C   UNL A   1      42.152  25.871  27.424  1.00  0.00     0.029 A 
ATOM     47  C   UNL A   1      42.887  27.095  27.724  1.00  0.00     0.049 A 
ATOM     48  H   UNL A   1      44.901  27.486  27.367  1.00  0.00     0.167 HD
ATOM     49  C   UNL A   1      49.148  28.165  26.541  1.00  0.00     0.031 A 
ATOM     50  C   UNL A   1      42.368  28.194  28.298  1.00  0.00     0.031 A 
ATOM     51  C   UNL A   1      48.668  29.408  27.082  1.00  0.00     0.049 A 
ATOM     52  C   UNL A   1      43.249  29.393  28.508  1.00  0.00     0.074 A 
ATOM     53  C   UNL A   1      49.363  30.586  27.285  1.00  0.00     0.029 A 
ATOM     54  N   UNL A   1      47.367  29.630  27.504  1.00  0.00    -0.354 N 
ATOM     55  N   UNL A   1      44.518  29.546  28.217  1.00  0.00    -0.248 NA
ATOM     56  C   UNL A   1      42.619  30.577  29.109  1.00  0.00     0.031 C 
ATOM     57  C   UNL A   1      48.490  31.511  27.869  1.00  0.00     0.029 A 
ATOM     58  C   UNL A   1      47.241  30.922  27.985  1.00  0.00     0.049 A 
ATOM     59  H   UNL A   1      46.640  28.967  27.467  1.00  0.00     0.167 HD
ATOM     60  C   UNL A   1      44.833  30.850  28.576  1.00  0.00     0.074 A 
ATOM     61  C   UNL A   1      43.616  31.449  29.087  1.00  0.00     0.031 C 
ATOM     62  C   UNL A   1      46.022  31.495  28.493  1.00  0.00     0.031 A 
BRANCH  49  63
ATOM     63  C   UNL A   1      50.607  28.039  26.203  1.00  0.00    -0.014 A 
ATOM     64  C   UNL A   1      51.525  27.516  27.130  1.00  0.00     0.009 A 
ATOM     65  C   UNL A   1      51.069  28.432  24.938  1.00  0.00     0.009 A 
ATOM     66  C   UNL A   1      52.881  27.431  26.811  1.00  0.00     0.001 A 
ATOM     67  C   UNL A   1      52.421  28.319  24.612  1.00  0.00     0.001 A 
ATOM     68  C   UNL A   1      53.327  27.828  25.551  1.00  0.00     0.000 A 
ENDBRANCH  49  63
BRANCH  50  69
ATOM     69  C   UNL A   1      40.929  28.236  28.669  1.00  0.00    -0.014 A 
ATOM     70  C   UNL A   1      39.985  28.774  27.780  1.00  0.00     0.009 A 
ATOM     71  C   UNL A   1      40.494  27.747  29.909  1.00  0.00     0.009 A 
ATOM     72  C   UNL A   1      38.637  28.846  28.139  1.00  0.00     0.001 A 
ATOM     73  C   UNL A   1      39.141  27.798  30.253  1.00  0.00     0.001 A 
ATOM     74  C   UNL A   1      38.216  28.356  29.374  1.00  0.00     0.000 A 
ENDBRANCH  50  69
BRANCH  62  75
ATOM     75  C   UNL A   1      46.050  32.927  28.943  1.00  0.00    -0.014 A 
ATOM     76  C   UNL A   1      45.770  33.975  28.052  1.00  0.00     0.009 A 
ATOM     77  C   UNL A   1      46.343  33.228  30.282  1.00  0.00     0.009 A 
ATOM     78  C   UNL A   1      45.824  35.300  28.485  1.00  0.00     0.001 A 
ATOM     79  C   UNL A   1      46.368  34.553  30.718  1.00  0.00     0.001 A 
ATOM     80  C   UNL A   1      46.120  35.588  29.817  1.00  0.00     0.000 A 
ENDBRANCH  62  75
ENDBRANCH  36  37
ENDBRANCH  28  31
ENDBRANCH  26  27
ENDBRANCH  25  26
ENDBRANCH  24  25
ENDBRANCH   1  24
TORSDOF 17
ENDMDL
