MODEL 1
REMARK VINA RESULT:     -11.9      0.000      0.000
REMARK SMILES O=C(NCCCCNC(=O)c1ccccc1/N=C/c1coc2ccccc2c1=O)c1ccc(-c2c3nc(c(-c4ccccc4)c4ccc([nH]4)c(-c4ccccc4)c4nc(c(-c5ccccc5)c5ccc2[nH]5)C=C4)C=C3)cc1
REMARK SMILES IDX 5 1 4 2 3 3 1 4 2 5 30 7 31 8 77 9 32 10 76 11 33 12 34 13
REMARK SMILES IDX 35 14 70 15 36 16 75 17 69 18 71 19 37 20 74 21 68 22 67 23
REMARK SMILES IDX 38 25 60 26 45 27 59 28 46 29 49 30 58 31 72 32 47 33 48 34
REMARK SMILES IDX 57 36 73 37 50 38 39 39 40 40 44 41 41 42 43 43 42 44 61 45
REMARK SMILES IDX 62 46 66 47 63 48 65 49 64 50 51 51 52 52 56 53 53 54 55 55
REMARK SMILES IDX 54 56 6 57 7 58 8 59 9 60 10 62 11 63 12 64 16 65 13 66
REMARK SMILES IDX 15 67 14 68 17 69 18 70 19 71 20 72 28 73 21 74 27 75 29 76
REMARK SMILES IDX 22 77 26 78 23 79 25 80 24 81
REMARK H PARENT 3 6 71 24 49 35 8 61
REMARK Flexibility Score: inf
ROOT
ATOM      1  C   UNL A   1      37.783  20.451  24.692  1.00  0.00     0.023 C 
ENDROOT
BRANCH   1   2
ATOM      2  C   UNL A   1      38.546  20.265  26.005  1.00  0.00     0.116 C 
BRANCH   2   3
ATOM      3  N   UNL A   1      39.703  19.401  25.879  1.00  0.00    -0.352 N 
ATOM      4  O   UNL A   1      41.893  18.871  25.668  1.00  0.00    -0.269 OA
ATOM      5  C   UNL A   1      41.040  19.687  26.007  1.00  0.00     0.251 C 
ATOM      6  H   UNL A   1      39.499  18.462  25.666  1.00  0.00     0.163 HD
BRANCH   5   7
ATOM      7  C   UNL A   1      41.481  20.986  26.569  1.00  0.00     0.039 A 
ATOM      8  C   UNL A   1      41.529  21.198  27.952  1.00  0.00     0.014 A 
ATOM      9  C   UNL A   1      41.938  21.980  25.698  1.00  0.00     0.014 A 
ATOM     10  C   UNL A   1      41.937  22.434  28.457  1.00  0.00     0.010 A 
ATOM     11  C   UNL A   1      42.378  23.207  26.205  1.00  0.00     0.010 A 
ATOM     12  C   UNL A   1      42.352  23.453  27.587  1.00  0.00    -0.014 A 
BRANCH  12  13
ATOM     13  C   UNL A   1      42.738  24.780  28.121  1.00  0.00     0.031 A 
ATOM     14  C   UNL A   1      41.692  25.836  28.344  1.00  0.00     0.074 A 
ATOM     15  C   UNL A   1      44.025  25.046  28.409  1.00  0.00     0.049 A 
ATOM     16  N   UNL A   1      41.837  27.060  28.785  1.00  0.00    -0.248 NA
ATOM     17  C   UNL A   1      40.304  25.468  28.027  1.00  0.00     0.031 C 
ATOM     18  C   UNL A   1      45.142  24.118  28.238  1.00  0.00     0.029 A 
ATOM     19  N   UNL A   1      44.606  26.185  28.909  1.00  0.00    -0.354 N 
ATOM     20  C   UNL A   1      40.564  27.615  28.781  1.00  0.00     0.074 A 
ATOM     21  C   UNL A   1      39.660  26.597  28.289  1.00  0.00     0.031 C 
ATOM     22  C   UNL A   1      46.275  24.722  28.634  1.00  0.00     0.029 A 
ATOM     23  C   UNL A   1      45.966  26.082  29.067  1.00  0.00     0.049 A 
ATOM     24  H   UNL A   1      44.097  26.998  29.131  1.00  0.00     0.167 HD
ATOM     25  C   UNL A   1      40.179  28.858  29.154  1.00  0.00     0.031 A 
ATOM     26  C   UNL A   1      46.863  26.985  29.500  1.00  0.00     0.031 A 
ATOM     27  C   UNL A   1      41.057  29.873  29.664  1.00  0.00     0.049 A 
ATOM     28  C   UNL A   1      46.414  28.359  29.900  1.00  0.00     0.074 A 
ATOM     29  C   UNL A   1      40.741  31.145  30.110  1.00  0.00     0.029 A 
ATOM     30  N   UNL A   1      42.428  29.731  29.794  1.00  0.00    -0.354 N 
ATOM     31  N   UNL A   1      45.203  28.858  29.914  1.00  0.00    -0.248 NA
ATOM     32  C   UNL A   1      47.459  29.297  30.338  1.00  0.00     0.031 C 
ATOM     33  C   UNL A   1      41.927  31.781  30.496  1.00  0.00     0.029 A 
ATOM     34  C   UNL A   1      42.976  30.899  30.298  1.00  0.00     0.049 A 
ATOM     35  H   UNL A   1      42.937  28.922  29.563  1.00  0.00     0.167 HD
ATOM     36  C   UNL A   1      45.338  30.164  30.360  1.00  0.00     0.074 A 
ATOM     37  C   UNL A   1      46.747  30.381  30.616  1.00  0.00     0.031 C 
ATOM     38  C   UNL A   1      44.378  31.101  30.541  1.00  0.00     0.031 A 
BRANCH  25  39
ATOM     39  C   UNL A   1      38.726  29.187  29.007  1.00  0.00    -0.014 A 
ATOM     40  C   UNL A   1      37.843  29.032  30.085  1.00  0.00     0.009 A 
ATOM     41  C   UNL A   1      38.239  29.667  27.782  1.00  0.00     0.009 A 
ATOM     42  C   UNL A   1      36.489  29.335  29.933  1.00  0.00     0.001 A 
ATOM     43  C   UNL A   1      36.886  29.976  27.636  1.00  0.00     0.001 A 
ATOM     44  C   UNL A   1      36.012  29.806  28.709  1.00  0.00     0.000 A 
ENDBRANCH  25  39
BRANCH  26  45
ATOM     45  C   UNL A   1      48.297  26.619  29.565  1.00  0.00    -0.014 A 
ATOM     46  C   UNL A   1      49.146  26.883  28.481  1.00  0.00     0.009 A 
ATOM     47  C   UNL A   1      48.819  26.010  30.714  1.00  0.00     0.009 A 
ATOM     48  C   UNL A   1      50.495  26.533  28.544  1.00  0.00     0.001 A 
ATOM     49  C   UNL A   1      50.171  25.669  30.777  1.00  0.00     0.001 A 
ATOM     50  C   UNL A   1      51.007  25.927  29.691  1.00  0.00     0.000 A 
ENDBRANCH  26  45
BRANCH  38  51
ATOM     51  C   UNL A   1      44.821  32.443  31.037  1.00  0.00    -0.014 A 
ATOM     52  C   UNL A   1      45.125  33.470  30.132  1.00  0.00     0.009 A 
ATOM     53  C   UNL A   1      44.904  32.692  32.415  1.00  0.00     0.009 A 
ATOM     54  C   UNL A   1      45.520  34.724  30.599  1.00  0.00     0.001 A 
ATOM     55  C   UNL A   1      45.293  33.950  32.878  1.00  0.00     0.001 A 
ATOM     56  C   UNL A   1      45.603  34.962  31.971  1.00  0.00     0.000 A 
ENDBRANCH  38  51
ENDBRANCH  12  13
ENDBRANCH   5   7
ENDBRANCH   2   3
ENDBRANCH   1   2
BRANCH   1  57
ATOM     57  C   UNL A   1      37.389  21.884  24.315  1.00  0.00     0.023 C 
BRANCH  57  58
ATOM     58  C   UNL A   1      35.893  22.182  24.238  1.00  0.00     0.116 C 
BRANCH  58  59
ATOM     59  N   UNL A   1      35.190  21.987  25.494  1.00  0.00    -0.352 N 
ATOM     60  C   UNL A   1      34.168  21.123  25.786  1.00  0.00     0.253 C 
ATOM     61  H   UNL A   1      35.489  22.556  26.240  1.00  0.00     0.163 HD
ATOM     62  O   UNL A   1      33.775  21.025  26.946  1.00  0.00    -0.269 OA
BRANCH  60  63
ATOM     63  C   UNL A   1      33.479  20.345  24.740  1.00  0.00     0.065 A 
ATOM     64  C   UNL A   1      33.690  18.955  24.760  1.00  0.00     0.016 A 
ATOM     65  C   UNL A   1      32.708  20.916  23.723  1.00  0.00     0.076 A 
ATOM     66  C   UNL A   1      33.105  18.130  23.796  1.00  0.00     0.001 A 
ATOM     67  C   UNL A   1      32.128  20.070  22.761  1.00  0.00     0.029 A 
ATOM     68  C   UNL A   1      32.322  18.690  22.793  1.00  0.00     0.002 A 
BRANCH  65  69
ATOM     69  N   UNL A   1      32.324  22.250  23.634  1.00  0.00    -0.255 NA
ATOM     70  C   UNL A   1      32.821  23.062  22.757  1.00  0.00     0.127 C 
BRANCH  70  71
ATOM     71  C   UNL A   1      32.124  24.359  22.638  1.00  0.00     0.076 A 
ATOM     72  C   UNL A   1      30.951  24.376  23.293  1.00  0.00     0.209 A 
ATOM     73  C   UNL A   1      32.911  25.617  22.682  1.00  0.00     0.201 A 
ATOM     74  O   UNL A   1      30.518  25.450  24.059  1.00  0.00    -0.463 OA
ATOM     75  C   UNL A   1      32.759  26.341  23.950  1.00  0.00     0.065 A 
ATOM     76  O   UNL A   1      33.702  25.951  21.810  1.00  0.00    -0.288 OA
ATOM     77  C   UNL A   1      31.546  26.180  24.624  1.00  0.00     0.137 A 
ATOM     78  C   UNL A   1      33.837  26.997  24.536  1.00  0.00     0.016 A 
ATOM     79  C   UNL A   1      31.402  26.678  25.913  1.00  0.00     0.048 A 
ATOM     80  C   UNL A   1      33.702  27.470  25.841  1.00  0.00     0.001 A 
ATOM     81  C   UNL A   1      32.492  27.306  26.526  1.00  0.00     0.004 A 
ENDBRANCH  70  71
ENDBRANCH  65  69
ENDBRANCH  60  63
ENDBRANCH  58  59
ENDBRANCH  57  58
ENDBRANCH   1  57
TORSDOF 13
ENDMDL
MODEL 2
REMARK VINA RESULT:     -11.9      3.832      8.962
REMARK SMILES O=C(NCCCCNC(=O)c1ccccc1/N=C/c1coc2ccccc2c1=O)c1ccc(-c2c3nc(c(-c4ccccc4)c4ccc([nH]4)c(-c4ccccc4)c4nc(c(-c5ccccc5)c5ccc2[nH]5)C=C4)C=C3)cc1
REMARK SMILES IDX 5 1 4 2 3 3 1 4 2 5 30 7 31 8 77 9 32 10 76 11 33 12 34 13
REMARK SMILES IDX 35 14 70 15 36 16 75 17 69 18 71 19 37 20 74 21 68 22 67 23
REMARK SMILES IDX 38 25 60 26 45 27 59 28 46 29 49 30 58 31 72 32 47 33 48 34
REMARK SMILES IDX 57 36 73 37 50 38 39 39 40 40 44 41 41 42 43 43 42 44 61 45
REMARK SMILES IDX 62 46 66 47 63 48 65 49 64 50 51 51 52 52 56 53 53 54 55 55
REMARK SMILES IDX 54 56 6 57 7 58 8 59 9 60 10 62 11 63 12 64 16 65 13 66
REMARK SMILES IDX 15 67 14 68 17 69 18 70 19 71 20 72 28 73 21 74 27 75 29 76
REMARK SMILES IDX 22 77 26 78 23 79 25 80 24 81
REMARK H PARENT 3 6 71 24 49 35 8 61
REMARK Flexibility Score: inf
ROOT
ATOM      1  C   UNL A   1      31.249  32.035  26.885  1.00  0.00     0.023 C 
ENDROOT
BRANCH   1   2
ATOM      2  C   UNL A   1      32.590  32.741  27.096  1.00  0.00     0.116 C 
BRANCH   2   3
ATOM      3  N   UNL A   1      32.463  34.032  27.743  1.00  0.00    -0.352 N 
ATOM      4  O   UNL A   1      32.814  35.612  29.325  1.00  0.00    -0.269 OA
ATOM      5  C   UNL A   1      33.192  34.584  28.768  1.00  0.00     0.251 C 
ATOM      6  H   UNL A   1      31.740  34.602  27.395  1.00  0.00     0.163 HD
BRANCH   5   7
ATOM      7  C   UNL A   1      34.457  33.955  29.215  1.00  0.00     0.039 A 
ATOM      8  C   UNL A   1      34.476  33.044  30.277  1.00  0.00     0.014 A 
ATOM      9  C   UNL A   1      35.632  34.216  28.502  1.00  0.00     0.014 A 
ATOM     10  C   UNL A   1      35.683  32.474  30.688  1.00  0.00     0.010 A 
ATOM     11  C   UNL A   1      36.835  33.620  28.893  1.00  0.00     0.010 A 
ATOM     12  C   UNL A   1      36.874  32.767  30.007  1.00  0.00    -0.014 A 
BRANCH  12  13
ATOM     13  C   UNL A   1      38.161  32.201  30.474  1.00  0.00     0.031 A 
ATOM     14  C   UNL A   1      38.672  30.913  29.892  1.00  0.00     0.074 A 
ATOM     15  C   UNL A   1      38.878  32.837  31.418  1.00  0.00     0.049 A 
ATOM     16  N   UNL A   1      39.764  30.252  30.183  1.00  0.00    -0.248 NA
ATOM     17  C   UNL A   1      37.846  30.284  28.849  1.00  0.00     0.031 C 
ATOM     18  C   UNL A   1      38.501  34.090  32.071  1.00  0.00     0.029 A 
ATOM     19  N   UNL A   1      40.081  32.506  31.992  1.00  0.00    -0.354 N 
ATOM     20  C   UNL A   1      39.748  29.123  29.377  1.00  0.00     0.074 A 
ATOM     21  C   UNL A   1      38.537  29.184  28.587  1.00  0.00     0.031 C 
ATOM     22  C   UNL A   1      39.458  34.428  32.951  1.00  0.00     0.029 A 
ATOM     23  C   UNL A   1      40.502  33.407  32.937  1.00  0.00     0.049 A 
ATOM     24  H   UNL A   1      40.592  31.700  31.749  1.00  0.00     0.167 HD
ATOM     25  C   UNL A   1      40.659  28.124  29.296  1.00  0.00     0.031 A 
ATOM     26  C   UNL A   1      41.600  33.405  33.715  1.00  0.00     0.031 A 
ATOM     27  C   UNL A   1      41.875  28.057  30.055  1.00  0.00     0.049 A 
ATOM     28  C   UNL A   1      42.591  32.284  33.613  1.00  0.00     0.074 A 
ATOM     29  C   UNL A   1      42.877  27.103  29.999  1.00  0.00     0.029 A 
ATOM     30  N   UNL A   1      42.256  28.982  31.011  1.00  0.00    -0.354 N 
ATOM     31  N   UNL A   1      42.572  31.237  32.826  1.00  0.00    -0.248 NA
ATOM     32  C   UNL A   1      43.751  32.341  34.515  1.00  0.00     0.031 C 
ATOM     33  C   UNL A   1      43.859  27.444  30.937  1.00  0.00     0.029 A 
ATOM     34  C   UNL A   1      43.469  28.614  31.566  1.00  0.00     0.049 A 
ATOM     35  H   UNL A   1      41.740  29.783  31.260  1.00  0.00     0.167 HD
ATOM     36  C   UNL A   1      43.713  30.513  33.135  1.00  0.00     0.074 A 
ATOM     37  C   UNL A   1      44.409  31.241  34.175  1.00  0.00     0.031 C 
ATOM     38  C   UNL A   1      44.146  29.345  32.603  1.00  0.00     0.031 A 
BRANCH  25  39
ATOM     39  C   UNL A   1      40.353  27.007  28.347  1.00  0.00    -0.014 A 
ATOM     40  C   UNL A   1      39.557  25.924  28.748  1.00  0.00     0.009 A 
ATOM     41  C   UNL A   1      40.857  27.044  27.038  1.00  0.00     0.009 A 
ATOM     42  C   UNL A   1      39.285  24.885  27.857  1.00  0.00     0.001 A 
ATOM     43  C   UNL A   1      40.577  26.007  26.148  1.00  0.00     0.001 A 
ATOM     44  C   UNL A   1      39.795  24.927  26.558  1.00  0.00     0.000 A 
ENDBRANCH  25  39
BRANCH  26  45
ATOM     45  C   UNL A   1      41.816  34.508  34.679  1.00  0.00    -0.014 A 
ATOM     46  C   UNL A   1      41.330  34.408  35.990  1.00  0.00     0.009 A 
ATOM     47  C   UNL A   1      42.513  35.661  34.290  1.00  0.00     0.009 A 
ATOM     48  C   UNL A   1      41.531  35.452  36.895  1.00  0.00     0.001 A 
ATOM     49  C   UNL A   1      42.720  36.698  35.200  1.00  0.00     0.001 A 
ATOM     50  C   UNL A   1      42.227  36.594  36.501  1.00  0.00     0.000 A 
ENDBRANCH  26  45
BRANCH  38  51
ATOM     51  C   UNL A   1      45.427  28.786  33.138  1.00  0.00    -0.014 A 
ATOM     52  C   UNL A   1      45.415  27.886  34.214  1.00  0.00     0.009 A 
ATOM     53  C   UNL A   1      46.650  29.134  32.546  1.00  0.00     0.009 A 
ATOM     54  C   UNL A   1      46.611  27.354  34.698  1.00  0.00     0.001 A 
ATOM     55  C   UNL A   1      47.843  28.594  33.027  1.00  0.00     0.001 A 
ATOM     56  C   UNL A   1      47.823  27.708  34.104  1.00  0.00     0.000 A 
ENDBRANCH  38  51
ENDBRANCH  12  13
ENDBRANCH   5   7
ENDBRANCH   2   3
ENDBRANCH   1   2
BRANCH   1  57
ATOM     57  C   UNL A   1      31.090  31.217  25.598  1.00  0.00     0.023 C 
BRANCH  57  58
ATOM     58  C   UNL A   1      31.644  29.793  25.622  1.00  0.00     0.116 C 
BRANCH  58  59
ATOM     59  N   UNL A   1      32.197  29.357  24.352  1.00  0.00    -0.352 N 
ATOM     60  C   UNL A   1      31.543  28.992  23.205  1.00  0.00     0.253 C 
ATOM     61  H   UNL A   1      33.180  29.319  24.309  1.00  0.00     0.163 HD
ATOM     62  O   UNL A   1      32.194  28.757  22.189  1.00  0.00    -0.269 OA
BRANCH  60  63
ATOM     63  C   UNL A   1      30.081  28.810  23.163  1.00  0.00     0.065 A 
ATOM     64  C   UNL A   1      29.324  29.946  22.824  1.00  0.00     0.016 A 
ATOM     65  C   UNL A   1      29.432  27.619  23.502  1.00  0.00     0.076 A 
ATOM     66  C   UNL A   1      27.929  29.887  22.782  1.00  0.00     0.001 A 
ATOM     67  C   UNL A   1      28.027  27.580  23.456  1.00  0.00     0.029 A 
ATOM     68  C   UNL A   1      27.279  28.700  23.100  1.00  0.00     0.002 A 
BRANCH  65  69
ATOM     69  N   UNL A   1      30.042  26.394  23.751  1.00  0.00    -0.255 NA
ATOM     70  C   UNL A   1      30.244  25.945  24.948  1.00  0.00     0.127 C 
BRANCH  70  71
ATOM     71  C   UNL A   1      30.666  24.532  25.025  1.00  0.00     0.076 A 
ATOM     72  C   UNL A   1      30.796  23.966  23.814  1.00  0.00     0.209 A 
ATOM     73  C   UNL A   1      31.666  24.124  26.044  1.00  0.00     0.201 A 
ATOM     74  O   UNL A   1      31.848  23.127  23.470  1.00  0.00    -0.463 OA
ATOM     75  C   UNL A   1      32.989  23.855  25.469  1.00  0.00     0.065 A 
ATOM     76  O   UNL A   1      31.447  24.134  27.248  1.00  0.00    -0.288 OA
ATOM     77  C   UNL A   1      33.020  23.399  24.149  1.00  0.00     0.137 A 
ATOM     78  C   UNL A   1      34.152  24.218  26.142  1.00  0.00     0.016 A 
ATOM     79  C   UNL A   1      34.234  23.305  23.480  1.00  0.00     0.048 A 
ATOM     80  C   UNL A   1      35.366  24.154  25.460  1.00  0.00     0.001 A 
ATOM     81  C   UNL A   1      35.405  23.704  24.134  1.00  0.00     0.004 A 
ENDBRANCH  70  71
ENDBRANCH  65  69
ENDBRANCH  60  63
ENDBRANCH  58  59
ENDBRANCH  57  58
ENDBRANCH   1  57
TORSDOF 13
ENDMDL
MODEL 3
REMARK VINA RESULT:     -11.9      1.172      5.971
REMARK SMILES O=C(NCCCCNC(=O)c1ccccc1/N=C/c1coc2ccccc2c1=O)c1ccc(-c2c3nc(c(-c4ccccc4)c4ccc([nH]4)c(-c4ccccc4)c4nc(c(-c5ccccc5)c5ccc2[nH]5)C=C4)C=C3)cc1
REMARK SMILES IDX 5 1 4 2 3 3 1 4 2 5 30 7 31 8 77 9 32 10 76 11 33 12 34 13
REMARK SMILES IDX 35 14 70 15 36 16 75 17 69 18 71 19 37 20 74 21 68 22 67 23
REMARK SMILES IDX 38 25 60 26 45 27 59 28 46 29 49 30 58 31 72 32 47 33 48 34
REMARK SMILES IDX 57 36 73 37 50 38 39 39 40 40 44 41 41 42 43 43 42 44 61 45
REMARK SMILES IDX 62 46 66 47 63 48 65 49 64 50 51 51 52 52 56 53 53 54 55 55
REMARK SMILES IDX 54 56 6 57 7 58 8 59 9 60 10 62 11 63 12 64 16 65 13 66
REMARK SMILES IDX 15 67 14 68 17 69 18 70 19 71 20 72 28 73 21 74 27 75 29 76
REMARK SMILES IDX 22 77 26 78 23 79 25 80 24 81
REMARK H PARENT 3 6 71 24 49 35 8 61
REMARK Flexibility Score: inf
ROOT
ATOM      1  C   UNL A   1      39.058  21.098  25.399  1.00  0.00     0.023 C 
ENDROOT
BRANCH   1   2
ATOM      2  C   UNL A   1      39.290  19.787  26.152  1.00  0.00     0.116 C 
BRANCH   2   3
ATOM      3  N   UNL A   1      40.555  19.156  25.827  1.00  0.00    -0.352 N 
ATOM      4  O   UNL A   1      42.758  19.045  25.325  1.00  0.00    -0.269 OA
ATOM      5  C   UNL A   1      41.827  19.673  25.823  1.00  0.00     0.251 C 
ATOM      6  H   UNL A   1      40.492  18.208  25.568  1.00  0.00     0.163 HD
BRANCH   5   7
ATOM      7  C   UNL A   1      42.103  20.997  26.428  1.00  0.00     0.039 A 
ATOM      8  C   UNL A   1      42.021  21.192  27.812  1.00  0.00     0.014 A 
ATOM      9  C   UNL A   1      42.538  22.040  25.604  1.00  0.00     0.014 A 
ATOM     10  C   UNL A   1      42.275  22.452  28.357  1.00  0.00     0.010 A 
ATOM     11  C   UNL A   1      42.824  23.294  26.154  1.00  0.00     0.010 A 
ATOM     12  C   UNL A   1      42.665  23.516  27.531  1.00  0.00    -0.014 A 
BRANCH  12  13
ATOM     13  C   UNL A   1      42.887  24.865  28.104  1.00  0.00     0.031 A 
ATOM     14  C   UNL A   1      44.261  25.278  28.549  1.00  0.00     0.074 A 
ATOM     15  C   UNL A   1      41.859  25.725  28.227  1.00  0.00     0.049 A 
ATOM     16  N   UNL A   1      44.649  26.406  29.089  1.00  0.00    -0.248 NA
ATOM     17  C   UNL A   1      45.339  24.294  28.366  1.00  0.00     0.031 C 
ATOM     18  C   UNL A   1      40.475  25.456  27.840  1.00  0.00     0.029 A 
ATOM     19  N   UNL A   1      41.829  27.008  28.717  1.00  0.00    -0.354 N 
ATOM     20  C   UNL A   1      46.008  26.261  29.328  1.00  0.00     0.074 A 
ATOM     21  C   UNL A   1      46.379  24.936  28.879  1.00  0.00     0.031 C 
ATOM     22  C   UNL A   1      39.730  26.543  28.100  1.00  0.00     0.029 A 
ATOM     23  C   UNL A   1      40.580  27.575  28.688  1.00  0.00     0.049 A 
ATOM     24  H   UNL A   1      42.627  27.474  29.057  1.00  0.00     0.167 HD
ATOM     25  C   UNL A   1      46.875  27.150  29.870  1.00  0.00     0.031 A 
ATOM     26  C   UNL A   1      40.164  28.786  29.100  1.00  0.00     0.031 A 
ATOM     27  C   UNL A   1      46.530  28.475  30.301  1.00  0.00     0.049 A 
ATOM     28  C   UNL A   1      41.140  29.750  29.706  1.00  0.00     0.074 A 
ATOM     29  C   UNL A   1      47.358  29.458  30.818  1.00  0.00     0.029 A 
ATOM     30  N   UNL A   1      45.252  29.004  30.268  1.00  0.00    -0.354 N 
ATOM     31  N   UNL A   1      42.427  29.606  29.900  1.00  0.00    -0.248 NA
ATOM     32  C   UNL A   1      40.602  31.043  30.155  1.00  0.00     0.031 C 
ATOM     33  C   UNL A   1      46.573  30.580  31.115  1.00  0.00     0.029 A 
ATOM     34  C   UNL A   1      45.263  30.294  30.770  1.00  0.00     0.049 A 
ATOM     35  H   UNL A   1      44.454  28.534  29.936  1.00  0.00     0.167 HD
ATOM     36  C   UNL A   1      42.853  30.786  30.492  1.00  0.00     0.074 A 
ATOM     37  C   UNL A   1      41.691  31.641  30.618  1.00  0.00     0.031 C 
ATOM     38  C   UNL A   1      44.100  31.129  30.895  1.00  0.00     0.031 A 
BRANCH  25  39
ATOM     39  C   UNL A   1      48.292  26.696  30.036  1.00  0.00    -0.014 A 
ATOM     40  C   UNL A   1      49.249  26.959  29.045  1.00  0.00     0.009 A 
ATOM     41  C   UNL A   1      48.675  26.010  31.197  1.00  0.00     0.009 A 
ATOM     42  C   UNL A   1      50.565  26.525  29.208  1.00  0.00     0.001 A 
ATOM     43  C   UNL A   1      49.993  25.584  31.360  1.00  0.00     0.001 A 
ATOM     44  C   UNL A   1      50.936  25.837  30.364  1.00  0.00     0.000 A 
ENDBRANCH  25  39
BRANCH  26  45
ATOM     45  C   UNL A   1      38.735  29.153  28.966  1.00  0.00    -0.014 A 
ATOM     46  C   UNL A   1      37.860  29.002  30.051  1.00  0.00     0.009 A 
ATOM     47  C   UNL A   1      38.247  29.660  27.754  1.00  0.00     0.009 A 
ATOM     48  C   UNL A   1      36.513  29.345  29.919  1.00  0.00     0.001 A 
ATOM     49  C   UNL A   1      36.902  30.011  27.629  1.00  0.00     0.001 A 
ATOM     50  C   UNL A   1      36.036  29.850  28.710  1.00  0.00     0.000 A 
ENDBRANCH  26  45
BRANCH  38  51
ATOM     51  C   UNL A   1      44.267  32.483  31.512  1.00  0.00    -0.014 A 
ATOM     52  C   UNL A   1      44.557  33.598  30.712  1.00  0.00     0.009 A 
ATOM     53  C   UNL A   1      44.102  32.653  32.894  1.00  0.00     0.009 A 
ATOM     54  C   UNL A   1      44.693  34.861  31.289  1.00  0.00     0.001 A 
ATOM     55  C   UNL A   1      44.232  33.918  33.467  1.00  0.00     0.001 A 
ATOM     56  C   UNL A   1      44.531  35.019  32.666  1.00  0.00     0.000 A 
ENDBRANCH  38  51
ENDBRANCH  12  13
ENDBRANCH   5   7
ENDBRANCH   2   3
ENDBRANCH   1   2
BRANCH   1  57
ATOM     57  C   UNL A   1      38.745  22.338  26.244  1.00  0.00     0.023 C 
BRANCH  57  58
ATOM     58  C   UNL A   1      37.575  23.204  25.780  1.00  0.00     0.116 C 
BRANCH  58  59
ATOM     59  N   UNL A   1      37.388  23.216  24.340  1.00  0.00    -0.352 N 
ATOM     60  C   UNL A   1      36.310  22.797  23.606  1.00  0.00     0.253 C 
ATOM     61  H   UNL A   1      38.142  23.574  23.817  1.00  0.00     0.163 HD
ATOM     62  O   UNL A   1      36.294  22.992  22.392  1.00  0.00    -0.269 OA
BRANCH  60  63
ATOM     63  C   UNL A   1      35.186  22.063  24.216  1.00  0.00     0.065 A 
ATOM     64  C   UNL A   1      35.494  20.813  24.781  1.00  0.00     0.016 A 
ATOM     65  C   UNL A   1      33.861  22.508  24.197  1.00  0.00     0.076 A 
ATOM     66  C   UNL A   1      34.496  20.026  25.360  1.00  0.00     0.001 A 
ATOM     67  C   UNL A   1      32.870  21.702  24.783  1.00  0.00     0.029 A 
ATOM     68  C   UNL A   1      33.180  20.472  25.360  1.00  0.00     0.002 A 
BRANCH  65  69
ATOM     69  N   UNL A   1      33.421  23.759  23.775  1.00  0.00    -0.255 NA
ATOM     70  C   UNL A   1      32.887  23.956  22.613  1.00  0.00     0.127 C 
BRANCH  70  71
ATOM     71  C   UNL A   1      32.251  25.276  22.430  1.00  0.00     0.076 A 
ATOM     72  C   UNL A   1      31.054  25.359  23.034  1.00  0.00     0.209 A 
ATOM     73  C   UNL A   1      33.088  26.502  22.477  1.00  0.00     0.201 A 
ATOM     74  O   UNL A   1      30.633  26.470  23.752  1.00  0.00    -0.463 OA
ATOM     75  C   UNL A   1      32.912  27.265  23.718  1.00  0.00     0.065 A 
ATOM     76  O   UNL A   1      33.928  26.780  21.632  1.00  0.00    -0.288 OA
ATOM     77  C   UNL A   1      31.666  27.173  24.343  1.00  0.00     0.137 A 
ATOM     78  C   UNL A   1      33.991  27.893  24.334  1.00  0.00     0.016 A 
ATOM     79  C   UNL A   1      31.489  27.712  25.611  1.00  0.00     0.048 A 
ATOM     80  C   UNL A   1      33.821  28.406  25.619  1.00  0.00     0.001 A 
ATOM     81  C   UNL A   1      32.578  28.311  26.255  1.00  0.00     0.004 A 
ENDBRANCH  70  71
ENDBRANCH  65  69
ENDBRANCH  60  63
ENDBRANCH  58  59
ENDBRANCH  57  58
ENDBRANCH   1  57
TORSDOF 13
ENDMDL
