MODEL 1
REMARK VINA RESULT:     -12.7      0.000      0.000
REMARK SMILES O=C(NCCCCNC(=O)c1ccc(-c2c3nc(c(-c4ccccc4)c4ccc([nH]4)c(-c4ccccc4)c4nc(c(-c5ccccc5)c5ccc2[nH]5)C=C4)C=C3)cc1)C1=Cc2cc(Cl)cc(C#Cc3ccccc3)c2O[C@@H]1C(F)(F)F
REMARK SMILES IDX 5 1 4 2 3 3 1 4 2 5 59 7 60 8 77 9 61 10 76 11 62 12 75 13
REMARK SMILES IDX 63 14 66 15 64 16 65 17 78 18 79 19 80 20 81 21 67 22 68 23
REMARK SMILES IDX 69 24 70 25 74 26 71 27 73 28 72 29 6 30 7 31 8 32 9 33
REMARK SMILES IDX 10 35 11 36 12 37 58 38 13 39 57 40 14 41 15 42 16 43 51 44
REMARK SMILES IDX 17 45 56 46 50 47 52 48 18 49 55 50 49 51 48 52 19 54 41 55
REMARK SMILES IDX 26 56 40 57 27 58 30 59 39 60 53 61 28 62 29 63 38 65 54 66
REMARK SMILES IDX 31 67 20 68 21 69 25 70 22 71 24 72 23 73 42 74 43 75 47 76
REMARK SMILES IDX 44 77 46 78 45 79 32 80 33 81 37 82 34 83 36 84 35 85
REMARK H PARENT 3 6 8 34 52 53 30 64
REMARK Flexibility Score: inf
ROOT
ATOM      1  C   UNL A   1      31.724  27.868  27.491  1.00  0.00     0.023 C 
ENDROOT
BRANCH   1   2
ATOM      2  C   UNL A   1      31.319  26.873  26.412  1.00  0.00     0.116 C 
BRANCH   2   3
ATOM      3  N   UNL A   1      31.416  25.472  26.771  1.00  0.00    -0.352 N 
ATOM      4  O   UNL A   1      32.412  23.473  26.972  1.00  0.00    -0.270 OA
ATOM      5  C   UNL A   1      32.289  24.515  26.331  1.00  0.00     0.251 C 
ATOM      6  H   UNL A   1      30.755  25.164  27.431  1.00  0.00     0.163 HD
BRANCH   5   7
ATOM      7  C   UNL A   1      33.175  24.724  25.148  1.00  0.00     0.067 C 
ATOM      8  C   UNL A   1      34.466  25.078  25.278  1.00  0.00     0.025 C 
ATOM      9  C   UNL A   1      32.774  23.898  23.953  1.00  0.00     0.314 C 
ATOM     10  C   UNL A   1      35.394  23.981  24.876  1.00  0.00     0.020 A 
ATOM     11  O   UNL A   1      33.575  22.687  23.878  1.00  0.00    -0.474 OA
ATOM     12  C   UNL A   1      36.682  24.022  25.423  1.00  0.00     0.032 A 
ATOM     13  C   UNL A   1      34.853  22.765  24.392  1.00  0.00     0.143 A 
ATOM     14  C   UNL A   1      37.384  22.832  25.593  1.00  0.00     0.043 A 
ATOM     15  C   UNL A   1      35.537  21.566  24.651  1.00  0.00     0.069 A 
ATOM     16  Cl  UNL A   1      38.879  22.852  26.444  1.00  0.00    -0.084 Cl
ATOM     17  C   UNL A   1      36.812  21.608  25.237  1.00  0.00     0.041 A 
BRANCH   9  18
ATOM     18  C   UNL A   1      32.812  24.733  22.659  1.00  0.00     0.429 C 
ATOM     19  F   UNL A   1      33.033  23.960  21.571  1.00  0.00    -0.167 F 
ATOM     20  F   UNL A   1      31.636  25.376  22.453  1.00  0.00    -0.167 F 
ATOM     21  F   UNL A   1      33.778  25.683  22.681  1.00  0.00    -0.167 F 
ENDBRANCH   9  18
BRANCH  15  22
ATOM     22  C   UNL A   1      34.861  20.291  24.620  1.00  0.00    -0.058 C 
ATOM     23  C   UNL A   1      34.350  19.210  24.743  1.00  0.00    -0.062 C 
BRANCH  23  24
ATOM     24  C   UNL A   1      33.828  17.880  24.912  1.00  0.00     0.025 A 
ATOM     25  C   UNL A   1      34.636  16.783  24.610  1.00  0.00     0.017 A 
ATOM     26  C   UNL A   1      32.545  17.661  25.425  1.00  0.00     0.017 A 
ATOM     27  C   UNL A   1      34.184  15.484  24.854  1.00  0.00     0.001 A 
ATOM     28  C   UNL A   1      32.100  16.360  25.688  1.00  0.00     0.001 A 
ATOM     29  C   UNL A   1      32.923  15.271  25.410  1.00  0.00     0.000 A 
ENDBRANCH  23  24
ENDBRANCH  15  22
ENDBRANCH   5   7
ENDBRANCH   2   3
ENDBRANCH   1   2
BRANCH   1  30
ATOM     30  C   UNL A   1      32.130  29.233  26.951  1.00  0.00     0.023 C 
BRANCH  30  31
ATOM     31  C   UNL A   1      33.586  29.634  27.190  1.00  0.00     0.116 C 
BRANCH  31  32
ATOM     32  N   UNL A   1      33.758  30.872  27.943  1.00  0.00    -0.352 N 
ATOM     33  C   UNL A   1      34.859  31.283  28.671  1.00  0.00     0.251 C 
ATOM     34  H   UNL A   1      32.994  31.493  27.930  1.00  0.00     0.163 HD
ATOM     35  O   UNL A   1      34.851  32.328  29.309  1.00  0.00    -0.269 OA
BRANCH  33  36
ATOM     36  C   UNL A   1      36.050  30.411  28.675  1.00  0.00     0.039 A 
ATOM     37  C   UNL A   1      36.926  30.397  27.590  1.00  0.00     0.014 A 
ATOM     38  C   UNL A   1      36.366  29.733  29.848  1.00  0.00     0.014 A 
ATOM     39  C   UNL A   1      38.184  29.800  27.737  1.00  0.00     0.010 A 
ATOM     40  C   UNL A   1      37.654  29.255  30.032  1.00  0.00     0.010 A 
ATOM     41  C   UNL A   1      38.585  29.288  28.984  1.00  0.00    -0.014 A 
BRANCH  41  42
ATOM     42  C   UNL A   1      39.971  28.820  29.259  1.00  0.00     0.031 A 
ATOM     43  C   UNL A   1      40.984  29.771  29.845  1.00  0.00     0.074 A 
ATOM     44  C   UNL A   1      40.358  27.595  28.842  1.00  0.00     0.049 A 
ATOM     45  N   UNL A   1      42.267  29.594  30.039  1.00  0.00    -0.248 NA
ATOM     46  C   UNL A   1      40.505  31.114  30.221  1.00  0.00     0.031 C 
ATOM     47  C   UNL A   1      39.500  26.609  28.176  1.00  0.00     0.029 A 
ATOM     48  N   UNL A   1      41.585  26.976  28.893  1.00  0.00    -0.354 N 
ATOM     49  C   UNL A   1      42.746  30.805  30.527  1.00  0.00     0.074 A 
ATOM     50  C   UNL A   1      41.634  31.726  30.546  1.00  0.00     0.031 C 
ATOM     51  C   UNL A   1      40.217  25.506  27.907  1.00  0.00     0.029 A 
ATOM     52  C   UNL A   1      41.595  25.717  28.336  1.00  0.00     0.049 A 
ATOM     53  H   UNL A   1      42.382  27.394  29.291  1.00  0.00     0.167 HD
ATOM     54  C   UNL A   1      43.996  31.114  30.943  1.00  0.00     0.031 A 
ATOM     55  C   UNL A   1      42.603  24.835  28.179  1.00  0.00     0.031 A 
ATOM     56  C   UNL A   1      45.092  30.184  30.955  1.00  0.00     0.049 A 
ATOM     57  C   UNL A   1      43.978  25.203  28.671  1.00  0.00     0.074 A 
ATOM     58  C   UNL A   1      46.367  30.368  31.460  1.00  0.00     0.029 A 
ATOM     59  N   UNL A   1      45.044  28.902  30.435  1.00  0.00    -0.354 N 
ATOM     60  N   UNL A   1      44.380  26.310  29.248  1.00  0.00    -0.248 NA
ATOM     61  C   UNL A   1      45.036  24.195  28.505  1.00  0.00     0.031 C 
ATOM     62  C   UNL A   1      47.113  29.221  31.182  1.00  0.00     0.029 A 
ATOM     63  C   UNL A   1      46.279  28.296  30.576  1.00  0.00     0.049 A 
ATOM     64  H   UNL A   1      44.251  28.484  30.027  1.00  0.00     0.167 HD
ATOM     65  C   UNL A   1      45.721  26.111  29.554  1.00  0.00     0.074 A 
ATOM     66  C   UNL A   1      46.061  24.776  29.111  1.00  0.00     0.031 C 
ATOM     67  C   UNL A   1      46.594  26.957  30.152  1.00  0.00     0.031 A 
BRANCH  54  68
ATOM     68  C   UNL A   1      44.258  32.510  31.437  1.00  0.00    -0.014 A 
ATOM     69  C   UNL A   1      44.259  32.811  32.809  1.00  0.00     0.009 A 
ATOM     70  C   UNL A   1      44.612  33.516  30.523  1.00  0.00     0.009 A 
ATOM     71  C   UNL A   1      44.588  34.093  33.252  1.00  0.00     0.001 A 
ATOM     72  C   UNL A   1      44.971  34.788  30.971  1.00  0.00     0.001 A 
ATOM     73  C   UNL A   1      44.954  35.078  32.334  1.00  0.00     0.000 A 
ENDBRANCH  54  68
BRANCH  55  74
ATOM     74  C   UNL A   1      42.366  23.511  27.540  1.00  0.00    -0.014 A 
ATOM     75  C   UNL A   1      41.966  22.407  28.311  1.00  0.00     0.009 A 
ATOM     76  C   UNL A   1      42.591  23.325  26.166  1.00  0.00     0.009 A 
ATOM     77  C   UNL A   1      41.847  21.140  27.734  1.00  0.00     0.001 A 
ATOM     78  C   UNL A   1      42.435  22.064  25.584  1.00  0.00     0.001 A 
ATOM     79  C   UNL A   1      42.081  20.970  26.372  1.00  0.00     0.000 A 
ENDBRANCH  55  74
BRANCH  67  80
ATOM     80  C   UNL A   1      47.981  26.451  30.427  1.00  0.00    -0.014 A 
ATOM     81  C   UNL A   1      48.306  25.809  31.632  1.00  0.00     0.009 A 
ATOM     82  C   UNL A   1      48.962  26.559  29.428  1.00  0.00     0.009 A 
ATOM     83  C   UNL A   1      49.593  25.312  31.840  1.00  0.00     0.001 A 
ATOM     84  C   UNL A   1      50.237  26.030  29.625  1.00  0.00     0.001 A 
ATOM     85  C   UNL A   1      50.554  25.416  30.834  1.00  0.00     0.000 A 
ENDBRANCH  67  80
ENDBRANCH  41  42
ENDBRANCH  33  36
ENDBRANCH  31  32
ENDBRANCH  30  31
ENDBRANCH   1  30
TORSDOF 14
ENDMDL
MODEL 2
REMARK VINA RESULT:     -12.6      3.332      8.913
REMARK SMILES O=C(NCCCCNC(=O)c1ccc(-c2c3nc(c(-c4ccccc4)c4ccc([nH]4)c(-c4ccccc4)c4nc(c(-c5ccccc5)c5ccc2[nH]5)C=C4)C=C3)cc1)C1=Cc2cc(Cl)cc(C#Cc3ccccc3)c2O[C@@H]1C(F)(F)F
REMARK SMILES IDX 5 1 4 2 3 3 1 4 2 5 59 7 60 8 77 9 61 10 76 11 62 12 75 13
REMARK SMILES IDX 63 14 66 15 64 16 65 17 78 18 79 19 80 20 81 21 67 22 68 23
REMARK SMILES IDX 69 24 70 25 74 26 71 27 73 28 72 29 6 30 7 31 8 32 9 33
REMARK SMILES IDX 10 35 11 36 12 37 58 38 13 39 57 40 14 41 15 42 16 43 51 44
REMARK SMILES IDX 17 45 56 46 50 47 52 48 18 49 55 50 49 51 48 52 19 54 41 55
REMARK SMILES IDX 26 56 40 57 27 58 30 59 39 60 53 61 28 62 29 63 38 65 54 66
REMARK SMILES IDX 31 67 20 68 21 69 25 70 22 71 24 72 23 73 42 74 43 75 47 76
REMARK SMILES IDX 44 77 46 78 45 79 32 80 33 81 37 82 34 83 36 84 35 85
REMARK H PARENT 3 6 8 34 52 53 30 64
REMARK Flexibility Score: inf
ROOT
ATOM      1  C   UNL A   1      36.152  22.779  23.474  1.00  0.00     0.023 C 
ENDROOT
BRANCH   1   2
ATOM      2  C   UNL A   1      34.659  23.079  23.496  1.00  0.00     0.116 C 
BRANCH   2   3
ATOM      3  N   UNL A   1      34.246  24.295  22.825  1.00  0.00    -0.352 N 
ATOM      4  O   UNL A   1      33.648  26.452  22.678  1.00  0.00    -0.270 OA
ATOM      5  C   UNL A   1      33.641  25.412  23.334  1.00  0.00     0.251 C 
ATOM      6  H   UNL A   1      34.430  24.322  21.859  1.00  0.00     0.163 HD
BRANCH   5   7
ATOM      7  C   UNL A   1      33.048  25.446  24.703  1.00  0.00     0.067 C 
ATOM      8  C   UNL A   1      33.681  26.026  25.739  1.00  0.00     0.025 C 
ATOM      9  C   UNL A   1      31.542  25.435  24.699  1.00  0.00     0.314 C 
ATOM     10  C   UNL A   1      32.997  27.272  26.191  1.00  0.00     0.020 A 
ATOM     11  O   UNL A   1      31.021  26.785  24.837  1.00  0.00    -0.474 OA
ATOM     12  C   UNL A   1      33.787  28.204  26.876  1.00  0.00     0.032 A 
ATOM     13  C   UNL A   1      31.802  27.673  25.547  1.00  0.00     0.143 A 
ATOM     14  C   UNL A   1      33.446  29.552  26.820  1.00  0.00     0.043 A 
ATOM     15  C   UNL A   1      31.522  29.045  25.427  1.00  0.00     0.069 A 
ATOM     16  Cl  UNL A   1      34.519  30.719  27.490  1.00  0.00    -0.084 Cl
ATOM     17  C   UNL A   1      32.339  29.979  26.082  1.00  0.00     0.041 A 
BRANCH   9  18
ATOM     18  C   UNL A   1      30.988  24.459  25.754  1.00  0.00     0.429 C 
ATOM     19  F   UNL A   1      31.867  24.260  26.762  1.00  0.00    -0.167 F 
ATOM     20  F   UNL A   1      29.848  24.935  26.314  1.00  0.00    -0.167 F 
ATOM     21  F   UNL A   1      30.690  23.243  25.234  1.00  0.00    -0.167 F 
ENDBRANCH   9  18
BRANCH  15  22
ATOM     22  C   UNL A   1      30.618  29.543  24.418  1.00  0.00    -0.058 C 
ATOM     23  C   UNL A   1      29.949  30.092  23.584  1.00  0.00    -0.062 C 
BRANCH  23  24
ATOM     24  C   UNL A   1      29.131  30.823  22.652  1.00  0.00     0.025 A 
ATOM     25  C   UNL A   1      28.779  32.142  22.937  1.00  0.00     0.017 A 
ATOM     26  C   UNL A   1      28.727  30.255  21.439  1.00  0.00     0.017 A 
ATOM     27  C   UNL A   1      28.064  32.899  22.005  1.00  0.00     0.001 A 
ATOM     28  C   UNL A   1      28.028  31.020  20.497  1.00  0.00     0.001 A 
ATOM     29  C   UNL A   1      27.704  32.346  20.777  1.00  0.00     0.000 A 
ENDBRANCH  23  24
ENDBRANCH  15  22
ENDBRANCH   5   7
ENDBRANCH   2   3
ENDBRANCH   1   2
BRANCH   1  30
ATOM     30  C   UNL A   1      36.653  22.043  24.710  1.00  0.00     0.023 C 
BRANCH  30  31
ATOM     31  C   UNL A   1      37.562  22.850  25.638  1.00  0.00     0.116 C 
BRANCH  31  32
ATOM     32  N   UNL A   1      38.917  22.325  25.764  1.00  0.00    -0.352 N 
ATOM     33  C   UNL A   1      40.030  22.951  26.297  1.00  0.00     0.251 C 
ATOM     34  H   UNL A   1      39.058  21.410  25.429  1.00  0.00     0.163 HD
ATOM     35  O   UNL A   1      41.130  22.416  26.290  1.00  0.00    -0.269 OA
BRANCH  33  36
ATOM     36  C   UNL A   1      39.857  24.304  26.863  1.00  0.00     0.039 A 
ATOM     37  C   UNL A   1      39.280  24.481  28.120  1.00  0.00     0.014 A 
ATOM     38  C   UNL A   1      40.431  25.377  26.190  1.00  0.00     0.014 A 
ATOM     39  C   UNL A   1      39.397  25.724  28.754  1.00  0.00     0.010 A 
ATOM     40  C   UNL A   1      40.655  26.565  26.869  1.00  0.00     0.010 A 
ATOM     41  C   UNL A   1      40.149  26.755  28.163  1.00  0.00    -0.014 A 
BRANCH  41  42
ATOM     42  C   UNL A   1      40.475  28.025  28.867  1.00  0.00     0.031 A 
ATOM     43  C   UNL A   1      41.773  28.154  29.623  1.00  0.00     0.074 A 
ATOM     44  C   UNL A   1      39.544  28.999  28.953  1.00  0.00     0.049 A 
ATOM     45  N   UNL A   1      42.182  29.125  30.401  1.00  0.00    -0.248 NA
ATOM     46  C   UNL A   1      42.718  27.025  29.534  1.00  0.00     0.031 C 
ATOM     47  C   UNL A   1      38.210  28.962  28.345  1.00  0.00     0.029 A 
ATOM     48  N   UNL A   1      39.566  30.206  29.613  1.00  0.00    -0.354 N 
ATOM     49  C   UNL A   1      43.408  28.710  30.910  1.00  0.00     0.074 A 
ATOM     50  C   UNL A   1      43.652  27.380  30.404  1.00  0.00     0.031 C 
ATOM     51  C   UNL A   1      37.557  30.100  28.636  1.00  0.00     0.029 A 
ATOM     52  C   UNL A   1      38.401  30.928  29.488  1.00  0.00     0.049 A 
ATOM     53  H   UNL A   1      40.344  30.523  30.126  1.00  0.00     0.167 HD
ATOM     54  C   UNL A   1      44.265  29.387  31.710  1.00  0.00     0.031 A 
ATOM     55  C   UNL A   1      38.048  32.120  30.009  1.00  0.00     0.031 A 
ATOM     56  C   UNL A   1      44.034  30.725  32.183  1.00  0.00     0.049 A 
ATOM     57  C   UNL A   1      39.032  32.857  30.880  1.00  0.00     0.074 A 
ATOM     58  C   UNL A   1      44.890  31.537  32.907  1.00  0.00     0.029 A 
ATOM     59  N   UNL A   1      42.867  31.442  31.986  1.00  0.00    -0.354 N 
ATOM     60  N   UNL A   1      40.241  32.500  31.245  1.00  0.00    -0.248 NA
ATOM     61  C   UNL A   1      38.612  34.167  31.399  1.00  0.00     0.031 C 
ATOM     62  C   UNL A   1      44.213  32.720  33.209  1.00  0.00     0.029 A 
ATOM     63  C   UNL A   1      42.966  32.674  32.605  1.00  0.00     0.049 A 
ATOM     64  H   UNL A   1      42.084  31.123  31.482  1.00  0.00     0.167 HD
ATOM     65  C   UNL A   1      40.738  33.560  31.993  1.00  0.00     0.074 A 
ATOM     66  C   UNL A   1      39.707  34.576  32.021  1.00  0.00     0.031 C 
ATOM     67  C   UNL A   1      41.941  33.684  32.602  1.00  0.00     0.031 A 
BRANCH  54  68
ATOM     68  C   UNL A   1      45.543  28.710  32.121  1.00  0.00    -0.014 A 
ATOM     69  C   UNL A   1      46.719  28.852  31.368  1.00  0.00     0.009 A 
ATOM     70  C   UNL A   1      45.596  28.004  33.335  1.00  0.00     0.009 A 
ATOM     71  C   UNL A   1      47.916  28.286  31.811  1.00  0.00     0.001 A 
ATOM     72  C   UNL A   1      46.801  27.467  33.790  1.00  0.00     0.001 A 
ATOM     73  C   UNL A   1      47.959  27.603  33.027  1.00  0.00     0.000 A 
ENDBRANCH  54  68
BRANCH  55  74
ATOM     74  C   UNL A   1      36.711  32.713  29.725  1.00  0.00    -0.014 A 
ATOM     75  C   UNL A   1      36.512  33.514  28.589  1.00  0.00     0.009 A 
ATOM     76  C   UNL A   1      35.639  32.528  30.613  1.00  0.00     0.009 A 
ATOM     77  C   UNL A   1      35.291  34.158  28.377  1.00  0.00     0.001 A 
ATOM     78  C   UNL A   1      34.407  33.142  30.379  1.00  0.00     0.001 A 
ATOM     79  C   UNL A   1      34.239  33.972  29.270  1.00  0.00     0.000 A 
ENDBRANCH  55  74
BRANCH  67  80
ATOM     80  C   UNL A   1      42.246  34.983  33.293  1.00  0.00    -0.014 A 
ATOM     81  C   UNL A   1      41.825  35.234  34.608  1.00  0.00     0.009 A 
ATOM     82  C   UNL A   1      43.030  35.944  32.634  1.00  0.00     0.009 A 
ATOM     83  C   UNL A   1      42.161  36.434  35.237  1.00  0.00     0.001 A 
ATOM     84  C   UNL A   1      43.393  37.125  33.278  1.00  0.00     0.001 A 
ATOM     85  C   UNL A   1      42.951  37.374  34.575  1.00  0.00     0.000 A 
ENDBRANCH  67  80
ENDBRANCH  41  42
ENDBRANCH  33  36
ENDBRANCH  31  32
ENDBRANCH  30  31
ENDBRANCH   1  30
TORSDOF 14
ENDMDL
MODEL 3
REMARK VINA RESULT:     -12.3      3.241      8.372
REMARK SMILES O=C(NCCCCNC(=O)c1ccc(-c2c3nc(c(-c4ccccc4)c4ccc([nH]4)c(-c4ccccc4)c4nc(c(-c5ccccc5)c5ccc2[nH]5)C=C4)C=C3)cc1)C1=Cc2cc(Cl)cc(C#Cc3ccccc3)c2O[C@@H]1C(F)(F)F
REMARK SMILES IDX 5 1 4 2 3 3 1 4 2 5 59 7 60 8 77 9 61 10 76 11 62 12 75 13
REMARK SMILES IDX 63 14 66 15 64 16 65 17 78 18 79 19 80 20 81 21 67 22 68 23
REMARK SMILES IDX 69 24 70 25 74 26 71 27 73 28 72 29 6 30 7 31 8 32 9 33
REMARK SMILES IDX 10 35 11 36 12 37 58 38 13 39 57 40 14 41 15 42 16 43 51 44
REMARK SMILES IDX 17 45 56 46 50 47 52 48 18 49 55 50 49 51 48 52 19 54 41 55
REMARK SMILES IDX 26 56 40 57 27 58 30 59 39 60 53 61 28 62 29 63 38 65 54 66
REMARK SMILES IDX 31 67 20 68 21 69 25 70 22 71 24 72 23 73 42 74 43 75 47 76
REMARK SMILES IDX 44 77 46 78 45 79 32 80 33 81 37 82 34 83 36 84 35 85
REMARK H PARENT 3 6 8 34 52 53 30 64
REMARK Flexibility Score: inf
ROOT
ATOM      1  C   UNL A   1      34.765  20.480  25.035  1.00  0.00     0.023 C 
ENDROOT
BRANCH   1   2
ATOM      2  C   UNL A   1      33.318  20.347  25.489  1.00  0.00     0.116 C 
BRANCH   2   3
ATOM      3  N   UNL A   1      32.819  21.407  26.341  1.00  0.00    -0.352 N 
ATOM      4  O   UNL A   1      31.616  23.229  26.853  1.00  0.00    -0.270 OA
ATOM      5  C   UNL A   1      32.249  22.605  26.005  1.00  0.00     0.251 C 
ATOM      6  H   UNL A   1      32.902  21.240  27.307  1.00  0.00     0.163 HD
BRANCH   5   7
ATOM      7  C   UNL A   1      32.286  23.143  24.613  1.00  0.00     0.067 C 
ATOM      8  C   UNL A   1      31.163  23.440  23.934  1.00  0.00     0.025 C 
ATOM      9  C   UNL A   1      33.534  23.934  24.316  1.00  0.00     0.314 C 
ATOM     10  C   UNL A   1      30.997  24.908  23.732  1.00  0.00     0.020 A 
ATOM     11  O   UNL A   1      33.284  25.358  24.470  1.00  0.00    -0.474 OA
ATOM     12  C   UNL A   1      29.692  25.364  23.513  1.00  0.00     0.032 A 
ATOM     13  C   UNL A   1      31.998  25.786  24.214  1.00  0.00     0.143 A 
ATOM     14  C   UNL A   1      29.357  26.663  23.885  1.00  0.00     0.043 A 
ATOM     15  C   UNL A   1      31.623  27.063  24.664  1.00  0.00     0.069 A 
ATOM     16  Cl  UNL A   1      27.712  27.163  23.804  1.00  0.00    -0.084 Cl
ATOM     17  C   UNL A   1      30.303  27.502  24.480  1.00  0.00     0.041 A 
BRANCH   9  18
ATOM     18  C   UNL A   1      34.113  23.565  22.938  1.00  0.00     0.429 C 
ATOM     19  F   UNL A   1      33.874  24.528  22.019  1.00  0.00    -0.167 F 
ATOM     20  F   UNL A   1      35.458  23.402  22.997  1.00  0.00    -0.167 F 
ATOM     21  F   UNL A   1      33.602  22.408  22.450  1.00  0.00    -0.167 F 
ENDBRANCH   9  18
BRANCH  15  22
ATOM     22  C   UNL A   1      32.453  27.815  25.573  1.00  0.00    -0.058 C 
ATOM     23  C   UNL A   1      33.089  28.571  26.259  1.00  0.00    -0.062 C 
BRANCH  23  24
ATOM     24  C   UNL A   1      33.888  29.513  26.996  1.00  0.00     0.025 A 
ATOM     25  C   UNL A   1      35.202  29.185  27.330  1.00  0.00     0.017 A 
ATOM     26  C   UNL A   1      33.393  30.776  27.338  1.00  0.00     0.017 A 
ATOM     27  C   UNL A   1      36.025  30.119  27.964  1.00  0.00     0.001 A 
ATOM     28  C   UNL A   1      34.223  31.720  27.956  1.00  0.00     0.001 A 
ATOM     29  C   UNL A   1      35.543  31.393  28.261  1.00  0.00     0.000 A 
ENDBRANCH  23  24
ENDBRANCH  15  22
ENDBRANCH   5   7
ENDBRANCH   2   3
ENDBRANCH   1   2
BRANCH   1  30
ATOM     30  C   UNL A   1      35.601  21.411  25.904  1.00  0.00     0.023 C 
BRANCH  30  31
ATOM     31  C   UNL A   1      36.942  21.843  25.311  1.00  0.00     0.116 C 
BRANCH  31  32
ATOM     32  N   UNL A   1      38.001  20.845  25.416  1.00  0.00    -0.352 N 
ATOM     33  C   UNL A   1      39.248  20.979  26.000  1.00  0.00     0.251 C 
ATOM     34  H   UNL A   1      37.803  19.965  25.022  1.00  0.00     0.163 HD
ATOM     35  O   UNL A   1      40.071  20.075  25.968  1.00  0.00    -0.269 OA
BRANCH  33  36
ATOM     36  C   UNL A   1      39.570  22.264  26.653  1.00  0.00     0.039 A 
ATOM     37  C   UNL A   1      40.606  22.350  27.583  1.00  0.00     0.014 A 
ATOM     38  C   UNL A   1      38.931  23.413  26.199  1.00  0.00     0.014 A 
ATOM     39  C   UNL A   1      41.081  23.611  27.960  1.00  0.00     0.010 A 
ATOM     40  C   UNL A   1      39.483  24.654  26.475  1.00  0.00     0.010 A 
ATOM     41  C   UNL A   1      40.570  24.773  27.352  1.00  0.00    -0.014 A 
BRANCH  41  42
ATOM     42  C   UNL A   1      41.162  26.122  27.561  1.00  0.00     0.031 A 
ATOM     43  C   UNL A   1      42.503  26.457  26.958  1.00  0.00     0.074 A 
ATOM     44  C   UNL A   1      40.570  26.987  28.413  1.00  0.00     0.049 A 
ATOM     45  N   UNL A   1      43.240  27.526  27.128  1.00  0.00    -0.248 NA
ATOM     46  C   UNL A   1      43.120  25.441  26.085  1.00  0.00     0.031 C 
ATOM     47  C   UNL A   1      39.317  26.750  29.137  1.00  0.00     0.029 A 
ATOM     48  N   UNL A   1      40.960  28.235  28.839  1.00  0.00    -0.354 N 
ATOM     49  C   UNL A   1      44.410  27.295  26.412  1.00  0.00     0.074 A 
ATOM     50  C   UNL A   1      44.314  25.967  25.854  1.00  0.00     0.031 C 
ATOM     51  C   UNL A   1      39.029  27.824  29.891  1.00  0.00     0.029 A 
ATOM     52  C   UNL A   1      40.096  28.807  29.745  1.00  0.00     0.049 A 
ATOM     53  H   UNL A   1      41.781  28.678  28.525  1.00  0.00     0.167 HD
ATOM     54  C   UNL A   1      45.462  28.125  26.218  1.00  0.00     0.031 A 
ATOM     55  C   UNL A   1      40.160  29.988  30.393  1.00  0.00     0.031 A 
ATOM     56  C   UNL A   1      45.538  29.460  26.746  1.00  0.00     0.049 A 
ATOM     57  C   UNL A   1      41.334  30.897  30.141  1.00  0.00     0.074 A 
ATOM     58  C   UNL A   1      46.510  30.419  26.515  1.00  0.00     0.029 A 
ATOM     59  N   UNL A   1      44.615  30.021  27.612  1.00  0.00    -0.354 N 
ATOM     60  N   UNL A   1      42.369  30.711  29.358  1.00  0.00    -0.248 NA
ATOM     61  C   UNL A   1      41.341  32.187  30.848  1.00  0.00     0.031 C 
ATOM     62  C   UNL A   1      46.211  31.536  27.298  1.00  0.00     0.029 A 
ATOM     63  C   UNL A   1      45.013  31.301  27.953  1.00  0.00     0.049 A 
ATOM     64  H   UNL A   1      43.798  29.576  27.936  1.00  0.00     0.167 HD
ATOM     65  C   UNL A   1      43.122  31.875  29.443  1.00  0.00     0.074 A 
ATOM     66  C   UNL A   1      42.421  32.765  30.344  1.00  0.00     0.031 C 
ATOM     67  C   UNL A   1      44.290  32.183  28.830  1.00  0.00     0.031 A 
BRANCH  54  68
ATOM     68  C   UNL A   1      46.616  27.633  25.390  1.00  0.00    -0.014 A 
ATOM     69  C   UNL A   1      46.728  27.956  24.028  1.00  0.00     0.009 A 
ATOM     70  C   UNL A   1      47.660  26.923  26.006  1.00  0.00     0.009 A 
ATOM     71  C   UNL A   1      47.850  27.561  23.297  1.00  0.00     0.001 A 
ATOM     72  C   UNL A   1      48.795  26.558  25.280  1.00  0.00     0.001 A 
ATOM     73  C   UNL A   1      48.887  26.872  23.925  1.00  0.00     0.000 A 
ENDBRANCH  54  68
BRANCH  55  74
ATOM     74  C   UNL A   1      39.085  30.399  31.340  1.00  0.00    -0.014 A 
ATOM     75  C   UNL A   1      38.015  31.195  30.901  1.00  0.00     0.009 A 
ATOM     76  C   UNL A   1      39.148  30.046  32.697  1.00  0.00     0.009 A 
ATOM     77  C   UNL A   1      37.063  31.672  31.807  1.00  0.00     0.001 A 
ATOM     78  C   UNL A   1      38.174  30.492  33.594  1.00  0.00     0.001 A 
ATOM     79  C   UNL A   1      37.143  31.320  33.151  1.00  0.00     0.000 A 
ENDBRANCH  55  74
BRANCH  67  80
ATOM     80  C   UNL A   1      44.855  33.558  29.050  1.00  0.00    -0.014 A 
ATOM     81  C   UNL A   1      44.483  34.645  28.246  1.00  0.00     0.009 A 
ATOM     82  C   UNL A   1      45.725  33.777  30.131  1.00  0.00     0.009 A 
ATOM     83  C   UNL A   1      44.993  35.918  28.503  1.00  0.00     0.001 A 
ATOM     84  C   UNL A   1      46.204  35.056  30.407  1.00  0.00     0.001 A 
ATOM     85  C   UNL A   1      45.846  36.124  29.587  1.00  0.00     0.000 A 
ENDBRANCH  67  80
ENDBRANCH  41  42
ENDBRANCH  33  36
ENDBRANCH  31  32
ENDBRANCH  30  31
ENDBRANCH   1  30
TORSDOF 14
ENDMDL
