MODEL 1
REMARK VINA RESULT:     -13.0      0.000      0.000
REMARK SMILES CN1C(=O)C[C@@H](C(=O)NCCCCNC(=O)c2ccc(-c3c4nc(c(-c5ccccc5)c5ccc([nH]5)c(-c5ccccc5)c5nc(c(-c6ccccc6)c6ccc3[nH]6)C=C5)C=C4)cc2)C12CCN(C(=O)c1cccc3ccccc13)CC2
REMARK SMILES IDX 12 1 11 2 10 3 9 4 7 5 8 6 6 8 1 9 2 10 3 11 65 12 4 13 5 14
REMARK SMILES IDX 66 15 82 16 67 17 81 18 68 19 69 20 70 21 71 22 72 23 80 24
REMARK SMILES IDX 73 25 75 26 79 27 74 28 76 29 78 30 77 31 13 32 14 33 15 34
REMARK SMILES IDX 16 36 17 37 18 38 64 39 19 40 63 41 20 42 21 43 22 44 57 45
REMARK SMILES IDX 23 46 62 47 56 48 58 49 24 50 61 51 55 52 54 53 25 55 47 56
REMARK SMILES IDX 32 57 46 58 33 59 36 60 45 61 59 62 34 63 35 64 44 66 60 67
REMARK SMILES IDX 37 68 26 69 27 70 31 71 28 72 30 73 29 74 48 75 49 76 53 77
REMARK SMILES IDX 50 78 52 79 51 80 38 81 39 82 43 83 40 84 42 85 41 86
REMARK H PARENT 9 7 14 35 58 54 36 65
REMARK Flexibility Score: inf
ROOT
ATOM      1  C   UNL A   1      39.227  21.705  25.877  1.00  0.00     0.023 C 
ENDROOT
BRANCH   1   2
ATOM      2  C   UNL A   1      39.104  23.171  26.271  1.00  0.00     0.023 C 
BRANCH   2   3
ATOM      3  C   UNL A   1      37.702  23.756  26.075  1.00  0.00     0.116 C 
BRANCH   3   4
ATOM      4  N   UNL A   1      37.092  23.465  24.787  1.00  0.00    -0.356 N 
ATOM      5  C   UNL A   1      35.995  22.753  24.416  1.00  0.00     0.226 C 
ATOM      6  O   UNL A   1      35.709  22.786  23.213  1.00  0.00    -0.275 OA
ATOM      7  H   UNL A   1      37.574  23.865  24.028  1.00  0.00     0.163 HD
BRANCH   5   8
ATOM      8  C   UNL A   1      35.140  21.889  25.351  1.00  0.00     0.113 C 
ATOM      9  C   UNL A   1      32.318  20.028  23.722  1.00  0.00     0.147 C 
ATOM     10  N   UNL A   1      33.512  20.538  24.367  1.00  0.00    -0.339 N 
ATOM     11  C   UNL A   1      34.570  19.675  24.654  1.00  0.00     0.223 C 
ATOM     12  C   UNL A   1      33.620  21.832  25.062  1.00  0.00     0.058 C 
ATOM     13  O   UNL A   1      34.661  18.507  24.329  1.00  0.00    -0.275 OA
ATOM     14  C   UNL A   1      35.624  20.442  25.403  1.00  0.00     0.116 C 
ATOM     15  C   UNL A   1      33.137  23.050  24.245  1.00  0.00     0.051 C 
ATOM     16  C   UNL A   1      32.762  21.760  26.360  1.00  0.00     0.051 C 
ATOM     17  C   UNL A   1      33.158  24.348  25.048  1.00  0.00     0.122 C 
ATOM     18  C   UNL A   1      32.585  23.109  27.067  1.00  0.00     0.122 C 
ATOM     19  N   UNL A   1      32.224  24.175  26.132  1.00  0.00    -0.338 N 
ATOM     20  C   UNL A   1      30.981  24.791  26.206  1.00  0.00     0.254 C 
ATOM     21  O   UNL A   1      30.090  24.380  26.950  1.00  0.00    -0.269 OA
BRANCH  20  22
ATOM     22  C   UNL A   1      30.718  26.085  25.513  1.00  0.00     0.047 A 
ATOM     23  C   UNL A   1      30.007  25.931  24.310  1.00  0.00     0.014 A 
ATOM     24  C   UNL A   1      31.309  27.340  25.849  1.00  0.00    -0.006 A 
ATOM     25  C   UNL A   1      29.942  26.972  23.391  1.00  0.00     0.001 A 
ATOM     26  C   UNL A   1      31.274  28.369  24.871  1.00  0.00    -0.018 A 
ATOM     27  C   UNL A   1      31.921  27.664  27.084  1.00  0.00     0.009 A 
ATOM     28  C   UNL A   1      30.611  28.163  23.653  1.00  0.00     0.009 A 
ATOM     29  C   UNL A   1      31.900  29.603  25.111  1.00  0.00     0.009 A 
ATOM     30  C   UNL A   1      32.436  28.937  27.351  1.00  0.00     0.001 A 
ATOM     31  C   UNL A   1      32.457  29.897  26.352  1.00  0.00     0.001 A 
ENDBRANCH  20  22
ENDBRANCH   5   8
ENDBRANCH   3   4
ENDBRANCH   2   3
ENDBRANCH   1   2
BRANCH   1  32
ATOM     32  C   UNL A   1      40.013  20.883  26.884  1.00  0.00     0.116 C 
BRANCH  32  33
ATOM     33  N   UNL A   1      41.073  20.102  26.251  1.00  0.00    -0.352 N 
ATOM     34  C   UNL A   1      42.334  20.503  25.888  1.00  0.00     0.251 C 
ATOM     35  H   UNL A   1      40.852  19.162  26.059  1.00  0.00     0.163 HD
ATOM     36  O   UNL A   1      43.045  19.802  25.180  1.00  0.00    -0.269 OA
BRANCH  34  37
ATOM     37  C   UNL A   1      42.793  21.820  26.353  1.00  0.00     0.039 A 
ATOM     38  C   UNL A   1      43.017  22.833  25.420  1.00  0.00     0.014 A 
ATOM     39  C   UNL A   1      42.875  22.067  27.724  1.00  0.00     0.014 A 
ATOM     40  C   UNL A   1      43.233  24.131  25.875  1.00  0.00     0.010 A 
ATOM     41  C   UNL A   1      42.990  23.373  28.169  1.00  0.00     0.010 A 
ATOM     42  C   UNL A   1      43.162  24.418  27.248  1.00  0.00    -0.014 A 
BRANCH  42  43
ATOM     43  C   UNL A   1      43.241  25.807  27.757  1.00  0.00     0.031 A 
ATOM     44  C   UNL A   1      44.564  26.362  28.202  1.00  0.00     0.074 A 
ATOM     45  C   UNL A   1      42.110  26.523  27.913  1.00  0.00     0.049 A 
ATOM     46  N   UNL A   1      44.824  27.504  28.782  1.00  0.00    -0.248 NA
ATOM     47  C   UNL A   1      45.745  25.506  27.998  1.00  0.00     0.031 C 
ATOM     48  C   UNL A   1      40.760  26.072  27.562  1.00  0.00     0.029 A 
ATOM     49  N   UNL A   1      41.914  27.780  28.426  1.00  0.00    -0.354 N 
ATOM     50  C   UNL A   1      46.190  27.493  29.033  1.00  0.00     0.074 A 
ATOM     51  C   UNL A   1      46.696  26.214  28.589  1.00  0.00     0.031 C 
ATOM     52  C   UNL A   1      39.882  27.045  27.851  1.00  0.00     0.029 A 
ATOM     53  C   UNL A   1      40.595  28.164  28.456  1.00  0.00     0.049 A 
ATOM     54  H   UNL A   1      42.650  28.353  28.743  1.00  0.00     0.167 HD
ATOM     55  C   UNL A   1      46.955  28.469  29.572  1.00  0.00     0.031 A 
ATOM     56  C   UNL A   1      40.022  29.283  28.938  1.00  0.00     0.031 A 
ATOM     57  C   UNL A   1      46.447  29.743  30.000  1.00  0.00     0.049 A 
ATOM     58  C   UNL A   1      40.896  30.344  29.550  1.00  0.00     0.074 A 
ATOM     59  C   UNL A   1      47.152  30.829  30.489  1.00  0.00     0.029 A 
ATOM     60  N   UNL A   1      45.108  30.101  29.999  1.00  0.00    -0.354 N 
ATOM     61  N   UNL A   1      42.198  30.356  29.699  1.00  0.00    -0.248 NA
ATOM     62  C   UNL A   1      40.220  31.546  30.056  1.00  0.00     0.031 C 
ATOM     63  C   UNL A   1      46.232  31.817  30.849  1.00  0.00     0.029 A 
ATOM     64  C   UNL A   1      44.961  31.374  30.520  1.00  0.00     0.049 A 
ATOM     65  H   UNL A   1      44.371  29.532  29.676  1.00  0.00     0.167 HD
ATOM     66  C   UNL A   1      42.500  31.574  30.294  1.00  0.00     0.074 A 
ATOM     67  C   UNL A   1      41.248  32.282  30.457  1.00  0.00     0.031 C 
ATOM     68  C   UNL A   1      43.705  32.061  30.677  1.00  0.00     0.031 A 
BRANCH  55  69
ATOM     69  C   UNL A   1      48.422  28.192  29.741  1.00  0.00    -0.014 A 
ATOM     70  C   UNL A   1      49.348  28.506  28.735  1.00  0.00     0.009 A 
ATOM     71  C   UNL A   1      48.890  27.652  30.950  1.00  0.00     0.009 A 
ATOM     72  C   UNL A   1      50.710  28.259  28.924  1.00  0.00     0.001 A 
ATOM     73  C   UNL A   1      50.253  27.435  31.149  1.00  0.00     0.001 A 
ATOM     74  C   UNL A   1      51.161  27.731  30.133  1.00  0.00     0.000 A 
ENDBRANCH  55  69
BRANCH  56  75
ATOM     75  C   UNL A   1      38.545  29.456  28.879  1.00  0.00    -0.014 A 
ATOM     76  C   UNL A   1      37.920  29.881  27.697  1.00  0.00     0.009 A 
ATOM     77  C   UNL A   1      37.755  29.218  30.014  1.00  0.00     0.009 A 
ATOM     78  C   UNL A   1      36.540  30.097  27.664  1.00  0.00     0.001 A 
ATOM     79  C   UNL A   1      36.372  29.402  29.969  1.00  0.00     0.001 A 
ATOM     80  C   UNL A   1      35.767  29.854  28.798  1.00  0.00     0.000 A 
ENDBRANCH  56  75
BRANCH  68  81
ATOM     81  C   UNL A   1      43.731  33.436  31.284  1.00  0.00    -0.014 A 
ATOM     82  C   UNL A   1      43.790  34.586  30.483  1.00  0.00     0.009 A 
ATOM     83  C   UNL A   1      43.641  33.580  32.678  1.00  0.00     0.009 A 
ATOM     84  C   UNL A   1      43.790  35.853  31.067  1.00  0.00     0.001 A 
ATOM     85  C   UNL A   1      43.607  34.850  33.257  1.00  0.00     0.001 A 
ATOM     86  C   UNL A   1      43.691  35.984  32.451  1.00  0.00     0.000 A 
ENDBRANCH  68  81
ENDBRANCH  42  43
ENDBRANCH  34  37
ENDBRANCH  32  33
ENDBRANCH   1  32
TORSDOF 12
ENDMDL
MODEL 2
REMARK VINA RESULT:     -12.8      2.739      3.361
REMARK SMILES CN1C(=O)C[C@@H](C(=O)NCCCCNC(=O)c2ccc(-c3c4nc(c(-c5ccccc5)c5ccc([nH]5)c(-c5ccccc5)c5nc(c(-c6ccccc6)c6ccc3[nH]6)C=C5)C=C4)cc2)C12CCN(C(=O)c1cccc3ccccc13)CC2
REMARK SMILES IDX 12 1 11 2 10 3 9 4 7 5 8 6 6 8 1 9 2 10 3 11 65 12 4 13 5 14
REMARK SMILES IDX 66 15 82 16 67 17 81 18 68 19 69 20 70 21 71 22 72 23 80 24
REMARK SMILES IDX 73 25 75 26 79 27 74 28 76 29 78 30 77 31 13 32 14 33 15 34
REMARK SMILES IDX 16 36 17 37 18 38 64 39 19 40 63 41 20 42 21 43 22 44 57 45
REMARK SMILES IDX 23 46 62 47 56 48 58 49 24 50 61 51 55 52 54 53 25 55 47 56
REMARK SMILES IDX 32 57 46 58 33 59 36 60 45 61 59 62 34 63 35 64 44 66 60 67
REMARK SMILES IDX 37 68 26 69 27 70 31 71 28 72 30 73 29 74 48 75 49 76 53 77
REMARK SMILES IDX 50 78 52 79 51 80 38 81 39 82 43 83 40 84 42 85 41 86
REMARK H PARENT 9 7 14 35 58 54 36 65
REMARK Flexibility Score: inf
ROOT
ATOM      1  C   UNL A   1      39.214  22.260  25.943  1.00  0.00     0.023 C 
ENDROOT
BRANCH   1   2
ATOM      2  C   UNL A   1      38.857  23.645  26.463  1.00  0.00     0.023 C 
BRANCH   2   3
ATOM      3  C   UNL A   1      37.433  24.095  26.122  1.00  0.00     0.116 C 
BRANCH   3   4
ATOM      4  N   UNL A   1      36.959  23.683  24.809  1.00  0.00    -0.356 N 
ATOM      5  C   UNL A   1      35.953  22.869  24.396  1.00  0.00     0.226 C 
ATOM      6  O   UNL A   1      35.770  22.811  23.173  1.00  0.00    -0.275 OA
ATOM      7  H   UNL A   1      37.475  24.076  24.068  1.00  0.00     0.163 HD
BRANCH   5   8
ATOM      8  C   UNL A   1      35.084  21.996  25.311  1.00  0.00     0.113 C 
ATOM      9  C   UNL A   1      32.368  20.048  23.605  1.00  0.00     0.147 C 
ATOM     10  N   UNL A   1      33.526  20.595  24.287  1.00  0.00    -0.339 N 
ATOM     11  C   UNL A   1      34.592  19.761  24.623  1.00  0.00     0.223 C 
ATOM     12  C   UNL A   1      33.578  21.900  24.967  1.00  0.00     0.058 C 
ATOM     13  O   UNL A   1      34.722  18.592  24.317  1.00  0.00    -0.275 OA
ATOM     14  C   UNL A   1      35.600  20.562  25.400  1.00  0.00     0.116 C 
ATOM     15  C   UNL A   1      33.096  23.095  24.117  1.00  0.00     0.051 C 
ATOM     16  C   UNL A   1      32.674  21.823  26.234  1.00  0.00     0.051 C 
ATOM     17  C   UNL A   1      33.058  24.403  24.902  1.00  0.00     0.122 C 
ATOM     18  C   UNL A   1      32.440  23.177  26.916  1.00  0.00     0.122 C 
ATOM     19  N   UNL A   1      32.089  24.222  25.954  1.00  0.00    -0.338 N 
ATOM     20  C   UNL A   1      30.830  24.809  25.975  1.00  0.00     0.254 C 
ATOM     21  O   UNL A   1      29.922  24.386  26.691  1.00  0.00    -0.269 OA
BRANCH  20  22
ATOM     22  C   UNL A   1      30.562  26.088  25.255  1.00  0.00     0.047 A 
ATOM     23  C   UNL A   1      30.017  25.895  23.974  1.00  0.00     0.014 A 
ATOM     24  C   UNL A   1      31.016  27.377  25.662  1.00  0.00    -0.006 A 
ATOM     25  C   UNL A   1      29.991  26.937  23.055  1.00  0.00     0.001 A 
ATOM     26  C   UNL A   1      31.028  28.410  24.687  1.00  0.00    -0.018 A 
ATOM     27  C   UNL A   1      31.448  27.733  26.963  1.00  0.00     0.009 A 
ATOM     28  C   UNL A   1      30.537  28.169  23.397  1.00  0.00     0.009 A 
ATOM     29  C   UNL A   1      31.531  29.684  25.003  1.00  0.00     0.009 A 
ATOM     30  C   UNL A   1      31.834  29.037  27.292  1.00  0.00     0.001 A 
ATOM     31  C   UNL A   1      31.909  30.005  26.303  1.00  0.00     0.001 A 
ENDBRANCH  20  22
ENDBRANCH   5   8
ENDBRANCH   3   4
ENDBRANCH   2   3
ENDBRANCH   1   2
BRANCH   1  32
ATOM     32  C   UNL A   1      40.488  21.704  26.557  1.00  0.00     0.116 C 
BRANCH  32  33
ATOM     33  N   UNL A   1      41.607  21.726  25.618  1.00  0.00    -0.352 N 
ATOM     34  C   UNL A   1      42.577  22.683  25.462  1.00  0.00     0.251 C 
ATOM     35  H   UNL A   1      41.673  20.949  25.017  1.00  0.00     0.163 HD
ATOM     36  O   UNL A   1      43.333  22.672  24.500  1.00  0.00    -0.269 OA
BRANCH  34  37
ATOM     37  C   UNL A   1      42.660  23.746  26.476  1.00  0.00     0.039 A 
ATOM     38  C   UNL A   1      42.902  25.058  26.071  1.00  0.00     0.014 A 
ATOM     39  C   UNL A   1      42.369  23.441  27.807  1.00  0.00     0.014 A 
ATOM     40  C   UNL A   1      42.758  26.087  26.999  1.00  0.00     0.010 A 
ATOM     41  C   UNL A   1      42.129  24.472  28.699  1.00  0.00     0.010 A 
ATOM     42  C   UNL A   1      42.314  25.805  28.300  1.00  0.00    -0.014 A 
BRANCH  42  43
ATOM     43  C   UNL A   1      42.009  26.883  29.269  1.00  0.00     0.031 A 
ATOM     44  C   UNL A   1      42.824  27.008  30.524  1.00  0.00     0.074 A 
ATOM     45  C   UNL A   1      40.939  27.677  29.065  1.00  0.00     0.049 A 
ATOM     46  N   UNL A   1      42.646  27.804  31.545  1.00  0.00    -0.248 NA
ATOM     47  C   UNL A   1      43.972  26.095  30.664  1.00  0.00     0.031 C 
ATOM     48  C   UNL A   1      40.043  27.618  27.906  1.00  0.00     0.029 A 
ATOM     49  N   UNL A   1      40.413  28.680  29.838  1.00  0.00    -0.354 N 
ATOM     50  C   UNL A   1      43.641  27.472  32.456  1.00  0.00     0.074 A 
ATOM     51  C   UNL A   1      44.388  26.371  31.890  1.00  0.00     0.031 C 
ATOM     52  C   UNL A   1      39.092  28.557  28.038  1.00  0.00     0.029 A 
ATOM     53  C   UNL A   1      39.278  29.247  29.309  1.00  0.00     0.049 A 
ATOM     54  H   UNL A   1      40.811  28.967  30.692  1.00  0.00     0.167 HD
ATOM     55  C   UNL A   1      43.915  28.044  33.650  1.00  0.00     0.031 A 
ATOM     56  C   UNL A   1      38.465  30.199  29.805  1.00  0.00     0.031 A 
ATOM     57  C   UNL A   1      43.175  29.146  34.201  1.00  0.00     0.049 A 
ATOM     58  C   UNL A   1      38.783  30.804  31.145  1.00  0.00     0.074 A 
ATOM     59  C   UNL A   1      43.421  29.847  35.369  1.00  0.00     0.029 A 
ATOM     60  N   UNL A   1      42.043  29.702  33.627  1.00  0.00    -0.354 N 
ATOM     61  N   UNL A   1      39.780  30.540  31.954  1.00  0.00    -0.248 NA
ATOM     62  C   UNL A   1      37.866  31.841  31.637  1.00  0.00     0.031 C 
ATOM     63  C   UNL A   1      42.396  30.782  35.536  1.00  0.00     0.029 A 
ATOM     64  C   UNL A   1      41.552  30.710  34.439  1.00  0.00     0.049 A 
ATOM     65  H   UNL A   1      41.646  29.422  32.771  1.00  0.00     0.167 HD
ATOM     66  C   UNL A   1      39.623  31.393  33.039  1.00  0.00     0.074 A 
ATOM     67  C   UNL A   1      38.449  32.198  32.772  1.00  0.00     0.031 C 
ATOM     68  C   UNL A   1      40.380  31.498  34.158  1.00  0.00     0.031 A 
BRANCH  55  69
ATOM     69  C   UNL A   1      45.055  27.479  34.449  1.00  0.00    -0.014 A 
ATOM     70  C   UNL A   1      46.360  27.976  34.316  1.00  0.00     0.009 A 
ATOM     71  C   UNL A   1      44.807  26.465  35.388  1.00  0.00     0.009 A 
ATOM     72  C   UNL A   1      47.401  27.450  35.084  1.00  0.00     0.001 A 
ATOM     73  C   UNL A   1      45.842  25.962  36.177  1.00  0.00     0.001 A 
ATOM     74  C   UNL A   1      47.139  26.449  36.019  1.00  0.00     0.000 A 
ENDBRANCH  55  69
BRANCH  56  75
ATOM     75  C   UNL A   1      37.262  30.629  29.043  1.00  0.00    -0.014 A 
ATOM     76  C   UNL A   1      37.094  31.971  28.667  1.00  0.00     0.009 A 
ATOM     77  C   UNL A   1      36.262  29.703  28.708  1.00  0.00     0.009 A 
ATOM     78  C   UNL A   1      35.935  32.381  28.003  1.00  0.00     0.001 A 
ATOM     79  C   UNL A   1      35.121  30.109  28.013  1.00  0.00     0.001 A 
ATOM     80  C   UNL A   1      34.952  31.449  27.673  1.00  0.00     0.000 A 
ENDBRANCH  56  75
BRANCH  68  81
ATOM     81  C   UNL A   1      39.977  32.537  35.167  1.00  0.00    -0.014 A 
ATOM     82  C   UNL A   1      39.131  32.221  36.240  1.00  0.00     0.009 A 
ATOM     83  C   UNL A   1      40.497  33.838  35.068  1.00  0.00     0.009 A 
ATOM     84  C   UNL A   1      38.788  33.197  37.178  1.00  0.00     0.001 A 
ATOM     85  C   UNL A   1      40.179  34.801  36.027  1.00  0.00     0.001 A 
ATOM     86  C   UNL A   1      39.317  34.482  37.074  1.00  0.00     0.000 A 
ENDBRANCH  68  81
ENDBRANCH  42  43
ENDBRANCH  34  37
ENDBRANCH  32  33
ENDBRANCH   1  32
TORSDOF 12
ENDMDL
MODEL 3
REMARK VINA RESULT:     -12.7      3.417      8.756
REMARK SMILES CN1C(=O)C[C@@H](C(=O)NCCCCNC(=O)c2ccc(-c3c4nc(c(-c5ccccc5)c5ccc([nH]5)c(-c5ccccc5)c5nc(c(-c6ccccc6)c6ccc3[nH]6)C=C5)C=C4)cc2)C12CCN(C(=O)c1cccc3ccccc13)CC2
REMARK SMILES IDX 12 1 11 2 10 3 9 4 7 5 8 6 6 8 1 9 2 10 3 11 65 12 4 13 5 14
REMARK SMILES IDX 66 15 82 16 67 17 81 18 68 19 69 20 70 21 71 22 72 23 80 24
REMARK SMILES IDX 73 25 75 26 79 27 74 28 76 29 78 30 77 31 13 32 14 33 15 34
REMARK SMILES IDX 16 36 17 37 18 38 64 39 19 40 63 41 20 42 21 43 22 44 57 45
REMARK SMILES IDX 23 46 62 47 56 48 58 49 24 50 61 51 55 52 54 53 25 55 47 56
REMARK SMILES IDX 32 57 46 58 33 59 36 60 45 61 59 62 34 63 35 64 44 66 60 67
REMARK SMILES IDX 37 68 26 69 27 70 31 71 28 72 30 73 29 74 48 75 49 76 53 77
REMARK SMILES IDX 50 78 52 79 51 80 38 81 39 82 43 83 40 84 42 85 41 86
REMARK H PARENT 9 7 14 35 58 54 36 65
REMARK Flexibility Score: inf
ROOT
ATOM      1  C   UNL A   1      33.738  31.492  27.815  1.00  0.00     0.023 C 
ENDROOT
BRANCH   1   2
ATOM      2  C   UNL A   1      34.815  30.441  28.048  1.00  0.00     0.023 C 
BRANCH   2   3
ATOM      3  C   UNL A   1      34.619  29.155  27.239  1.00  0.00     0.116 C 
BRANCH   3   4
ATOM      4  N   UNL A   1      33.306  28.541  27.374  1.00  0.00    -0.356 N 
ATOM      5  C   UNL A   1      32.315  28.259  26.488  1.00  0.00     0.226 C 
ATOM      6  O   UNL A   1      31.345  27.638  26.940  1.00  0.00    -0.275 OA
ATOM      7  H   UNL A   1      33.093  28.277  28.298  1.00  0.00     0.163 HD
BRANCH   5   8
ATOM      8  C   UNL A   1      32.289  28.693  25.017  1.00  0.00     0.113 C 
ATOM      9  C   UNL A   1      29.153  27.865  23.130  1.00  0.00     0.147 C 
ATOM     10  N   UNL A   1      30.288  28.406  23.853  1.00  0.00    -0.339 N 
ATOM     11  C   UNL A   1      30.323  29.762  24.178  1.00  0.00     0.223 C 
ATOM     12  C   UNL A   1      31.591  27.740  24.016  1.00  0.00     0.058 C 
ATOM     13  O   UNL A   1      29.433  30.572  24.006  1.00  0.00    -0.275 OA
ATOM     14  C   UNL A   1      31.644  30.064  24.831  1.00  0.00     0.116 C 
ATOM     15  C   UNL A   1      31.520  26.291  24.543  1.00  0.00     0.051 C 
ATOM     16  C   UNL A   1      32.296  27.706  22.627  1.00  0.00     0.051 C 
ATOM     17  C   UNL A   1      32.883  25.606  24.582  1.00  0.00     0.122 C 
ATOM     18  C   UNL A   1      33.558  26.835  22.588  1.00  0.00     0.122 C 
ATOM     19  N   UNL A   1      33.344  25.532  23.219  1.00  0.00    -0.338 N 
ATOM     20  C   UNL A   1      33.391  24.366  22.465  1.00  0.00     0.254 C 
ATOM     21  O   UNL A   1      33.466  24.382  21.237  1.00  0.00    -0.269 OA
BRANCH  20  22
ATOM     22  C   UNL A   1      33.522  23.030  23.118  1.00  0.00     0.047 A 
ATOM     23  C   UNL A   1      32.294  22.358  23.249  1.00  0.00     0.014 A 
ATOM     24  C   UNL A   1      34.688  22.543  23.780  1.00  0.00    -0.006 A 
ATOM     25  C   UNL A   1      32.177  21.261  24.093  1.00  0.00     0.001 A 
ATOM     26  C   UNL A   1      34.530  21.454  24.678  1.00  0.00    -0.018 A 
ATOM     27  C   UNL A   1      36.003  23.040  23.616  1.00  0.00     0.009 A 
ATOM     28  C   UNL A   1      33.277  20.844  24.835  1.00  0.00     0.009 A 
ATOM     29  C   UNL A   1      35.625  20.973  25.416  1.00  0.00     0.009 A 
ATOM     30  C   UNL A   1      37.103  22.473  24.270  1.00  0.00     0.001 A 
ATOM     31  C   UNL A   1      36.909  21.461  25.197  1.00  0.00     0.001 A 
ENDBRANCH  20  22
ENDBRANCH   5   8
ENDBRANCH   3   4
ENDBRANCH   2   3
ENDBRANCH   1   2
BRANCH   1  32
ATOM     32  C   UNL A   1      34.303  32.892  27.638  1.00  0.00     0.116 C 
BRANCH  32  33
ATOM     33  N   UNL A   1      33.634  33.869  28.493  1.00  0.00    -0.352 N 
ATOM     34  C   UNL A   1      33.858  34.144  29.818  1.00  0.00     0.251 C 
ATOM     35  H   UNL A   1      32.928  34.401  28.060  1.00  0.00     0.163 HD
ATOM     36  O   UNL A   1      33.086  34.841  30.463  1.00  0.00    -0.269 OA
BRANCH  34  37
ATOM     37  C   UNL A   1      35.044  33.546  30.451  1.00  0.00     0.039 A 
ATOM     38  C   UNL A   1      34.882  32.471  31.324  1.00  0.00     0.014 A 
ATOM     39  C   UNL A   1      36.313  33.984  30.068  1.00  0.00     0.014 A 
ATOM     40  C   UNL A   1      36.009  31.768  31.744  1.00  0.00     0.010 A 
ATOM     41  C   UNL A   1      37.420  33.223  30.405  1.00  0.00     0.010 A 
ATOM     42  C   UNL A   1      37.277  32.104  31.240  1.00  0.00    -0.014 A 
BRANCH  42  43
ATOM     43  C   UNL A   1      38.476  31.291  31.548  1.00  0.00     0.031 A 
ATOM     44  C   UNL A   1      39.370  31.687  32.687  1.00  0.00     0.074 A 
ATOM     45  C   UNL A   1      38.809  30.266  30.739  1.00  0.00     0.049 A 
ATOM     46  N   UNL A   1      40.521  31.179  33.045  1.00  0.00    -0.248 NA
ATOM     47  C   UNL A   1      38.929  32.823  33.514  1.00  0.00     0.031 C 
ATOM     48  C   UNL A   1      38.043  29.817  29.572  1.00  0.00     0.029 A 
ATOM     49  N   UNL A   1      39.891  29.423  30.767  1.00  0.00    -0.354 N 
ATOM     50  C   UNL A   1      40.951  31.948  34.118  1.00  0.00     0.074 A 
ATOM     51  C   UNL A   1      39.964  32.985  34.324  1.00  0.00     0.031 C 
ATOM     52  C   UNL A   1      38.671  28.771  29.010  1.00  0.00     0.029 A 
ATOM     53  C   UNL A   1      39.905  28.509  29.741  1.00  0.00     0.049 A 
ATOM     54  H   UNL A   1      40.593  29.470  31.457  1.00  0.00     0.167 HD
ATOM     55  C   UNL A   1      42.061  31.793  34.874  1.00  0.00     0.031 A 
ATOM     56  C   UNL A   1      40.822  27.579  29.412  1.00  0.00     0.031 A 
ATOM     57  C   UNL A   1      43.031  30.753  34.672  1.00  0.00     0.049 A 
ATOM     58  C   UNL A   1      42.058  27.443  30.259  1.00  0.00     0.074 A 
ATOM     59  C   UNL A   1      44.152  30.464  35.431  1.00  0.00     0.029 A 
ATOM     60  N   UNL A   1      43.002  29.837  33.632  1.00  0.00    -0.354 N 
ATOM     61  N   UNL A   1      42.406  28.120  31.326  1.00  0.00    -0.248 NA
ATOM     62  C   UNL A   1      43.023  26.410  29.859  1.00  0.00     0.031 C 
ATOM     63  C   UNL A   1      44.838  29.417  34.810  1.00  0.00     0.029 A 
ATOM     64  C   UNL A   1      44.108  29.009  33.705  1.00  0.00     0.049 A 
ATOM     65  H   UNL A   1      42.299  29.784  32.945  1.00  0.00     0.167 HD
ATOM     66  C   UNL A   1      43.619  27.581  31.737  1.00  0.00     0.074 A 
ATOM     67  C   UNL A   1      43.932  26.507  30.819  1.00  0.00     0.031 C 
ATOM     68  C   UNL A   1      44.405  27.946  32.779  1.00  0.00     0.031 A 
BRANCH  55  69
ATOM     69  C   UNL A   1      42.294  32.781  35.983  1.00  0.00    -0.014 A 
ATOM     70  C   UNL A   1      41.809  32.554  37.280  1.00  0.00     0.009 A 
ATOM     71  C   UNL A   1      43.055  33.934  35.734  1.00  0.00     0.009 A 
ATOM     72  C   UNL A   1      42.055  33.476  38.299  1.00  0.00     0.001 A 
ATOM     73  C   UNL A   1      43.327  34.838  36.762  1.00  0.00     0.001 A 
ATOM     74  C   UNL A   1      42.821  34.613  38.041  1.00  0.00     0.000 A 
ENDBRANCH  55  69
BRANCH  56  75
ATOM     75  C   UNL A   1      40.620  26.715  28.218  1.00  0.00    -0.014 A 
ATOM     76  C   UNL A   1      39.850  25.545  28.302  1.00  0.00     0.009 A 
ATOM     77  C   UNL A   1      41.216  27.044  26.991  1.00  0.00     0.009 A 
ATOM     78  C   UNL A   1      39.712  24.706  27.193  1.00  0.00     0.001 A 
ATOM     79  C   UNL A   1      41.048  26.223  25.875  1.00  0.00     0.001 A 
ATOM     80  C   UNL A   1      40.307  25.048  25.980  1.00  0.00     0.000 A 
ENDBRANCH  56  75
BRANCH  68  81
ATOM     81  C   UNL A   1      45.668  27.160  32.997  1.00  0.00    -0.014 A 
ATOM     82  C   UNL A   1      45.677  26.002  33.788  1.00  0.00     0.009 A 
ATOM     83  C   UNL A   1      46.852  27.558  32.357  1.00  0.00     0.009 A 
ATOM     84  C   UNL A   1      46.856  25.275  33.960  1.00  0.00     0.001 A 
ATOM     85  C   UNL A   1      48.021  26.809  32.503  1.00  0.00     0.001 A 
ATOM     86  C   UNL A   1      48.023  25.674  33.311  1.00  0.00     0.000 A 
ENDBRANCH  68  81
ENDBRANCH  42  43
ENDBRANCH  34  37
ENDBRANCH  32  33
ENDBRANCH   1  32
TORSDOF 12
ENDMDL
