MODEL 1
REMARK VINA RESULT:     -12.3      0.000      0.000
REMARK SMILES Cc1nn(C(C)C)c(C)c1S(=O)(=O)Nc1cccc(C(=O)NCCCCNC(=O)c2ccc(-c3c4nc(c(-c5ccccc5)c5ccc([nH]5)c(-c5ccccc5)c5nc(c(-c6ccccc6)c6ccc3[nH]6)C=C5)C=C4)cc2)c1C
REMARK SMILES IDX 23 1 22 2 20 3 21 4 19 6 15 7 16 8 78 9 17 10 79 11 18 12
REMARK SMILES IDX 14 13 11 15 12 16 13 17 10 18 1 19 2 20 3 21 4 22 8 23 9 24
REMARK SMILES IDX 5 25 6 26 7 27 24 28 25 29 26 30 27 31 28 32 29 34 30 35
REMARK SMILES IDX 31 36 77 37 32 38 76 39 33 40 34 41 35 42 70 43 36 44 75 45
REMARK SMILES IDX 69 46 71 47 37 48 74 49 68 50 67 51 38 53 60 54 45 55 59 56
REMARK SMILES IDX 46 57 49 58 58 59 72 60 47 61 48 62 57 64 73 65 50 66 39 67
REMARK SMILES IDX 40 68 44 69 41 70 43 71 42 72 61 73 62 74 66 75 63 76 65 77
REMARK SMILES IDX 64 78 51 79 52 80 56 81 53 82 55 83 54 84
REMARK H PARENT 22 5 14 14 27 33 71 52 49 63
REMARK Flexibility Score: inf
ROOT
ATOM      1  C   UNL A   1      31.486  29.040  25.188  1.00  0.00     0.116 C 
ENDROOT
BRANCH   1   2
ATOM      2  N   UNL A   1      30.837  29.212  23.899  1.00  0.00    -0.352 N 
ATOM      3  C   UNL A   1      30.565  28.397  22.829  1.00  0.00     0.251 C 
ATOM      4  O   UNL A   1      29.958  28.949  21.911  1.00  0.00    -0.269 OA
ATOM      5  H   UNL A   1      30.516  30.133  23.762  1.00  0.00     0.163 HD
BRANCH   3   6
ATOM      6  C   UNL A   1      30.917  26.932  22.755  1.00  0.00     0.044 A 
ATOM      7  C   UNL A   1      30.830  24.670  23.677  1.00  0.00     0.053 A 
ATOM      8  C   UNL A   1      31.782  24.235  22.759  1.00  0.00     0.027 A 
ATOM      9  C   UNL A   1      30.275  25.975  23.585  1.00  0.00    -0.014 A 
ATOM     10  C   UNL A   1      32.308  25.134  21.846  1.00  0.00     0.003 A 
ATOM     11  C   UNL A   1      29.072  26.303  24.442  1.00  0.00     0.047 C 
ATOM     12  C   UNL A   1      31.900  26.468  21.872  1.00  0.00     0.014 A 
BRANCH   7  13
ATOM     13  N   UNL A   1      30.359  23.840  24.737  1.00  0.00    -0.279 N 
ATOM     14  H   UNL A   1      29.390  23.683  24.799  1.00  0.00     0.180 HD
BRANCH  13  15
ATOM     15  S   UNL A   1      31.339  23.116  25.881  1.00  0.00     0.265 S 
ATOM     16  O   UNL A   1      31.245  21.698  25.736  1.00  0.00    -0.201 OA
ATOM     17  O   UNL A   1      30.942  23.748  27.145  1.00  0.00    -0.201 OA
BRANCH  15  18
ATOM     18  C   UNL A   1      33.031  23.440  25.799  1.00  0.00     0.131 A 
ATOM     19  C   UNL A   1      33.346  26.073  25.973  1.00  0.00     0.070 C 
ATOM     20  C   UNL A   1      33.751  24.661  25.793  1.00  0.00     0.080 A 
ATOM     21  N   UNL A   1      35.057  24.448  25.582  1.00  0.00    -0.176 NA
ATOM     22  N   UNL A   1      35.194  23.115  25.547  1.00  0.00    -0.266 N 
ATOM     23  C   UNL A   1      34.006  22.451  25.702  1.00  0.00     0.056 A 
ATOM     24  C   UNL A   1      33.903  20.969  25.753  1.00  0.00     0.068 C 
BRANCH  22  25
ATOM     25  C   UNL A   1      36.527  22.549  25.344  1.00  0.00     0.101 C 
ATOM     26  C   UNL A   1      36.799  22.313  23.859  1.00  0.00     0.033 C 
ATOM     27  C   UNL A   1      37.614  23.420  25.976  1.00  0.00     0.033 C 
ENDBRANCH  22  25
ENDBRANCH  15  18
ENDBRANCH  13  15
ENDBRANCH   7  13
ENDBRANCH   3   6
ENDBRANCH   1   2
BRANCH   1  28
ATOM     28  C   UNL A   1      31.749  30.383  25.890  1.00  0.00     0.023 C 
BRANCH  28  29
ATOM     29  C   UNL A   1      33.199  30.630  26.307  1.00  0.00     0.023 C 
BRANCH  29  30
ATOM     30  C   UNL A   1      33.455  30.460  27.793  1.00  0.00     0.116 C 
BRANCH  30  31
ATOM     31  N   UNL A   1      34.251  31.521  28.396  1.00  0.00    -0.352 N 
ATOM     32  C   UNL A   1      35.514  31.468  28.958  1.00  0.00     0.251 C 
ATOM     33  H   UNL A   1      33.825  32.409  28.406  1.00  0.00     0.163 HD
ATOM     34  O   UNL A   1      35.989  32.474  29.480  1.00  0.00    -0.269 OA
BRANCH  32  35
ATOM     35  C   UNL A   1      36.356  30.255  28.795  1.00  0.00     0.039 A 
ATOM     36  C   UNL A   1      36.576  29.458  29.927  1.00  0.00     0.014 A 
ATOM     37  C   UNL A   1      37.105  30.039  27.643  1.00  0.00     0.014 A 
ATOM     38  C   UNL A   1      37.722  28.671  29.996  1.00  0.00     0.010 A 
ATOM     39  C   UNL A   1      38.300  29.361  27.750  1.00  0.00     0.010 A 
ATOM     40  C   UNL A   1      38.643  28.746  28.955  1.00  0.00    -0.014 A 
BRANCH  40  41
ATOM     41  C   UNL A   1      40.038  28.352  29.084  1.00  0.00     0.031 A 
ATOM     42  C   UNL A   1      40.496  27.036  28.595  1.00  0.00     0.074 A 
ATOM     43  C   UNL A   1      40.942  29.217  29.599  1.00  0.00     0.049 A 
ATOM     44  N   UNL A   1      41.573  26.462  29.016  1.00  0.00    -0.248 NA
ATOM     45  C   UNL A   1      39.745  26.213  27.649  1.00  0.00     0.031 C 
ATOM     46  C   UNL A   1      42.401  29.128  29.514  1.00  0.00     0.029 A 
ATOM     47  N   UNL A   1      40.764  30.314  30.422  1.00  0.00    -0.354 N 
ATOM     48  C   UNL A   1      41.834  25.419  28.166  1.00  0.00     0.074 A 
ATOM     49  C   UNL A   1      40.597  25.199  27.457  1.00  0.00     0.031 C 
ATOM     50  C   UNL A   1      42.940  29.911  30.462  1.00  0.00     0.029 A 
ATOM     51  C   UNL A   1      41.852  30.392  31.291  1.00  0.00     0.049 A 
ATOM     52  H   UNL A   1      40.000  30.935  30.398  1.00  0.00     0.167 HD
ATOM     53  C   UNL A   1      43.116  24.976  28.043  1.00  0.00     0.031 A 
ATOM     54  C   UNL A   1      41.767  30.203  32.643  1.00  0.00     0.031 A 
ATOM     55  C   UNL A   1      44.009  25.582  29.034  1.00  0.00     0.049 A 
ATOM     56  C   UNL A   1      42.633  29.065  33.169  1.00  0.00     0.074 A 
ATOM     57  C   UNL A   1      45.067  26.472  28.959  1.00  0.00     0.029 A 
ATOM     58  N   UNL A   1      43.709  25.453  30.384  1.00  0.00    -0.354 N 
ATOM     59  N   UNL A   1      43.244  28.194  32.415  1.00  0.00    -0.248 NA
ATOM     60  C   UNL A   1      42.800  28.764  34.589  1.00  0.00     0.031 C 
ATOM     61  C   UNL A   1      45.403  26.875  30.282  1.00  0.00     0.029 A 
ATOM     62  C   UNL A   1      44.569  26.206  31.159  1.00  0.00     0.049 A 
ATOM     63  H   UNL A   1      42.979  24.899  30.741  1.00  0.00     0.167 HD
ATOM     64  C   UNL A   1      43.823  27.218  33.187  1.00  0.00     0.074 A 
ATOM     65  C   UNL A   1      43.516  27.626  34.546  1.00  0.00     0.031 C 
ATOM     66  C   UNL A   1      44.458  26.148  32.615  1.00  0.00     0.031 A 
BRANCH  53  67
ATOM     67  C   UNL A   1      43.634  24.148  26.887  1.00  0.00    -0.014 A 
ATOM     68  C   UNL A   1      44.550  23.109  27.142  1.00  0.00     0.009 A 
ATOM     69  C   UNL A   1      43.356  24.393  25.530  1.00  0.00     0.009 A 
ATOM     70  C   UNL A   1      45.170  22.389  26.110  1.00  0.00     0.001 A 
ATOM     71  C   UNL A   1      43.948  23.659  24.493  1.00  0.00     0.001 A 
ATOM     72  C   UNL A   1      44.867  22.663  24.783  1.00  0.00     0.000 A 
ENDBRANCH  53  67
BRANCH  54  73
ATOM     73  C   UNL A   1      40.452  30.581  33.228  1.00  0.00    -0.014 A 
ATOM     74  C   UNL A   1      40.108  31.946  33.274  1.00  0.00     0.009 A 
ATOM     75  C   UNL A   1      39.436  29.627  33.382  1.00  0.00     0.009 A 
ATOM     76  C   UNL A   1      38.769  32.342  33.344  1.00  0.00     0.001 A 
ATOM     77  C   UNL A   1      38.098  30.029  33.463  1.00  0.00     0.001 A 
ATOM     78  C   UNL A   1      37.762  31.381  33.405  1.00  0.00     0.000 A 
ENDBRANCH  54  73
BRANCH  66  79
ATOM     79  C   UNL A   1      45.024  24.917  33.307  1.00  0.00    -0.014 A 
ATOM     80  C   UNL A   1      46.315  24.795  33.831  1.00  0.00     0.009 A 
ATOM     81  C   UNL A   1      44.205  23.765  33.427  1.00  0.00     0.009 A 
ATOM     82  C   UNL A   1      46.737  23.626  34.489  1.00  0.00     0.001 A 
ATOM     83  C   UNL A   1      44.617  22.598  34.075  1.00  0.00     0.001 A 
ATOM     84  C   UNL A   1      45.887  22.533  34.619  1.00  0.00     0.000 A 
ENDBRANCH  66  79
ENDBRANCH  40  41
ENDBRANCH  32  35
ENDBRANCH  30  31
ENDBRANCH  29  30
ENDBRANCH  28  29
ENDBRANCH   1  28
TORSDOF 15
ENDMDL
MODEL 2
REMARK VINA RESULT:     -12.3      1.794      2.901
REMARK SMILES Cc1nn(C(C)C)c(C)c1S(=O)(=O)Nc1cccc(C(=O)NCCCCNC(=O)c2ccc(-c3c4nc(c(-c5ccccc5)c5ccc([nH]5)c(-c5ccccc5)c5nc(c(-c6ccccc6)c6ccc3[nH]6)C=C5)C=C4)cc2)c1C
REMARK SMILES IDX 23 1 22 2 20 3 21 4 19 6 15 7 16 8 78 9 17 10 79 11 18 12
REMARK SMILES IDX 14 13 11 15 12 16 13 17 10 18 1 19 2 20 3 21 4 22 8 23 9 24
REMARK SMILES IDX 5 25 6 26 7 27 24 28 25 29 26 30 27 31 28 32 29 34 30 35
REMARK SMILES IDX 31 36 77 37 32 38 76 39 33 40 34 41 35 42 70 43 36 44 75 45
REMARK SMILES IDX 69 46 71 47 37 48 74 49 68 50 67 51 38 53 60 54 45 55 59 56
REMARK SMILES IDX 46 57 49 58 58 59 72 60 47 61 48 62 57 64 73 65 50 66 39 67
REMARK SMILES IDX 40 68 44 69 41 70 43 71 42 72 61 73 62 74 66 75 63 76 65 77
REMARK SMILES IDX 64 78 51 79 52 80 56 81 53 82 55 83 54 84
REMARK H PARENT 22 5 14 14 27 33 71 52 49 63
REMARK Flexibility Score: inf
ROOT
ATOM      1  C   UNL A   1      32.383  29.634  25.063  1.00  0.00     0.116 C 
ENDROOT
BRANCH   1   2
ATOM      2  N   UNL A   1      31.105  29.697  24.377  1.00  0.00    -0.352 N 
ATOM      3  C   UNL A   1      30.393  28.852  23.563  1.00  0.00     0.251 C 
ATOM      4  O   UNL A   1      29.305  29.295  23.196  1.00  0.00    -0.269 OA
ATOM      5  H   UNL A   1      30.638  30.550  24.533  1.00  0.00     0.163 HD
BRANCH   3   6
ATOM      6  C   UNL A   1      30.841  27.468  23.162  1.00  0.00     0.044 A 
ATOM      7  C   UNL A   1      30.918  25.056  23.552  1.00  0.00     0.053 A 
ATOM      8  C   UNL A   1      31.885  24.905  22.561  1.00  0.00     0.027 A 
ATOM      9  C   UNL A   1      30.276  26.307  23.754  1.00  0.00    -0.014 A 
ATOM     10  C   UNL A   1      32.337  26.020  21.874  1.00  0.00     0.003 A 
ATOM     11  C   UNL A   1      29.065  26.351  24.660  1.00  0.00     0.047 C 
ATOM     12  C   UNL A   1      31.842  27.283  22.199  1.00  0.00     0.014 A 
BRANCH   7  13
ATOM     13  N   UNL A   1      30.519  23.980  24.396  1.00  0.00    -0.279 N 
ATOM     14  H   UNL A   1      29.654  23.549  24.210  1.00  0.00     0.180 HD
BRANCH  13  15
ATOM     15  S   UNL A   1      31.415  23.398  25.681  1.00  0.00     0.265 S 
ATOM     16  O   UNL A   1      31.266  21.979  25.741  1.00  0.00    -0.201 OA
ATOM     17  O   UNL A   1      30.993  24.224  26.818  1.00  0.00    -0.201 OA
BRANCH  15  18
ATOM     18  C   UNL A   1      33.122  23.643  25.635  1.00  0.00     0.131 A 
ATOM     19  C   UNL A   1      33.552  26.262  25.768  1.00  0.00     0.070 C 
ATOM     20  C   UNL A   1      33.897  24.830  25.624  1.00  0.00     0.080 A 
ATOM     21  N   UNL A   1      35.196  24.555  25.449  1.00  0.00    -0.176 NA
ATOM     22  N   UNL A   1      35.273  23.216  25.442  1.00  0.00    -0.266 N 
ATOM     23  C   UNL A   1      34.054  22.610  25.580  1.00  0.00     0.056 A 
ATOM     24  C   UNL A   1      33.882  21.135  25.655  1.00  0.00     0.068 C 
BRANCH  22  25
ATOM     25  C   UNL A   1      36.584  22.587  25.282  1.00  0.00     0.101 C 
ATOM     26  C   UNL A   1      36.884  22.318  23.808  1.00  0.00     0.033 C 
ATOM     27  C   UNL A   1      37.693  23.416  25.933  1.00  0.00     0.033 C 
ENDBRANCH  22  25
ENDBRANCH  15  18
ENDBRANCH  13  15
ENDBRANCH   7  13
ENDBRANCH   3   6
ENDBRANCH   1   2
BRANCH   1  28
ATOM     28  C   UNL A   1      32.224  29.678  26.593  1.00  0.00     0.023 C 
BRANCH  28  29
ATOM     29  C   UNL A   1      33.513  29.481  27.391  1.00  0.00     0.023 C 
BRANCH  29  30
ATOM     30  C   UNL A   1      34.400  30.711  27.450  1.00  0.00     0.116 C 
BRANCH  30  31
ATOM     31  N   UNL A   1      33.679  31.973  27.562  1.00  0.00    -0.352 N 
ATOM     32  C   UNL A   1      33.908  33.051  28.399  1.00  0.00     0.251 C 
ATOM     33  H   UNL A   1      32.913  32.073  26.952  1.00  0.00     0.163 HD
ATOM     34  O   UNL A   1      33.134  34.005  28.384  1.00  0.00    -0.269 OA
BRANCH  32  35
ATOM     35  C   UNL A   1      35.160  33.129  29.195  1.00  0.00     0.039 A 
ATOM     36  C   UNL A   1      36.263  33.766  28.612  1.00  0.00     0.014 A 
ATOM     37  C   UNL A   1      35.327  32.392  30.362  1.00  0.00     0.014 A 
ATOM     38  C   UNL A   1      37.548  33.422  29.023  1.00  0.00     0.010 A 
ATOM     39  C   UNL A   1      36.591  31.954  30.692  1.00  0.00     0.010 A 
ATOM     40  C   UNL A   1      37.693  32.408  29.967  1.00  0.00    -0.014 A 
BRANCH  40  41
ATOM     41  C   UNL A   1      38.924  31.655  30.155  1.00  0.00     0.031 A 
ATOM     42  C   UNL A   1      39.095  30.326  29.535  1.00  0.00     0.074 A 
ATOM     43  C   UNL A   1      39.950  32.197  30.850  1.00  0.00     0.049 A 
ATOM     44  N   UNL A   1      39.942  29.451  29.961  1.00  0.00    -0.248 NA
ATOM     45  C   UNL A   1      38.274  29.831  28.431  1.00  0.00     0.031 C 
ATOM     46  C   UNL A   1      41.342  31.744  30.871  1.00  0.00     0.029 A 
ATOM     47  N   UNL A   1      39.958  33.208  31.793  1.00  0.00    -0.354 N 
ATOM     48  C   UNL A   1      40.031  28.474  29.006  1.00  0.00     0.074 A 
ATOM     49  C   UNL A   1      38.865  28.658  28.177  1.00  0.00     0.031 C 
ATOM     50  C   UNL A   1      41.949  32.255  31.955  1.00  0.00     0.029 A 
ATOM     51  C   UNL A   1      40.928  32.909  32.750  1.00  0.00     0.049 A 
ATOM     52  H   UNL A   1      39.378  34.004  31.790  1.00  0.00     0.167 HD
ATOM     53  C   UNL A   1      41.169  27.730  28.928  1.00  0.00     0.031 A 
ATOM     54  C   UNL A   1      40.649  32.605  34.054  1.00  0.00     0.031 A 
ATOM     55  C   UNL A   1      42.069  27.974  30.060  1.00  0.00     0.049 A 
ATOM     56  C   UNL A   1      41.144  31.232  34.493  1.00  0.00     0.074 A 
ATOM     57  C   UNL A   1      43.315  28.564  30.187  1.00  0.00     0.029 A 
ATOM     58  N   UNL A   1      41.598  27.784  31.352  1.00  0.00    -0.354 N 
ATOM     59  N   UNL A   1      41.601  30.318  33.682  1.00  0.00    -0.248 NA
ATOM     60  C   UNL A   1      41.072  30.748  35.870  1.00  0.00     0.031 C 
ATOM     61  C   UNL A   1      43.591  28.722  31.574  1.00  0.00     0.029 A 
ATOM     62  C   UNL A   1      42.525  28.201  32.286  1.00  0.00     0.049 A 
ATOM     63  H   UNL A   1      40.719  27.402  31.573  1.00  0.00     0.167 HD
ATOM     64  C   UNL A   1      41.831  29.149  34.363  1.00  0.00     0.074 A 
ATOM     65  C   UNL A   1      41.485  29.474  35.735  1.00  0.00     0.031 C 
ATOM     66  C   UNL A   1      42.243  28.019  33.709  1.00  0.00     0.031 A 
BRANCH  53  67
ATOM     67  C   UNL A   1      41.592  26.924  27.719  1.00  0.00    -0.014 A 
ATOM     68  C   UNL A   1      42.453  27.509  26.770  1.00  0.00     0.009 A 
ATOM     69  C   UNL A   1      41.109  25.644  27.393  1.00  0.00     0.009 A 
ATOM     70  C   UNL A   1      42.779  26.871  25.564  1.00  0.00     0.001 A 
ATOM     71  C   UNL A   1      41.454  24.986  26.205  1.00  0.00     0.001 A 
ATOM     72  C   UNL A   1      42.281  25.607  25.282  1.00  0.00     0.000 A 
ENDBRANCH  53  67
BRANCH  54  73
ATOM     73  C   UNL A   1      39.411  33.245  34.576  1.00  0.00    -0.014 A 
ATOM     74  C   UNL A   1      38.169  32.683  34.227  1.00  0.00     0.009 A 
ATOM     75  C   UNL A   1      39.468  34.129  35.663  1.00  0.00     0.009 A 
ATOM     76  C   UNL A   1      37.040  32.899  35.022  1.00  0.00     0.001 A 
ATOM     77  C   UNL A   1      38.331  34.352  36.450  1.00  0.00     0.001 A 
ATOM     78  C   UNL A   1      37.130  33.707  36.152  1.00  0.00     0.000 A 
ENDBRANCH  54  73
BRANCH  66  79
ATOM     79  C   UNL A   1      42.407  26.617  34.275  1.00  0.00    -0.014 A 
ATOM     80  C   UNL A   1      41.530  25.988  35.165  1.00  0.00     0.009 A 
ATOM     81  C   UNL A   1      43.550  25.862  33.909  1.00  0.00     0.009 A 
ATOM     82  C   UNL A   1      41.747  24.670  35.607  1.00  0.00     0.001 A 
ATOM     83  C   UNL A   1      43.776  24.555  34.346  1.00  0.00     0.001 A 
ATOM     84  C   UNL A   1      42.863  23.951  35.190  1.00  0.00     0.000 A 
ENDBRANCH  66  79
ENDBRANCH  40  41
ENDBRANCH  32  35
ENDBRANCH  30  31
ENDBRANCH  29  30
ENDBRANCH  28  29
ENDBRANCH   1  28
TORSDOF 15
ENDMDL
MODEL 3
REMARK VINA RESULT:     -12.3      3.045      8.419
REMARK SMILES Cc1nn(C(C)C)c(C)c1S(=O)(=O)Nc1cccc(C(=O)NCCCCNC(=O)c2ccc(-c3c4nc(c(-c5ccccc5)c5ccc([nH]5)c(-c5ccccc5)c5nc(c(-c6ccccc6)c6ccc3[nH]6)C=C5)C=C4)cc2)c1C
REMARK SMILES IDX 23 1 22 2 20 3 21 4 19 6 15 7 16 8 78 9 17 10 79 11 18 12
REMARK SMILES IDX 14 13 11 15 12 16 13 17 10 18 1 19 2 20 3 21 4 22 8 23 9 24
REMARK SMILES IDX 5 25 6 26 7 27 24 28 25 29 26 30 27 31 28 32 29 34 30 35
REMARK SMILES IDX 31 36 77 37 32 38 76 39 33 40 34 41 35 42 70 43 36 44 75 45
REMARK SMILES IDX 69 46 71 47 37 48 74 49 68 50 67 51 38 53 60 54 45 55 59 56
REMARK SMILES IDX 46 57 49 58 58 59 72 60 47 61 48 62 57 64 73 65 50 66 39 67
REMARK SMILES IDX 40 68 44 69 41 70 43 71 42 72 61 73 62 74 66 75 63 76 65 77
REMARK SMILES IDX 64 78 51 79 52 80 56 81 53 82 55 83 54 84
REMARK H PARENT 22 5 14 14 27 33 71 52 49 63
REMARK Flexibility Score: inf
ROOT
ATOM      1  C   UNL A   1      37.459  23.643  25.865  1.00  0.00     0.116 C 
ENDROOT
BRANCH   1   2
ATOM      2  N   UNL A   1      37.298  23.390  24.443  1.00  0.00    -0.352 N 
ATOM      3  C   UNL A   1      36.262  22.992  23.636  1.00  0.00     0.251 C 
ATOM      4  O   UNL A   1      36.548  22.916  22.441  1.00  0.00    -0.269 OA
ATOM      5  H   UNL A   1      38.131  23.540  23.939  1.00  0.00     0.163 HD
BRANCH   3   6
ATOM      6  C   UNL A   1      34.861  22.707  24.117  1.00  0.00     0.044 A 
ATOM      7  C   UNL A   1      32.588  23.451  24.623  1.00  0.00     0.053 A 
ATOM      8  C   UNL A   1      32.308  22.241  25.252  1.00  0.00     0.027 A 
ATOM      9  C   UNL A   1      33.806  23.637  23.915  1.00  0.00    -0.014 A 
ATOM     10  C   UNL A   1      33.291  21.267  25.325  1.00  0.00     0.003 A 
ATOM     11  C   UNL A   1      33.947  24.865  23.043  1.00  0.00     0.047 C 
ATOM     12  C   UNL A   1      34.556  21.518  24.792  1.00  0.00     0.014 A 
BRANCH   7  13
ATOM     13  N   UNL A   1      31.678  24.548  24.643  1.00  0.00    -0.279 N 
ATOM     14  H   UNL A   1      30.962  24.561  23.967  1.00  0.00     0.180 HD
BRANCH  13  15
ATOM     15  S   UNL A   1      31.742  25.813  25.732  1.00  0.00     0.265 S 
ATOM     16  O   UNL A   1      33.071  25.912  26.246  1.00  0.00    -0.201 OA
ATOM     17  O   UNL A   1      30.624  25.557  26.647  1.00  0.00    -0.201 OA
BRANCH  15  18
ATOM     18  C   UNL A   1      31.400  27.395  25.135  1.00  0.00     0.131 A 
ATOM     19  C   UNL A   1      33.181  29.051  26.206  1.00  0.00     0.070 C 
ATOM     20  C   UNL A   1      31.997  28.650  25.415  1.00  0.00     0.080 A 
ATOM     21  N   UNL A   1      31.323  29.646  24.823  1.00  0.00    -0.176 NA
ATOM     22  N   UNL A   1      30.370  29.042  24.098  1.00  0.00    -0.266 N 
ATOM     23  C   UNL A   1      30.385  27.679  24.224  1.00  0.00     0.056 A 
ATOM     24  C   UNL A   1      29.462  26.782  23.480  1.00  0.00     0.068 C 
BRANCH  22  25
ATOM     25  C   UNL A   1      29.459  29.867  23.305  1.00  0.00     0.101 C 
ATOM     26  C   UNL A   1      29.282  31.246  23.939  1.00  0.00     0.033 C 
ATOM     27  C   UNL A   1      29.918  29.979  21.850  1.00  0.00     0.033 C 
ENDBRANCH  22  25
ENDBRANCH  15  18
ENDBRANCH  13  15
ENDBRANCH   7  13
ENDBRANCH   3   6
ENDBRANCH   1   2
BRANCH   1  28
ATOM     28  C   UNL A   1      38.751  23.022  26.423  1.00  0.00     0.023 C 
BRANCH  28  29
ATOM     29  C   UNL A   1      39.101  21.638  25.875  1.00  0.00     0.023 C 
BRANCH  29  30
ATOM     30  C   UNL A   1      40.142  20.894  26.691  1.00  0.00     0.116 C 
BRANCH  30  31
ATOM     31  N   UNL A   1      41.224  20.312  25.907  1.00  0.00    -0.352 N 
ATOM     32  C   UNL A   1      42.562  20.661  25.851  1.00  0.00     0.251 C 
ATOM     33  H   UNL A   1      40.964  19.559  25.329  1.00  0.00     0.163 HD
ATOM     34  O   UNL A   1      43.308  20.081  25.066  1.00  0.00    -0.269 OA
BRANCH  32  35
ATOM     35  C   UNL A   1      43.129  21.614  26.839  1.00  0.00     0.039 A 
ATOM     36  C   UNL A   1      42.575  21.626  28.126  1.00  0.00     0.014 A 
ATOM     37  C   UNL A   1      43.999  22.629  26.454  1.00  0.00     0.014 A 
ATOM     38  C   UNL A   1      42.655  22.784  28.894  1.00  0.00     0.010 A 
ATOM     39  C   UNL A   1      43.979  23.817  27.153  1.00  0.00     0.010 A 
ATOM     40  C   UNL A   1      43.239  23.916  28.331  1.00  0.00    -0.014 A 
BRANCH  40  41
ATOM     41  C   UNL A   1      43.002  25.268  28.813  1.00  0.00     0.031 A 
ATOM     42  C   UNL A   1      41.843  26.046  28.334  1.00  0.00     0.074 A 
ATOM     43  C   UNL A   1      43.812  25.801  29.758  1.00  0.00     0.049 A 
ATOM     44  N   UNL A   1      41.784  27.334  28.390  1.00  0.00    -0.248 NA
ATOM     45  C   UNL A   1      40.679  25.451  27.677  1.00  0.00     0.031 C 
ATOM     46  C   UNL A   1      43.553  26.985  30.579  1.00  0.00     0.029 A 
ATOM     47  N   UNL A   1      45.107  25.476  30.115  1.00  0.00    -0.354 N 
ATOM     48  C   UNL A   1      40.488  27.692  28.130  1.00  0.00     0.074 A 
ATOM     49  C   UNL A   1      39.893  26.524  27.527  1.00  0.00     0.031 C 
ATOM     50  C   UNL A   1      44.717  27.428  31.083  1.00  0.00     0.029 A 
ATOM     51  C   UNL A   1      45.773  26.649  30.467  1.00  0.00     0.049 A 
ATOM     52  H   UNL A   1      45.493  24.570  30.120  1.00  0.00     0.167 HD
ATOM     53  C   UNL A   1      40.024  28.879  28.611  1.00  0.00     0.031 A 
ATOM     54  C   UNL A   1      46.814  27.182  29.757  1.00  0.00     0.031 A 
ATOM     55  C   UNL A   1      41.095  29.703  29.178  1.00  0.00     0.049 A 
ATOM     56  C   UNL A   1      46.561  28.596  29.247  1.00  0.00     0.074 A 
ATOM     57  C   UNL A   1      41.408  30.125  30.459  1.00  0.00     0.029 A 
ATOM     58  N   UNL A   1      42.186  30.035  28.386  1.00  0.00    -0.354 N 
ATOM     59  N   UNL A   1      45.404  29.194  29.277  1.00  0.00    -0.248 NA
ATOM     60  C   UNL A   1      47.575  29.407  28.578  1.00  0.00     0.031 C 
ATOM     61  C   UNL A   1      42.701  30.718  30.427  1.00  0.00     0.029 A 
ATOM     62  C   UNL A   1      43.157  30.683  29.122  1.00  0.00     0.049 A 
ATOM     63  H   UNL A   1      42.258  29.833  27.426  1.00  0.00     0.167 HD
ATOM     64  C   UNL A   1      45.472  30.397  28.619  1.00  0.00     0.074 A 
ATOM     65  C   UNL A   1      46.860  30.484  28.201  1.00  0.00     0.031 C 
ATOM     66  C   UNL A   1      44.358  31.175  28.450  1.00  0.00     0.031 A 
BRANCH  53  67
ATOM     67  C   UNL A   1      38.560  29.230  28.773  1.00  0.00    -0.014 A 
ATOM     68  C   UNL A   1      37.864  29.792  27.685  1.00  0.00     0.009 A 
ATOM     69  C   UNL A   1      37.838  29.142  29.977  1.00  0.00     0.009 A 
ATOM     70  C   UNL A   1      36.547  30.262  27.804  1.00  0.00     0.001 A 
ATOM     71  C   UNL A   1      36.512  29.581  30.096  1.00  0.00     0.001 A 
ATOM     72  C   UNL A   1      35.870  30.154  29.010  1.00  0.00     0.000 A 
ENDBRANCH  53  67
BRANCH  54  73
ATOM     73  C   UNL A   1      47.634  26.173  29.031  1.00  0.00    -0.014 A 
ATOM     74  C   UNL A   1      47.363  25.948  27.668  1.00  0.00     0.009 A 
ATOM     75  C   UNL A   1      48.859  25.737  29.555  1.00  0.00     0.009 A 
ATOM     76  C   UNL A   1      48.343  25.416  26.825  1.00  0.00     0.001 A 
ATOM     77  C   UNL A   1      49.833  25.193  28.708  1.00  0.00     0.001 A 
ATOM     78  C   UNL A   1      49.590  25.070  27.340  1.00  0.00     0.000 A 
ENDBRANCH  54  73
BRANCH  66  79
ATOM     79  C   UNL A   1      44.224  32.452  27.634  1.00  0.00    -0.014 A 
ATOM     80  C   UNL A   1      44.009  33.733  28.152  1.00  0.00     0.009 A 
ATOM     81  C   UNL A   1      44.293  32.368  26.220  1.00  0.00     0.009 A 
ATOM     82  C   UNL A   1      43.935  34.863  27.317  1.00  0.00     0.001 A 
ATOM     83  C   UNL A   1      44.217  33.484  25.383  1.00  0.00     0.001 A 
ATOM     84  C   UNL A   1      44.048  34.740  25.936  1.00  0.00     0.000 A 
ENDBRANCH  66  79
ENDBRANCH  40  41
ENDBRANCH  32  35
ENDBRANCH  30  31
ENDBRANCH  29  30
ENDBRANCH  28  29
ENDBRANCH   1  28
TORSDOF 15
ENDMDL
