MODEL 1
REMARK VINA RESULT:     -12.0      0.000      0.000
REMARK SMILES COc1ccc(-n2c(SCC(=O)NCCCCNC(=O)c3ccc(-c4c5nc(c(-c6ccccc6)c6ccc([nH]6)c(-c6ccccc6)c6nc(c(-c7ccccc7)c7ccc4[nH]7)C=C6)C=C5)cc3)nc3sc4c(c3c2=O)CC[N@H+](C)C4)cc1
REMARK SMILES IDX 14 1 13 2 11 3 12 4 10 6 9 7 8 8 7 9 75 10 69 11 74 12 76 13
REMARK SMILES IDX 70 14 73 15 71 16 72 17 77 18 81 19 78 20 79 21 80 22 6 24
REMARK SMILES IDX 3 25 4 26 83 27 5 28 82 29 2 30 1 31 15 32 16 33 17 34 18 35
REMARK SMILES IDX 19 36 20 38 21 39 22 40 68 41 23 42 67 43 24 44 25 45 26 46
REMARK SMILES IDX 61 47 27 48 66 49 60 50 62 51 28 52 65 53 59 54 58 55 29 57
REMARK SMILES IDX 51 58 36 59 50 60 37 61 40 62 49 63 63 64 38 65 39 66 48 68
REMARK SMILES IDX 64 69 41 70 30 71 31 72 35 73 32 74 34 75 33 76 52 77 53 78
REMARK SMILES IDX 57 79 54 80 56 81 55 82 42 83 43 84 47 85 44 86 46 87 45 88
REMARK H PARENT 13 5 79 23 18 37 62 56 40 67
REMARK Flexibility Score: inf
ROOT
ATOM      1  C   UNL A   1      38.004  24.203  26.461  1.00  0.00     0.116 C 
ENDROOT
BRANCH   1   2
ATOM      2  N   UNL A   1      36.993  23.168  26.412  1.00  0.00    -0.355 N 
ATOM      3  C   UNL A   1      35.907  23.019  25.614  1.00  0.00     0.230 C 
ATOM      4  O   UNL A   1      35.519  21.851  25.480  1.00  0.00    -0.274 OA
ATOM      5  H   UNL A   1      37.115  22.448  27.072  1.00  0.00     0.163 HD
BRANCH   3   6
ATOM      6  C   UNL A   1      35.253  24.132  24.818  1.00  0.00     0.178 C 
BRANCH   6   7
ATOM      7  S   UNL A   1      34.422  25.431  25.696  1.00  0.00    -0.077 SA
BRANCH   7   8
ATOM      8  C   UNL A   1      32.898  25.995  25.044  1.00  0.00     0.177 A 
ATOM      9  N   UNL A   1      31.903  25.234  24.418  1.00  0.00    -0.255 N 
ATOM     10  C   UNL A   1      30.730  25.835  23.903  1.00  0.00     0.267 A 
ATOM     11  N   UNL A   1      32.828  27.290  25.172  1.00  0.00    -0.212 NA
ATOM     12  C   UNL A   1      30.670  27.271  24.068  1.00  0.00     0.081 A 
ATOM     13  O   UNL A   1      29.812  25.231  23.359  1.00  0.00    -0.268 OA
ATOM     14  C   UNL A   1      31.730  27.894  24.671  1.00  0.00     0.132 A 
ATOM     15  C   UNL A   1      29.640  28.187  23.695  1.00  0.00    -0.008 A 
ATOM     16  S   UNL A   1      31.536  29.591  24.711  1.00  0.00    -0.114 S 
ATOM     17  C   UNL A   1      30.022  29.493  23.941  1.00  0.00     0.065 A 
ATOM     18  C   UNL A   1      28.316  27.881  23.061  1.00  0.00     0.099 C 
ATOM     19  C   UNL A   1      29.195  30.704  23.609  1.00  0.00     0.310 C 
ATOM     20  C   UNL A   1      27.418  29.139  23.020  1.00  0.00     0.267 C 
ATOM     21  N   UNL A   1      28.110  30.395  22.645  1.00  0.00    -0.333 N 
ATOM     22  C   UNL A   1      28.608  30.346  21.270  1.00  0.00     0.333 C 
ATOM     23  H   UNL A   1      27.427  31.153  22.688  1.00  0.00     0.348 HD
BRANCH   9  24
ATOM     24  C   UNL A   1      31.915  23.830  24.296  1.00  0.00     0.052 A 
ATOM     25  C   UNL A   1      32.216  21.057  24.087  1.00  0.00     0.119 A 
ATOM     26  C   UNL A   1      31.859  21.636  25.307  1.00  0.00     0.048 A 
ATOM     27  C   UNL A   1      32.500  21.878  22.995  1.00  0.00     0.048 A 
ATOM     28  C   UNL A   1      31.714  23.022  25.420  1.00  0.00     0.030 A 
ATOM     29  C   UNL A   1      32.358  23.264  23.101  1.00  0.00     0.030 A 
BRANCH  25  30
ATOM     30  O   UNL A   1      32.276  19.691  24.081  1.00  0.00    -0.497 OA
ATOM     31  C   UNL A   1      32.744  19.093  25.287  1.00  0.00     0.278 C 
ENDBRANCH  25  30
ENDBRANCH   9  24
ENDBRANCH   7   8
ENDBRANCH   6   7
ENDBRANCH   3   6
ENDBRANCH   1   2
BRANCH   1  32
ATOM     32  C   UNL A   1      39.413  23.634  26.612  1.00  0.00     0.023 C 
BRANCH  32  33
ATOM     33  C   UNL A   1      39.525  22.097  26.580  1.00  0.00     0.023 C 
BRANCH  33  34
ATOM     34  C   UNL A   1      40.631  21.469  27.441  1.00  0.00     0.116 C 
BRANCH  34  35
ATOM     35  N   UNL A   1      41.775  21.086  26.641  1.00  0.00    -0.352 N 
ATOM     36  C   UNL A   1      42.751  21.822  26.031  1.00  0.00     0.251 C 
ATOM     37  H   UNL A   1      41.868  20.114  26.514  1.00  0.00     0.163 HD
ATOM     38  O   UNL A   1      43.473  21.251  25.215  1.00  0.00    -0.269 OA
BRANCH  36  39
ATOM     39  C   UNL A   1      42.982  23.260  26.305  1.00  0.00     0.039 A 
ATOM     40  C   UNL A   1      43.077  23.635  27.651  1.00  0.00     0.014 A 
ATOM     41  C   UNL A   1      42.937  24.249  25.317  1.00  0.00     0.014 A 
ATOM     42  C   UNL A   1      43.127  24.981  28.009  1.00  0.00     0.010 A 
ATOM     43  C   UNL A   1      43.000  25.605  25.677  1.00  0.00     0.010 A 
ATOM     44  C   UNL A   1      43.088  25.977  27.026  1.00  0.00    -0.014 A 
BRANCH  44  45
ATOM     45  C   UNL A   1      43.188  27.378  27.493  1.00  0.00     0.031 A 
ATOM     46  C   UNL A   1      41.906  28.156  27.507  1.00  0.00     0.074 A 
ATOM     47  C   UNL A   1      44.129  27.703  28.405  1.00  0.00     0.049 A 
ATOM     48  N   UNL A   1      41.059  28.216  28.496  1.00  0.00    -0.248 NA
ATOM     49  C   UNL A   1      41.407  28.751  26.264  1.00  0.00     0.031 C 
ATOM     50  C   UNL A   1      44.325  26.967  29.658  1.00  0.00     0.029 A 
ATOM     51  N   UNL A   1      44.860  28.862  28.565  1.00  0.00    -0.354 N 
ATOM     52  C   UNL A   1      39.904  28.810  28.003  1.00  0.00     0.074 A 
ATOM     53  C   UNL A   1      40.169  29.124  26.618  1.00  0.00     0.031 C 
ATOM     54  C   UNL A   1      45.004  27.754  30.517  1.00  0.00     0.029 A 
ATOM     55  C   UNL A   1      45.390  28.996  29.847  1.00  0.00     0.049 A 
ATOM     56  H   UNL A   1      44.993  29.525  27.849  1.00  0.00     0.167 HD
ATOM     57  C   UNL A   1      38.777  29.020  28.736  1.00  0.00     0.031 A 
ATOM     58  C   UNL A   1      45.607  30.185  30.473  1.00  0.00     0.031 A 
ATOM     59  C   UNL A   1      38.855  28.672  30.119  1.00  0.00     0.049 A 
ATOM     60  C   UNL A   1      44.229  30.500  30.991  1.00  0.00     0.074 A 
ATOM     61  C   UNL A   1      38.439  27.650  30.944  1.00  0.00     0.029 A 
ATOM     62  N   UNL A   1      39.483  29.557  30.958  1.00  0.00    -0.354 N 
ATOM     63  N   UNL A   1      43.670  30.019  32.068  1.00  0.00    -0.248 NA
ATOM     64  C   UNL A   1      43.299  31.117  30.043  1.00  0.00     0.031 C 
ATOM     65  C   UNL A   1      39.233  27.768  32.127  1.00  0.00     0.029 A 
ATOM     66  C   UNL A   1      40.117  28.826  31.922  1.00  0.00     0.049 A 
ATOM     67  H   UNL A   1      39.477  30.539  30.879  1.00  0.00     0.167 HD
ATOM     68  C   UNL A   1      42.303  29.985  31.787  1.00  0.00     0.074 A 
ATOM     69  C   UNL A   1      42.139  30.720  30.548  1.00  0.00     0.031 C 
ATOM     70  C   UNL A   1      41.416  29.184  32.449  1.00  0.00     0.031 A 
BRANCH  57  71
ATOM     71  C   UNL A   1      37.550  29.682  28.239  1.00  0.00    -0.014 A 
ATOM     72  C   UNL A   1      37.400  31.062  28.453  1.00  0.00     0.009 A 
ATOM     73  C   UNL A   1      36.456  28.943  27.772  1.00  0.00     0.009 A 
ATOM     74  C   UNL A   1      36.170  31.686  28.249  1.00  0.00     0.001 A 
ATOM     75  C   UNL A   1      35.225  29.575  27.560  1.00  0.00     0.001 A 
ATOM     76  C   UNL A   1      35.079  30.939  27.813  1.00  0.00     0.000 A 
ENDBRANCH  57  71
BRANCH  58  77
ATOM     77  C   UNL A   1      46.477  31.180  29.774  1.00  0.00    -0.014 A 
ATOM     78  C   UNL A   1      47.715  30.721  29.278  1.00  0.00     0.009 A 
ATOM     79  C   UNL A   1      46.181  32.538  29.593  1.00  0.00     0.009 A 
ATOM     80  C   UNL A   1      48.578  31.560  28.564  1.00  0.00     0.001 A 
ATOM     81  C   UNL A   1      47.029  33.373  28.851  1.00  0.00     0.001 A 
ATOM     82  C   UNL A   1      48.222  32.883  28.330  1.00  0.00     0.000 A 
ENDBRANCH  58  77
BRANCH  70  83
ATOM     83  C   UNL A   1      41.937  28.436  33.634  1.00  0.00    -0.014 A 
ATOM     84  C   UNL A   1      41.640  28.861  34.933  1.00  0.00     0.009 A 
ATOM     85  C   UNL A   1      42.659  27.242  33.456  1.00  0.00     0.009 A 
ATOM     86  C   UNL A   1      42.022  28.087  36.031  1.00  0.00     0.001 A 
ATOM     87  C   UNL A   1      43.020  26.459  34.551  1.00  0.00     0.001 A 
ATOM     88  C   UNL A   1      42.695  26.880  35.839  1.00  0.00     0.000 A 
ENDBRANCH  70  83
ENDBRANCH  44  45
ENDBRANCH  36  39
ENDBRANCH  34  35
ENDBRANCH  33  34
ENDBRANCH  32  33
ENDBRANCH   1  32
TORSDOF 15
ENDMDL
MODEL 2
REMARK VINA RESULT:     -11.6      3.022      6.414
REMARK SMILES COc1ccc(-n2c(SCC(=O)NCCCCNC(=O)c3ccc(-c4c5nc(c(-c6ccccc6)c6ccc([nH]6)c(-c6ccccc6)c6nc(c(-c7ccccc7)c7ccc4[nH]7)C=C6)C=C5)cc3)nc3sc4c(c3c2=O)CC[N@H+](C)C4)cc1
REMARK SMILES IDX 14 1 13 2 11 3 12 4 10 6 9 7 8 8 7 9 75 10 69 11 74 12 76 13
REMARK SMILES IDX 70 14 73 15 71 16 72 17 77 18 81 19 78 20 79 21 80 22 6 24
REMARK SMILES IDX 3 25 4 26 83 27 5 28 82 29 2 30 1 31 15 32 16 33 17 34 18 35
REMARK SMILES IDX 19 36 20 38 21 39 22 40 68 41 23 42 67 43 24 44 25 45 26 46
REMARK SMILES IDX 61 47 27 48 66 49 60 50 62 51 28 52 65 53 59 54 58 55 29 57
REMARK SMILES IDX 51 58 36 59 50 60 37 61 40 62 49 63 63 64 38 65 39 66 48 68
REMARK SMILES IDX 64 69 41 70 30 71 31 72 35 73 32 74 34 75 33 76 52 77 53 78
REMARK SMILES IDX 57 79 54 80 56 81 55 82 42 83 43 84 47 85 44 86 46 87 45 88
REMARK H PARENT 13 5 79 23 18 37 62 56 40 67
REMARK Flexibility Score: inf
ROOT
ATOM      1  C   UNL A   1      38.743  24.739  26.861  1.00  0.00     0.116 C 
ENDROOT
BRANCH   1   2
ATOM      2  N   UNL A   1      38.463  23.381  26.444  1.00  0.00    -0.355 N 
ATOM      3  C   UNL A   1      37.584  22.891  25.536  1.00  0.00     0.230 C 
ATOM      4  O   UNL A   1      37.890  21.790  25.060  1.00  0.00    -0.274 OA
ATOM      5  H   UNL A   1      39.005  22.696  26.898  1.00  0.00     0.163 HD
BRANCH   3   6
ATOM      6  C   UNL A   1      36.374  23.637  25.006  1.00  0.00     0.178 C 
BRANCH   6   7
ATOM      7  S   UNL A   1      34.956  23.816  26.059  1.00  0.00    -0.077 SA
BRANCH   7   8
ATOM      8  C   UNL A   1      33.552  24.616  25.387  1.00  0.00     0.177 A 
ATOM      9  N   UNL A   1      32.515  24.040  24.643  1.00  0.00    -0.255 N 
ATOM     10  C   UNL A   1      31.454  24.824  24.128  1.00  0.00     0.267 A 
ATOM     11  N   UNL A   1      33.627  25.895  25.632  1.00  0.00    -0.212 NA
ATOM     12  C   UNL A   1      31.553  26.236  24.424  1.00  0.00     0.081 A 
ATOM     13  O   UNL A   1      30.508  24.386  23.485  1.00  0.00    -0.268 OA
ATOM     14  C   UNL A   1      32.640  26.669  25.136  1.00  0.00     0.132 A 
ATOM     15  C   UNL A   1      30.663  27.300  24.088  1.00  0.00    -0.008 A 
ATOM     16  S   UNL A   1      32.645  28.367  25.326  1.00  0.00    -0.114 S 
ATOM     17  C   UNL A   1      31.180  28.523  24.474  1.00  0.00     0.065 A 
ATOM     18  C   UNL A   1      29.354  27.215  23.362  1.00  0.00     0.099 C 
ATOM     19  C   UNL A   1      30.523  29.851  24.216  1.00  0.00     0.310 C 
ATOM     20  C   UNL A   1      28.614  28.573  23.394  1.00  0.00     0.267 C 
ATOM     21  N   UNL A   1      29.469  29.762  23.174  1.00  0.00    -0.333 N 
ATOM     22  C   UNL A   1      30.042  29.772  21.827  1.00  0.00     0.333 C 
ATOM     23  H   UNL A   1      28.879  30.591  23.253  1.00  0.00     0.348 HD
BRANCH   9  24
ATOM     24  C   UNL A   1      32.370  22.662  24.390  1.00  0.00     0.052 A 
ATOM     25  C   UNL A   1      32.360  19.909  23.896  1.00  0.00     0.119 A 
ATOM     26  C   UNL A   1      32.175  20.392  25.194  1.00  0.00     0.048 A 
ATOM     27  C   UNL A   1      32.631  20.807  22.863  1.00  0.00     0.048 A 
ATOM     28  C   UNL A   1      32.186  21.765  25.449  1.00  0.00     0.030 A 
ATOM     29  C   UNL A   1      32.644  22.181  23.110  1.00  0.00     0.030 A 
BRANCH  25  30
ATOM     30  O   UNL A   1      32.277  18.551  23.757  1.00  0.00    -0.497 OA
ATOM     31  C   UNL A   1      32.368  18.065  22.421  1.00  0.00     0.278 C 
ENDBRANCH  25  30
ENDBRANCH   9  24
ENDBRANCH   7   8
ENDBRANCH   6   7
ENDBRANCH   3   6
ENDBRANCH   1   2
BRANCH   1  32
ATOM     32  C   UNL A   1      40.234  24.981  27.093  1.00  0.00     0.023 C 
BRANCH  32  33
ATOM     33  C   UNL A   1      41.128  24.925  25.839  1.00  0.00     0.023 C 
BRANCH  33  34
ATOM     34  C   UNL A   1      42.514  25.577  25.953  1.00  0.00     0.116 C 
BRANCH  34  35
ATOM     35  N   UNL A   1      42.573  26.831  25.231  1.00  0.00    -0.352 N 
ATOM     36  C   UNL A   1      42.081  28.073  25.517  1.00  0.00     0.251 C 
ATOM     37  H   UNL A   1      43.059  26.779  24.376  1.00  0.00     0.163 HD
ATOM     38  O   UNL A   1      42.073  28.907  24.612  1.00  0.00    -0.269 OA
BRANCH  36  39
ATOM     39  C   UNL A   1      41.565  28.462  26.850  1.00  0.00     0.039 A 
ATOM     40  C   UNL A   1      40.195  28.739  26.937  1.00  0.00     0.014 A 
ATOM     41  C   UNL A   1      42.391  28.724  27.949  1.00  0.00     0.014 A 
ATOM     42  C   UNL A   1      39.653  29.272  28.105  1.00  0.00     0.010 A 
ATOM     43  C   UNL A   1      41.842  29.249  29.130  1.00  0.00     0.010 A 
ATOM     44  C   UNL A   1      40.472  29.532  29.211  1.00  0.00    -0.014 A 
BRANCH  44  45
ATOM     45  C   UNL A   1      39.806  30.057  30.424  1.00  0.00     0.031 A 
ATOM     46  C   UNL A   1      40.043  29.282  31.687  1.00  0.00     0.074 A 
ATOM     47  C   UNL A   1      39.588  31.385  30.535  1.00  0.00     0.049 A 
ATOM     48  N   UNL A   1      41.024  29.467  32.524  1.00  0.00    -0.248 NA
ATOM     49  C   UNL A   1      39.262  28.071  31.949  1.00  0.00     0.031 C 
ATOM     50  C   UNL A   1      40.631  32.393  30.320  1.00  0.00     0.029 A 
ATOM     51  N   UNL A   1      38.552  32.077  31.127  1.00  0.00    -0.354 N 
ATOM     52  C   UNL A   1      41.022  28.383  33.394  1.00  0.00     0.074 A 
ATOM     53  C   UNL A   1      39.912  27.547  32.997  1.00  0.00     0.031 C 
ATOM     54  C   UNL A   1      40.242  33.545  30.904  1.00  0.00     0.029 A 
ATOM     55  C   UNL A   1      38.886  33.395  31.432  1.00  0.00     0.049 A 
ATOM     56  H   UNL A   1      37.671  31.682  31.315  1.00  0.00     0.167 HD
ATOM     57  C   UNL A   1      41.924  28.204  34.397  1.00  0.00     0.031 A 
ATOM     58  C   UNL A   1      38.376  34.099  32.480  1.00  0.00     0.031 A 
ATOM     59  C   UNL A   1      42.863  29.261  34.592  1.00  0.00     0.049 A 
ATOM     60  C   UNL A   1      39.232  33.602  33.613  1.00  0.00     0.074 A 
ATOM     61  C   UNL A   1      44.186  29.523  34.307  1.00  0.00     0.029 A 
ATOM     62  N   UNL A   1      42.431  30.372  35.271  1.00  0.00    -0.354 N 
ATOM     63  N   UNL A   1      40.437  34.001  33.915  1.00  0.00    -0.248 NA
ATOM     64  C   UNL A   1      38.839  32.328  34.219  1.00  0.00     0.031 C 
ATOM     65  C   UNL A   1      44.328  30.941  34.430  1.00  0.00     0.029 A 
ATOM     66  C   UNL A   1      43.067  31.454  34.732  1.00  0.00     0.049 A 
ATOM     67  H   UNL A   1      41.781  30.386  36.011  1.00  0.00     0.167 HD
ATOM     68  C   UNL A   1      41.061  32.886  34.478  1.00  0.00     0.074 A 
ATOM     69  C   UNL A   1      40.009  31.909  34.682  1.00  0.00     0.031 C 
ATOM     70  C   UNL A   1      42.417  32.733  34.546  1.00  0.00     0.031 A 
BRANCH  57  71
ATOM     71  C   UNL A   1      41.918  27.074  35.353  1.00  0.00    -0.014 A 
ATOM     72  C   UNL A   1      42.370  25.820  34.910  1.00  0.00     0.009 A 
ATOM     73  C   UNL A   1      41.277  27.166  36.594  1.00  0.00     0.009 A 
ATOM     74  C   UNL A   1      42.145  24.672  35.668  1.00  0.00     0.001 A 
ATOM     75  C   UNL A   1      41.061  26.013  37.357  1.00  0.00     0.001 A 
ATOM     76  C   UNL A   1      41.481  24.767  36.887  1.00  0.00     0.000 A 
ENDBRANCH  57  71
BRANCH  58  77
ATOM     77  C   UNL A   1      36.888  34.229  32.559  1.00  0.00    -0.014 A 
ATOM     78  C   UNL A   1      36.333  34.557  33.813  1.00  0.00     0.009 A 
ATOM     79  C   UNL A   1      35.994  34.023  31.500  1.00  0.00     0.009 A 
ATOM     80  C   UNL A   1      34.958  34.752  33.980  1.00  0.00     0.001 A 
ATOM     81  C   UNL A   1      34.618  34.248  31.656  1.00  0.00     0.001 A 
ATOM     82  C   UNL A   1      34.102  34.621  32.893  1.00  0.00     0.000 A 
ENDBRANCH  58  77
BRANCH  70  83
ATOM     83  C   UNL A   1      43.249  33.903  34.131  1.00  0.00    -0.014 A 
ATOM     84  C   UNL A   1      43.501  34.157  32.779  1.00  0.00     0.009 A 
ATOM     85  C   UNL A   1      43.717  34.816  35.093  1.00  0.00     0.009 A 
ATOM     86  C   UNL A   1      44.170  35.321  32.394  1.00  0.00     0.001 A 
ATOM     87  C   UNL A   1      44.365  35.988  34.707  1.00  0.00     0.001 A 
ATOM     88  C   UNL A   1      44.584  36.243  33.355  1.00  0.00     0.000 A 
ENDBRANCH  70  83
ENDBRANCH  44  45
ENDBRANCH  36  39
ENDBRANCH  34  35
ENDBRANCH  33  34
ENDBRANCH  32  33
ENDBRANCH   1  32
TORSDOF 15
ENDMDL
MODEL 3
REMARK VINA RESULT:     -11.4      2.696      7.909
REMARK SMILES COc1ccc(-n2c(SCC(=O)NCCCCNC(=O)c3ccc(-c4c5nc(c(-c6ccccc6)c6ccc([nH]6)c(-c6ccccc6)c6nc(c(-c7ccccc7)c7ccc4[nH]7)C=C6)C=C5)cc3)nc3sc4c(c3c2=O)CC[N@H+](C)C4)cc1
REMARK SMILES IDX 14 1 13 2 11 3 12 4 10 6 9 7 8 8 7 9 75 10 69 11 74 12 76 13
REMARK SMILES IDX 70 14 73 15 71 16 72 17 77 18 81 19 78 20 79 21 80 22 6 24
REMARK SMILES IDX 3 25 4 26 83 27 5 28 82 29 2 30 1 31 15 32 16 33 17 34 18 35
REMARK SMILES IDX 19 36 20 38 21 39 22 40 68 41 23 42 67 43 24 44 25 45 26 46
REMARK SMILES IDX 61 47 27 48 66 49 60 50 62 51 28 52 65 53 59 54 58 55 29 57
REMARK SMILES IDX 51 58 36 59 50 60 37 61 40 62 49 63 63 64 38 65 39 66 48 68
REMARK SMILES IDX 64 69 41 70 30 71 31 72 35 73 32 74 34 75 33 76 52 77 53 78
REMARK SMILES IDX 57 79 54 80 56 81 55 82 42 83 43 84 47 85 44 86 46 87 45 88
REMARK H PARENT 13 5 79 23 18 37 62 56 40 67
REMARK Flexibility Score: inf
ROOT
ATOM      1  C   UNL A   1      34.198  30.465  27.186  1.00  0.00     0.116 C 
ENDROOT
BRANCH   1   2
ATOM      2  N   UNL A   1      33.232  30.416  26.108  1.00  0.00    -0.355 N 
ATOM      3  C   UNL A   1      32.869  29.404  25.282  1.00  0.00     0.230 C 
ATOM      4  O   UNL A   1      31.731  29.509  24.804  1.00  0.00    -0.274 OA
ATOM      5  H   UNL A   1      32.758  31.264  25.947  1.00  0.00     0.163 HD
BRANCH   3   6
ATOM      6  C   UNL A   1      33.688  28.153  25.025  1.00  0.00     0.178 C 
BRANCH   6   7
ATOM      7  S   UNL A   1      33.494  26.769  26.119  1.00  0.00    -0.077 SA
BRANCH   7   8
ATOM      8  C   UNL A   1      33.190  25.207  25.391  1.00  0.00     0.177 A 
ATOM      9  N   UNL A   1      32.157  24.860  24.512  1.00  0.00    -0.255 N 
ATOM     10  C   UNL A   1      32.013  23.537  24.029  1.00  0.00     0.267 A 
ATOM     11  N   UNL A   1      34.061  24.346  25.840  1.00  0.00    -0.212 NA
ATOM     12  C   UNL A   1      32.998  22.605  24.531  1.00  0.00     0.081 A 
ATOM     13  O   UNL A   1      31.146  23.167  23.247  1.00  0.00    -0.268 OA
ATOM     14  C   UNL A   1      33.936  23.073  25.413  1.00  0.00     0.132 A 
ATOM     15  C   UNL A   1      33.167  21.217  24.243  1.00  0.00    -0.008 A 
ATOM     16  S   UNL A   1      34.967  21.830  25.970  1.00  0.00    -0.114 S 
ATOM     17  C   UNL A   1      34.174  20.666  25.013  1.00  0.00     0.065 A 
ATOM     18  C   UNL A   1      32.373  20.367  23.296  1.00  0.00     0.099 C 
ATOM     19  C   UNL A   1      34.567  19.215  24.999  1.00  0.00     0.310 C 
ATOM     20  C   UNL A   1      33.021  18.973  23.127  1.00  0.00     0.267 C 
ATOM     21  N   UNL A   1      33.528  18.358  24.376  1.00  0.00    -0.333 N 
ATOM     22  C   UNL A   1      32.441  18.064  25.311  1.00  0.00     0.333 C 
ATOM     23  H   UNL A   1      33.961  17.467  24.133  1.00  0.00     0.348 HD
BRANCH   9  24
ATOM     24  C   UNL A   1      31.222  25.762  23.968  1.00  0.00     0.052 A 
ATOM     25  C   UNL A   1      29.466  27.743  23.065  1.00  0.00     0.119 A 
ATOM     26  C   UNL A   1      30.653  27.488  22.375  1.00  0.00     0.048 A 
ATOM     27  C   UNL A   1      29.202  27.060  24.252  1.00  0.00     0.048 A 
ATOM     28  C   UNL A   1      31.538  26.504  22.825  1.00  0.00     0.030 A 
ATOM     29  C   UNL A   1      30.082  26.076  24.708  1.00  0.00     0.030 A 
BRANCH  25  30
ATOM     30  O   UNL A   1      28.653  28.689  22.504  1.00  0.00    -0.497 OA
ATOM     31  C   UNL A   1      29.145  30.025  22.549  1.00  0.00     0.278 C 
ENDBRANCH  25  30
ENDBRANCH   9  24
ENDBRANCH   7   8
ENDBRANCH   6   7
ENDBRANCH   3   6
ENDBRANCH   1   2
BRANCH   1  32
ATOM     32  C   UNL A   1      34.080  31.743  28.015  1.00  0.00     0.023 C 
BRANCH  32  33
ATOM     33  C   UNL A   1      35.284  32.703  27.948  1.00  0.00     0.023 C 
BRANCH  33  34
ATOM     34  C   UNL A   1      35.144  34.036  28.697  1.00  0.00     0.116 C 
BRANCH  34  35
ATOM     35  N   UNL A   1      34.532  33.855  29.996  1.00  0.00    -0.352 N 
ATOM     36  C   UNL A   1      34.861  33.059  31.058  1.00  0.00     0.251 C 
ATOM     37  H   UNL A   1      33.731  34.408  30.143  1.00  0.00     0.163 HD
ATOM     38  O   UNL A   1      34.029  32.928  31.954  1.00  0.00    -0.269 OA
BRANCH  36  39
ATOM     39  C   UNL A   1      36.160  32.357  31.182  1.00  0.00     0.039 A 
ATOM     40  C   UNL A   1      36.136  30.964  31.038  1.00  0.00     0.014 A 
ATOM     41  C   UNL A   1      37.339  32.986  31.597  1.00  0.00     0.014 A 
ATOM     42  C   UNL A   1      37.275  30.206  31.304  1.00  0.00     0.010 A 
ATOM     43  C   UNL A   1      38.489  32.223  31.852  1.00  0.00     0.010 A 
ATOM     44  C   UNL A   1      38.461  30.828  31.714  1.00  0.00    -0.014 A 
BRANCH  44  45
ATOM     45  C   UNL A   1      39.632  29.951  31.933  1.00  0.00     0.031 A 
ATOM     46  C   UNL A   1      39.642  28.668  31.155  1.00  0.00     0.074 A 
ATOM     47  C   UNL A   1      40.824  30.506  32.241  1.00  0.00     0.049 A 
ATOM     48  N   UNL A   1      40.134  28.502  29.960  1.00  0.00    -0.248 NA
ATOM     49  C   UNL A   1      38.867  27.523  31.640  1.00  0.00     0.031 C 
ATOM     50  C   UNL A   1      41.424  31.602  31.475  1.00  0.00     0.029 A 
ATOM     51  N   UNL A   1      41.843  30.049  33.051  1.00  0.00    -0.354 N 
ATOM     52  C   UNL A   1      39.702  27.259  29.514  1.00  0.00     0.074 A 
ATOM     53  C   UNL A   1      38.922  26.691  30.590  1.00  0.00     0.031 C 
ATOM     54  C   UNL A   1      42.745  31.642  31.744  1.00  0.00     0.029 A 
ATOM     55  C   UNL A   1      43.066  30.658  32.778  1.00  0.00     0.049 A 
ATOM     56  H   UNL A   1      41.719  29.365  33.748  1.00  0.00     0.167 HD
ATOM     57  C   UNL A   1      39.989  26.742  28.289  1.00  0.00     0.031 A 
ATOM     58  C   UNL A   1      44.279  30.061  32.935  1.00  0.00     0.031 A 
ATOM     59  C   UNL A   1      40.864  27.518  27.470  1.00  0.00     0.049 A 
ATOM     60  C   UNL A   1      44.378  29.256  31.668  1.00  0.00     0.074 A 
ATOM     61  C   UNL A   1      40.772  28.367  26.388  1.00  0.00     0.029 A 
ATOM     62  N   UNL A   1      42.207  27.447  27.739  1.00  0.00    -0.354 N 
ATOM     63  N   UNL A   1      44.731  29.693  30.490  1.00  0.00    -0.248 NA
ATOM     64  C   UNL A   1      43.690  27.963  31.659  1.00  0.00     0.031 C 
ATOM     65  C   UNL A   1      42.002  29.096  26.371  1.00  0.00     0.029 A 
ATOM     66  C   UNL A   1      42.741  28.677  27.477  1.00  0.00     0.049 A 
ATOM     67  H   UNL A   1      42.696  26.656  28.062  1.00  0.00     0.167 HD
ATOM     68  C   UNL A   1      44.033  28.897  29.580  1.00  0.00     0.074 A 
ATOM     69  C   UNL A   1      43.454  27.822  30.362  1.00  0.00     0.031 C 
ATOM     70  C   UNL A   1      43.782  29.268  28.289  1.00  0.00     0.031 A 
BRANCH  57  71
ATOM     71  C   UNL A   1      39.566  25.407  27.809  1.00  0.00    -0.014 A 
ATOM     72  C   UNL A   1      40.442  24.323  27.987  1.00  0.00     0.009 A 
ATOM     73  C   UNL A   1      38.438  25.243  26.996  1.00  0.00     0.009 A 
ATOM     74  C   UNL A   1      40.222  23.113  27.332  1.00  0.00     0.001 A 
ATOM     75  C   UNL A   1      38.216  24.023  26.346  1.00  0.00     0.001 A 
ATOM     76  C   UNL A   1      39.114  22.967  26.502  1.00  0.00     0.000 A 
ENDBRANCH  57  71
BRANCH  58  77
ATOM     77  C   UNL A   1      44.605  29.517  34.290  1.00  0.00    -0.014 A 
ATOM     78  C   UNL A   1      43.671  29.745  35.321  1.00  0.00     0.009 A 
ATOM     79  C   UNL A   1      45.775  28.824  34.631  1.00  0.00     0.009 A 
ATOM     80  C   UNL A   1      43.857  29.234  36.609  1.00  0.00     0.001 A 
ATOM     81  C   UNL A   1      45.950  28.283  35.913  1.00  0.00     0.001 A 
ATOM     82  C   UNL A   1      44.989  28.480  36.899  1.00  0.00     0.000 A 
ENDBRANCH  58  77
BRANCH  70  83
ATOM     83  C   UNL A   1      44.435  30.525  27.809  1.00  0.00    -0.014 A 
ATOM     84  C   UNL A   1      45.611  30.475  27.053  1.00  0.00     0.009 A 
ATOM     85  C   UNL A   1      43.825  31.772  28.038  1.00  0.00     0.009 A 
ATOM     86  C   UNL A   1      46.143  31.643  26.502  1.00  0.00     0.001 A 
ATOM     87  C   UNL A   1      44.345  32.933  27.470  1.00  0.00     0.001 A 
ATOM     88  C   UNL A   1      45.501  32.866  26.695  1.00  0.00     0.000 A 
ENDBRANCH  70  83
ENDBRANCH  44  45
ENDBRANCH  36  39
ENDBRANCH  34  35
ENDBRANCH  33  34
ENDBRANCH  32  33
ENDBRANCH   1  32
TORSDOF 15
ENDMDL
