MODEL 1
REMARK VINA RESULT:     -12.5      0.000      0.000
REMARK SMILES COC(=O)c1c(NC(=O)[C@@H]2[C@H]3CC[C@H](CC3)[C@H]2C(=O)NCCCCNC(=O)c2ccc(-c3c4nc(c(-c5ccccc5)c5ccc([nH]5)c(-c5ccccc5)c5nc(c(-c6ccccc6)c6ccc3[nH]6)C=C5)C=C4)cc2)sc(C)c1-c1ccc(C)cc1
REMARK SMILES IDX 21 1 20 2 18 3 19 4 17 6 10 7 11 8 16 9 12 10 14 11 15 12
REMARK SMILES IDX 13 13 8 14 7 15 9 17 6 18 5 19 79 20 76 21 77 22 78 23 3 24
REMARK SMILES IDX 4 25 2 26 1 27 80 28 81 29 86 30 82 31 85 32 83 33 84 34
REMARK SMILES IDX 22 35 23 36 24 37 25 38 26 39 27 41 28 42 29 43 75 44 30 45
REMARK SMILES IDX 74 46 31 47 32 48 33 49 68 50 34 51 73 52 67 53 69 54 35 55
REMARK SMILES IDX 72 56 66 57 65 58 36 60 58 61 43 62 57 63 44 64 47 65 56 66
REMARK SMILES IDX 70 67 45 68 46 69 55 71 71 72 48 73 37 74 38 75 42 76 39 77
REMARK SMILES IDX 41 78 40 79 59 80 60 81 64 82 61 83 63 84 62 85 49 86 50 87
REMARK SMILES IDX 54 88 51 89 53 90 52 91
REMARK H PARENT 20 5 7 16 25 40 69 59 47 70
REMARK Flexibility Score: inf
ROOT
ATOM      1  C   UNL A   1      34.018  28.955  26.383  1.00  0.00     0.116 C 
ENDROOT
BRANCH   1   2
ATOM      2  N   UNL A   1      34.198  29.134  24.967  1.00  0.00    -0.356 N 
ATOM      3  C   UNL A   1      33.405  28.742  23.939  1.00  0.00     0.224 C 
ATOM      4  O   UNL A   1      33.575  29.353  22.877  1.00  0.00    -0.275 OA
ATOM      5  H   UNL A   1      35.018  29.612  24.706  1.00  0.00     0.163 HD
BRANCH   3   6
ATOM      6  C   UNL A   1      32.348  27.627  24.018  1.00  0.00     0.094 C 
ATOM      7  C   UNL A   1      31.294  27.729  25.124  1.00  0.00     0.094 C 
ATOM      8  C   UNL A   1      29.916  27.301  24.508  1.00  0.00     0.002 C 
ATOM      9  C   UNL A   1      29.555  28.164  23.273  1.00  0.00     0.005 C 
ATOM     10  C   UNL A   1      30.007  25.852  23.998  1.00  0.00     0.005 C 
ATOM     11  C   UNL A   1      31.755  27.131  22.680  1.00  0.00     0.002 C 
ATOM     12  C   UNL A   1      30.630  28.034  22.185  1.00  0.00     0.005 C 
ATOM     13  C   UNL A   1      31.127  25.736  22.952  1.00  0.00     0.005 C 
BRANCH   7  14
ATOM     14  C   UNL A   1      31.462  27.064  26.529  1.00  0.00     0.229 C 
ATOM     15  N   UNL A   1      31.808  25.785  26.844  1.00  0.00    -0.317 N 
ATOM     16  H   UNL A   1      31.421  25.479  27.696  1.00  0.00     0.170 HD
ATOM     17  O   UNL A   1      31.026  27.726  27.491  1.00  0.00    -0.274 OA
BRANCH  15  18
ATOM     18  C   UNL A   1      32.581  24.827  26.229  1.00  0.00     0.111 A 
ATOM     19  C   UNL A   1      32.663  23.450  26.424  1.00  0.00     0.102 A 
ATOM     20  C   UNL A   1      33.392  22.857  25.309  1.00  0.00     0.012 A 
ATOM     21  S   UNL A   1      34.068  25.261  25.505  1.00  0.00    -0.122 S 
ATOM     22  C   UNL A   1      33.938  23.861  24.517  1.00  0.00     0.012 A 
ATOM     23  C   UNL A   1      34.467  23.877  23.125  1.00  0.00     0.057 C 
BRANCH  19  24
ATOM     24  C   UNL A   1      32.076  22.779  27.579  1.00  0.00     0.341 C 
ATOM     25  O   UNL A   1      32.700  22.032  28.311  1.00  0.00    -0.246 OA
BRANCH  24  26
ATOM     26  O   UNL A   1      30.726  22.973  27.634  1.00  0.00    -0.465 OA
ATOM     27  C   UNL A   1      29.982  22.488  26.518  1.00  0.00     0.282 C 
ENDBRANCH  24  26
ENDBRANCH  19  24
BRANCH  20  28
ATOM     28  C   UNL A   1      33.597  21.448  24.981  1.00  0.00    -0.016 A 
ATOM     29  C   UNL A   1      34.810  20.798  25.222  1.00  0.00     0.009 A 
ATOM     30  C   UNL A   1      32.551  20.736  24.378  1.00  0.00     0.009 A 
ATOM     31  C   UNL A   1      34.970  19.454  24.857  1.00  0.00     0.004 A 
ATOM     32  C   UNL A   1      32.705  19.395  24.028  1.00  0.00     0.004 A 
ATOM     33  C   UNL A   1      33.918  18.743  24.262  1.00  0.00    -0.051 A 
ATOM     34  C   UNL A   1      34.103  17.317  23.834  1.00  0.00     0.044 C 
ENDBRANCH  20  28
ENDBRANCH  15  18
ENDBRANCH   7  14
ENDBRANCH   3   6
ENDBRANCH   1   2
BRANCH   1  35
ATOM     35  C   UNL A   1      34.457  30.129  27.242  1.00  0.00     0.023 C 
BRANCH  35  36
ATOM     36  C   UNL A   1      33.362  31.113  27.637  1.00  0.00     0.023 C 
BRANCH  36  37
ATOM     37  C   UNL A   1      33.553  32.553  27.178  1.00  0.00     0.116 C 
BRANCH  37  38
ATOM     38  N   UNL A   1      32.855  33.543  27.989  1.00  0.00    -0.352 N 
ATOM     39  C   UNL A   1      33.303  34.222  29.097  1.00  0.00     0.251 C 
ATOM     40  H   UNL A   1      31.936  33.755  27.704  1.00  0.00     0.163 HD
ATOM     41  O   UNL A   1      32.592  35.040  29.668  1.00  0.00    -0.269 OA
BRANCH  39  42
ATOM     42  C   UNL A   1      34.633  33.889  29.631  1.00  0.00     0.039 A 
ATOM     43  C   UNL A   1      34.708  33.051  30.745  1.00  0.00     0.014 A 
ATOM     44  C   UNL A   1      35.785  34.290  28.950  1.00  0.00     0.014 A 
ATOM     45  C   UNL A   1      35.942  32.522  31.117  1.00  0.00     0.010 A 
ATOM     46  C   UNL A   1      37.000  33.700  29.275  1.00  0.00     0.010 A 
ATOM     47  C   UNL A   1      37.085  32.799  30.349  1.00  0.00    -0.014 A 
BRANCH  47  48
ATOM     48  C   UNL A   1      38.379  32.136  30.639  1.00  0.00     0.031 A 
ATOM     49  C   UNL A   1      39.366  32.797  31.556  1.00  0.00     0.074 A 
ATOM     50  C   UNL A   1      38.695  30.985  30.014  1.00  0.00     0.049 A 
ATOM     51  N   UNL A   1      40.580  32.423  31.866  1.00  0.00    -0.248 NA
ATOM     52  C   UNL A   1      38.944  34.061  32.181  1.00  0.00     0.031 C 
ATOM     53  C   UNL A   1      37.842  30.270  29.061  1.00  0.00     0.029 A 
ATOM     54  N   UNL A   1      39.829  30.216  30.085  1.00  0.00    -0.354 N 
ATOM     55  C   UNL A   1      41.076  33.418  32.697  1.00  0.00     0.074 A 
ATOM     56  C   UNL A   1      40.050  34.432  32.808  1.00  0.00     0.031 C 
ATOM     57  C   UNL A   1      38.471  29.151  28.662  1.00  0.00     0.029 A 
ATOM     58  C   UNL A   1      39.781  29.090  29.300  1.00  0.00     0.049 A 
ATOM     59  H   UNL A   1      40.605  30.450  30.644  1.00  0.00     0.167 HD
ATOM     60  C   UNL A   1      42.271  33.476  33.329  1.00  0.00     0.031 A 
ATOM     61  C   UNL A   1      40.692  28.117  29.116  1.00  0.00     0.031 A 
ATOM     62  C   UNL A   1      43.279  32.456  33.243  1.00  0.00     0.049 A 
ATOM     63  C   UNL A   1      42.003  28.191  29.846  1.00  0.00     0.074 A 
ATOM     64  C   UNL A   1      44.498  32.391  33.896  1.00  0.00     0.029 A 
ATOM     65  N   UNL A   1      43.180  31.317  32.460  1.00  0.00    -0.354 N 
ATOM     66  N   UNL A   1      42.433  29.111  30.675  1.00  0.00    -0.248 NA
ATOM     67  C   UNL A   1      42.949  27.090  29.621  1.00  0.00     0.031 C 
ATOM     68  C   UNL A   1      45.150  31.225  33.482  1.00  0.00     0.029 A 
ATOM     69  C   UNL A   1      44.320  30.547  32.603  1.00  0.00     0.049 A 
ATOM     70  H   UNL A   1      42.413  31.090  31.887  1.00  0.00     0.167 HD
ATOM     71  C   UNL A   1      43.689  28.687  31.089  1.00  0.00     0.074 A 
ATOM     72  C   UNL A   1      43.946  27.424  30.429  1.00  0.00     0.031 C 
ATOM     73  C   UNL A   1      44.553  29.291  31.941  1.00  0.00     0.031 A 
BRANCH  60  74
ATOM     74  C   UNL A   1      42.541  34.689  34.169  1.00  0.00    -0.014 A 
ATOM     75  C   UNL A   1      42.213  34.712  35.535  1.00  0.00     0.009 A 
ATOM     76  C   UNL A   1      43.137  35.821  33.593  1.00  0.00     0.009 A 
ATOM     77  C   UNL A   1      42.439  35.859  36.297  1.00  0.00     0.001 A 
ATOM     78  C   UNL A   1      43.387  36.957  34.364  1.00  0.00     0.001 A 
ATOM     79  C   UNL A   1      43.029  36.980  35.711  1.00  0.00     0.000 A 
ENDBRANCH  60  74
BRANCH  61  80
ATOM     80  C   UNL A   1      40.388  26.969  28.225  1.00  0.00    -0.014 A 
ATOM     81  C   UNL A   1      39.642  25.881  28.704  1.00  0.00     0.009 A 
ATOM     82  C   UNL A   1      40.844  26.949  26.898  1.00  0.00     0.009 A 
ATOM     83  C   UNL A   1      39.379  24.785  27.880  1.00  0.00     0.001 A 
ATOM     84  C   UNL A   1      40.560  25.861  26.069  1.00  0.00     0.001 A 
ATOM     85  C   UNL A   1      39.835  24.777  26.563  1.00  0.00     0.000 A 
ENDBRANCH  61  80
BRANCH  73  86
ATOM     86  C   UNL A   1      45.839  28.576  32.230  1.00  0.00    -0.014 A 
ATOM     87  C   UNL A   1      46.997  28.836  31.482  1.00  0.00     0.009 A 
ATOM     88  C   UNL A   1      45.901  27.665  33.296  1.00  0.00     0.009 A 
ATOM     89  C   UNL A   1      48.189  28.175  31.781  1.00  0.00     0.001 A 
ATOM     90  C   UNL A   1      47.100  27.023  33.607  1.00  0.00     0.001 A 
ATOM     91  C   UNL A   1      48.241  27.274  32.845  1.00  0.00     0.000 A 
ENDBRANCH  73  86
ENDBRANCH  47  48
ENDBRANCH  39  42
ENDBRANCH  37  38
ENDBRANCH  36  37
ENDBRANCH  35  36
ENDBRANCH   1  35
TORSDOF 16
ENDMDL
MODEL 2
REMARK VINA RESULT:     -12.4      3.736      9.077
REMARK SMILES COC(=O)c1c(NC(=O)[C@@H]2[C@H]3CC[C@H](CC3)[C@H]2C(=O)NCCCCNC(=O)c2ccc(-c3c4nc(c(-c5ccccc5)c5ccc([nH]5)c(-c5ccccc5)c5nc(c(-c6ccccc6)c6ccc3[nH]6)C=C5)C=C4)cc2)sc(C)c1-c1ccc(C)cc1
REMARK SMILES IDX 21 1 20 2 18 3 19 4 17 6 10 7 11 8 16 9 12 10 14 11 15 12
REMARK SMILES IDX 13 13 8 14 7 15 9 17 6 18 5 19 79 20 76 21 77 22 78 23 3 24
REMARK SMILES IDX 4 25 2 26 1 27 80 28 81 29 86 30 82 31 85 32 83 33 84 34
REMARK SMILES IDX 22 35 23 36 24 37 25 38 26 39 27 41 28 42 29 43 75 44 30 45
REMARK SMILES IDX 74 46 31 47 32 48 33 49 68 50 34 51 73 52 67 53 69 54 35 55
REMARK SMILES IDX 72 56 66 57 65 58 36 60 58 61 43 62 57 63 44 64 47 65 56 66
REMARK SMILES IDX 70 67 45 68 46 69 55 71 71 72 48 73 37 74 38 75 42 76 39 77
REMARK SMILES IDX 41 78 40 79 59 80 60 81 64 82 61 83 63 84 62 85 49 86 50 87
REMARK SMILES IDX 54 88 51 89 53 90 52 91
REMARK H PARENT 20 5 7 16 25 40 69 59 47 70
REMARK Flexibility Score: inf
ROOT
ATOM      1  C   UNL A   1      36.156  22.137  24.211  1.00  0.00     0.116 C 
ENDROOT
BRANCH   1   2
ATOM      2  N   UNL A   1      35.915  23.542  24.406  1.00  0.00    -0.356 N 
ATOM      3  C   UNL A   1      34.886  24.163  25.035  1.00  0.00     0.224 C 
ATOM      4  O   UNL A   1      35.115  25.321  25.407  1.00  0.00    -0.275 OA
ATOM      5  H   UNL A   1      36.598  24.141  24.028  1.00  0.00     0.163 HD
BRANCH   3   6
ATOM      6  C   UNL A   1      33.509  23.533  25.302  1.00  0.00     0.094 C 
ATOM      7  C   UNL A   1      32.960  22.559  24.255  1.00  0.00     0.094 C 
ATOM      8  C   UNL A   1      32.285  21.369  25.021  1.00  0.00     0.002 C 
ATOM      9  C   UNL A   1      33.278  20.685  25.995  1.00  0.00     0.005 C 
ATOM     10  C   UNL A   1      31.137  21.903  25.896  1.00  0.00     0.005 C 
ATOM     11  C   UNL A   1      33.221  23.071  26.748  1.00  0.00     0.002 C 
ATOM     12  C   UNL A   1      33.802  21.689  27.031  1.00  0.00     0.005 C 
ATOM     13  C   UNL A   1      31.678  22.947  26.886  1.00  0.00     0.005 C 
BRANCH   7  14
ATOM     14  C   UNL A   1      32.039  23.003  23.073  1.00  0.00     0.229 C 
ATOM     15  N   UNL A   1      31.491  24.224  22.816  1.00  0.00    -0.317 N 
ATOM     16  H   UNL A   1      30.635  24.169  22.333  1.00  0.00     0.170 HD
ATOM     17  O   UNL A   1      31.570  22.078  22.381  1.00  0.00    -0.274 OA
BRANCH  15  18
ATOM     18  C   UNL A   1      31.876  25.517  23.085  1.00  0.00     0.111 A 
ATOM     19  C   UNL A   1      31.632  26.337  24.185  1.00  0.00     0.102 A 
ATOM     20  C   UNL A   1      32.522  27.491  24.122  1.00  0.00     0.012 A 
ATOM     21  S   UNL A   1      32.229  26.592  21.802  1.00  0.00    -0.122 S 
ATOM     22  C   UNL A   1      33.183  27.508  22.899  1.00  0.00     0.012 A 
ATOM     23  C   UNL A   1      34.404  28.211  22.418  1.00  0.00     0.057 C 
BRANCH  19  24
ATOM     24  C   UNL A   1      30.637  26.017  25.203  1.00  0.00     0.341 C 
ATOM     25  O   UNL A   1      30.881  25.992  26.396  1.00  0.00    -0.246 OA
BRANCH  24  26
ATOM     26  O   UNL A   1      29.464  25.605  24.641  1.00  0.00    -0.465 OA
ATOM     27  C   UNL A   1      28.716  26.609  23.957  1.00  0.00     0.282 C 
ENDBRANCH  24  26
ENDBRANCH  19  24
BRANCH  20  28
ATOM     28  C   UNL A   1      32.754  28.536  25.115  1.00  0.00    -0.016 A 
ATOM     29  C   UNL A   1      31.891  29.626  25.264  1.00  0.00     0.009 A 
ATOM     30  C   UNL A   1      33.896  28.458  25.924  1.00  0.00     0.009 A 
ATOM     31  C   UNL A   1      32.176  30.622  26.207  1.00  0.00     0.004 A 
ATOM     32  C   UNL A   1      34.172  29.442  26.873  1.00  0.00     0.004 A 
ATOM     33  C   UNL A   1      33.315  30.534  27.020  1.00  0.00    -0.051 A 
ATOM     34  C   UNL A   1      33.641  31.622  28.001  1.00  0.00     0.044 C 
ENDBRANCH  20  28
ENDBRANCH  15  18
ENDBRANCH   7  14
ENDBRANCH   3   6
ENDBRANCH   1   2
BRANCH   1  35
ATOM     35  C   UNL A   1      36.846  21.435  25.367  1.00  0.00     0.023 C 
BRANCH  35  36
ATOM     36  C   UNL A   1      38.049  20.573  25.002  1.00  0.00     0.023 C 
BRANCH  36  37
ATOM     37  C   UNL A   1      39.163  20.499  26.038  1.00  0.00     0.116 C 
BRANCH  37  38
ATOM     38  N   UNL A   1      40.051  19.352  25.889  1.00  0.00    -0.352 N 
ATOM     39  C   UNL A   1      41.409  19.280  26.090  1.00  0.00     0.251 C 
ATOM     40  H   UNL A   1      39.618  18.514  25.606  1.00  0.00     0.163 HD
ATOM     41  O   UNL A   1      42.017  18.229  25.932  1.00  0.00    -0.269 OA
BRANCH  39  42
ATOM     42  C   UNL A   1      42.133  20.517  26.427  1.00  0.00     0.039 A 
ATOM     43  C   UNL A   1      42.540  21.350  25.384  1.00  0.00     0.014 A 
ATOM     44  C   UNL A   1      42.276  20.907  27.760  1.00  0.00     0.014 A 
ATOM     45  C   UNL A   1      43.000  22.632  25.676  1.00  0.00     0.010 A 
ATOM     46  C   UNL A   1      42.660  22.212  28.044  1.00  0.00     0.010 A 
ATOM     47  C   UNL A   1      43.008  23.089  27.004  1.00  0.00    -0.014 A 
BRANCH  47  48
ATOM     48  C   UNL A   1      43.355  24.493  27.326  1.00  0.00     0.031 A 
ATOM     49  C   UNL A   1      44.787  24.939  27.271  1.00  0.00     0.074 A 
ATOM     50  C   UNL A   1      42.394  25.341  27.746  1.00  0.00     0.049 A 
ATOM     51  N   UNL A   1      45.303  26.095  27.599  1.00  0.00    -0.248 NA
ATOM     52  C   UNL A   1      45.772  23.942  26.819  1.00  0.00     0.031 C 
ATOM     53  C   UNL A   1      40.973  25.014  27.890  1.00  0.00     0.029 A 
ATOM     54  N   UNL A   1      42.473  26.654  28.134  1.00  0.00    -0.354 N 
ATOM     55  C   UNL A   1      46.673  25.956  27.420  1.00  0.00     0.074 A 
ATOM     56  C   UNL A   1      46.912  24.593  26.998  1.00  0.00     0.031 C 
ATOM     57  C   UNL A   1      40.311  26.107  28.305  1.00  0.00     0.029 A 
ATOM     58  C   UNL A   1      41.263  27.197  28.490  1.00  0.00     0.049 A 
ATOM     59  H   UNL A   1      43.318  27.159  28.157  1.00  0.00     0.167 HD
ATOM     60  C   UNL A   1      47.645  26.884  27.574  1.00  0.00     0.031 A 
ATOM     61  C   UNL A   1      40.956  28.435  28.917  1.00  0.00     0.031 A 
ATOM     62  C   UNL A   1      47.406  28.246  27.963  1.00  0.00     0.049 A 
ATOM     63  C   UNL A   1      42.049  29.456  29.058  1.00  0.00     0.074 A 
ATOM     64  C   UNL A   1      48.317  29.281  28.086  1.00  0.00     0.029 A 
ATOM     65  N   UNL A   1      46.163  28.764  28.287  1.00  0.00    -0.354 N 
ATOM     66  N   UNL A   1      43.333  29.324  28.829  1.00  0.00    -0.248 NA
ATOM     67  C   UNL A   1      41.650  30.795  29.509  1.00  0.00     0.031 C 
ATOM     68  C   UNL A   1      47.626  30.419  28.514  1.00  0.00     0.029 A 
ATOM     69  C   UNL A   1      46.282  30.101  28.621  1.00  0.00     0.049 A 
ATOM     70  H   UNL A   1      45.319  28.255  28.282  1.00  0.00     0.167 HD
ATOM     71  C   UNL A   1      43.891  30.570  29.083  1.00  0.00     0.074 A 
ATOM     72  C   UNL A   1      42.805  31.446  29.474  1.00  0.00     0.031 C 
ATOM     73  C   UNL A   1      45.188  30.954  29.001  1.00  0.00     0.031 A 
BRANCH  60  74
ATOM     74  C   UNL A   1      49.056  26.445  27.313  1.00  0.00    -0.014 A 
ATOM     75  C   UNL A   1      49.863  25.948  28.351  1.00  0.00     0.009 A 
ATOM     76  C   UNL A   1      49.585  26.520  26.016  1.00  0.00     0.009 A 
ATOM     77  C   UNL A   1      51.184  25.575  28.100  1.00  0.00     0.001 A 
ATOM     78  C   UNL A   1      50.897  26.121  25.764  1.00  0.00     0.001 A 
ATOM     79  C   UNL A   1      51.699  25.658  26.807  1.00  0.00     0.000 A 
ENDBRANCH  60  74
BRANCH  61  80
ATOM     80  C   UNL A   1      39.545  28.794  29.214  1.00  0.00    -0.014 A 
ATOM     81  C   UNL A   1      39.029  28.615  30.507  1.00  0.00     0.009 A 
ATOM     82  C   UNL A   1      38.709  29.308  28.212  1.00  0.00     0.009 A 
ATOM     83  C   UNL A   1      37.695  28.921  30.784  1.00  0.00     0.001 A 
ATOM     84  C   UNL A   1      37.381  29.635  28.499  1.00  0.00     0.001 A 
ATOM     85  C   UNL A   1      36.874  29.433  29.782  1.00  0.00     0.000 A 
ENDBRANCH  61  80
BRANCH  73  86
ATOM     86  C   UNL A   1      45.495  32.390  29.308  1.00  0.00    -0.014 A 
ATOM     87  C   UNL A   1      45.851  32.794  30.603  1.00  0.00     0.009 A 
ATOM     88  C   UNL A   1      45.472  33.340  28.275  1.00  0.00     0.009 A 
ATOM     89  C   UNL A   1      46.154  34.132  30.863  1.00  0.00     0.001 A 
ATOM     90  C   UNL A   1      45.798  34.671  28.534  1.00  0.00     0.001 A 
ATOM     91  C   UNL A   1      46.132  35.067  29.829  1.00  0.00     0.000 A 
ENDBRANCH  73  86
ENDBRANCH  47  48
ENDBRANCH  39  42
ENDBRANCH  37  38
ENDBRANCH  36  37
ENDBRANCH  35  36
ENDBRANCH   1  35
TORSDOF 16
ENDMDL
MODEL 3
REMARK VINA RESULT:     -12.3      0.399      5.567
REMARK SMILES COC(=O)c1c(NC(=O)[C@@H]2[C@H]3CC[C@H](CC3)[C@H]2C(=O)NCCCCNC(=O)c2ccc(-c3c4nc(c(-c5ccccc5)c5ccc([nH]5)c(-c5ccccc5)c5nc(c(-c6ccccc6)c6ccc3[nH]6)C=C5)C=C4)cc2)sc(C)c1-c1ccc(C)cc1
REMARK SMILES IDX 21 1 20 2 18 3 19 4 17 6 10 7 11 8 16 9 12 10 14 11 15 12
REMARK SMILES IDX 13 13 8 14 7 15 9 17 6 18 5 19 79 20 76 21 77 22 78 23 3 24
REMARK SMILES IDX 4 25 2 26 1 27 80 28 81 29 86 30 82 31 85 32 83 33 84 34
REMARK SMILES IDX 22 35 23 36 24 37 25 38 26 39 27 41 28 42 29 43 75 44 30 45
REMARK SMILES IDX 74 46 31 47 32 48 33 49 68 50 34 51 73 52 67 53 69 54 35 55
REMARK SMILES IDX 72 56 66 57 65 58 36 60 58 61 43 62 57 63 44 64 47 65 56 66
REMARK SMILES IDX 70 67 45 68 46 69 55 71 71 72 48 73 37 74 38 75 42 76 39 77
REMARK SMILES IDX 41 78 40 79 59 80 60 81 64 82 61 83 63 84 62 85 49 86 50 87
REMARK SMILES IDX 54 88 51 89 53 90 52 91
REMARK H PARENT 20 5 7 16 25 40 69 59 47 70
REMARK Flexibility Score: inf
ROOT
ATOM      1  C   UNL A   1      34.357  28.600  26.437  1.00  0.00     0.116 C 
ENDROOT
BRANCH   1   2
ATOM      2  N   UNL A   1      34.384  28.981  25.049  1.00  0.00    -0.356 N 
ATOM      3  C   UNL A   1      33.475  28.745  24.071  1.00  0.00     0.224 C 
ATOM      4  O   UNL A   1      33.539  29.503  23.095  1.00  0.00    -0.275 OA
ATOM      5  H   UNL A   1      35.180  29.488  24.769  1.00  0.00     0.163 HD
BRANCH   3   6
ATOM      6  C   UNL A   1      32.411  27.635  24.108  1.00  0.00     0.094 C 
ATOM      7  C   UNL A   1      31.343  27.714  25.203  1.00  0.00     0.094 C 
ATOM      8  C   UNL A   1      29.971  27.311  24.558  1.00  0.00     0.002 C 
ATOM      9  C   UNL A   1      29.631  28.208  23.341  1.00  0.00     0.005 C 
ATOM     10  C   UNL A   1      30.060  25.875  24.012  1.00  0.00     0.005 C 
ATOM     11  C   UNL A   1      31.832  27.177  22.750  1.00  0.00     0.002 C 
ATOM     12  C   UNL A   1      30.718  28.099  22.264  1.00  0.00     0.005 C 
ATOM     13  C   UNL A   1      31.193  25.779  22.977  1.00  0.00     0.005 C 
BRANCH   7  14
ATOM     14  C   UNL A   1      31.488  27.013  26.592  1.00  0.00     0.229 C 
ATOM     15  N   UNL A   1      31.820  25.723  26.877  1.00  0.00    -0.317 N 
ATOM     16  H   UNL A   1      31.421  25.398  27.717  1.00  0.00     0.170 HD
ATOM     17  O   UNL A   1      31.046  27.653  27.565  1.00  0.00    -0.274 OA
BRANCH  15  18
ATOM     18  C   UNL A   1      32.593  24.775  26.247  1.00  0.00     0.111 A 
ATOM     19  C   UNL A   1      32.673  23.394  26.418  1.00  0.00     0.102 A 
ATOM     20  C   UNL A   1      33.403  22.819  25.294  1.00  0.00     0.012 A 
ATOM     21  S   UNL A   1      34.082  25.219  25.533  1.00  0.00    -0.122 S 
ATOM     22  C   UNL A   1      33.951  23.836  24.521  1.00  0.00     0.012 A 
ATOM     23  C   UNL A   1      34.483  23.876  23.130  1.00  0.00     0.057 C 
BRANCH  19  24
ATOM     24  C   UNL A   1      32.083  22.705  27.561  1.00  0.00     0.341 C 
ATOM     25  O   UNL A   1      32.692  21.908  28.252  1.00  0.00    -0.246 OA
BRANCH  24  26
ATOM     26  O   UNL A   1      30.743  22.947  27.651  1.00  0.00    -0.465 OA
ATOM     27  C   UNL A   1      29.957  22.517  26.541  1.00  0.00     0.282 C 
ENDBRANCH  24  26
ENDBRANCH  19  24
BRANCH  20  28
ATOM     28  C   UNL A   1      33.606  21.417  24.942  1.00  0.00    -0.016 A 
ATOM     29  C   UNL A   1      32.588  20.634  24.389  1.00  0.00     0.009 A 
ATOM     30  C   UNL A   1      34.853  20.830  25.195  1.00  0.00     0.009 A 
ATOM     31  C   UNL A   1      32.820  19.283  24.101  1.00  0.00     0.004 A 
ATOM     32  C   UNL A   1      35.089  19.489  24.895  1.00  0.00     0.004 A 
ATOM     33  C   UNL A   1      34.073  18.703  24.348  1.00  0.00    -0.051 A 
ATOM     34  C   UNL A   1      34.308  17.246  24.078  1.00  0.00     0.044 C 
ENDBRANCH  20  28
ENDBRANCH  15  18
ENDBRANCH   7  14
ENDBRANCH   3   6
ENDBRANCH   1   2
BRANCH   1  35
ATOM     35  C   UNL A   1      34.691  29.712  27.417  1.00  0.00     0.023 C 
BRANCH  35  36
ATOM     36  C   UNL A   1      33.573  30.707  27.701  1.00  0.00     0.023 C 
BRANCH  36  37
ATOM     37  C   UNL A   1      33.736  32.095  27.095  1.00  0.00     0.116 C 
BRANCH  37  38
ATOM     38  N   UNL A   1      32.988  33.145  27.778  1.00  0.00    -0.352 N 
ATOM     39  C   UNL A   1      33.379  33.937  28.830  1.00  0.00     0.251 C 
ATOM     40  H   UNL A   1      32.078  33.308  27.437  1.00  0.00     0.163 HD
ATOM     41  O   UNL A   1      32.631  34.792  29.290  1.00  0.00    -0.269 OA
BRANCH  39  42
ATOM     42  C   UNL A   1      34.693  33.687  29.445  1.00  0.00     0.039 A 
ATOM     43  C   UNL A   1      34.752  32.849  30.560  1.00  0.00     0.014 A 
ATOM     44  C   UNL A   1      35.856  34.162  28.837  1.00  0.00     0.014 A 
ATOM     45  C   UNL A   1      35.991  32.398  31.008  1.00  0.00     0.010 A 
ATOM     46  C   UNL A   1      37.084  33.649  29.236  1.00  0.00     0.010 A 
ATOM     47  C   UNL A   1      37.159  32.750  30.313  1.00  0.00    -0.014 A 
BRANCH  47  48
ATOM     48  C   UNL A   1      38.472  32.169  30.681  1.00  0.00     0.031 A 
ATOM     49  C   UNL A   1      38.924  30.886  30.048  1.00  0.00     0.074 A 
ATOM     50  C   UNL A   1      39.216  32.753  31.641  1.00  0.00     0.049 A 
ATOM     51  N   UNL A   1      39.994  30.176  30.298  1.00  0.00    -0.248 NA
ATOM     52  C   UNL A   1      38.041  30.309  29.021  1.00  0.00     0.031 C 
ATOM     53  C   UNL A   1      38.862  33.975  32.368  1.00  0.00     0.029 A 
ATOM     54  N   UNL A   1      40.426  32.389  32.175  1.00  0.00    -0.354 N 
ATOM     55  C   UNL A   1      39.897  29.057  29.483  1.00  0.00     0.074 A 
ATOM     56  C   UNL A   1      38.646  29.159  28.764  1.00  0.00     0.031 C 
ATOM     57  C   UNL A   1      39.849  34.275  33.230  1.00  0.00     0.029 A 
ATOM     58  C   UNL A   1      40.883  33.251  33.142  1.00  0.00     0.049 A 
ATOM     59  H   UNL A   1      40.919  31.585  31.893  1.00  0.00     0.167 HD
ATOM     60  C   UNL A   1      40.779  28.042  29.330  1.00  0.00     0.031 A 
ATOM     61  C   UNL A   1      42.011  33.217  33.876  1.00  0.00     0.031 A 
ATOM     62  C   UNL A   1      42.036  27.954  30.021  1.00  0.00     0.049 A 
ATOM     63  C   UNL A   1      42.986  32.093  33.672  1.00  0.00     0.074 A 
ATOM     64  C   UNL A   1      43.029  26.999  29.888  1.00  0.00     0.029 A 
ATOM     65  N   UNL A   1      42.475  28.862  30.971  1.00  0.00    -0.354 N 
ATOM     66  N   UNL A   1      42.907  31.072  32.854  1.00  0.00    -0.248 NA
ATOM     67  C   UNL A   1      44.209  32.122  34.486  1.00  0.00     0.031 C 
ATOM     68  C   UNL A   1      44.057  27.314  30.783  1.00  0.00     0.029 A 
ATOM     69  C   UNL A   1      43.719  28.485  31.443  1.00  0.00     0.049 A 
ATOM     70  H   UNL A   1      41.975  29.657  31.267  1.00  0.00     0.167 HD
ATOM     71  C   UNL A   1      44.079  30.350  33.037  1.00  0.00     0.074 A 
ATOM     72  C   UNL A   1      44.856  31.056  34.036  1.00  0.00     0.031 C 
ATOM     73  C   UNL A   1      44.477  29.204  32.433  1.00  0.00     0.031 A 
BRANCH  60  74
ATOM     74  C   UNL A   1      40.405  26.950  28.371  1.00  0.00    -0.014 A 
ATOM     75  C   UNL A   1      40.861  26.965  27.043  1.00  0.00     0.009 A 
ATOM     76  C   UNL A   1      39.593  25.889  28.801  1.00  0.00     0.009 A 
ATOM     77  C   UNL A   1      40.478  25.960  26.153  1.00  0.00     0.001 A 
ATOM     78  C   UNL A   1      39.234  24.872  27.916  1.00  0.00     0.001 A 
ATOM     79  C   UNL A   1      39.667  24.913  26.591  1.00  0.00     0.000 A 
ENDBRANCH  60  74
BRANCH  61  80
ATOM     80  C   UNL A   1      42.299  34.299  34.852  1.00  0.00    -0.014 A 
ATOM     81  C   UNL A   1      41.875  34.179  36.184  1.00  0.00     0.009 A 
ATOM     82  C   UNL A   1      42.989  35.456  34.458  1.00  0.00     0.009 A 
ATOM     83  C   UNL A   1      42.116  35.207  37.098  1.00  0.00     0.001 A 
ATOM     84  C   UNL A   1      43.248  36.472  35.382  1.00  0.00     0.001 A 
ATOM     85  C   UNL A   1      42.804  36.350  36.698  1.00  0.00     0.000 A 
ENDBRANCH  61  80
BRANCH  73  86
ATOM     86  C   UNL A   1      45.823  28.664  32.812  1.00  0.00    -0.014 A 
ATOM     87  C   UNL A   1      45.965  27.737  33.855  1.00  0.00     0.009 A 
ATOM     88  C   UNL A   1      46.957  29.054  32.082  1.00  0.00     0.009 A 
ATOM     89  C   UNL A   1      47.225  27.230  34.178  1.00  0.00     0.001 A 
ATOM     90  C   UNL A   1      48.211  28.528  32.392  1.00  0.00     0.001 A 
ATOM     91  C   UNL A   1      48.345  27.621  33.444  1.00  0.00     0.000 A 
ENDBRANCH  73  86
ENDBRANCH  47  48
ENDBRANCH  39  42
ENDBRANCH  37  38
ENDBRANCH  36  37
ENDBRANCH  35  36
ENDBRANCH   1  35
TORSDOF 16
ENDMDL
