MODEL 1
REMARK VINA RESULT:      -9.0      0.000      0.000
REMARK SMILES CC[N@@H+](C/C(Cl)=C/Cl)C[C@@H](C)C(=O)NCCCCNC(=O)c1ccc(-c2c3nc(c(-c4ccccc4)c4ccc([nH]4)c(-c4ccccc4)c4nc(c(-c5ccccc5)c5ccc2[nH]5)C=C4)C=C3)cc1
REMARK SMILES IDX 15 1 14 2 12 3 13 4 10 6 11 7 9 8 3 9 2 11 1 12 4 13 5 14
REMARK SMILES IDX 6 15 7 16 8 17 16 18 17 19 18 20 19 21 20 22 21 24 22 25
REMARK SMILES IDX 23 26 69 27 24 28 68 29 25 30 26 31 27 32 62 33 28 34 67 35
REMARK SMILES IDX 61 36 63 37 29 38 66 39 60 40 59 41 30 43 52 44 37 45 51 46
REMARK SMILES IDX 38 47 41 48 50 49 64 50 39 51 40 52 49 54 65 55 42 56 31 57
REMARK SMILES IDX 32 58 36 59 33 60 35 61 34 62 53 63 54 64 58 65 55 66 57 67
REMARK SMILES IDX 56 68 43 69 44 70 48 71 45 72 47 73 46 74
REMARK H PARENT 14 5 3 10 19 23 63 42 41 53
REMARK Flexibility Score: inf
ROOT
ATOM      1  C   UNL A   1      34.666  29.496  27.258  1.00  0.00     0.116 C 
ENDROOT
BRANCH   1   2
ATOM      2  N   UNL A   1      33.471  28.864  27.777  1.00  0.00    -0.356 N 
ATOM      3  C   UNL A   1      32.291  28.569  27.169  1.00  0.00     0.228 C 
ATOM      4  O   UNL A   1      31.403  28.080  27.872  1.00  0.00    -0.275 OA
ATOM      5  H   UNL A   1      33.522  28.605  28.725  1.00  0.00     0.163 HD
BRANCH   3   6
ATOM      6  C   UNL A   1      32.061  28.805  25.677  1.00  0.00     0.130 C 
ATOM      7  C   UNL A   1      31.423  30.172  25.446  1.00  0.00     0.024 C 
BRANCH   6   8
ATOM      8  C   UNL A   1      31.399  27.569  25.027  1.00  0.00     0.275 C 
BRANCH   8   9
ATOM      9  N   UNL A   1      31.748  27.151  23.667  1.00  0.00    -0.330 N 
ATOM     10  H   UNL A   1      32.299  27.972  23.416  1.00  0.00     0.348 HD
BRANCH   9  11
ATOM     11  C   UNL A   1      32.779  26.141  23.472  1.00  0.00     0.259 C 
ATOM     12  C   UNL A   1      33.208  25.959  22.018  1.00  0.00     0.071 C 
ENDBRANCH   9  11
BRANCH   9  13
ATOM     13  C   UNL A   1      30.659  27.151  22.686  1.00  0.00     0.312 C 
BRANCH  13  14
ATOM     14  C   UNL A   1      29.726  28.337  22.644  1.00  0.00     0.083 C 
ATOM     15  Cl  UNL A   1      30.411  29.774  21.943  1.00  0.00    -0.082 Cl
ATOM     16  C   UNL A   1      28.454  28.296  23.057  1.00  0.00     0.102 C 
ATOM     17  Cl  UNL A   1      27.349  29.606  23.053  1.00  0.00    -0.091 Cl
ENDBRANCH  13  14
ENDBRANCH   9  13
ENDBRANCH   8   9
ENDBRANCH   6   8
ENDBRANCH   3   6
ENDBRANCH   1   2
BRANCH   1  18
ATOM     18  C   UNL A   1      34.923  30.843  27.929  1.00  0.00     0.023 C 
BRANCH  18  19
ATOM     19  C   UNL A   1      33.706  31.766  27.970  1.00  0.00     0.023 C 
BRANCH  19  20
ATOM     20  C   UNL A   1      34.015  33.243  27.757  1.00  0.00     0.116 C 
BRANCH  20  21
ATOM     21  N   UNL A   1      33.391  34.110  28.746  1.00  0.00    -0.352 N 
ATOM     22  C   UNL A   1      33.764  34.316  30.053  1.00  0.00     0.251 C 
ATOM     23  H   UNL A   1      32.601  34.613  28.440  1.00  0.00     0.163 HD
ATOM     24  O   UNL A   1      33.082  34.997  30.804  1.00  0.00    -0.269 OA
BRANCH  22  25
ATOM     25  C   UNL A   1      34.992  33.659  30.547  1.00  0.00     0.039 A 
ATOM     26  C   UNL A   1      34.872  32.551  31.386  1.00  0.00     0.014 A 
ATOM     27  C   UNL A   1      36.246  34.100  30.117  1.00  0.00     0.014 A 
ATOM     28  C   UNL A   1      36.015  31.836  31.742  1.00  0.00     0.010 A 
ATOM     29  C   UNL A   1      37.374  33.346  30.414  1.00  0.00     0.010 A 
ATOM     30  C   UNL A   1      37.270  32.206  31.227  1.00  0.00    -0.014 A 
BRANCH  30  31
ATOM     31  C   UNL A   1      38.486  31.412  31.524  1.00  0.00     0.031 A 
ATOM     32  C   UNL A   1      39.333  31.756  32.716  1.00  0.00     0.074 A 
ATOM     33  C   UNL A   1      38.865  30.431  30.683  1.00  0.00     0.049 A 
ATOM     34  N   UNL A   1      40.463  31.223  33.106  1.00  0.00    -0.248 NA
ATOM     35  C   UNL A   1      38.865  32.863  33.567  1.00  0.00     0.031 C 
ATOM     36  C   UNL A   1      38.152  30.031  29.467  1.00  0.00     0.029 A 
ATOM     37  N   UNL A   1      39.952  29.595  30.720  1.00  0.00    -0.354 N 
ATOM     38  C   UNL A   1      40.849  31.942  34.231  1.00  0.00     0.074 A 
ATOM     39  C   UNL A   1      39.860  32.977  34.433  1.00  0.00     0.031 C 
ATOM     40  C   UNL A   1      38.806  29.007  28.892  1.00  0.00     0.029 A 
ATOM     41  C   UNL A   1      39.999  28.704  29.675  1.00  0.00     0.049 A 
ATOM     42  H   UNL A   1      40.633  29.628  31.430  1.00  0.00     0.167 HD
ATOM     43  C   UNL A   1      41.920  31.745  35.034  1.00  0.00     0.031 A 
ATOM     44  C   UNL A   1      40.904  27.754  29.380  1.00  0.00     0.031 A 
ATOM     45  C   UNL A   1      42.893  30.703  34.845  1.00  0.00     0.049 A 
ATOM     46  C   UNL A   1      42.085  27.556  30.289  1.00  0.00     0.074 A 
ATOM     47  C   UNL A   1      43.976  30.381  35.642  1.00  0.00     0.029 A 
ATOM     48  N   UNL A   1      42.897  29.814  33.782  1.00  0.00    -0.354 N 
ATOM     49  N   UNL A   1      42.396  28.197  31.389  1.00  0.00    -0.248 NA
ATOM     50  C   UNL A   1      43.033  26.495  29.919  1.00  0.00     0.031 C 
ATOM     51  C   UNL A   1      44.663  29.323  35.037  1.00  0.00     0.029 A 
ATOM     52  C   UNL A   1      43.976  28.956  33.890  1.00  0.00     0.049 A 
ATOM     53  H   UNL A   1      42.231  29.796  33.056  1.00  0.00     0.167 HD
ATOM     54  C   UNL A   1      43.559  27.599  31.858  1.00  0.00     0.074 A 
ATOM     55  C   UNL A   1      43.888  26.537  30.931  1.00  0.00     0.031 C 
ATOM     56  C   UNL A   1      44.288  27.903  32.960  1.00  0.00     0.031 A 
BRANCH  43  57
ATOM     57  C   UNL A   1      42.095  32.686  36.192  1.00  0.00    -0.014 A 
ATOM     58  C   UNL A   1      42.778  33.905  36.042  1.00  0.00     0.009 A 
ATOM     59  C   UNL A   1      41.545  32.365  37.442  1.00  0.00     0.009 A 
ATOM     60  C   UNL A   1      42.937  34.764  37.131  1.00  0.00     0.001 A 
ATOM     61  C   UNL A   1      41.681  33.239  38.521  1.00  0.00     0.001 A 
ATOM     62  C   UNL A   1      42.384  34.433  38.368  1.00  0.00     0.000 A 
ENDBRANCH  43  57
BRANCH  44  63
ATOM     63  C   UNL A   1      40.722  26.894  28.181  1.00  0.00    -0.014 A 
ATOM     64  C   UNL A   1      39.936  25.735  28.252  1.00  0.00     0.009 A 
ATOM     65  C   UNL A   1      41.342  27.221  26.965  1.00  0.00     0.009 A 
ATOM     66  C   UNL A   1      39.795  24.904  27.139  1.00  0.00     0.001 A 
ATOM     67  C   UNL A   1      41.178  26.403  25.844  1.00  0.00     0.001 A 
ATOM     68  C   UNL A   1      40.413  25.241  25.935  1.00  0.00     0.000 A 
ENDBRANCH  44  63
BRANCH  56  69
ATOM     69  C   UNL A   1      45.491  27.050  33.241  1.00  0.00    -0.014 A 
ATOM     70  C   UNL A   1      45.388  25.869  33.991  1.00  0.00     0.009 A 
ATOM     71  C   UNL A   1      46.738  27.415  32.711  1.00  0.00     0.009 A 
ATOM     72  C   UNL A   1      46.519  25.086  34.230  1.00  0.00     0.001 A 
ATOM     73  C   UNL A   1      47.861  26.615  32.928  1.00  0.00     0.001 A 
ATOM     74  C   UNL A   1      47.752  25.457  33.695  1.00  0.00     0.000 A 
ENDBRANCH  56  69
ENDBRANCH  30  31
ENDBRANCH  22  25
ENDBRANCH  20  21
ENDBRANCH  19  20
ENDBRANCH  18  19
ENDBRANCH   1  18
TORSDOF 16
ENDMDL
MODEL 2
REMARK VINA RESULT:      -8.9      5.058      9.704
REMARK SMILES CC[N@@H+](C/C(Cl)=C/Cl)C[C@@H](C)C(=O)NCCCCNC(=O)c1ccc(-c2c3nc(c(-c4ccccc4)c4ccc([nH]4)c(-c4ccccc4)c4nc(c(-c5ccccc5)c5ccc2[nH]5)C=C4)C=C3)cc1
REMARK SMILES IDX 15 1 14 2 12 3 13 4 10 6 11 7 9 8 3 9 2 11 1 12 4 13 5 14
REMARK SMILES IDX 6 15 7 16 8 17 16 18 17 19 18 20 19 21 20 22 21 24 22 25
REMARK SMILES IDX 23 26 69 27 24 28 68 29 25 30 26 31 27 32 62 33 28 34 67 35
REMARK SMILES IDX 61 36 63 37 29 38 66 39 60 40 59 41 30 43 52 44 37 45 51 46
REMARK SMILES IDX 38 47 41 48 50 49 64 50 39 51 40 52 49 54 65 55 42 56 31 57
REMARK SMILES IDX 32 58 36 59 33 60 35 61 34 62 53 63 54 64 58 65 55 66 57 67
REMARK SMILES IDX 56 68 43 69 44 70 48 71 45 72 47 73 46 74
REMARK H PARENT 14 5 3 10 19 23 63 42 41 53
REMARK Flexibility Score: inf
ROOT
ATOM      1  C   UNL A   1      35.578  20.321  25.015  1.00  0.00     0.116 C 
ENDROOT
BRANCH   1   2
ATOM      2  N   UNL A   1      34.775  21.089  25.945  1.00  0.00    -0.356 N 
ATOM      3  C   UNL A   1      33.770  21.978  25.722  1.00  0.00     0.228 C 
ATOM      4  O   UNL A   1      33.292  22.545  26.707  1.00  0.00    -0.275 OA
ATOM      5  H   UNL A   1      34.992  20.943  26.893  1.00  0.00     0.163 HD
BRANCH   3   6
ATOM      6  C   UNL A   1      33.227  22.260  24.322  1.00  0.00     0.130 C 
ATOM      7  C   UNL A   1      34.240  23.061  23.509  1.00  0.00     0.024 C 
BRANCH   6   8
ATOM      8  C   UNL A   1      31.774  22.779  24.397  1.00  0.00     0.275 C 
BRANCH   8   9
ATOM      9  N   UNL A   1      31.477  24.212  24.326  1.00  0.00    -0.330 N 
ATOM     10  H   UNL A   1      32.431  24.534  24.161  1.00  0.00     0.348 HD
BRANCH   9  11
ATOM     11  C   UNL A   1      30.863  24.756  23.122  1.00  0.00     0.259 C 
ATOM     12  C   UNL A   1      31.777  25.675  22.315  1.00  0.00     0.071 C 
ENDBRANCH   9  11
BRANCH   9  13
ATOM     13  C   UNL A   1      31.104  24.864  25.584  1.00  0.00     0.312 C 
BRANCH  13  14
ATOM     14  C   UNL A   1      31.932  26.032  26.064  1.00  0.00     0.083 C 
ATOM     15  Cl  UNL A   1      33.636  25.892  25.748  1.00  0.00    -0.082 Cl
ATOM     16  C   UNL A   1      31.413  27.122  26.641  1.00  0.00     0.102 C 
ATOM     17  Cl  UNL A   1      32.293  28.471  27.224  1.00  0.00    -0.091 Cl
ENDBRANCH  13  14
ENDBRANCH   9  13
ENDBRANCH   8   9
ENDBRANCH   6   8
ENDBRANCH   3   6
ENDBRANCH   1   2
BRANCH   1  18
ATOM     18  C   UNL A   1      37.007  20.852  24.941  1.00  0.00     0.023 C 
BRANCH  18  19
ATOM     19  C   UNL A   1      38.082  19.767  24.977  1.00  0.00     0.023 C 
BRANCH  19  20
ATOM     20  C   UNL A   1      39.323  20.121  25.787  1.00  0.00     0.116 C 
BRANCH  20  21
ATOM     21  N   UNL A   1      40.306  19.048  25.835  1.00  0.00    -0.352 N 
ATOM     22  C   UNL A   1      41.656  19.142  26.078  1.00  0.00     0.251 C 
ATOM     23  H   UNL A   1      39.960  18.140  25.672  1.00  0.00     0.163 HD
ATOM     24  O   UNL A   1      42.382  18.163  25.984  1.00  0.00    -0.269 OA
BRANCH  22  25
ATOM     25  C   UNL A   1      42.221  20.463  26.416  1.00  0.00     0.039 A 
ATOM     26  C   UNL A   1      42.629  21.306  25.380  1.00  0.00     0.014 A 
ATOM     27  C   UNL A   1      42.274  20.885  27.746  1.00  0.00     0.014 A 
ATOM     28  C   UNL A   1      43.029  22.609  25.678  1.00  0.00     0.010 A 
ATOM     29  C   UNL A   1      42.604  22.204  28.032  1.00  0.00     0.010 A 
ATOM     30  C   UNL A   1      42.983  23.079  27.001  1.00  0.00    -0.014 A 
BRANCH  30  31
ATOM     31  C   UNL A   1      43.323  24.484  27.329  1.00  0.00     0.031 A 
ATOM     32  C   UNL A   1      44.754  24.938  27.289  1.00  0.00     0.074 A 
ATOM     33  C   UNL A   1      42.354  25.329  27.731  1.00  0.00     0.049 A 
ATOM     34  N   UNL A   1      45.258  26.104  27.602  1.00  0.00    -0.248 NA
ATOM     35  C   UNL A   1      45.755  23.942  26.870  1.00  0.00     0.031 C 
ATOM     36  C   UNL A   1      40.933  24.996  27.855  1.00  0.00     0.029 A 
ATOM     37  N   UNL A   1      42.422  26.644  28.118  1.00  0.00    -0.354 N 
ATOM     38  C   UNL A   1      46.632  25.976  27.438  1.00  0.00     0.074 A 
ATOM     39  C   UNL A   1      46.887  24.608  27.045  1.00  0.00     0.031 C 
ATOM     40  C   UNL A   1      40.260  26.087  28.260  1.00  0.00     0.029 A 
ATOM     41  C   UNL A   1      41.204  27.182  28.459  1.00  0.00     0.049 A 
ATOM     42  H   UNL A   1      43.263  27.154  28.147  1.00  0.00     0.167 HD
ATOM     43  C   UNL A   1      47.593  26.917  27.584  1.00  0.00     0.031 A 
ATOM     44  C   UNL A   1      40.886  28.417  28.886  1.00  0.00     0.031 A 
ATOM     45  C   UNL A   1      47.339  28.283  27.954  1.00  0.00     0.049 A 
ATOM     46  C   UNL A   1      41.974  29.444  29.039  1.00  0.00     0.074 A 
ATOM     47  C   UNL A   1      48.238  29.328  28.063  1.00  0.00     0.029 A 
ATOM     48  N   UNL A   1      46.090  28.791  28.277  1.00  0.00    -0.354 N 
ATOM     49  N   UNL A   1      43.258  29.327  28.809  1.00  0.00    -0.248 NA
ATOM     50  C   UNL A   1      41.562  30.778  29.499  1.00  0.00     0.031 C 
ATOM     51  C   UNL A   1      47.539  30.461  28.495  1.00  0.00     0.029 A 
ATOM     52  C   UNL A   1      46.198  30.130  28.606  1.00  0.00     0.049 A 
ATOM     53  H   UNL A   1      45.251  28.275  28.274  1.00  0.00     0.167 HD
ATOM     54  C   UNL A   1      43.804  30.577  29.070  1.00  0.00     0.074 A 
ATOM     55  C   UNL A   1      42.709  31.440  29.460  1.00  0.00     0.031 C 
ATOM     56  C   UNL A   1      45.098  30.975  28.990  1.00  0.00     0.031 A 
BRANCH  43  57
ATOM     57  C   UNL A   1      49.015  26.495  27.342  1.00  0.00    -0.014 A 
ATOM     58  C   UNL A   1      49.868  26.169  28.410  1.00  0.00     0.009 A 
ATOM     59  C   UNL A   1      49.499  26.391  26.029  1.00  0.00     0.009 A 
ATOM     60  C   UNL A   1      51.187  25.784  28.167  1.00  0.00     0.001 A 
ATOM     61  C   UNL A   1      50.810  25.979  25.788  1.00  0.00     0.001 A 
ATOM     62  C   UNL A   1      51.657  25.685  26.857  1.00  0.00     0.000 A 
ENDBRANCH  43  57
BRANCH  44  63
ATOM     63  C   UNL A   1      39.472  28.766  29.180  1.00  0.00    -0.014 A 
ATOM     64  C   UNL A   1      38.641  29.271  28.169  1.00  0.00     0.009 A 
ATOM     65  C   UNL A   1      38.949  28.606  30.472  1.00  0.00     0.009 A 
ATOM     66  C   UNL A   1      37.324  29.637  28.451  1.00  0.00     0.001 A 
ATOM     67  C   UNL A   1      37.621  28.948  30.746  1.00  0.00     0.001 A 
ATOM     68  C   UNL A   1      36.814  29.471  29.738  1.00  0.00     0.000 A 
ENDBRANCH  44  63
BRANCH  56  69
ATOM     69  C   UNL A   1      45.392  32.415  29.297  1.00  0.00    -0.014 A 
ATOM     70  C   UNL A   1      45.747  32.826  30.591  1.00  0.00     0.009 A 
ATOM     71  C   UNL A   1      45.354  33.365  28.265  1.00  0.00     0.009 A 
ATOM     72  C   UNL A   1      46.028  34.169  30.850  1.00  0.00     0.001 A 
ATOM     73  C   UNL A   1      45.662  34.702  28.522  1.00  0.00     0.001 A 
ATOM     74  C   UNL A   1      45.990  35.103  29.816  1.00  0.00     0.000 A 
ENDBRANCH  56  69
ENDBRANCH  30  31
ENDBRANCH  22  25
ENDBRANCH  20  21
ENDBRANCH  19  20
ENDBRANCH  18  19
ENDBRANCH   1  18
TORSDOF 16
ENDMDL
MODEL 3
REMARK VINA RESULT:      -8.9      2.962      7.593
REMARK SMILES CC[N@@H+](C/C(Cl)=C/Cl)C[C@@H](C)C(=O)NCCCCNC(=O)c1ccc(-c2c3nc(c(-c4ccccc4)c4ccc([nH]4)c(-c4ccccc4)c4nc(c(-c5ccccc5)c5ccc2[nH]5)C=C4)C=C3)cc1
REMARK SMILES IDX 15 1 14 2 12 3 13 4 10 6 11 7 9 8 3 9 2 11 1 12 4 13 5 14
REMARK SMILES IDX 6 15 7 16 8 17 16 18 17 19 18 20 19 21 20 22 21 24 22 25
REMARK SMILES IDX 23 26 69 27 24 28 68 29 25 30 26 31 27 32 62 33 28 34 67 35
REMARK SMILES IDX 61 36 63 37 29 38 66 39 60 40 59 41 30 43 52 44 37 45 51 46
REMARK SMILES IDX 38 47 41 48 50 49 64 50 39 51 40 52 49 54 65 55 42 56 31 57
REMARK SMILES IDX 32 58 36 59 33 60 35 61 34 62 53 63 54 64 58 65 55 66 57 67
REMARK SMILES IDX 56 68 43 69 44 70 48 71 45 72 47 73 46 74
REMARK H PARENT 14 5 3 10 19 23 63 42 41 53
REMARK Flexibility Score: inf
ROOT
ATOM      1  C   UNL A   1      33.560  25.420  25.277  1.00  0.00     0.116 C 
ENDROOT
BRANCH   1   2
ATOM      2  N   UNL A   1      32.490  25.905  26.124  1.00  0.00    -0.356 N 
ATOM      3  C   UNL A   1      32.198  27.163  26.549  1.00  0.00     0.228 C 
ATOM      4  O   UNL A   1      31.251  27.288  27.329  1.00  0.00    -0.275 OA
ATOM      5  H   UNL A   1      31.873  25.209  26.444  1.00  0.00     0.163 HD
BRANCH   3   6
ATOM      6  C   UNL A   1      32.985  28.386  26.077  1.00  0.00     0.130 C 
ATOM      7  C   UNL A   1      33.964  28.839  27.156  1.00  0.00     0.024 C 
BRANCH   6   8
ATOM      8  C   UNL A   1      32.034  29.438  25.462  1.00  0.00     0.275 C 
BRANCH   8   9
ATOM      9  N   UNL A   1      31.691  29.408  24.038  1.00  0.00    -0.330 N 
ATOM     10  H   UNL A   1      31.779  30.409  23.863  1.00  0.00     0.348 HD
BRANCH   9  11
ATOM     11  C   UNL A   1      32.678  28.940  23.075  1.00  0.00     0.259 C 
ATOM     12  C   UNL A   1      32.376  27.562  22.490  1.00  0.00     0.071 C 
ENDBRANCH   9  11
BRANCH   9  13
ATOM     13  C   UNL A   1      30.292  29.120  23.711  1.00  0.00     0.312 C 
BRANCH  13  14
ATOM     14  C   UNL A   1      29.463  30.207  23.070  1.00  0.00     0.083 C 
ATOM     15  Cl  UNL A   1      29.184  31.597  24.078  1.00  0.00    -0.082 Cl
ATOM     16  C   UNL A   1      29.014  30.153  21.810  1.00  0.00     0.102 C 
ATOM     17  Cl  UNL A   1      28.056  31.339  21.029  1.00  0.00    -0.091 Cl
ENDBRANCH  13  14
ENDBRANCH   9  13
ENDBRANCH   8   9
ENDBRANCH   6   8
ENDBRANCH   3   6
ENDBRANCH   1   2
BRANCH   1  18
ATOM     18  C   UNL A   1      33.861  23.948  25.542  1.00  0.00     0.023 C 
BRANCH  18  19
ATOM     19  C   UNL A   1      35.100  23.705  26.402  1.00  0.00     0.023 C 
BRANCH  19  20
ATOM     20  C   UNL A   1      36.426  24.018  25.717  1.00  0.00     0.116 C 
BRANCH  20  21
ATOM     21  N   UNL A   1      37.326  22.876  25.656  1.00  0.00    -0.352 N 
ATOM     22  C   UNL A   1      38.640  22.807  26.052  1.00  0.00     0.251 C 
ATOM     23  H   UNL A   1      36.945  22.047  25.283  1.00  0.00     0.163 HD
ATOM     24  O   UNL A   1      39.309  21.805  25.845  1.00  0.00    -0.269 OA
BRANCH  22  25
ATOM     25  C   UNL A   1      39.243  23.989  26.700  1.00  0.00     0.039 A 
ATOM     26  C   UNL A   1      40.003  24.867  25.926  1.00  0.00     0.014 A 
ATOM     27  C   UNL A   1      38.993  24.255  28.048  1.00  0.00     0.014 A 
ATOM     28  C   UNL A   1      40.456  26.059  26.491  1.00  0.00     0.010 A 
ATOM     29  C   UNL A   1      39.384  25.475  28.588  1.00  0.00     0.010 A 
ATOM     30  C   UNL A   1      40.117  26.389  27.814  1.00  0.00    -0.014 A 
BRANCH  30  31
ATOM     31  C   UNL A   1      40.517  27.686  28.409  1.00  0.00     0.031 A 
ATOM     32  C   UNL A   1      41.924  27.886  28.895  1.00  0.00     0.074 A 
ATOM     33  C   UNL A   1      39.597  28.656  28.576  1.00  0.00     0.049 A 
ATOM     34  N   UNL A   1      42.448  28.922  29.499  1.00  0.00    -0.248 NA
ATOM     35  C   UNL A   1      42.859  26.764  28.704  1.00  0.00     0.031 C 
ATOM     36  C   UNL A   1      38.187  28.567  28.187  1.00  0.00     0.029 A 
ATOM     37  N   UNL A   1      39.711  29.908  29.125  1.00  0.00    -0.354 N 
ATOM     38  C   UNL A   1      43.763  28.570  29.777  1.00  0.00     0.074 A 
ATOM     39  C   UNL A   1      43.944  27.210  29.320  1.00  0.00     0.031 C 
ATOM     40  C   UNL A   1      37.576  29.726  28.484  1.00  0.00     0.029 A 
ATOM     41  C   UNL A   1      38.538  30.623  29.115  1.00  0.00     0.049 A 
ATOM     42  H   UNL A   1      40.554  30.261  29.491  1.00  0.00     0.167 HD
ATOM     43  C   UNL A   1      44.738  29.317  30.345  1.00  0.00     0.031 A 
ATOM     44  C   UNL A   1      38.269  31.862  29.567  1.00  0.00     0.031 A 
ATOM     45  C   UNL A   1      44.565  30.676  30.781  1.00  0.00     0.049 A 
ATOM     46  C   UNL A   1      39.370  32.671  30.193  1.00  0.00     0.074 A 
ATOM     47  C   UNL A   1      45.509  31.539  31.306  1.00  0.00     0.029 A 
ATOM     48  N   UNL A   1      43.365  31.369  30.740  1.00  0.00    -0.354 N 
ATOM     49  N   UNL A   1      40.626  32.349  30.382  1.00  0.00    -0.248 NA
ATOM     50  C   UNL A   1      39.016  34.020  30.658  1.00  0.00     0.031 C 
ATOM     51  C   UNL A   1      44.870  32.743  31.625  1.00  0.00     0.029 A 
ATOM     52  C   UNL A   1      43.540  32.642  31.251  1.00  0.00     0.049 A 
ATOM     53  H   UNL A   1      42.515  31.008  30.398  1.00  0.00     0.167 HD
ATOM     54  C   UNL A   1      41.219  33.464  30.961  1.00  0.00     0.074 A 
ATOM     55  C   UNL A   1      40.188  34.474  31.078  1.00  0.00     0.031 C 
ATOM     56  C   UNL A   1      42.503  33.636  31.358  1.00  0.00     0.031 A 
BRANCH  43  57
ATOM     57  C   UNL A   1      46.083  28.673  30.529  1.00  0.00    -0.014 A 
ATOM     58  C   UNL A   1      46.391  27.954  31.696  1.00  0.00     0.009 A 
ATOM     59  C   UNL A   1      47.044  28.758  29.510  1.00  0.00     0.009 A 
ATOM     60  C   UNL A   1      47.647  27.367  31.853  1.00  0.00     0.001 A 
ATOM     61  C   UNL A   1      48.289  28.146  29.657  1.00  0.00     0.001 A 
ATOM     62  C   UNL A   1      48.594  27.459  30.832  1.00  0.00     0.000 A 
ENDBRANCH  43  57
BRANCH  44  63
ATOM     63  C   UNL A   1      36.902  32.428  29.425  1.00  0.00    -0.014 A 
ATOM     64  C   UNL A   1      35.964  32.283  30.457  1.00  0.00     0.009 A 
ATOM     65  C   UNL A   1      36.526  33.106  28.255  1.00  0.00     0.009 A 
ATOM     66  C   UNL A   1      34.667  32.778  30.311  1.00  0.00     0.001 A 
ATOM     67  C   UNL A   1      35.235  33.625  28.122  1.00  0.00     0.001 A 
ATOM     68  C   UNL A   1      34.305  33.453  29.146  1.00  0.00     0.000 A 
ENDBRANCH  44  63
BRANCH  56  69
ATOM     69  C   UNL A   1      42.872  34.978  31.922  1.00  0.00    -0.014 A 
ATOM     70  C   UNL A   1      42.677  35.276  33.279  1.00  0.00     0.009 A 
ATOM     71  C   UNL A   1      43.464  35.940  31.090  1.00  0.00     0.009 A 
ATOM     72  C   UNL A   1      43.039  36.526  33.784  1.00  0.00     0.001 A 
ATOM     73  C   UNL A   1      43.850  37.179  31.604  1.00  0.00     0.001 A 
ATOM     74  C   UNL A   1      43.629  37.473  32.948  1.00  0.00     0.000 A 
ENDBRANCH  56  69
ENDBRANCH  30  31
ENDBRANCH  22  25
ENDBRANCH  20  21
ENDBRANCH  19  20
ENDBRANCH  18  19
ENDBRANCH   1  18
TORSDOF 16
ENDMDL
