MODEL 1
REMARK VINA RESULT:     -12.5      0.000      0.000
REMARK SMILES COc1ccc(Cl)cc1C(=O)Nc1ccc(C(=O)NCCCCNC(=O)c2ccc(-c3c4nc(c(-c5ccccc5)c5ccc([nH]5)c(-c5ccccc5)c5nc(c(-c6ccccc6)c6ccc3[nH]6)C=C5)C=C4)cc2)cc1C
REMARK SMILES IDX 21 1 20 2 19 3 17 4 18 5 16 7 13 8 14 9 76 10 15 11 75 12
REMARK SMILES IDX 77 13 12 14 10 15 11 16 9 18 3 19 4 20 5 21 8 22 6 23 7 24
REMARK SMILES IDX 2 25 1 26 22 27 23 28 24 29 25 30 26 32 27 33 28 34 74 35
REMARK SMILES IDX 29 36 73 37 30 38 31 39 32 40 67 41 33 42 72 43 66 44 68 45
REMARK SMILES IDX 34 46 71 47 65 48 64 49 35 51 57 52 42 53 56 54 43 55 46 56
REMARK SMILES IDX 55 57 69 58 44 59 45 60 54 62 70 63 47 64 36 65 37 66 41 67
REMARK SMILES IDX 38 68 40 69 39 70 58 71 59 72 63 73 60 74 62 75 61 76 48 77
REMARK SMILES IDX 49 78 53 79 50 80 52 81 51 82
REMARK H PARENT 19 6 12 17 24 31 68 50 46 61
REMARK Flexibility Score: inf
ROOT
ATOM      1  C   UNL A   1      32.308  29.520  26.540  1.00  0.00     0.023 C 
ENDROOT
BRANCH   1   2
ATOM      2  C   UNL A   1      32.437  29.607  25.013  1.00  0.00     0.116 C 
BRANCH   2   3
ATOM      3  N   UNL A   1      31.127  29.634  24.381  1.00  0.00    -0.352 N 
ATOM      4  C   UNL A   1      30.380  28.682  23.733  1.00  0.00     0.251 C 
ATOM      5  O   UNL A   1      29.294  29.030  23.271  1.00  0.00    -0.269 OA
ATOM      6  H   UNL A   1      30.688  30.514  24.425  1.00  0.00     0.163 HD
BRANCH   4   7
ATOM      7  C   UNL A   1      30.772  27.247  23.675  1.00  0.00     0.040 A 
ATOM      8  C   UNL A   1      31.191  24.543  23.073  1.00  0.00     0.044 A 
ATOM      9  C   UNL A   1      30.438  24.908  24.189  1.00  0.00     0.027 A 
ATOM     10  C   UNL A   1      31.910  25.520  22.363  1.00  0.00    -0.027 A 
ATOM     11  C   UNL A   1      30.271  26.255  24.516  1.00  0.00     0.016 A 
ATOM     12  C   UNL A   1      31.651  26.871  22.647  1.00  0.00     0.019 A 
ATOM     13  C   UNL A   1      32.798  25.211  21.187  1.00  0.00     0.046 C 
BRANCH   8  14
ATOM     14  N   UNL A   1      31.241  23.212  22.654  1.00  0.00    -0.322 N 
ATOM     15  C   UNL A   1      32.088  22.182  22.981  1.00  0.00     0.259 C 
ATOM     16  O   UNL A   1      32.069  21.196  22.235  1.00  0.00    -0.269 OA
ATOM     17  H   UNL A   1      30.541  22.968  22.007  1.00  0.00     0.170 HD
BRANCH  15  18
ATOM     18  C   UNL A   1      32.951  22.106  24.207  1.00  0.00     0.083 A 
ATOM     19  C   UNL A   1      32.893  21.138  25.232  1.00  0.00     0.131 A 
ATOM     20  C   UNL A   1      33.890  21.122  26.229  1.00  0.00     0.049 A 
ATOM     21  C   UNL A   1      34.948  22.029  26.208  1.00  0.00     0.024 A 
ATOM     22  C   UNL A   1      34.031  23.017  24.210  1.00  0.00     0.038 A 
ATOM     23  C   UNL A   1      35.019  22.969  25.192  1.00  0.00     0.042 A 
ATOM     24  Cl  UNL A   1      36.360  24.044  25.121  1.00  0.00    -0.084 Cl
BRANCH  19  25
ATOM     25  O   UNL A   1      31.942  20.151  25.189  1.00  0.00    -0.496 OA
ATOM     26  C   UNL A   1      32.420  18.836  24.904  1.00  0.00     0.278 C 
ENDBRANCH  19  25
ENDBRANCH  15  18
ENDBRANCH   8  14
ENDBRANCH   4   7
ENDBRANCH   2   3
ENDBRANCH   1   2
BRANCH   1  27
ATOM     27  C   UNL A   1      33.620  29.167  27.244  1.00  0.00     0.023 C 
BRANCH  27  28
ATOM     28  C   UNL A   1      34.510  30.375  27.500  1.00  0.00     0.116 C 
BRANCH  28  29
ATOM     29  N   UNL A   1      33.795  31.639  27.602  1.00  0.00    -0.352 N 
ATOM     30  C   UNL A   1      34.048  32.743  28.403  1.00  0.00     0.251 C 
ATOM     31  H   UNL A   1      33.010  31.723  27.012  1.00  0.00     0.163 HD
ATOM     32  O   UNL A   1      33.285  33.692  28.387  1.00  0.00    -0.269 OA
BRANCH  30  33
ATOM     33  C   UNL A   1      35.329  32.833  29.158  1.00  0.00     0.039 A 
ATOM     34  C   UNL A   1      36.389  33.522  28.556  1.00  0.00     0.014 A 
ATOM     35  C   UNL A   1      35.559  32.078  30.302  1.00  0.00     0.014 A 
ATOM     36  C   UNL A   1      37.697  33.222  28.924  1.00  0.00     0.010 A 
ATOM     37  C   UNL A   1      36.848  31.681  30.585  1.00  0.00     0.010 A 
ATOM     38  C   UNL A   1      37.911  32.197  29.843  1.00  0.00    -0.014 A 
BRANCH  38  39
ATOM     39  C   UNL A   1      39.188  31.517  30.005  1.00  0.00     0.031 A 
ATOM     40  C   UNL A   1      39.416  30.209  29.358  1.00  0.00     0.074 A 
ATOM     41  C   UNL A   1      40.191  32.133  30.672  1.00  0.00     0.049 A 
ATOM     42  N   UNL A   1      40.263  29.331  29.779  1.00  0.00    -0.248 NA
ATOM     43  C   UNL A   1      38.665  29.771  28.186  1.00  0.00     0.031 C 
ATOM     44  C   UNL A   1      41.594  31.730  30.724  1.00  0.00     0.029 A 
ATOM     45  N   UNL A   1      40.103  33.148  31.632  1.00  0.00    -0.354 N 
ATOM     46  C   UNL A   1      40.396  28.388  28.785  1.00  0.00     0.074 A 
ATOM     47  C   UNL A   1      39.321  28.655  27.857  1.00  0.00     0.031 C 
ATOM     48  C   UNL A   1      42.142  32.232  31.844  1.00  0.00     0.029 A 
ATOM     49  C   UNL A   1      41.064  32.837  32.607  1.00  0.00     0.049 A 
ATOM     50  H   UNL A   1      39.493  33.920  31.624  1.00  0.00     0.167 HD
ATOM     51  C   UNL A   1      41.492  27.580  28.762  1.00  0.00     0.031 A 
ATOM     52  C   UNL A   1      40.754  32.534  33.902  1.00  0.00     0.031 A 
ATOM     53  C   UNL A   1      42.366  27.815  29.906  1.00  0.00     0.049 A 
ATOM     54  C   UNL A   1      41.263  31.170  34.330  1.00  0.00     0.074 A 
ATOM     55  C   UNL A   1      43.540  28.534  30.063  1.00  0.00     0.029 A 
ATOM     56  N   UNL A   1      41.899  27.537  31.185  1.00  0.00    -0.354 N 
ATOM     57  N   UNL A   1      41.612  30.230  33.495  1.00  0.00    -0.248 NA
ATOM     58  C   UNL A   1      41.372  30.742  35.722  1.00  0.00     0.031 C 
ATOM     59  C   UNL A   1      43.742  28.745  31.452  1.00  0.00     0.029 A 
ATOM     60  C   UNL A   1      42.707  28.131  32.134  1.00  0.00     0.049 A 
ATOM     61  H   UNL A   1      41.105  26.991  31.386  1.00  0.00     0.167 HD
ATOM     62  C   UNL A   1      41.997  29.113  34.189  1.00  0.00     0.074 A 
ATOM     63  C   UNL A   1      41.829  29.484  35.582  1.00  0.00     0.031 C 
ATOM     64  C   UNL A   1      42.410  27.978  33.551  1.00  0.00     0.031 A 
BRANCH  51  65
ATOM     65  C   UNL A   1      41.908  26.810  27.532  1.00  0.00    -0.014 A 
ATOM     66  C   UNL A   1      41.933  25.403  27.566  1.00  0.00     0.009 A 
ATOM     67  C   UNL A   1      42.336  27.407  26.334  1.00  0.00     0.009 A 
ATOM     68  C   UNL A   1      42.456  24.643  26.512  1.00  0.00     0.001 A 
ATOM     69  C   UNL A   1      42.900  26.656  25.292  1.00  0.00     0.001 A 
ATOM     70  C   UNL A   1      42.971  25.272  25.387  1.00  0.00     0.000 A 
ENDBRANCH  51  65
BRANCH  52  71
ATOM     71  C   UNL A   1      39.490  33.145  34.396  1.00  0.00    -0.014 A 
ATOM     72  C   UNL A   1      38.267  32.570  33.997  1.00  0.00     0.009 A 
ATOM     73  C   UNL A   1      39.495  34.009  35.502  1.00  0.00     0.009 A 
ATOM     74  C   UNL A   1      37.106  32.761  34.753  1.00  0.00     0.001 A 
ATOM     75  C   UNL A   1      38.326  34.204  36.250  1.00  0.00     0.001 A 
ATOM     76  C   UNL A   1      37.144  33.552  35.897  1.00  0.00     0.000 A 
ENDBRANCH  52  71
BRANCH  64  77
ATOM     77  C   UNL A   1      42.649  26.621  34.176  1.00  0.00    -0.014 A 
ATOM     78  C   UNL A   1      41.747  25.963  35.021  1.00  0.00     0.009 A 
ATOM     79  C   UNL A   1      43.797  25.889  33.792  1.00  0.00     0.009 A 
ATOM     80  C   UNL A   1      41.998  24.663  35.486  1.00  0.00     0.001 A 
ATOM     81  C   UNL A   1      44.029  24.578  34.213  1.00  0.00     0.001 A 
ATOM     82  C   UNL A   1      43.130  23.967  35.072  1.00  0.00     0.000 A 
ENDBRANCH  64  77
ENDBRANCH  38  39
ENDBRANCH  30  33
ENDBRANCH  28  29
ENDBRANCH  27  28
ENDBRANCH   1  27
TORSDOF 14
ENDMDL
MODEL 2
REMARK VINA RESULT:     -12.3      3.578      9.017
REMARK SMILES COc1ccc(Cl)cc1C(=O)Nc1ccc(C(=O)NCCCCNC(=O)c2ccc(-c3c4nc(c(-c5ccccc5)c5ccc([nH]5)c(-c5ccccc5)c5nc(c(-c6ccccc6)c6ccc3[nH]6)C=C5)C=C4)cc2)cc1C
REMARK SMILES IDX 21 1 20 2 19 3 17 4 18 5 16 7 13 8 14 9 76 10 15 11 75 12
REMARK SMILES IDX 77 13 12 14 10 15 11 16 9 18 3 19 4 20 5 21 8 22 6 23 7 24
REMARK SMILES IDX 2 25 1 26 22 27 23 28 24 29 25 30 26 32 27 33 28 34 74 35
REMARK SMILES IDX 29 36 73 37 30 38 31 39 32 40 67 41 33 42 72 43 66 44 68 45
REMARK SMILES IDX 34 46 71 47 65 48 64 49 35 51 57 52 42 53 56 54 43 55 46 56
REMARK SMILES IDX 55 57 69 58 44 59 45 60 54 62 70 63 47 64 36 65 37 66 41 67
REMARK SMILES IDX 38 68 40 69 39 70 58 71 59 72 63 73 60 74 62 75 61 76 48 77
REMARK SMILES IDX 49 78 53 79 50 80 52 81 51 82
REMARK H PARENT 19 6 12 17 24 31 68 50 46 61
REMARK Flexibility Score: inf
ROOT
ATOM      1  C   UNL A   1      37.891  22.991  25.981  1.00  0.00     0.023 C 
ENDROOT
BRANCH   1   2
ATOM      2  C   UNL A   1      37.008  22.914  24.729  1.00  0.00     0.116 C 
BRANCH   2   3
ATOM      3  N   UNL A   1      36.247  21.675  24.702  1.00  0.00    -0.352 N 
ATOM      4  C   UNL A   1      34.902  21.402  24.645  1.00  0.00     0.251 C 
ATOM      5  O   UNL A   1      34.561  20.220  24.665  1.00  0.00    -0.269 OA
ATOM      6  H   UNL A   1      36.810  20.868  24.732  1.00  0.00     0.163 HD
BRANCH   4   7
ATOM      7  C   UNL A   1      33.870  22.456  24.443  1.00  0.00     0.040 A 
ATOM      8  C   UNL A   1      31.562  23.984  24.012  1.00  0.00     0.044 A 
ATOM      9  C   UNL A   1      32.577  23.956  23.055  1.00  0.00     0.027 A 
ATOM     10  C   UNL A   1      31.777  23.414  25.278  1.00  0.00    -0.027 A 
ATOM     11  C   UNL A   1      33.748  23.233  23.292  1.00  0.00     0.016 A 
ATOM     12  C   UNL A   1      32.917  22.612  25.460  1.00  0.00     0.019 A 
ATOM     13  C   UNL A   1      30.765  23.453  26.392  1.00  0.00     0.046 C 
BRANCH   8  14
ATOM     14  N   UNL A   1      30.332  24.578  23.725  1.00  0.00    -0.322 N 
ATOM     15  C   UNL A   1      29.843  25.836  23.978  1.00  0.00     0.259 C 
ATOM     16  O   UNL A   1      28.620  25.984  23.867  1.00  0.00    -0.269 OA
ATOM     17  H   UNL A   1      29.700  23.988  23.254  1.00  0.00     0.170 HD
BRANCH  15  18
ATOM     18  C   UNL A   1      30.663  27.057  24.276  1.00  0.00     0.083 A 
ATOM     19  C   UNL A   1      30.830  28.193  23.456  1.00  0.00     0.131 A 
ATOM     20  C   UNL A   1      31.504  29.323  23.964  1.00  0.00     0.049 A 
ATOM     21  C   UNL A   1      31.986  29.350  25.271  1.00  0.00     0.024 A 
ATOM     22  C   UNL A   1      31.165  27.108  25.596  1.00  0.00     0.038 A 
ATOM     23  C   UNL A   1      31.807  28.243  26.086  1.00  0.00     0.042 A 
ATOM     24  Cl  UNL A   1      32.337  28.297  27.722  1.00  0.00    -0.084 Cl
BRANCH  19  25
ATOM     25  O   UNL A   1      30.239  28.238  22.220  1.00  0.00    -0.496 OA
ATOM     26  C   UNL A   1      29.350  29.332  21.992  1.00  0.00     0.278 C 
ENDBRANCH  19  25
ENDBRANCH  15  18
ENDBRANCH   8  14
ENDBRANCH   4   7
ENDBRANCH   2   3
ENDBRANCH   1   2
BRANCH   1  27
ATOM     27  C   UNL A   1      39.321  22.496  25.751  1.00  0.00     0.023 C 
BRANCH  27  28
ATOM     28  C   UNL A   1      39.695  21.310  26.627  1.00  0.00     0.116 C 
BRANCH  28  29
ATOM     29  N   UNL A   1      40.690  20.421  26.043  1.00  0.00    -0.352 N 
ATOM     30  C   UNL A   1      42.070  20.547  25.983  1.00  0.00     0.251 C 
ATOM     31  H   UNL A   1      40.327  19.606  25.625  1.00  0.00     0.163 HD
ATOM     32  O   UNL A   1      42.729  19.714  25.387  1.00  0.00    -0.269 OA
BRANCH  30  33
ATOM     33  C   UNL A   1      42.754  21.606  26.776  1.00  0.00     0.039 A 
ATOM     34  C   UNL A   1      42.574  21.593  28.165  1.00  0.00     0.014 A 
ATOM     35  C   UNL A   1      43.354  22.703  26.169  1.00  0.00     0.014 A 
ATOM     36  C   UNL A   1      42.726  22.774  28.886  1.00  0.00     0.010 A 
ATOM     37  C   UNL A   1      43.384  23.902  26.848  1.00  0.00     0.010 A 
ATOM     38  C   UNL A   1      42.996  23.949  28.187  1.00  0.00    -0.014 A 
BRANCH  38  39
ATOM     39  C   UNL A   1      42.777  25.279  28.738  1.00  0.00     0.031 A 
ATOM     40  C   UNL A   1      41.604  26.071  28.316  1.00  0.00     0.074 A 
ATOM     41  C   UNL A   1      43.603  25.743  29.705  1.00  0.00     0.049 A 
ATOM     42  N   UNL A   1      41.548  27.359  28.354  1.00  0.00    -0.248 NA
ATOM     43  C   UNL A   1      40.395  25.456  27.775  1.00  0.00     0.031 C 
ATOM     44  C   UNL A   1      43.404  26.924  30.542  1.00  0.00     0.029 A 
ATOM     45  N   UNL A   1      44.918  25.356  29.985  1.00  0.00    -0.354 N 
ATOM     46  C   UNL A   1      40.233  27.713  28.159  1.00  0.00     0.074 A 
ATOM     47  C   UNL A   1      39.573  26.507  27.717  1.00  0.00     0.031 C 
ATOM     48  C   UNL A   1      44.604  27.347  30.976  1.00  0.00     0.029 A 
ATOM     49  C   UNL A   1      45.606  26.538  30.302  1.00  0.00     0.049 A 
ATOM     50  H   UNL A   1      45.285  24.443  29.965  1.00  0.00     0.167 HD
ATOM     51  C   UNL A   1      39.800  28.946  28.542  1.00  0.00     0.031 A 
ATOM     52  C   UNL A   1      46.641  27.031  29.560  1.00  0.00     0.031 A 
ATOM     53  C   UNL A   1      40.887  29.766  29.067  1.00  0.00     0.049 A 
ATOM     54  C   UNL A   1      46.390  28.439  29.053  1.00  0.00     0.074 A 
ATOM     55  C   UNL A   1      41.295  30.079  30.353  1.00  0.00     0.029 A 
ATOM     56  N   UNL A   1      41.926  30.137  28.222  1.00  0.00    -0.354 N 
ATOM     57  N   UNL A   1      45.208  28.987  28.986  1.00  0.00    -0.248 NA
ATOM     58  C   UNL A   1      47.436  29.317  28.537  1.00  0.00     0.031 C 
ATOM     59  C   UNL A   1      42.620  30.581  30.283  1.00  0.00     0.029 A 
ATOM     60  C   UNL A   1      43.002  30.597  28.954  1.00  0.00     0.049 A 
ATOM     61  H   UNL A   1      41.898  30.080  27.240  1.00  0.00     0.167 HD
ATOM     62  C   UNL A   1      45.310  30.247  28.458  1.00  0.00     0.074 A 
ATOM     63  C   UNL A   1      46.728  30.409  28.194  1.00  0.00     0.031 C 
ATOM     64  C   UNL A   1      44.213  31.042  28.278  1.00  0.00     0.031 A 
BRANCH  51  65
ATOM     65  C   UNL A   1      38.338  29.274  28.725  1.00  0.00    -0.014 A 
ATOM     66  C   UNL A   1      37.578  29.715  27.625  1.00  0.00     0.009 A 
ATOM     67  C   UNL A   1      37.666  29.224  29.958  1.00  0.00     0.009 A 
ATOM     68  C   UNL A   1      36.264  30.179  27.766  1.00  0.00     0.001 A 
ATOM     69  C   UNL A   1      36.366  29.726  30.115  1.00  0.00     0.001 A 
ATOM     70  C   UNL A   1      35.669  30.216  29.019  1.00  0.00     0.000 A 
ENDBRANCH  51  65
BRANCH  52  71
ATOM     71  C   UNL A   1      47.414  26.001  28.814  1.00  0.00    -0.014 A 
ATOM     72  C   UNL A   1      47.069  25.746  27.472  1.00  0.00     0.009 A 
ATOM     73  C   UNL A   1      48.665  25.567  29.277  1.00  0.00     0.009 A 
ATOM     74  C   UNL A   1      47.994  25.179  26.590  1.00  0.00     0.001 A 
ATOM     75  C   UNL A   1      49.584  24.990  28.392  1.00  0.00     0.001 A 
ATOM     76  C   UNL A   1      49.262  24.830  27.044  1.00  0.00     0.000 A 
ENDBRANCH  52  71
BRANCH  64  77
ATOM     77  C   UNL A   1      44.154  32.347  27.516  1.00  0.00    -0.014 A 
ATOM     78  C   UNL A   1      44.310  32.468  26.130  1.00  0.00     0.009 A 
ATOM     79  C   UNL A   1      43.786  33.524  28.211  1.00  0.00     0.009 A 
ATOM     80  C   UNL A   1      44.146  33.703  25.482  1.00  0.00     0.001 A 
ATOM     81  C   UNL A   1      43.575  34.743  27.566  1.00  0.00     0.001 A 
ATOM     82  C   UNL A   1      43.767  34.835  26.197  1.00  0.00     0.000 A 
ENDBRANCH  64  77
ENDBRANCH  38  39
ENDBRANCH  30  33
ENDBRANCH  28  29
ENDBRANCH  27  28
ENDBRANCH   1  27
TORSDOF 14
ENDMDL
MODEL 3
REMARK VINA RESULT:     -12.2      1.603      2.693
REMARK SMILES COc1ccc(Cl)cc1C(=O)Nc1ccc(C(=O)NCCCCNC(=O)c2ccc(-c3c4nc(c(-c5ccccc5)c5ccc([nH]5)c(-c5ccccc5)c5nc(c(-c6ccccc6)c6ccc3[nH]6)C=C5)C=C4)cc2)cc1C
REMARK SMILES IDX 21 1 20 2 19 3 17 4 18 5 16 7 13 8 14 9 76 10 15 11 75 12
REMARK SMILES IDX 77 13 12 14 10 15 11 16 9 18 3 19 4 20 5 21 8 22 6 23 7 24
REMARK SMILES IDX 2 25 1 26 22 27 23 28 24 29 25 30 26 32 27 33 28 34 74 35
REMARK SMILES IDX 29 36 73 37 30 38 31 39 32 40 67 41 33 42 72 43 66 44 68 45
REMARK SMILES IDX 34 46 71 47 65 48 64 49 35 51 57 52 42 53 56 54 43 55 46 56
REMARK SMILES IDX 55 57 69 58 44 59 45 60 54 62 70 63 47 64 36 65 37 66 41 67
REMARK SMILES IDX 38 68 40 69 39 70 58 71 59 72 63 73 60 74 62 75 61 76 48 77
REMARK SMILES IDX 49 78 53 79 50 80 52 81 51 82
REMARK H PARENT 19 6 12 17 24 31 68 50 46 61
REMARK Flexibility Score: inf
ROOT
ATOM      1  C   UNL A   1      32.546  30.790  26.545  1.00  0.00     0.023 C 
ENDROOT
BRANCH   1   2
ATOM      2  C   UNL A   1      32.205  29.457  25.865  1.00  0.00     0.116 C 
BRANCH   2   3
ATOM      3  N   UNL A   1      31.120  29.621  24.910  1.00  0.00    -0.352 N 
ATOM      4  C   UNL A   1      30.558  28.785  23.978  1.00  0.00     0.251 C 
ATOM      5  O   UNL A   1      29.648  29.237  23.284  1.00  0.00    -0.269 OA
ATOM      6  H   UNL A   1      30.705  30.514  24.938  1.00  0.00     0.163 HD
BRANCH   4   7
ATOM      7  C   UNL A   1      30.919  27.345  23.860  1.00  0.00     0.040 A 
ATOM      8  C   UNL A   1      31.253  24.652  23.164  1.00  0.00     0.044 A 
ATOM      9  C   UNL A   1      30.569  24.999  24.329  1.00  0.00     0.027 A 
ATOM     10  C   UNL A   1      31.951  25.636  22.442  1.00  0.00    -0.027 A 
ATOM     11  C   UNL A   1      30.446  26.340  24.700  1.00  0.00     0.016 A 
ATOM     12  C   UNL A   1      31.733  26.983  22.776  1.00  0.00     0.019 A 
ATOM     13  C   UNL A   1      32.767  25.344  21.211  1.00  0.00     0.046 C 
BRANCH   8  14
ATOM     14  N   UNL A   1      31.255  23.333  22.707  1.00  0.00    -0.322 N 
ATOM     15  C   UNL A   1      32.083  22.272  22.980  1.00  0.00     0.259 C 
ATOM     16  O   UNL A   1      32.016  21.308  22.209  1.00  0.00    -0.269 OA
ATOM     17  H   UNL A   1      30.530  23.125  22.075  1.00  0.00     0.170 HD
BRANCH  15  18
ATOM     18  C   UNL A   1      32.979  22.139  24.177  1.00  0.00     0.083 A 
ATOM     19  C   UNL A   1      32.935  21.136  25.169  1.00  0.00     0.131 A 
ATOM     20  C   UNL A   1      33.960  21.069  26.135  1.00  0.00     0.049 A 
ATOM     21  C   UNL A   1      35.031  21.961  26.115  1.00  0.00     0.024 A 
ATOM     22  C   UNL A   1      34.074  23.033  24.182  1.00  0.00     0.038 A 
ATOM     23  C   UNL A   1      35.088  22.935  25.132  1.00  0.00     0.042 A 
ATOM     24  Cl  UNL A   1      36.443  23.992  25.060  1.00  0.00    -0.084 Cl
BRANCH  19  25
ATOM     25  O   UNL A   1      31.968  20.166  25.118  1.00  0.00    -0.496 OA
ATOM     26  C   UNL A   1      32.417  18.854  24.775  1.00  0.00     0.278 C 
ENDBRANCH  19  25
ENDBRANCH  15  18
ENDBRANCH   8  14
ENDBRANCH   4   7
ENDBRANCH   2   3
ENDBRANCH   1   2
BRANCH   1  27
ATOM     27  C   UNL A   1      33.646  30.672  27.603  1.00  0.00     0.023 C 
BRANCH  27  28
ATOM     28  C   UNL A   1      34.462  31.945  27.766  1.00  0.00     0.116 C 
BRANCH  28  29
ATOM     29  N   UNL A   1      34.822  32.257  29.142  1.00  0.00    -0.352 N 
ATOM     30  C   UNL A   1      35.668  31.587  30.015  1.00  0.00     0.251 C 
ATOM     31  H   UNL A   1      34.399  33.067  29.511  1.00  0.00     0.163 HD
ATOM     32  O   UNL A   1      35.789  31.979  31.161  1.00  0.00    -0.269 OA
BRANCH  30  33
ATOM     33  C   UNL A   1      36.542  30.493  29.508  1.00  0.00     0.039 A 
ATOM     34  C   UNL A   1      36.698  29.361  30.317  1.00  0.00     0.014 A 
ATOM     35  C   UNL A   1      37.360  30.665  28.397  1.00  0.00     0.014 A 
ATOM     36  C   UNL A   1      37.838  28.574  30.181  1.00  0.00     0.010 A 
ATOM     37  C   UNL A   1      38.550  29.972  28.338  1.00  0.00     0.010 A 
ATOM     38  C   UNL A   1      38.820  28.977  29.279  1.00  0.00    -0.014 A 
BRANCH  38  39
ATOM     39  C   UNL A   1      40.197  28.505  29.325  1.00  0.00     0.031 A 
ATOM     40  C   UNL A   1      40.552  27.201  28.731  1.00  0.00     0.074 A 
ATOM     41  C   UNL A   1      41.160  29.310  29.832  1.00  0.00     0.049 A 
ATOM     42  N   UNL A   1      41.565  26.490  29.096  1.00  0.00    -0.248 NA
ATOM     43  C   UNL A   1      39.753  26.572  27.683  1.00  0.00     0.031 C 
ATOM     44  C   UNL A   1      42.605  29.122  29.738  1.00  0.00     0.029 A 
ATOM     45  N   UNL A   1      41.022  30.369  30.736  1.00  0.00    -0.354 N 
ATOM     46  C   UNL A   1      41.732  25.507  28.148  1.00  0.00     0.074 A 
ATOM     47  C   UNL A   1      40.534  25.544  27.342  1.00  0.00     0.031 C 
ATOM     48  C   UNL A   1      43.189  29.780  30.754  1.00  0.00     0.029 A 
ATOM     49  C   UNL A   1      42.120  30.276  31.605  1.00  0.00     0.049 A 
ATOM     50  H   UNL A   1      40.303  31.041  30.758  1.00  0.00     0.167 HD
ATOM     51  C   UNL A   1      42.930  24.869  28.040  1.00  0.00     0.031 A 
ATOM     52  C   UNL A   1      42.005  30.027  32.943  1.00  0.00     0.031 A 
ATOM     53  C   UNL A   1      43.878  25.314  29.056  1.00  0.00     0.049 A 
ATOM     54  C   UNL A   1      42.762  28.788  33.384  1.00  0.00     0.074 A 
ATOM     55  C   UNL A   1      44.937  26.207  29.031  1.00  0.00     0.029 A 
ATOM     56  N   UNL A   1      43.603  25.065  30.396  1.00  0.00    -0.354 N 
ATOM     57  N   UNL A   1      43.159  27.851  32.568  1.00  0.00    -0.248 NA
ATOM     58  C   UNL A   1      43.088  28.485  34.774  1.00  0.00     0.031 C 
ATOM     59  C   UNL A   1      45.255  26.547  30.371  1.00  0.00     0.029 A 
ATOM     60  C   UNL A   1      44.408  25.840  31.206  1.00  0.00     0.049 A 
ATOM     61  H   UNL A   1      42.929  24.425  30.720  1.00  0.00     0.167 HD
ATOM     62  C   UNL A   1      43.785  26.856  33.273  1.00  0.00     0.074 A 
ATOM     63  C   UNL A   1      43.716  27.301  34.653  1.00  0.00     0.031 C 
ATOM     64  C   UNL A   1      44.296  25.750  32.655  1.00  0.00     0.031 A 
BRANCH  51  65
ATOM     65  C   UNL A   1      43.323  24.079  26.815  1.00  0.00    -0.014 A 
ATOM     66  C   UNL A   1      43.106  22.689  26.782  1.00  0.00     0.009 A 
ATOM     67  C   UNL A   1      43.957  24.632  25.689  1.00  0.00     0.009 A 
ATOM     68  C   UNL A   1      43.589  21.885  25.741  1.00  0.00     0.001 A 
ATOM     69  C   UNL A   1      44.480  23.830  24.665  1.00  0.00     0.001 A 
ATOM     70  C   UNL A   1      44.307  22.453  24.697  1.00  0.00     0.000 A 
ENDBRANCH  51  65
BRANCH  52  71
ATOM     71  C   UNL A   1      40.723  30.481  33.550  1.00  0.00    -0.014 A 
ATOM     72  C   UNL A   1      40.577  31.847  33.864  1.00  0.00     0.009 A 
ATOM     73  C   UNL A   1      39.571  29.685  33.471  1.00  0.00     0.009 A 
ATOM     74  C   UNL A   1      39.308  32.423  33.979  1.00  0.00     0.001 A 
ATOM     75  C   UNL A   1      38.302  30.266  33.598  1.00  0.00     0.001 A 
ATOM     76  C   UNL A   1      38.171  31.638  33.814  1.00  0.00     0.000 A 
ENDBRANCH  52  71
BRANCH  64  77
ATOM     77  C   UNL A   1      44.808  24.493  33.323  1.00  0.00    -0.014 A 
ATOM     78  C   UNL A   1      46.127  24.297  33.749  1.00  0.00     0.009 A 
ATOM     79  C   UNL A   1      43.880  23.482  33.670  1.00  0.00     0.009 A 
ATOM     80  C   UNL A   1      46.504  23.140  34.448  1.00  0.00     0.001 A 
ATOM     81  C   UNL A   1      44.239  22.352  34.406  1.00  0.00     0.001 A 
ATOM     82  C   UNL A   1      45.560  22.175  34.787  1.00  0.00     0.000 A 
ENDBRANCH  64  77
ENDBRANCH  38  39
ENDBRANCH  30  33
ENDBRANCH  28  29
ENDBRANCH  27  28
ENDBRANCH   1  27
TORSDOF 14
ENDMDL
