MODEL 1
REMARK VINA RESULT:     -11.1      0.000      0.000
REMARK SMILES C[C@H](O)[C@@H](NC(=O)c1ccc(Cl)c(S(C)(=O)=O)c1)C(=O)NCCCCNC(=O)c1ccc(-c2c3nc(c(-c4ccccc4)c4ccc([nH]4)c(-c4ccccc4)c4nc(c(-c5ccccc5)c5ccc2[nH]5)C=C4)C=C3)cc1
REMARK SMILES IDX 23 1 22 2 21 3 19 4 20 5 4 7 2 8 1 9 3 10 5 12 6 13 7 15
REMARK SMILES IDX 8 16 9 17 18 18 10 19 13 20 11 21 12 22 14 23 15 24 16 25
REMARK SMILES IDX 17 26 24 27 25 28 26 29 27 30 28 32 29 33 30 34 76 35 31 36
REMARK SMILES IDX 75 37 32 38 33 39 34 40 69 41 35 42 74 43 68 44 70 45 36 46
REMARK SMILES IDX 73 47 67 48 66 49 37 51 59 52 44 53 58 54 45 55 48 56 57 57
REMARK SMILES IDX 71 58 46 59 47 60 56 62 72 63 49 64 38 65 39 66 43 67 40 68
REMARK SMILES IDX 42 69 41 70 60 71 61 72 65 73 62 74 64 75 63 76 50 77 51 78
REMARK SMILES IDX 55 79 52 80 54 81 53 82
REMARK H PARENT 21 6 3 11 5 14 26 31 70 50 48 61
REMARK Flexibility Score: inf
ROOT
ATOM      1  C   UNL A   1      36.541  19.840  25.008  1.00  0.00     0.023 C 
ENDROOT
BRANCH   1   2
ATOM      2  C   UNL A   1      35.656  21.048  25.298  1.00  0.00     0.116 C 
BRANCH   2   3
ATOM      3  N   UNL A   1      34.427  20.626  25.940  1.00  0.00    -0.354 N 
ATOM      4  C   UNL A   1      33.392  19.893  25.455  1.00  0.00     0.245 C 
ATOM      5  O   UNL A   1      32.371  19.825  26.147  1.00  0.00    -0.273 OA
ATOM      6  H   UNL A   1      34.327  20.918  26.875  1.00  0.00     0.163 HD
BRANCH   4   7
ATOM      7  C   UNL A   1      33.424  19.253  24.058  1.00  0.00     0.200 C 
BRANCH   7   8
ATOM      8  C   UNL A   1      33.400  17.709  24.215  1.00  0.00     0.143 C 
ATOM      9  C   UNL A   1      33.933  16.953  23.002  1.00  0.00     0.041 C 
BRANCH   8  10
ATOM     10  O   UNL A   1      32.051  17.289  24.467  1.00  0.00    -0.391 OA
ATOM     11  H   UNL A   1      31.863  16.483  23.960  1.00  0.00     0.211 HD
ENDBRANCH   8  10
ENDBRANCH   7   8
BRANCH   7  12
ATOM     12  N   UNL A   1      32.364  19.666  23.108  1.00  0.00    -0.338 N 
ATOM     13  C   UNL A   1      32.125  20.867  22.490  1.00  0.00     0.252 C 
ATOM     14  H   UNL A   1      31.720  18.958  22.882  1.00  0.00     0.164 HD
ATOM     15  O   UNL A   1      31.404  20.934  21.500  1.00  0.00    -0.269 OA
BRANCH  13  16
ATOM     16  C   UNL A   1      32.555  22.123  23.132  1.00  0.00     0.041 A 
ATOM     17  C   UNL A   1      33.680  22.835  22.728  1.00  0.00     0.015 A 
ATOM     18  C   UNL A   1      31.841  22.519  24.266  1.00  0.00     0.035 A 
ATOM     19  C   UNL A   1      34.150  23.879  23.532  1.00  0.00     0.023 A 
ATOM     20  C   UNL A   1      32.318  23.560  25.074  1.00  0.00     0.086 A 
ATOM     21  C   UNL A   1      33.488  24.235  24.718  1.00  0.00     0.059 A 
ATOM     22  Cl  UNL A   1      34.199  25.508  25.637  1.00  0.00    -0.083 Cl
BRANCH  20  23
ATOM     23  S   UNL A   1      31.505  23.793  26.630  1.00  0.00     0.177 S 
ATOM     24  C   UNL A   1      30.076  22.760  26.604  1.00  0.00     0.164 C 
ATOM     25  O   UNL A   1      32.397  23.257  27.648  1.00  0.00    -0.224 OA
ATOM     26  O   UNL A   1      31.088  25.174  26.733  1.00  0.00    -0.224 OA
ENDBRANCH  20  23
ENDBRANCH  13  16
ENDBRANCH   7  12
ENDBRANCH   4   7
ENDBRANCH   2   3
ENDBRANCH   1   2
BRANCH   1  27
ATOM     27  C   UNL A   1      37.985  20.195  24.635  1.00  0.00     0.023 C 
BRANCH  27  28
ATOM     28  C   UNL A   1      38.936  20.350  25.820  1.00  0.00     0.116 C 
BRANCH  28  29
ATOM     29  N   UNL A   1      40.025  19.386  25.795  1.00  0.00    -0.352 N 
ATOM     30  C   UNL A   1      41.359  19.592  26.054  1.00  0.00     0.251 C 
ATOM     31  H   UNL A   1      39.772  18.463  25.562  1.00  0.00     0.163 HD
ATOM     32  O   UNL A   1      42.178  18.700  25.860  1.00  0.00    -0.269 OA
BRANCH  30  33
ATOM     33  C   UNL A   1      41.804  20.907  26.556  1.00  0.00     0.039 A 
ATOM     34  C   UNL A   1      42.258  21.882  25.671  1.00  0.00     0.014 A 
ATOM     35  C   UNL A   1      41.768  21.171  27.922  1.00  0.00     0.014 A 
ATOM     36  C   UNL A   1      42.622  23.139  26.165  1.00  0.00     0.010 A 
ATOM     37  C   UNL A   1      42.047  22.445  28.405  1.00  0.00     0.010 A 
ATOM     38  C   UNL A   1      42.491  23.444  27.533  1.00  0.00    -0.014 A 
BRANCH  38  39
ATOM     39  C   UNL A   1      42.785  24.804  28.057  1.00  0.00     0.031 A 
ATOM     40  C   UNL A   1      44.190  25.205  28.427  1.00  0.00     0.074 A 
ATOM     41  C   UNL A   1      41.769  25.666  28.259  1.00  0.00     0.049 A 
ATOM     42  N   UNL A   1      44.626  26.351  28.888  1.00  0.00    -0.248 NA
ATOM     43  C   UNL A   1      45.237  24.179  28.293  1.00  0.00     0.031 C 
ATOM     44  C   UNL A   1      40.353  25.379  28.019  1.00  0.00     0.029 A 
ATOM     45  N   UNL A   1      41.771  26.962  28.714  1.00  0.00    -0.354 N 
ATOM     46  C   UNL A   1      45.989  26.181  29.105  1.00  0.00     0.074 A 
ATOM     47  C   UNL A   1      46.296  24.804  28.787  1.00  0.00     0.031 C 
ATOM     48  C   UNL A   1      39.630  26.477  28.284  1.00  0.00     0.029 A 
ATOM     49  C   UNL A   1      40.523  27.534  28.751  1.00  0.00     0.049 A 
ATOM     50  H   UNL A   1      42.590  27.436  28.986  1.00  0.00     0.167 HD
ATOM     51  C   UNL A   1      46.907  27.092  29.507  1.00  0.00     0.031 A 
ATOM     52  C   UNL A   1      40.136  28.771  29.115  1.00  0.00     0.031 A 
ATOM     53  C   UNL A   1      46.603  28.464  29.819  1.00  0.00     0.049 A 
ATOM     54  C   UNL A   1      41.175  29.766  29.553  1.00  0.00     0.074 A 
ATOM     55  C   UNL A   1      47.474  29.484  30.165  1.00  0.00     0.029 A 
ATOM     56  N   UNL A   1      45.327  29.007  29.829  1.00  0.00    -0.354 N 
ATOM     57  N   UNL A   1      42.473  29.618  29.652  1.00  0.00    -0.248 NA
ATOM     58  C   UNL A   1      40.693  31.108  29.909  1.00  0.00     0.031 C 
ATOM     59  C   UNL A   1      46.719  30.628  30.442  1.00  0.00     0.029 A 
ATOM     60  C   UNL A   1      45.385  30.341  30.201  1.00  0.00     0.049 A 
ATOM     61  H   UNL A   1      44.502  28.518  29.606  1.00  0.00     0.167 HD
ATOM     62  C   UNL A   1      42.966  30.853  30.049  1.00  0.00     0.074 A 
ATOM     63  C   UNL A   1      41.830  31.744  30.154  1.00  0.00     0.031 C 
ATOM     64  C   UNL A   1      44.247  31.218  30.301  1.00  0.00     0.031 A 
BRANCH  51  65
ATOM     65  C   UNL A   1      48.338  26.636  29.629  1.00  0.00    -0.014 A 
ATOM     66  C   UNL A   1      48.816  26.047  30.812  1.00  0.00     0.009 A 
ATOM     67  C   UNL A   1      49.207  26.748  28.533  1.00  0.00     0.009 A 
ATOM     68  C   UNL A   1      50.142  25.620  30.907  1.00  0.00     0.001 A 
ATOM     69  C   UNL A   1      50.524  26.289  28.619  1.00  0.00     0.001 A 
ATOM     70  C   UNL A   1      50.993  25.736  29.809  1.00  0.00     0.000 A 
ENDBRANCH  51  65
BRANCH  52  71
ATOM     71  C   UNL A   1      38.700  29.151  29.050  1.00  0.00    -0.014 A 
ATOM     72  C   UNL A   1      38.150  29.664  27.865  1.00  0.00     0.009 A 
ATOM     73  C   UNL A   1      37.872  29.010  30.175  1.00  0.00     0.009 A 
ATOM     74  C   UNL A   1      36.810  30.056  27.817  1.00  0.00     0.001 A 
ATOM     75  C   UNL A   1      36.525  29.372  30.114  1.00  0.00     0.001 A 
ATOM     76  C   UNL A   1      35.999  29.907  28.940  1.00  0.00     0.000 A 
ENDBRANCH  52  71
BRANCH  64  77
ATOM     77  C   UNL A   1      44.495  32.654  30.672  1.00  0.00    -0.014 A 
ATOM     78  C   UNL A   1      44.520  33.075  32.010  1.00  0.00     0.009 A 
ATOM     79  C   UNL A   1      44.745  33.596  29.660  1.00  0.00     0.009 A 
ATOM     80  C   UNL A   1      44.749  34.416  32.326  1.00  0.00     0.001 A 
ATOM     81  C   UNL A   1      45.008  34.929  29.979  1.00  0.00     0.001 A 
ATOM     82  C   UNL A   1      44.999  35.339  31.310  1.00  0.00     0.000 A 
ENDBRANCH  64  77
ENDBRANCH  38  39
ENDBRANCH  30  33
ENDBRANCH  28  29
ENDBRANCH  27  28
ENDBRANCH   1  27
TORSDOF 16
ENDMDL
MODEL 2
REMARK VINA RESULT:     -10.9      1.442      2.234
REMARK SMILES C[C@H](O)[C@@H](NC(=O)c1ccc(Cl)c(S(C)(=O)=O)c1)C(=O)NCCCCNC(=O)c1ccc(-c2c3nc(c(-c4ccccc4)c4ccc([nH]4)c(-c4ccccc4)c4nc(c(-c5ccccc5)c5ccc2[nH]5)C=C4)C=C3)cc1
REMARK SMILES IDX 23 1 22 2 21 3 19 4 20 5 4 7 2 8 1 9 3 10 5 12 6 13 7 15
REMARK SMILES IDX 8 16 9 17 18 18 10 19 13 20 11 21 12 22 14 23 15 24 16 25
REMARK SMILES IDX 17 26 24 27 25 28 26 29 27 30 28 32 29 33 30 34 76 35 31 36
REMARK SMILES IDX 75 37 32 38 33 39 34 40 69 41 35 42 74 43 68 44 70 45 36 46
REMARK SMILES IDX 73 47 67 48 66 49 37 51 59 52 44 53 58 54 45 55 48 56 57 57
REMARK SMILES IDX 71 58 46 59 47 60 56 62 72 63 49 64 38 65 39 66 43 67 40 68
REMARK SMILES IDX 42 69 41 70 60 71 61 72 65 73 62 74 64 75 63 76 50 77 51 78
REMARK SMILES IDX 55 79 52 80 54 81 53 82
REMARK H PARENT 21 6 3 11 5 14 26 31 70 50 48 61
REMARK Flexibility Score: inf
ROOT
ATOM      1  C   UNL A   1      37.638  21.407  24.527  1.00  0.00     0.023 C 
ENDROOT
BRANCH   1   2
ATOM      2  C   UNL A   1      36.115  21.448  24.586  1.00  0.00     0.116 C 
BRANCH   2   3
ATOM      3  N   UNL A   1      35.666  21.439  25.965  1.00  0.00    -0.354 N 
ATOM      4  C   UNL A   1      34.424  21.247  26.480  1.00  0.00     0.245 C 
ATOM      5  O   UNL A   1      34.269  21.471  27.685  1.00  0.00    -0.273 OA
ATOM      6  H   UNL A   1      36.372  21.596  26.632  1.00  0.00     0.163 HD
BRANCH   4   7
ATOM      7  C   UNL A   1      33.220  20.872  25.601  1.00  0.00     0.200 C 
BRANCH   7   8
ATOM      8  C   UNL A   1      33.250  19.341  25.340  1.00  0.00     0.143 C 
ATOM      9  C   UNL A   1      32.528  18.915  24.066  1.00  0.00     0.041 C 
BRANCH   8  10
ATOM     10  O   UNL A   1      32.654  18.668  26.458  1.00  0.00    -0.391 OA
ATOM     11  H   UNL A   1      31.693  18.804  26.443  1.00  0.00     0.211 HD
ENDBRANCH   8  10
ENDBRANCH   7   8
BRANCH   7  12
ATOM     12  N   UNL A   1      31.880  21.257  26.102  1.00  0.00    -0.338 N 
ATOM     13  C   UNL A   1      31.133  22.391  25.901  1.00  0.00     0.252 C 
ATOM     14  H   UNL A   1      31.451  20.585  26.678  1.00  0.00     0.164 HD
ATOM     15  O   UNL A   1      29.928  22.400  26.126  1.00  0.00    -0.269 OA
BRANCH  13  16
ATOM     16  C   UNL A   1      31.806  23.673  25.620  1.00  0.00     0.041 A 
ATOM     17  C   UNL A   1      31.855  24.720  26.535  1.00  0.00     0.015 A 
ATOM     18  C   UNL A   1      32.301  23.846  24.325  1.00  0.00     0.035 A 
ATOM     19  C   UNL A   1      32.302  25.975  26.110  1.00  0.00     0.023 A 
ATOM     20  C   UNL A   1      32.741  25.107  23.899  1.00  0.00     0.086 A 
ATOM     21  C   UNL A   1      32.726  26.184  24.789  1.00  0.00     0.059 A 
ATOM     22  Cl  UNL A   1      33.207  27.789  24.385  1.00  0.00    -0.083 Cl
BRANCH  20  23
ATOM     23  S   UNL A   1      33.076  25.288  22.170  1.00  0.00     0.177 S 
ATOM     24  C   UNL A   1      31.675  26.102  21.474  1.00  0.00     0.164 C 
ATOM     25  O   UNL A   1      34.199  26.207  22.058  1.00  0.00    -0.224 OA
ATOM     26  O   UNL A   1      33.198  23.972  21.582  1.00  0.00    -0.224 OA
ENDBRANCH  20  23
ENDBRANCH  13  16
ENDBRANCH   7  12
ENDBRANCH   4   7
ENDBRANCH   2   3
ENDBRANCH   1   2
BRANCH   1  27
ATOM     27  C   UNL A   1      38.247  20.070  24.967  1.00  0.00     0.023 C 
BRANCH  27  28
ATOM     28  C   UNL A   1      39.240  20.166  26.123  1.00  0.00     0.116 C 
BRANCH  28  29
ATOM     29  N   UNL A   1      40.356  19.242  25.981  1.00  0.00    -0.352 N 
ATOM     30  C   UNL A   1      41.701  19.499  26.096  1.00  0.00     0.251 C 
ATOM     31  H   UNL A   1      40.114  18.310  25.775  1.00  0.00     0.163 HD
ATOM     32  O   UNL A   1      42.527  18.637  25.815  1.00  0.00    -0.269 OA
BRANCH  30  33
ATOM     33  C   UNL A   1      42.148  20.830  26.551  1.00  0.00     0.039 A 
ATOM     34  C   UNL A   1      42.530  21.798  25.625  1.00  0.00     0.014 A 
ATOM     35  C   UNL A   1      42.185  21.118  27.912  1.00  0.00     0.014 A 
ATOM     36  C   UNL A   1      42.897  23.070  26.076  1.00  0.00     0.010 A 
ATOM     37  C   UNL A   1      42.466  22.405  28.357  1.00  0.00     0.010 A 
ATOM     38  C   UNL A   1      42.838  23.397  27.444  1.00  0.00    -0.014 A 
BRANCH  38  39
ATOM     39  C   UNL A   1      43.134  24.771  27.928  1.00  0.00     0.031 A 
ATOM     40  C   UNL A   1      44.551  25.209  28.200  1.00  0.00     0.074 A 
ATOM     41  C   UNL A   1      42.115  25.615  28.183  1.00  0.00     0.049 A 
ATOM     42  N   UNL A   1      44.990  26.371  28.615  1.00  0.00    -0.248 NA
ATOM     43  C   UNL A   1      45.610  24.204  28.013  1.00  0.00     0.031 C 
ATOM     44  C   UNL A   1      40.693  25.293  28.039  1.00  0.00     0.029 A 
ATOM     45  N   UNL A   1      42.116  26.917  28.617  1.00  0.00    -0.354 N 
ATOM     46  C   UNL A   1      46.367  26.235  28.745  1.00  0.00     0.074 A 
ATOM     47  C   UNL A   1      46.685  24.859  28.428  1.00  0.00     0.031 C 
ATOM     48  C   UNL A   1      39.963  26.379  28.334  1.00  0.00     0.029 A 
ATOM     49  C   UNL A   1      40.860  27.462  28.727  1.00  0.00     0.049 A 
ATOM     50  H   UNL A   1      42.940  27.413  28.829  1.00  0.00     0.167 HD
ATOM     51  C   UNL A   1      47.289  27.172  29.073  1.00  0.00     0.031 A 
ATOM     52  C   UNL A   1      40.470  28.696  29.096  1.00  0.00     0.031 A 
ATOM     53  C   UNL A   1      46.974  28.542  29.384  1.00  0.00     0.049 A 
ATOM     54  C   UNL A   1      41.512  29.721  29.451  1.00  0.00     0.074 A 
ATOM     55  C   UNL A   1      47.842  29.585  29.658  1.00  0.00     0.029 A 
ATOM     56  N   UNL A   1      45.690  29.057  29.469  1.00  0.00    -0.354 N 
ATOM     57  N   UNL A   1      42.817  29.602  29.468  1.00  0.00    -0.248 NA
ATOM     58  C   UNL A   1      41.024  31.058  29.818  1.00  0.00     0.031 C 
ATOM     59  C   UNL A   1      47.081  30.717  29.966  1.00  0.00     0.029 A 
ATOM     60  C   UNL A   1      45.741  30.398  29.817  1.00  0.00     0.049 A 
ATOM     61  H   UNL A   1      44.863  28.546  29.307  1.00  0.00     0.167 HD
ATOM     62  C   UNL A   1      43.307  30.855  29.814  1.00  0.00     0.074 A 
ATOM     63  C   UNL A   1      42.159  31.722  29.979  1.00  0.00     0.031 C 
ATOM     64  C   UNL A   1      44.593  31.251  29.977  1.00  0.00     0.031 A 
BRANCH  51  65
ATOM     65  C   UNL A   1      48.734  26.748  29.109  1.00  0.00    -0.014 A 
ATOM     66  C   UNL A   1      49.533  26.787  27.954  1.00  0.00     0.009 A 
ATOM     67  C   UNL A   1      49.320  26.352  30.322  1.00  0.00     0.009 A 
ATOM     68  C   UNL A   1      50.874  26.401  28.005  1.00  0.00     0.001 A 
ATOM     69  C   UNL A   1      50.671  25.999  30.377  1.00  0.00     0.001 A 
ATOM     70  C   UNL A   1      51.443  26.013  29.218  1.00  0.00     0.000 A 
ENDBRANCH  51  65
BRANCH  52  71
ATOM     71  C   UNL A   1      39.024  29.044  29.120  1.00  0.00    -0.014 A 
ATOM     72  C   UNL A   1      38.271  28.883  30.293  1.00  0.00     0.009 A 
ATOM     73  C   UNL A   1      38.387  29.531  27.968  1.00  0.00     0.009 A 
ATOM     74  C   UNL A   1      36.905  29.173  30.304  1.00  0.00     0.001 A 
ATOM     75  C   UNL A   1      37.028  29.852  27.991  1.00  0.00     0.001 A 
ATOM     76  C   UNL A   1      36.286  29.661  29.154  1.00  0.00     0.000 A 
ENDBRANCH  52  71
BRANCH  64  77
ATOM     77  C   UNL A   1      44.831  32.698  30.310  1.00  0.00    -0.014 A 
ATOM     78  C   UNL A   1      44.955  33.673  29.307  1.00  0.00     0.009 A 
ATOM     79  C   UNL A   1      44.895  33.097  31.655  1.00  0.00     0.009 A 
ATOM     80  C   UNL A   1      45.179  35.009  29.645  1.00  0.00     0.001 A 
ATOM     81  C   UNL A   1      45.085  34.438  31.991  1.00  0.00     0.001 A 
ATOM     82  C   UNL A   1      45.238  35.391  30.986  1.00  0.00     0.000 A 
ENDBRANCH  64  77
ENDBRANCH  38  39
ENDBRANCH  30  33
ENDBRANCH  28  29
ENDBRANCH  27  28
ENDBRANCH   1  27
TORSDOF 16
ENDMDL
MODEL 3
REMARK VINA RESULT:     -10.9      1.564      2.202
REMARK SMILES C[C@H](O)[C@@H](NC(=O)c1ccc(Cl)c(S(C)(=O)=O)c1)C(=O)NCCCCNC(=O)c1ccc(-c2c3nc(c(-c4ccccc4)c4ccc([nH]4)c(-c4ccccc4)c4nc(c(-c5ccccc5)c5ccc2[nH]5)C=C4)C=C3)cc1
REMARK SMILES IDX 23 1 22 2 21 3 19 4 20 5 4 7 2 8 1 9 3 10 5 12 6 13 7 15
REMARK SMILES IDX 8 16 9 17 18 18 10 19 13 20 11 21 12 22 14 23 15 24 16 25
REMARK SMILES IDX 17 26 24 27 25 28 26 29 27 30 28 32 29 33 30 34 76 35 31 36
REMARK SMILES IDX 75 37 32 38 33 39 34 40 69 41 35 42 74 43 68 44 70 45 36 46
REMARK SMILES IDX 73 47 67 48 66 49 37 51 59 52 44 53 58 54 45 55 48 56 57 57
REMARK SMILES IDX 71 58 46 59 47 60 56 62 72 63 49 64 38 65 39 66 43 67 40 68
REMARK SMILES IDX 42 69 41 70 60 71 61 72 65 73 62 74 64 75 63 76 50 77 51 78
REMARK SMILES IDX 55 79 52 80 54 81 53 82
REMARK H PARENT 21 6 3 11 5 14 26 31 70 50 48 61
REMARK Flexibility Score: inf
ROOT
ATOM      1  C   UNL A   1      36.546  20.192  25.014  1.00  0.00     0.023 C 
ENDROOT
BRANCH   1   2
ATOM      2  C   UNL A   1      36.177  21.663  25.177  1.00  0.00     0.116 C 
BRANCH   2   3
ATOM      3  N   UNL A   1      35.643  21.902  26.504  1.00  0.00    -0.354 N 
ATOM      4  C   UNL A   1      34.355  21.958  26.932  1.00  0.00     0.245 C 
ATOM      5  O   UNL A   1      34.157  22.361  28.083  1.00  0.00    -0.273 OA
ATOM      6  H   UNL A   1      36.320  22.046  27.204  1.00  0.00     0.163 HD
BRANCH   4   7
ATOM      7  C   UNL A   1      33.169  21.642  26.007  1.00  0.00     0.200 C 
BRANCH   7   8
ATOM      8  C   UNL A   1      33.312  20.184  25.491  1.00  0.00     0.143 C 
ATOM      9  C   UNL A   1      32.512  19.891  24.227  1.00  0.00     0.041 C 
BRANCH   8  10
ATOM     10  O   UNL A   1      32.891  19.282  26.526  1.00  0.00    -0.391 OA
ATOM     11  H   UNL A   1      33.317  18.420  26.396  1.00  0.00     0.211 HD
ENDBRANCH   8  10
ENDBRANCH   7   8
BRANCH   7  12
ATOM     12  N   UNL A   1      31.812  21.831  26.571  1.00  0.00    -0.338 N 
ATOM     13  C   UNL A   1      30.718  22.503  26.086  1.00  0.00     0.252 C 
ATOM     14  H   UNL A   1      31.670  21.401  27.445  1.00  0.00     0.164 HD
ATOM     15  O   UNL A   1      29.596  22.285  26.529  1.00  0.00    -0.269 OA
BRANCH  13  16
ATOM     16  C   UNL A   1      30.905  23.651  25.179  1.00  0.00     0.041 A 
ATOM     17  C   UNL A   1      31.085  23.511  23.806  1.00  0.00     0.015 A 
ATOM     18  C   UNL A   1      31.016  24.907  25.779  1.00  0.00     0.035 A 
ATOM     19  C   UNL A   1      31.487  24.621  23.056  1.00  0.00     0.023 A 
ATOM     20  C   UNL A   1      31.426  26.017  25.027  1.00  0.00     0.086 A 
ATOM     21  C   UNL A   1      31.681  25.873  23.661  1.00  0.00     0.059 A 
ATOM     22  Cl  UNL A   1      32.221  27.144  22.630  1.00  0.00    -0.083 Cl
BRANCH  20  23
ATOM     23  S   UNL A   1      31.812  27.490  25.931  1.00  0.00     0.177 S 
ATOM     24  C   UNL A   1      33.556  27.714  25.796  1.00  0.00     0.164 C 
ATOM     25  O   UNL A   1      31.187  28.592  25.216  1.00  0.00    -0.224 OA
ATOM     26  O   UNL A   1      31.468  27.283  27.321  1.00  0.00    -0.224 OA
ENDBRANCH  20  23
ENDBRANCH  13  16
ENDBRANCH   7  12
ENDBRANCH   4   7
ENDBRANCH   2   3
ENDBRANCH   1   2
BRANCH   1  27
ATOM     27  C   UNL A   1      38.019  19.949  24.665  1.00  0.00     0.023 C 
BRANCH  27  28
ATOM     28  C   UNL A   1      39.000  20.187  25.811  1.00  0.00     0.116 C 
BRANCH  28  29
ATOM     29  N   UNL A   1      40.045  19.177  25.872  1.00  0.00    -0.352 N 
ATOM     30  C   UNL A   1      41.385  19.346  26.130  1.00  0.00     0.251 C 
ATOM     31  H   UNL A   1      39.755  18.251  25.708  1.00  0.00     0.163 HD
ATOM     32  O   UNL A   1      42.166  18.407  26.014  1.00  0.00    -0.269 OA
BRANCH  30  33
ATOM     33  C   UNL A   1      41.883  20.675  26.535  1.00  0.00     0.039 A 
ATOM     34  C   UNL A   1      42.292  21.596  25.574  1.00  0.00     0.014 A 
ATOM     35  C   UNL A   1      41.942  21.007  27.885  1.00  0.00     0.014 A 
ATOM     36  C   UNL A   1      42.708  22.869  25.979  1.00  0.00     0.010 A 
ATOM     37  C   UNL A   1      42.272  22.297  28.284  1.00  0.00     0.010 A 
ATOM     38  C   UNL A   1      42.672  23.243  27.336  1.00  0.00    -0.014 A 
BRANCH  38  39
ATOM     39  C   UNL A   1      43.022  24.622  27.770  1.00  0.00     0.031 A 
ATOM     40  C   UNL A   1      44.460  25.057  27.886  1.00  0.00     0.074 A 
ATOM     41  C   UNL A   1      42.037  25.472  28.123  1.00  0.00     0.049 A 
ATOM     42  N   UNL A   1      44.944  26.222  28.239  1.00  0.00    -0.248 NA
ATOM     43  C   UNL A   1      45.491  24.046  27.599  1.00  0.00     0.031 C 
ATOM     44  C   UNL A   1      40.608  25.153  28.135  1.00  0.00     0.029 A 
ATOM     45  N   UNL A   1      42.088  26.779  28.540  1.00  0.00    -0.354 N 
ATOM     46  C   UNL A   1      46.327  26.082  28.224  1.00  0.00     0.074 A 
ATOM     47  C   UNL A   1      46.605  24.702  27.891  1.00  0.00     0.031 C 
ATOM     48  C   UNL A   1      39.916  26.246  28.493  1.00  0.00     0.029 A 
ATOM     49  C   UNL A   1      40.852  27.329  28.777  1.00  0.00     0.049 A 
ATOM     50  H   UNL A   1      42.931  27.274  28.658  1.00  0.00     0.167 HD
ATOM     51  C   UNL A   1      47.281  27.019  28.443  1.00  0.00     0.031 A 
ATOM     52  C   UNL A   1      40.507  28.569  29.172  1.00  0.00     0.031 A 
ATOM     53  C   UNL A   1      47.004  28.393  28.770  1.00  0.00     0.049 A 
ATOM     54  C   UNL A   1      41.582  29.593  29.403  1.00  0.00     0.074 A 
ATOM     55  C   UNL A   1      47.898  29.437  28.939  1.00  0.00     0.029 A 
ATOM     56  N   UNL A   1      45.737  28.914  28.985  1.00  0.00    -0.354 N 
ATOM     57  N   UNL A   1      42.881  29.470  29.283  1.00  0.00    -0.248 NA
ATOM     58  C   UNL A   1      41.140  30.936  29.805  1.00  0.00     0.031 C 
ATOM     59  C   UNL A   1      47.177  30.575  29.314  1.00  0.00     0.029 A 
ATOM     60  C   UNL A   1      45.828  30.258  29.311  1.00  0.00     0.049 A 
ATOM     61  H   UNL A   1      44.897  28.405  28.917  1.00  0.00     0.167 HD
ATOM     62  C   UNL A   1      43.408  30.724  29.562  1.00  0.00     0.074 A 
ATOM     63  C   UNL A   1      42.287  31.598  29.838  1.00  0.00     0.031 C 
ATOM     64  C   UNL A   1      44.705  31.118  29.583  1.00  0.00     0.031 A 
BRANCH  51  65
ATOM     65  C   UNL A   1      48.720  26.591  28.330  1.00  0.00    -0.014 A 
ATOM     66  C   UNL A   1      49.392  26.612  27.096  1.00  0.00     0.009 A 
ATOM     67  C   UNL A   1      49.431  26.208  29.478  1.00  0.00     0.009 A 
ATOM     68  C   UNL A   1      50.730  26.221  27.009  1.00  0.00     0.001 A 
ATOM     69  C   UNL A   1      50.779  25.850  29.394  1.00  0.00     0.001 A 
ATOM     70  C   UNL A   1      51.423  25.847  28.159  1.00  0.00     0.000 A 
ENDBRANCH  51  65
BRANCH  52  71
ATOM     71  C   UNL A   1      39.072  28.922  29.345  1.00  0.00    -0.014 A 
ATOM     72  C   UNL A   1      38.332  29.443  28.273  1.00  0.00     0.009 A 
ATOM     73  C   UNL A   1      38.437  28.747  30.584  1.00  0.00     0.009 A 
ATOM     74  C   UNL A   1      36.995  29.811  28.446  1.00  0.00     0.001 A 
ATOM     75  C   UNL A   1      37.091  29.084  30.746  1.00  0.00     0.001 A 
ATOM     76  C   UNL A   1      36.376  29.627  29.681  1.00  0.00     0.000 A 
ENDBRANCH  52  71
BRANCH  64  77
ATOM     77  C   UNL A   1      44.981  32.568  29.873  1.00  0.00    -0.014 A 
ATOM     78  C   UNL A   1      45.010  33.529  28.851  1.00  0.00     0.009 A 
ATOM     79  C   UNL A   1      45.179  32.981  31.200  1.00  0.00     0.009 A 
ATOM     80  C   UNL A   1      45.272  34.869  29.149  1.00  0.00     0.001 A 
ATOM     81  C   UNL A   1      45.407  34.325  31.499  1.00  0.00     0.001 A 
ATOM     82  C   UNL A   1      45.464  35.265  30.472  1.00  0.00     0.000 A 
ENDBRANCH  64  77
ENDBRANCH  38  39
ENDBRANCH  30  33
ENDBRANCH  28  29
ENDBRANCH  27  28
ENDBRANCH   1  27
TORSDOF 16
ENDMDL
