MODEL 1
REMARK VINA RESULT:     -11.0      0.000      0.000
REMARK SMILES C[C@@H](C(=O)NCCCCNC(=O)c1ccc(-c2c3nc(c(-c4ccccc4)c4ccc([nH]4)c(-c4ccccc4)c4nc(c(-c5ccccc5)c5ccc2[nH]5)C=C4)C=C3)cc1)c1ccc(C[C@@H]2CCC[C@@H]2O)cc1
REMARK SMILES IDX 6 1 5 2 3 3 4 4 2 6 1 7 61 8 62 9 73 10 63 11 72 12 64 13
REMARK SMILES IDX 65 14 66 15 67 16 70 17 68 18 69 19 71 20 7 22 8 23 9 24
REMARK SMILES IDX 10 25 11 26 12 28 13 29 14 30 60 31 15 32 59 33 16 34 17 35
REMARK SMILES IDX 18 36 53 37 19 38 58 39 52 40 54 41 20 42 57 43 51 44 50 45
REMARK SMILES IDX 21 47 43 48 28 49 42 50 29 51 32 52 41 53 55 54 30 55 31 56
REMARK SMILES IDX 40 58 56 59 33 60 22 61 23 62 27 63 24 64 26 65 25 66 44 67
REMARK SMILES IDX 45 68 49 69 46 70 48 71 47 72 34 73 35 74 39 75 36 76 38 77
REMARK SMILES IDX 37 78
REMARK H PARENT 5 5 71 21 10 27 54 46 32 57
REMARK Flexibility Score: inf
ROOT
ATOM      1  C   UNL A   1      35.897  20.772  25.381  1.00  0.00     0.116 C 
ENDROOT
BRANCH   1   2
ATOM      2  N   UNL A   1      34.799  21.088  24.493  1.00  0.00    -0.356 N 
ATOM      3  C   UNL A   1      33.839  22.056  24.604  1.00  0.00     0.227 C 
ATOM      4  O   UNL A   1      32.826  21.879  23.925  1.00  0.00    -0.274 OA
ATOM      5  H   UNL A   1      34.733  20.523  23.689  1.00  0.00     0.163 HD
BRANCH   3   6
ATOM      6  C   UNL A   1      34.062  23.250  25.554  1.00  0.00     0.105 C 
ATOM      7  C   UNL A   1      33.033  23.137  26.693  1.00  0.00     0.023 C 
BRANCH   6   8
ATOM      8  C   UNL A   1      33.997  24.650  24.928  1.00  0.00    -0.036 A 
ATOM      9  C   UNL A   1      34.032  25.785  25.760  1.00  0.00     0.005 A 
ATOM     10  C   UNL A   1      33.879  24.876  23.552  1.00  0.00     0.005 A 
ATOM     11  C   UNL A   1      33.776  27.063  25.260  1.00  0.00     0.004 A 
ATOM     12  C   UNL A   1      33.602  26.152  23.051  1.00  0.00     0.004 A 
ATOM     13  C   UNL A   1      33.478  27.246  23.910  1.00  0.00    -0.048 A 
BRANCH  13  14
ATOM     14  C   UNL A   1      32.980  28.569  23.389  1.00  0.00     0.041 C 
BRANCH  14  15
ATOM     15  C   UNL A   1      31.572  29.033  23.839  1.00  0.00     0.022 C 
ATOM     16  C   UNL A   1      30.771  27.999  24.639  1.00  0.00     0.007 C 
ATOM     17  C   UNL A   1      30.575  29.452  22.750  1.00  0.00     0.117 C 
ATOM     18  C   UNL A   1      29.758  27.375  23.672  1.00  0.00     0.003 C 
ATOM     19  C   UNL A   1      29.840  28.173  22.376  1.00  0.00     0.032 C 
BRANCH  17  20
ATOM     20  O   UNL A   1      31.165  30.076  21.630  1.00  0.00    -0.393 OA
ATOM     21  H   UNL A   1      31.480  29.397  21.012  1.00  0.00     0.210 HD
ENDBRANCH  17  20
ENDBRANCH  14  15
ENDBRANCH  13  14
ENDBRANCH   6   8
ENDBRANCH   3   6
ENDBRANCH   1   2
BRANCH   1  22
ATOM     22  C   UNL A   1      37.226  20.761  24.618  1.00  0.00     0.023 C 
BRANCH  22  23
ATOM     23  C   UNL A   1      38.160  19.597  24.960  1.00  0.00     0.023 C 
BRANCH  23  24
ATOM     24  C   UNL A   1      39.275  19.931  25.940  1.00  0.00     0.116 C 
BRANCH  24  25
ATOM     25  N   UNL A   1      40.392  19.004  25.853  1.00  0.00    -0.352 N 
ATOM     26  C   UNL A   1      41.733  19.239  26.005  1.00  0.00     0.251 C 
ATOM     27  H   UNL A   1      40.149  18.071  25.656  1.00  0.00     0.163 HD
ATOM     28  O   UNL A   1      42.541  18.347  25.749  1.00  0.00    -0.269 OA
BRANCH  26  29
ATOM     29  C   UNL A   1      42.215  20.565  26.442  1.00  0.00     0.039 A 
ATOM     30  C   UNL A   1      42.618  21.481  25.466  1.00  0.00     0.014 A 
ATOM     31  C   UNL A   1      42.276  20.910  27.796  1.00  0.00     0.014 A 
ATOM     32  C   UNL A   1      43.024  22.761  25.845  1.00  0.00     0.010 A 
ATOM     33  C   UNL A   1      42.611  22.210  28.167  1.00  0.00     0.010 A 
ATOM     34  C   UNL A   1      42.989  23.149  27.196  1.00  0.00    -0.014 A 
BRANCH  34  35
ATOM     35  C   UNL A   1      43.323  24.541  27.589  1.00  0.00     0.031 A 
ATOM     36  C   UNL A   1      44.754  25.001  27.641  1.00  0.00     0.074 A 
ATOM     37  C   UNL A   1      42.330  25.385  27.930  1.00  0.00     0.049 A 
ATOM     38  N   UNL A   1      45.227  26.182  27.952  1.00  0.00    -0.248 NA
ATOM     39  C   UNL A   1      45.789  24.006  27.322  1.00  0.00     0.031 C 
ATOM     40  C   UNL A   1      40.904  25.046  27.969  1.00  0.00     0.029 A 
ATOM     41  N   UNL A   1      42.366  26.704  28.305  1.00  0.00    -0.354 N 
ATOM     42  C   UNL A   1      46.609  26.071  27.866  1.00  0.00     0.074 A 
ATOM     43  C   UNL A   1      46.902  24.694  27.529  1.00  0.00     0.031 C 
ATOM     44  C   UNL A   1      40.202  26.138  28.311  1.00  0.00     0.029 A 
ATOM     45  C   UNL A   1      41.125  27.240  28.552  1.00  0.00     0.049 A 
ATOM     46  H   UNL A   1      43.203  27.218  28.388  1.00  0.00     0.167 HD
ATOM     47  C   UNL A   1      47.550  27.032  28.028  1.00  0.00     0.031 A 
ATOM     48  C   UNL A   1      40.770  28.482  28.931  1.00  0.00     0.031 A 
ATOM     49  C   UNL A   1      47.260  28.401  28.365  1.00  0.00     0.049 A 
ATOM     50  C   UNL A   1      41.837  29.525  29.117  1.00  0.00     0.074 A 
ATOM     51  C   UNL A   1      48.144  29.458  28.513  1.00  0.00     0.029 A 
ATOM     52  N   UNL A   1      45.993  28.905  28.607  1.00  0.00    -0.354 N 
ATOM     53  N   UNL A   1      43.135  29.418  28.960  1.00  0.00    -0.248 NA
ATOM     54  C   UNL A   1      41.386  30.864  29.518  1.00  0.00     0.031 C 
ATOM     55  C   UNL A   1      47.415  30.589  28.892  1.00  0.00     0.029 A 
ATOM     56  C   UNL A   1      46.071  30.251  28.924  1.00  0.00     0.049 A 
ATOM     57  H   UNL A   1      45.159  28.383  28.561  1.00  0.00     0.167 HD
ATOM     58  C   UNL A   1      43.651  30.682  29.221  1.00  0.00     0.074 A 
ATOM     59  C   UNL A   1      42.523  31.543  29.515  1.00  0.00     0.031 C 
ATOM     60  C   UNL A   1      44.942  31.092  29.221  1.00  0.00     0.031 A 
BRANCH  47  61
ATOM     61  C   UNL A   1      48.988  26.637  27.837  1.00  0.00    -0.014 A 
ATOM     62  C   UNL A   1      49.590  26.697  26.571  1.00  0.00     0.009 A 
ATOM     63  C   UNL A   1      49.766  26.259  28.941  1.00  0.00     0.009 A 
ATOM     64  C   UNL A   1      50.936  26.360  26.410  1.00  0.00     0.001 A 
ATOM     65  C   UNL A   1      51.118  25.949  28.783  1.00  0.00     0.001 A 
ATOM     66  C   UNL A   1      51.700  25.993  27.517  1.00  0.00     0.000 A 
ENDBRANCH  47  61
BRANCH  48  67
ATOM     67  C   UNL A   1      39.339  28.819  29.155  1.00  0.00    -0.014 A 
ATOM     68  C   UNL A   1      38.555  29.341  28.115  1.00  0.00     0.009 A 
ATOM     69  C   UNL A   1      38.759  28.649  30.422  1.00  0.00     0.009 A 
ATOM     70  C   UNL A   1      37.232  29.723  28.349  1.00  0.00     0.001 A 
ATOM     71  C   UNL A   1      37.426  29.001  30.644  1.00  0.00     0.001 A 
ATOM     72  C   UNL A   1      36.668  29.551  29.612  1.00  0.00     0.000 A 
ENDBRANCH  48  67
BRANCH  60  73
ATOM     73  C   UNL A   1      45.194  32.542  29.525  1.00  0.00    -0.014 A 
ATOM     74  C   UNL A   1      45.135  33.519  28.518  1.00  0.00     0.009 A 
ATOM     75  C   UNL A   1      45.486  32.937  30.839  1.00  0.00     0.009 A 
ATOM     76  C   UNL A   1      45.410  34.855  28.814  1.00  0.00     0.001 A 
ATOM     77  C   UNL A   1      45.728  34.279  31.138  1.00  0.00     0.001 A 
ATOM     78  C   UNL A   1      45.703  35.235  30.124  1.00  0.00     0.000 A 
ENDBRANCH  60  73
ENDBRANCH  34  35
ENDBRANCH  26  29
ENDBRANCH  24  25
ENDBRANCH  23  24
ENDBRANCH  22  23
ENDBRANCH   1  22
TORSDOF 15
ENDMDL
MODEL 2
REMARK VINA RESULT:     -11.0      2.539      8.004
REMARK SMILES C[C@@H](C(=O)NCCCCNC(=O)c1ccc(-c2c3nc(c(-c4ccccc4)c4ccc([nH]4)c(-c4ccccc4)c4nc(c(-c5ccccc5)c5ccc2[nH]5)C=C4)C=C3)cc1)c1ccc(C[C@@H]2CCC[C@@H]2O)cc1
REMARK SMILES IDX 6 1 5 2 3 3 4 4 2 6 1 7 61 8 62 9 73 10 63 11 72 12 64 13
REMARK SMILES IDX 65 14 66 15 67 16 70 17 68 18 69 19 71 20 7 22 8 23 9 24
REMARK SMILES IDX 10 25 11 26 12 28 13 29 14 30 60 31 15 32 59 33 16 34 17 35
REMARK SMILES IDX 18 36 53 37 19 38 58 39 52 40 54 41 20 42 57 43 51 44 50 45
REMARK SMILES IDX 21 47 43 48 28 49 42 50 29 51 32 52 41 53 55 54 30 55 31 56
REMARK SMILES IDX 40 58 56 59 33 60 22 61 23 62 27 63 24 64 26 65 25 66 44 67
REMARK SMILES IDX 45 68 49 69 46 70 48 71 47 72 34 73 35 74 39 75 36 76 38 77
REMARK SMILES IDX 37 78
REMARK H PARENT 5 5 71 21 10 27 54 46 32 57
REMARK Flexibility Score: inf
ROOT
ATOM      1  C   UNL A   1      31.155  29.024  24.336  1.00  0.00     0.116 C 
ENDROOT
BRANCH   1   2
ATOM      2  N   UNL A   1      30.689  27.657  24.426  1.00  0.00    -0.356 N 
ATOM      3  C   UNL A   1      31.108  26.547  23.746  1.00  0.00     0.227 C 
ATOM      4  O   UNL A   1      30.317  25.602  23.734  1.00  0.00    -0.274 OA
ATOM      5  H   UNL A   1      29.963  27.503  25.073  1.00  0.00     0.163 HD
BRANCH   3   6
ATOM      6  C   UNL A   1      32.480  26.553  23.042  1.00  0.00     0.105 C 
ATOM      7  C   UNL A   1      32.227  26.422  21.529  1.00  0.00     0.023 C 
BRANCH   6   8
ATOM      8  C   UNL A   1      33.492  25.492  23.495  1.00  0.00    -0.036 A 
ATOM      9  C   UNL A   1      33.726  24.364  22.685  1.00  0.00     0.005 A 
ATOM     10  C   UNL A   1      34.198  25.563  24.701  1.00  0.00     0.005 A 
ATOM     11  C   UNL A   1      34.480  23.282  23.143  1.00  0.00     0.004 A 
ATOM     12  C   UNL A   1      34.936  24.472  25.171  1.00  0.00     0.004 A 
ATOM     13  C   UNL A   1      35.025  23.294  24.427  1.00  0.00    -0.048 A 
BRANCH  13  14
ATOM     14  C   UNL A   1      35.647  22.060  25.027  1.00  0.00     0.041 C 
BRANCH  14  15
ATOM     15  C   UNL A   1      34.695  21.006  25.645  1.00  0.00     0.022 C 
ATOM     16  C   UNL A   1      33.567  20.527  24.723  1.00  0.00     0.007 C 
ATOM     17  C   UNL A   1      33.936  21.389  26.923  1.00  0.00     0.117 C 
ATOM     18  C   UNL A   1      32.295  21.263  25.155  1.00  0.00     0.003 C 
ATOM     19  C   UNL A   1      32.637  22.017  26.436  1.00  0.00     0.032 C 
BRANCH  17  20
ATOM     20  O   UNL A   1      34.649  22.245  27.789  1.00  0.00    -0.393 OA
ATOM     21  H   UNL A   1      34.262  23.134  27.756  1.00  0.00     0.210 HD
ENDBRANCH  17  20
ENDBRANCH  14  15
ENDBRANCH  13  14
ENDBRANCH   6   8
ENDBRANCH   3   6
ENDBRANCH   1   2
BRANCH   1  22
ATOM     22  C   UNL A   1      31.659  29.516  25.697  1.00  0.00     0.023 C 
BRANCH  22  23
ATOM     23  C   UNL A   1      32.254  28.430  26.598  1.00  0.00     0.023 C 
BRANCH  23  24
ATOM     24  C   UNL A   1      33.550  28.813  27.299  1.00  0.00     0.116 C 
BRANCH  24  25
ATOM     25  N   UNL A   1      33.565  30.201  27.729  1.00  0.00    -0.352 N 
ATOM     26  C   UNL A   1      34.560  30.912  28.347  1.00  0.00     0.251 C 
ATOM     27  H   UNL A   1      32.738  30.705  27.550  1.00  0.00     0.163 HD
ATOM     28  O   UNL A   1      34.330  32.046  28.766  1.00  0.00    -0.269 OA
BRANCH  26  29
ATOM     29  C   UNL A   1      35.896  30.313  28.542  1.00  0.00     0.039 A 
ATOM     30  C   UNL A   1      36.808  30.362  27.486  1.00  0.00     0.014 A 
ATOM     31  C   UNL A   1      36.253  29.703  29.750  1.00  0.00     0.014 A 
ATOM     32  C   UNL A   1      38.097  29.855  27.660  1.00  0.00     0.010 A 
ATOM     33  C   UNL A   1      37.560  29.265  29.947  1.00  0.00     0.010 A 
ATOM     34  C   UNL A   1      38.495  29.335  28.904  1.00  0.00    -0.014 A 
BRANCH  34  35
ATOM     35  C   UNL A   1      39.894  28.890  29.121  1.00  0.00     0.031 A 
ATOM     36  C   UNL A   1      40.901  29.806  29.760  1.00  0.00     0.074 A 
ATOM     37  C   UNL A   1      40.265  27.661  28.710  1.00  0.00     0.049 A 
ATOM     38  N   UNL A   1      42.162  29.579  30.035  1.00  0.00    -0.248 NA
ATOM     39  C   UNL A   1      40.443  31.156  30.120  1.00  0.00     0.031 C 
ATOM     40  C   UNL A   1      39.395  26.696  28.031  1.00  0.00     0.029 A 
ATOM     41  N   UNL A   1      41.469  27.011  28.807  1.00  0.00    -0.354 N 
ATOM     42  C   UNL A   1      42.644  30.753  30.599  1.00  0.00     0.074 A 
ATOM     43  C   UNL A   1      41.558  31.710  30.575  1.00  0.00     0.031 C 
ATOM     44  C   UNL A   1      40.085  25.566  27.806  1.00  0.00     0.029 A 
ATOM     45  C   UNL A   1      41.450  25.738  28.288  1.00  0.00     0.049 A 
ATOM     46  H   UNL A   1      42.270  27.417  29.211  1.00  0.00     0.167 HD
ATOM     47  C   UNL A   1      43.872  31.007  31.111  1.00  0.00     0.031 A 
ATOM     48  C   UNL A   1      42.425  24.813  28.209  1.00  0.00     0.031 A 
ATOM     49  C   UNL A   1      44.953  30.057  31.134  1.00  0.00     0.049 A 
ATOM     50  C   UNL A   1      43.782  25.127  28.775  1.00  0.00     0.074 A 
ATOM     51  C   UNL A   1      46.223  30.210  31.668  1.00  0.00     0.029 A 
ATOM     52  N   UNL A   1      44.895  28.781  30.600  1.00  0.00    -0.354 N 
ATOM     53  N   UNL A   1      44.198  26.220  29.370  1.00  0.00    -0.248 NA
ATOM     54  C   UNL A   1      44.799  24.073  28.671  1.00  0.00     0.031 C 
ATOM     55  C   UNL A   1      46.947  29.041  31.412  1.00  0.00     0.029 A 
ATOM     56  C   UNL A   1      46.112  28.140  30.771  1.00  0.00     0.049 A 
ATOM     57  H   UNL A   1      44.106  28.387  30.162  1.00  0.00     0.167 HD
ATOM     58  C   UNL A   1      45.516  25.974  29.730  1.00  0.00     0.074 A 
ATOM     59  C   UNL A   1      45.820  24.620  29.314  1.00  0.00     0.031 C 
ATOM     60  C   UNL A   1      46.400  26.796  30.346  1.00  0.00     0.031 A 
BRANCH  47  61
ATOM     61  C   UNL A   1      44.112  32.369  31.699  1.00  0.00    -0.014 A 
ATOM     62  C   UNL A   1      44.571  33.429  30.901  1.00  0.00     0.009 A 
ATOM     63  C   UNL A   1      43.821  32.615  33.049  1.00  0.00     0.009 A 
ATOM     64  C   UNL A   1      44.759  34.700  31.449  1.00  0.00     0.001 A 
ATOM     65  C   UNL A   1      43.982  33.892  33.589  1.00  0.00     0.001 A 
ATOM     66  C   UNL A   1      44.458  34.931  32.791  1.00  0.00     0.000 A 
ENDBRANCH  47  61
BRANCH  48  67
ATOM     67  C   UNL A   1      42.159  23.494  27.577  1.00  0.00    -0.014 A 
ATOM     68  C   UNL A   1      41.605  22.441  28.322  1.00  0.00     0.009 A 
ATOM     69  C   UNL A   1      42.488  23.272  26.231  1.00  0.00     0.009 A 
ATOM     70  C   UNL A   1      41.424  21.183  27.743  1.00  0.00     0.001 A 
ATOM     71  C   UNL A   1      42.274  22.021  25.646  1.00  0.00     0.001 A 
ATOM     72  C   UNL A   1      41.756  20.975  26.406  1.00  0.00     0.000 A 
ENDBRANCH  48  67
BRANCH  60  73
ATOM     73  C   UNL A   1      47.766  26.238  30.627  1.00  0.00    -0.014 A 
ATOM     74  C   UNL A   1      48.754  26.189  29.630  1.00  0.00     0.009 A 
ATOM     75  C   UNL A   1      48.074  25.764  31.912  1.00  0.00     0.009 A 
ATOM     76  C   UNL A   1      50.004  25.631  29.902  1.00  0.00     0.001 A 
ATOM     77  C   UNL A   1      49.336  25.238  32.190  1.00  0.00     0.001 A 
ATOM     78  C   UNL A   1      50.296  25.160  31.181  1.00  0.00     0.000 A 
ENDBRANCH  60  73
ENDBRANCH  34  35
ENDBRANCH  26  29
ENDBRANCH  24  25
ENDBRANCH  23  24
ENDBRANCH  22  23
ENDBRANCH   1  22
TORSDOF 15
ENDMDL
MODEL 3
REMARK VINA RESULT:     -11.0      4.562      9.672
REMARK SMILES C[C@@H](C(=O)NCCCCNC(=O)c1ccc(-c2c3nc(c(-c4ccccc4)c4ccc([nH]4)c(-c4ccccc4)c4nc(c(-c5ccccc5)c5ccc2[nH]5)C=C4)C=C3)cc1)c1ccc(C[C@@H]2CCC[C@@H]2O)cc1
REMARK SMILES IDX 6 1 5 2 3 3 4 4 2 6 1 7 61 8 62 9 73 10 63 11 72 12 64 13
REMARK SMILES IDX 65 14 66 15 67 16 70 17 68 18 69 19 71 20 7 22 8 23 9 24
REMARK SMILES IDX 10 25 11 26 12 28 13 29 14 30 60 31 15 32 59 33 16 34 17 35
REMARK SMILES IDX 18 36 53 37 19 38 58 39 52 40 54 41 20 42 57 43 51 44 50 45
REMARK SMILES IDX 21 47 43 48 28 49 42 50 29 51 32 52 41 53 55 54 30 55 31 56
REMARK SMILES IDX 40 58 56 59 33 60 22 61 23 62 27 63 24 64 26 65 25 66 44 67
REMARK SMILES IDX 45 68 49 69 46 70 48 71 47 72 34 73 35 74 39 75 36 76 38 77
REMARK SMILES IDX 37 78
REMARK H PARENT 5 5 71 21 10 27 54 46 32 57
REMARK Flexibility Score: inf
ROOT
ATOM      1  C   UNL A   1      33.526  30.470  26.896  1.00  0.00     0.116 C 
ENDROOT
BRANCH   1   2
ATOM      2  N   UNL A   1      32.727  29.517  27.637  1.00  0.00    -0.356 N 
ATOM      3  C   UNL A   1      32.000  28.451  27.185  1.00  0.00     0.227 C 
ATOM      4  O   UNL A   1      31.132  28.036  27.956  1.00  0.00    -0.274 OA
ATOM      5  H   UNL A   1      32.704  29.657  28.612  1.00  0.00     0.163 HD
BRANCH   3   6
ATOM      6  C   UNL A   1      32.280  27.871  25.784  1.00  0.00     0.105 C 
ATOM      7  C   UNL A   1      30.977  27.969  24.971  1.00  0.00     0.023 C 
BRANCH   6   8
ATOM      8  C   UNL A   1      32.824  26.437  25.728  1.00  0.00    -0.036 A 
ATOM      9  C   UNL A   1      32.024  25.373  26.185  1.00  0.00     0.005 A 
ATOM     10  C   UNL A   1      34.103  26.114  25.262  1.00  0.00     0.005 A 
ATOM     11  C   UNL A   1      32.543  24.086  26.341  1.00  0.00     0.004 A 
ATOM     12  C   UNL A   1      34.632  24.831  25.436  1.00  0.00     0.004 A 
ATOM     13  C   UNL A   1      33.879  23.823  26.042  1.00  0.00    -0.048 A 
BRANCH  13  14
ATOM     14  C   UNL A   1      34.521  22.511  26.410  1.00  0.00     0.041 C 
BRANCH  14  15
ATOM     15  C   UNL A   1      34.473  21.370  25.363  1.00  0.00     0.022 C 
ATOM     16  C   UNL A   1      34.134  21.813  23.934  1.00  0.00     0.007 C 
ATOM     17  C   UNL A   1      33.479  20.224  25.597  1.00  0.00     0.117 C 
ATOM     18  C   UNL A   1      32.658  21.474  23.701  1.00  0.00     0.003 C 
ATOM     19  C   UNL A   1      32.195  20.670  24.911  1.00  0.00     0.032 C 
BRANCH  17  20
ATOM     20  O   UNL A   1      33.273  19.902  26.955  1.00  0.00    -0.393 OA
ATOM     21  H   UNL A   1      33.795  19.117  27.184  1.00  0.00     0.210 HD
ENDBRANCH  17  20
ENDBRANCH  14  15
ENDBRANCH  13  14
ENDBRANCH   6   8
ENDBRANCH   3   6
ENDBRANCH   1   2
BRANCH   1  22
ATOM     22  C   UNL A   1      33.899  31.667  27.777  1.00  0.00     0.023 C 
BRANCH  22  23
ATOM     23  C   UNL A   1      32.907  32.833  27.739  1.00  0.00     0.023 C 
BRANCH  23  24
ATOM     24  C   UNL A   1      33.519  34.208  27.967  1.00  0.00     0.116 C 
BRANCH  24  25
ATOM     25  N   UNL A   1      33.137  34.784  29.246  1.00  0.00    -0.352 N 
ATOM     26  C   UNL A   1      33.655  34.556  30.494  1.00  0.00     0.251 C 
ATOM     27  H   UNL A   1      32.398  35.433  29.210  1.00  0.00     0.163 HD
ATOM     28  O   UNL A   1      33.099  35.034  31.482  1.00  0.00    -0.269 OA
BRANCH  26  29
ATOM     29  C   UNL A   1      34.856  33.714  30.662  1.00  0.00     0.039 A 
ATOM     30  C   UNL A   1      36.055  34.142  30.087  1.00  0.00     0.014 A 
ATOM     31  C   UNL A   1      34.811  32.511  31.375  1.00  0.00     0.014 A 
ATOM     32  C   UNL A   1      37.219  33.395  30.277  1.00  0.00     0.010 A 
ATOM     33  C   UNL A   1      35.986  31.807  31.626  1.00  0.00     0.010 A 
ATOM     34  C   UNL A   1      37.202  32.241  31.079  1.00  0.00    -0.014 A 
BRANCH  34  35
ATOM     35  C   UNL A   1      38.458  31.504  31.366  1.00  0.00     0.031 A 
ATOM     36  C   UNL A   1      39.317  31.879  32.542  1.00  0.00     0.074 A 
ATOM     37  C   UNL A   1      38.841  30.510  30.540  1.00  0.00     0.049 A 
ATOM     38  N   UNL A   1      40.439  31.338  32.946  1.00  0.00    -0.248 NA
ATOM     39  C   UNL A   1      38.872  33.018  33.359  1.00  0.00     0.031 C 
ATOM     40  C   UNL A   1      38.121  30.083  29.336  1.00  0.00     0.029 A 
ATOM     41  N   UNL A   1      39.928  29.674  30.590  1.00  0.00    -0.354 N 
ATOM     42  C   UNL A   1      40.831  32.068  34.061  1.00  0.00     0.074 A 
ATOM     43  C   UNL A   1      39.859  33.126  34.237  1.00  0.00     0.031 C 
ATOM     44  C   UNL A   1      38.768  29.043  28.784  1.00  0.00     0.029 A 
ATOM     45  C   UNL A   1      39.962  28.755  29.569  1.00  0.00     0.049 A 
ATOM     46  H   UNL A   1      40.617  29.728  31.291  1.00  0.00     0.167 HD
ATOM     47  C   UNL A   1      41.891  31.864  34.880  1.00  0.00     0.031 A 
ATOM     48  C   UNL A   1      40.857  27.787  29.295  1.00  0.00     0.031 A 
ATOM     49  C   UNL A   1      42.859  30.814  34.706  1.00  0.00     0.049 A 
ATOM     50  C   UNL A   1      42.031  27.593  30.213  1.00  0.00     0.074 A 
ATOM     51  C   UNL A   1      43.947  30.503  35.507  1.00  0.00     0.029 A 
ATOM     52  N   UNL A   1      42.860  29.904  33.661  1.00  0.00    -0.354 N 
ATOM     53  N   UNL A   1      42.345  28.249  31.305  1.00  0.00    -0.248 NA
ATOM     54  C   UNL A   1      42.965  26.513  29.869  1.00  0.00     0.031 C 
ATOM     55  C   UNL A   1      44.632  29.435  34.918  1.00  0.00     0.029 A 
ATOM     56  C   UNL A   1      43.940  29.044  33.783  1.00  0.00     0.049 A 
ATOM     57  H   UNL A   1      42.193  29.874  32.938  1.00  0.00     0.167 HD
ATOM     58  C   UNL A   1      43.499  27.645  31.788  1.00  0.00     0.074 A 
ATOM     59  C   UNL A   1      43.810  26.553  30.888  1.00  0.00     0.031 C 
ATOM     60  C   UNL A   1      44.239  27.968  32.876  1.00  0.00     0.031 A 
BRANCH  47  61
ATOM     61  C   UNL A   1      42.057  32.796  36.048  1.00  0.00    -0.014 A 
ATOM     62  C   UNL A   1      42.787  33.988  35.922  1.00  0.00     0.009 A 
ATOM     63  C   UNL A   1      41.429  32.511  37.270  1.00  0.00     0.009 A 
ATOM     64  C   UNL A   1      42.907  34.864  37.003  1.00  0.00     0.001 A 
ATOM     65  C   UNL A   1      41.527  33.400  38.342  1.00  0.00     0.001 A 
ATOM     66  C   UNL A   1      42.271  34.572  38.210  1.00  0.00     0.000 A 
ENDBRANCH  47  61
BRANCH  48  67
ATOM     67  C   UNL A   1      40.681  26.917  28.102  1.00  0.00    -0.014 A 
ATOM     68  C   UNL A   1      39.840  25.795  28.152  1.00  0.00     0.009 A 
ATOM     69  C   UNL A   1      41.379  27.189  26.915  1.00  0.00     0.009 A 
ATOM     70  C   UNL A   1      39.734  24.940  27.052  1.00  0.00     0.001 A 
ATOM     71  C   UNL A   1      41.245  26.351  25.806  1.00  0.00     0.001 A 
ATOM     72  C   UNL A   1      40.434  25.220  25.880  1.00  0.00     0.000 A 
ENDBRANCH  48  67
BRANCH  60  73
ATOM     73  C   UNL A   1      45.439  27.110  33.162  1.00  0.00    -0.014 A 
ATOM     74  C   UNL A   1      46.706  27.434  32.651  1.00  0.00     0.009 A 
ATOM     75  C   UNL A   1      45.301  25.965  33.962  1.00  0.00     0.009 A 
ATOM     76  C   UNL A   1      47.800  26.603  32.897  1.00  0.00     0.001 A 
ATOM     77  C   UNL A   1      46.404  25.154  34.234  1.00  0.00     0.001 A 
ATOM     78  C   UNL A   1      47.650  25.466  33.690  1.00  0.00     0.000 A 
ENDBRANCH  60  73
ENDBRANCH  34  35
ENDBRANCH  26  29
ENDBRANCH  24  25
ENDBRANCH  23  24
ENDBRANCH  22  23
ENDBRANCH   1  22
TORSDOF 15
ENDMDL
