MODEL 1
REMARK VINA RESULT:     -11.6      0.000      0.000
REMARK SMILES O=C(NCCCCNC(=O)c1ccc(-c2c3nc(c(-c4ccccc4)c4ccc([nH]4)c(-c4ccccc4)c4nc(c(-c5ccccc5)c5ccc2[nH]5)C=C4)C=C3)cc1)C1=Cc2cc(OC(F)(F)F)ccc2O[C@@H]1C(F)(F)F
REMARK SMILES IDX 5 1 4 2 3 3 1 4 2 5 59 7 60 8 73 9 61 10 72 11 62 12 71 13
REMARK SMILES IDX 63 14 70 15 69 16 74 17 75 18 76 19 77 20 64 21 65 22 66 23
REMARK SMILES IDX 67 24 68 25 6 26 7 27 8 28 9 29 10 31 11 32 12 33 58 34
REMARK SMILES IDX 13 35 57 36 14 37 15 38 16 39 51 40 17 41 56 42 50 43 52 44
REMARK SMILES IDX 18 45 55 46 49 47 48 48 19 50 41 51 26 52 40 53 27 54 30 55
REMARK SMILES IDX 39 56 53 57 28 58 29 59 38 61 54 62 31 63 20 64 21 65 25 66
REMARK SMILES IDX 22 67 24 68 23 69 42 70 43 71 47 72 44 73 46 74 45 75 32 76
REMARK SMILES IDX 33 77 37 78 34 79 36 80 35 81
REMARK H PARENT 3 6 8 30 52 49 30 60
REMARK Flexibility Score: inf
ROOT
ATOM      1  C   UNL A   1      36.664  20.857  25.082  1.00  0.00     0.023 C 
ENDROOT
BRANCH   1   2
ATOM      2  C   UNL A   1      36.924  22.279  24.586  1.00  0.00     0.116 C 
BRANCH   2   3
ATOM      3  N   UNL A   1      36.022  22.723  23.522  1.00  0.00    -0.352 N 
ATOM      4  O   UNL A   1      34.363  23.967  22.600  1.00  0.00    -0.270 OA
ATOM      5  C   UNL A   1      34.882  23.494  23.604  1.00  0.00     0.251 C 
ATOM      6  H   UNL A   1      36.264  22.427  22.614  1.00  0.00     0.163 HD
BRANCH   5   7
ATOM      7  C   UNL A   1      34.381  23.851  24.949  1.00  0.00     0.067 C 
ATOM      8  C   UNL A   1      34.575  25.089  25.427  1.00  0.00     0.025 C 
ATOM      9  C   UNL A   1      33.365  22.933  25.559  1.00  0.00     0.314 C 
ATOM     10  C   UNL A   1      33.308  25.702  25.880  1.00  0.00     0.021 A 
ATOM     11  O   UNL A   1      32.079  23.585  25.674  1.00  0.00    -0.475 OA
ATOM     12  C   UNL A   1      33.227  27.101  25.898  1.00  0.00     0.058 A 
ATOM     13  C   UNL A   1      32.118  24.949  25.840  1.00  0.00     0.128 A 
ATOM     14  C   UNL A   1      31.987  27.737  25.772  1.00  0.00     0.130 A 
ATOM     15  C   UNL A   1      30.881  25.586  25.780  1.00  0.00     0.051 A 
ATOM     16  C   UNL A   1      30.816  26.978  25.726  1.00  0.00     0.050 A 
BRANCH   9  17
ATOM     17  C   UNL A   1      33.834  22.380  26.918  1.00  0.00     0.429 C 
ATOM     18  F   UNL A   1      35.074  22.833  27.226  1.00  0.00    -0.167 F 
ATOM     19  F   UNL A   1      33.016  22.764  27.926  1.00  0.00    -0.167 F 
ATOM     20  F   UNL A   1      33.888  21.027  26.941  1.00  0.00    -0.167 F 
ENDBRANCH   9  17
BRANCH  14  21
ATOM     21  O   UNL A   1      32.027  29.102  25.689  1.00  0.00    -0.406 OA
BRANCH  21  22
ATOM     22  C   UNL A   1      31.996  29.783  26.941  1.00  0.00     0.573 C 
ATOM     23  F   UNL A   1      31.379  29.024  27.875  1.00  0.00    -0.132 F 
ATOM     24  F   UNL A   1      33.241  30.102  27.345  1.00  0.00    -0.132 F 
ATOM     25  F   UNL A   1      31.292  30.926  26.787  1.00  0.00    -0.132 F 
ENDBRANCH  21  22
ENDBRANCH  14  21
ENDBRANCH   5   7
ENDBRANCH   2   3
ENDBRANCH   1   2
BRANCH   1  26
ATOM     26  C   UNL A   1      37.843  19.898  24.953  1.00  0.00     0.023 C 
BRANCH  26  27
ATOM     27  C   UNL A   1      39.084  20.219  25.785  1.00  0.00     0.116 C 
BRANCH  27  28
ATOM     28  N   UNL A   1      40.158  19.240  25.708  1.00  0.00    -0.352 N 
ATOM     29  C   UNL A   1      41.474  19.381  26.097  1.00  0.00     0.251 C 
ATOM     30  H   UNL A   1      39.915  18.365  25.327  1.00  0.00     0.163 HD
ATOM     31  O   UNL A   1      42.271  18.454  25.972  1.00  0.00    -0.269 OA
BRANCH  29  32
ATOM     32  C   UNL A   1      41.943  20.682  26.620  1.00  0.00     0.039 A 
ATOM     33  C   UNL A   1      42.357  21.660  25.711  1.00  0.00     0.014 A 
ATOM     34  C   UNL A   1      41.915  20.958  27.989  1.00  0.00     0.014 A 
ATOM     35  C   UNL A   1      42.661  22.943  26.169  1.00  0.00     0.010 A 
ATOM     36  C   UNL A   1      42.140  22.257  28.433  1.00  0.00     0.010 A 
ATOM     37  C   UNL A   1      42.515  23.263  27.529  1.00  0.00    -0.014 A 
BRANCH  37  38
ATOM     38  C   UNL A   1      42.775  24.639  28.024  1.00  0.00     0.031 A 
ATOM     39  C   UNL A   1      44.181  25.061  28.353  1.00  0.00     0.074 A 
ATOM     40  C   UNL A   1      41.750  25.490  28.223  1.00  0.00     0.049 A 
ATOM     41  N   UNL A   1      44.610  26.197  28.841  1.00  0.00    -0.248 NA
ATOM     42  C   UNL A   1      45.242  24.066  28.127  1.00  0.00     0.031 C 
ATOM     43  C   UNL A   1      40.334  25.188  27.992  1.00  0.00     0.029 A 
ATOM     44  N   UNL A   1      41.742  26.788  28.670  1.00  0.00    -0.354 N 
ATOM     45  C   UNL A   1      45.982  26.046  28.993  1.00  0.00     0.074 A 
ATOM     46  C   UNL A   1      46.307  24.691  28.602  1.00  0.00     0.031 C 
ATOM     47  C   UNL A   1      39.601  26.279  28.272  1.00  0.00     0.029 A 
ATOM     48  C   UNL A   1      40.486  27.345  28.727  1.00  0.00     0.049 A 
ATOM     49  H   UNL A   1      42.559  27.274  28.926  1.00  0.00     0.167 HD
ATOM     50  C   UNL A   1      46.899  26.959  29.391  1.00  0.00     0.031 A 
ATOM     51  C   UNL A   1      40.097  28.579  29.099  1.00  0.00     0.031 A 
ATOM     52  C   UNL A   1      46.585  28.311  29.764  1.00  0.00     0.049 A 
ATOM     53  C   UNL A   1      41.138  29.584  29.510  1.00  0.00     0.074 A 
ATOM     54  C   UNL A   1      47.442  29.318  30.171  1.00  0.00     0.029 A 
ATOM     55  N   UNL A   1      45.308  28.848  29.758  1.00  0.00    -0.354 N 
ATOM     56  N   UNL A   1      42.437  29.435  29.607  1.00  0.00    -0.248 NA
ATOM     57  C   UNL A   1      40.660  30.934  29.836  1.00  0.00     0.031 C 
ATOM     58  C   UNL A   1      46.678  30.462  30.429  1.00  0.00     0.029 A 
ATOM     59  C   UNL A   1      45.353  30.177  30.143  1.00  0.00     0.049 A 
ATOM     60  H   UNL A   1      44.489  28.358  29.516  1.00  0.00     0.167 HD
ATOM     61  C   UNL A   1      42.934  30.681  29.969  1.00  0.00     0.074 A 
ATOM     62  C   UNL A   1      41.799  31.576  30.058  1.00  0.00     0.031 C 
ATOM     63  C   UNL A   1      44.214  31.053  30.207  1.00  0.00     0.031 A 
BRANCH  50  64
ATOM     64  C   UNL A   1      48.334  26.517  29.425  1.00  0.00    -0.014 A 
ATOM     65  C   UNL A   1      49.171  26.706  28.313  1.00  0.00     0.009 A 
ATOM     66  C   UNL A   1      48.863  25.921  30.579  1.00  0.00     0.009 A 
ATOM     67  C   UNL A   1      50.498  26.273  28.342  1.00  0.00     0.001 A 
ATOM     68  C   UNL A   1      50.198  25.513  30.615  1.00  0.00     0.001 A 
ATOM     69  C   UNL A   1      51.011  25.680  29.494  1.00  0.00     0.000 A 
ENDBRANCH  50  64
BRANCH  51  70
ATOM     70  C   UNL A   1      38.659  28.956  29.069  1.00  0.00    -0.014 A 
ATOM     71  C   UNL A   1      38.055  29.373  27.872  1.00  0.00     0.009 A 
ATOM     72  C   UNL A   1      37.892  28.935  30.244  1.00  0.00     0.009 A 
ATOM     73  C   UNL A   1      36.726  29.801  27.861  1.00  0.00     0.001 A 
ATOM     74  C   UNL A   1      36.554  29.336  30.223  1.00  0.00     0.001 A 
ATOM     75  C   UNL A   1      35.976  29.780  29.035  1.00  0.00     0.000 A 
ENDBRANCH  51  70
BRANCH  63  76
ATOM     76  C   UNL A   1      44.458  32.499  30.528  1.00  0.00    -0.014 A 
ATOM     77  C   UNL A   1      44.417  32.975  31.847  1.00  0.00     0.009 A 
ATOM     78  C   UNL A   1      44.756  33.394  29.489  1.00  0.00     0.009 A 
ATOM     79  C   UNL A   1      44.629  34.328  32.114  1.00  0.00     0.001 A 
ATOM     80  C   UNL A   1      44.994  34.741  29.762  1.00  0.00     0.001 A 
ATOM     81  C   UNL A   1      44.920  35.208  31.073  1.00  0.00     0.000 A 
ENDBRANCH  63  76
ENDBRANCH  37  38
ENDBRANCH  29  32
ENDBRANCH  27  28
ENDBRANCH  26  27
ENDBRANCH   1  26
TORSDOF 14
ENDMDL
MODEL 2
REMARK VINA RESULT:     -11.4      4.042      9.441
REMARK SMILES O=C(NCCCCNC(=O)c1ccc(-c2c3nc(c(-c4ccccc4)c4ccc([nH]4)c(-c4ccccc4)c4nc(c(-c5ccccc5)c5ccc2[nH]5)C=C4)C=C3)cc1)C1=Cc2cc(OC(F)(F)F)ccc2O[C@@H]1C(F)(F)F
REMARK SMILES IDX 5 1 4 2 3 3 1 4 2 5 59 7 60 8 73 9 61 10 72 11 62 12 71 13
REMARK SMILES IDX 63 14 70 15 69 16 74 17 75 18 76 19 77 20 64 21 65 22 66 23
REMARK SMILES IDX 67 24 68 25 6 26 7 27 8 28 9 29 10 31 11 32 12 33 58 34
REMARK SMILES IDX 13 35 57 36 14 37 15 38 16 39 51 40 17 41 56 42 50 43 52 44
REMARK SMILES IDX 18 45 55 46 49 47 48 48 19 50 41 51 26 52 40 53 27 54 30 55
REMARK SMILES IDX 39 56 53 57 28 58 29 59 38 61 54 62 31 63 20 64 21 65 25 66
REMARK SMILES IDX 22 67 24 68 23 69 42 70 43 71 47 72 44 73 46 74 45 75 32 76
REMARK SMILES IDX 33 77 37 78 34 79 36 80 35 81
REMARK H PARENT 3 6 8 30 52 49 30 60
REMARK Flexibility Score: inf
ROOT
ATOM      1  C   UNL A   1      31.756  30.541  26.011  1.00  0.00     0.023 C 
ENDROOT
BRANCH   1   2
ATOM      2  C   UNL A   1      32.377  29.472  26.908  1.00  0.00     0.116 C 
BRANCH   2   3
ATOM      3  N   UNL A   1      31.579  28.252  27.038  1.00  0.00    -0.352 N 
ATOM      4  O   UNL A   1      31.118  26.045  26.786  1.00  0.00    -0.270 OA
ATOM      5  C   UNL A   1      31.728  27.036  26.405  1.00  0.00     0.251 C 
ATOM      6  H   UNL A   1      30.825  28.308  27.668  1.00  0.00     0.163 HD
BRANCH   5   7
ATOM      7  C   UNL A   1      32.750  26.928  25.341  1.00  0.00     0.067 C 
ATOM      8  C   UNL A   1      33.919  26.323  25.597  1.00  0.00     0.025 C 
ATOM      9  C   UNL A   1      32.290  27.167  23.935  1.00  0.00     0.314 C 
ATOM     10  C   UNL A   1      34.210  25.261  24.609  1.00  0.00     0.021 A 
ATOM     11  O   UNL A   1      32.357  25.952  23.152  1.00  0.00    -0.475 OA
ATOM     12  C   UNL A   1      35.061  24.219  25.001  1.00  0.00     0.058 A 
ATOM     13  C   UNL A   1      33.330  25.057  23.528  1.00  0.00     0.128 A 
ATOM     14  C   UNL A   1      34.959  22.962  24.394  1.00  0.00     0.130 A 
ATOM     15  C   UNL A   1      33.278  23.824  22.883  1.00  0.00     0.051 A 
ATOM     16  C   UNL A   1      34.078  22.771  23.328  1.00  0.00     0.050 A 
BRANCH   9  17
ATOM     17  C   UNL A   1      33.075  28.308  23.261  1.00  0.00     0.429 C 
ATOM     18  F   UNL A   1      33.664  27.884  22.116  1.00  0.00    -0.167 F 
ATOM     19  F   UNL A   1      32.269  29.344  22.926  1.00  0.00    -0.167 F 
ATOM     20  F   UNL A   1      34.056  28.805  24.052  1.00  0.00    -0.167 F 
ENDBRANCH   9  17
BRANCH  14  21
ATOM     21  O   UNL A   1      35.754  21.983  24.923  1.00  0.00    -0.406 OA
BRANCH  21  22
ATOM     22  C   UNL A   1      37.066  21.908  24.370  1.00  0.00     0.573 C 
ATOM     23  F   UNL A   1      37.512  20.632  24.385  1.00  0.00    -0.132 F 
ATOM     24  F   UNL A   1      37.086  22.395  23.114  1.00  0.00    -0.132 F 
ATOM     25  F   UNL A   1      37.894  22.658  25.131  1.00  0.00    -0.132 F 
ENDBRANCH  21  22
ENDBRANCH  14  21
ENDBRANCH   5   7
ENDBRANCH   2   3
ENDBRANCH   1   2
BRANCH   1  26
ATOM     26  C   UNL A   1      31.418  31.857  26.705  1.00  0.00     0.023 C 
BRANCH  26  27
ATOM     27  C   UNL A   1      32.593  32.666  27.252  1.00  0.00     0.116 C 
BRANCH  27  28
ATOM     28  N   UNL A   1      32.276  34.025  27.669  1.00  0.00    -0.352 N 
ATOM     29  C   UNL A   1      32.996  34.855  28.501  1.00  0.00     0.251 C 
ATOM     30  H   UNL A   1      31.438  34.399  27.311  1.00  0.00     0.163 HD
ATOM     31  O   UNL A   1      32.599  35.988  28.759  1.00  0.00    -0.269 OA
BRANCH  29  32
ATOM     32  C   UNL A   1      34.234  34.353  29.136  1.00  0.00     0.039 A 
ATOM     33  C   UNL A   1      34.128  33.584  30.298  1.00  0.00     0.014 A 
ATOM     34  C   UNL A   1      35.484  34.585  28.556  1.00  0.00     0.014 A 
ATOM     35  C   UNL A   1      35.266  32.976  30.829  1.00  0.00     0.010 A 
ATOM     36  C   UNL A   1      36.602  33.913  29.039  1.00  0.00     0.010 A 
ATOM     37  C   UNL A   1      36.506  33.102  30.180  1.00  0.00    -0.014 A 
BRANCH  37  38
ATOM     38  C   UNL A   1      37.715  32.412  30.697  1.00  0.00     0.031 A 
ATOM     39  C   UNL A   1      38.422  32.952  31.910  1.00  0.00     0.074 A 
ATOM     40  C   UNL A   1      38.204  31.333  30.054  1.00  0.00     0.049 A 
ATOM     41  N   UNL A   1      39.517  32.525  32.486  1.00  0.00    -0.248 NA
ATOM     42  C   UNL A   1      37.837  34.146  32.541  1.00  0.00     0.031 C 
ATOM     43  C   UNL A   1      37.641  30.738  28.838  1.00  0.00     0.029 A 
ATOM     44  N   UNL A   1      39.291  30.544  30.335  1.00  0.00    -0.354 N 
ATOM     45  C   UNL A   1      39.755  33.404  33.535  1.00  0.00     0.074 A 
ATOM     46  C   UNL A   1      38.728  34.421  33.480  1.00  0.00     0.031 C 
ATOM     47  C   UNL A   1      38.372  29.663  28.496  1.00  0.00     0.029 A 
ATOM     48  C   UNL A   1      39.466  29.508  29.448  1.00  0.00     0.049 A 
ATOM     49  H   UNL A   1      39.890  30.705  31.100  1.00  0.00     0.167 HD
ATOM     50  C   UNL A   1      40.723  33.356  34.482  1.00  0.00     0.031 A 
ATOM     51  C   UNL A   1      40.402  28.541  29.413  1.00  0.00     0.031 A 
ATOM     52  C   UNL A   1      41.735  32.338  34.551  1.00  0.00     0.049 A 
ATOM     53  C   UNL A   1      41.448  28.492  30.492  1.00  0.00     0.074 A 
ATOM     54  C   UNL A   1      42.753  32.193  35.477  1.00  0.00     0.029 A 
ATOM     55  N   UNL A   1      41.845  31.280  33.663  1.00  0.00    -0.354 N 
ATOM     56  N   UNL A   1      41.633  29.309  31.501  1.00  0.00    -0.248 NA
ATOM     57  C   UNL A   1      42.398  27.373  30.441  1.00  0.00     0.031 C 
ATOM     58  C   UNL A   1      43.492  31.053  35.138  1.00  0.00     0.029 A 
ATOM     59  C   UNL A   1      42.906  30.470  34.026  1.00  0.00     0.049 A 
ATOM     60  H   UNL A   1      41.255  31.127  32.890  1.00  0.00     0.167 HD
ATOM     61  C   UNL A   1      42.695  28.781  32.224  1.00  0.00     0.074 A 
ATOM     62  C   UNL A   1      43.102  27.568  31.547  1.00  0.00     0.031 C 
ATOM     63  C   UNL A   1      43.283  29.258  33.348  1.00  0.00     0.031 A 
BRANCH  50  64
ATOM     64  C   UNL A   1      40.712  34.435  35.526  1.00  0.00    -0.014 A 
ATOM     65  C   UNL A   1      41.449  35.617  35.346  1.00  0.00     0.009 A 
ATOM     66  C   UNL A   1      39.948  34.282  36.692  1.00  0.00     0.009 A 
ATOM     67  C   UNL A   1      41.453  36.606  36.330  1.00  0.00     0.001 A 
ATOM     68  C   UNL A   1      39.931  35.286  37.663  1.00  0.00     0.001 A 
ATOM     69  C   UNL A   1      40.692  36.442  37.486  1.00  0.00     0.000 A 
ENDBRANCH  50  64
BRANCH  51  70
ATOM     70  C   UNL A   1      40.380  27.510  28.341  1.00  0.00    -0.014 A 
ATOM     71  C   UNL A   1      41.103  27.701  27.153  1.00  0.00     0.009 A 
ATOM     72  C   UNL A   1      39.607  26.347  28.486  1.00  0.00     0.009 A 
ATOM     73  C   UNL A   1      41.021  26.769  26.116  1.00  0.00     0.001 A 
ATOM     74  C   UNL A   1      39.550  25.403  27.457  1.00  0.00     0.001 A 
ATOM     75  C   UNL A   1      40.246  25.621  26.269  1.00  0.00     0.000 A 
ENDBRANCH  51  70
BRANCH  63  76
ATOM     76  C   UNL A   1      44.386  28.433  33.945  1.00  0.00    -0.014 A 
ATOM     77  C   UNL A   1      45.728  28.638  33.592  1.00  0.00     0.009 A 
ATOM     78  C   UNL A   1      44.074  27.448  34.895  1.00  0.00     0.009 A 
ATOM     79  C   UNL A   1      46.732  27.844  34.149  1.00  0.00     0.001 A 
ATOM     80  C   UNL A   1      45.081  26.674  35.470  1.00  0.00     0.001 A 
ATOM     81  C   UNL A   1      46.408  26.866  35.088  1.00  0.00     0.000 A 
ENDBRANCH  63  76
ENDBRANCH  37  38
ENDBRANCH  29  32
ENDBRANCH  27  28
ENDBRANCH  26  27
ENDBRANCH   1  26
TORSDOF 14
ENDMDL
MODEL 3
REMARK VINA RESULT:     -11.4      3.881      8.649
REMARK SMILES O=C(NCCCCNC(=O)c1ccc(-c2c3nc(c(-c4ccccc4)c4ccc([nH]4)c(-c4ccccc4)c4nc(c(-c5ccccc5)c5ccc2[nH]5)C=C4)C=C3)cc1)C1=Cc2cc(OC(F)(F)F)ccc2O[C@@H]1C(F)(F)F
REMARK SMILES IDX 5 1 4 2 3 3 1 4 2 5 59 7 60 8 73 9 61 10 72 11 62 12 71 13
REMARK SMILES IDX 63 14 70 15 69 16 74 17 75 18 76 19 77 20 64 21 65 22 66 23
REMARK SMILES IDX 67 24 68 25 6 26 7 27 8 28 9 29 10 31 11 32 12 33 58 34
REMARK SMILES IDX 13 35 57 36 14 37 15 38 16 39 51 40 17 41 56 42 50 43 52 44
REMARK SMILES IDX 18 45 55 46 49 47 48 48 19 50 41 51 26 52 40 53 27 54 30 55
REMARK SMILES IDX 39 56 53 57 28 58 29 59 38 61 54 62 31 63 20 64 21 65 25 66
REMARK SMILES IDX 22 67 24 68 23 69 42 70 43 71 47 72 44 73 46 74 45 75 32 76
REMARK SMILES IDX 33 77 37 78 34 79 36 80 35 81
REMARK H PARENT 3 6 8 30 52 49 30 60
REMARK Flexibility Score: inf
ROOT
ATOM      1  C   UNL A   1      32.162  29.591  27.100  1.00  0.00     0.023 C 
ENDROOT
BRANCH   1   2
ATOM      2  C   UNL A   1      31.523  28.530  26.205  1.00  0.00     0.116 C 
BRANCH   2   3
ATOM      3  N   UNL A   1      31.316  27.235  26.855  1.00  0.00    -0.352 N 
ATOM      4  O   UNL A   1      31.101  24.979  26.949  1.00  0.00    -0.270 OA
ATOM      5  C   UNL A   1      31.022  26.010  26.293  1.00  0.00     0.251 C 
ATOM      6  H   UNL A   1      31.397  27.239  27.836  1.00  0.00     0.163 HD
BRANCH   5   7
ATOM      7  C   UNL A   1      30.745  25.960  24.842  1.00  0.00     0.067 C 
ATOM      8  C   UNL A   1      29.564  26.388  24.372  1.00  0.00     0.025 C 
ATOM      9  C   UNL A   1      31.923  25.781  23.934  1.00  0.00     0.314 C 
ATOM     10  C   UNL A   1      29.736  27.389  23.297  1.00  0.00     0.021 A 
ATOM     11  O   UNL A   1      32.151  26.967  23.138  1.00  0.00    -0.475 OA
ATOM     12  C   UNL A   1      28.693  28.298  23.075  1.00  0.00     0.058 A 
ATOM     13  C   UNL A   1      31.033  27.712  22.849  1.00  0.00     0.128 A 
ATOM     14  C   UNL A   1      28.959  29.552  22.514  1.00  0.00     0.130 A 
ATOM     15  C   UNL A   1      31.281  28.935  22.232  1.00  0.00     0.051 A 
ATOM     16  C   UNL A   1      30.250  29.863  22.082  1.00  0.00     0.050 A 
BRANCH   9  17
ATOM     17  C   UNL A   1      31.777  24.533  23.044  1.00  0.00     0.429 C 
ATOM     18  F   UNL A   1      31.571  24.878  21.749  1.00  0.00    -0.167 F 
ATOM     19  F   UNL A   1      32.891  23.762  23.071  1.00  0.00    -0.167 F 
ATOM     20  F   UNL A   1      30.739  23.745  23.415  1.00  0.00    -0.167 F 
ENDBRANCH   9  17
BRANCH  14  21
ATOM     21  O   UNL A   1      27.894  30.407  22.443  1.00  0.00    -0.406 OA
BRANCH  21  22
ATOM     22  C   UNL A   1      27.940  31.503  23.354  1.00  0.00     0.573 C 
ATOM     23  F   UNL A   1      28.076  32.669  22.683  1.00  0.00    -0.132 F 
ATOM     24  F   UNL A   1      26.837  31.533  24.126  1.00  0.00    -0.132 F 
ATOM     25  F   UNL A   1      29.017  31.346  24.156  1.00  0.00    -0.132 F 
ENDBRANCH  21  22
ENDBRANCH  14  21
ENDBRANCH   5   7
ENDBRANCH   2   3
ENDBRANCH   1   2
BRANCH   1  26
ATOM     26  C   UNL A   1      31.777  31.031  26.778  1.00  0.00     0.023 C 
BRANCH  26  27
ATOM     27  C   UNL A   1      32.874  32.085  26.923  1.00  0.00     0.116 C 
BRANCH  27  28
ATOM     28  N   UNL A   1      32.451  33.353  27.499  1.00  0.00    -0.352 N 
ATOM     29  C   UNL A   1      33.137  34.166  28.377  1.00  0.00     0.251 C 
ATOM     30  H   UNL A   1      31.559  33.671  27.228  1.00  0.00     0.163 HD
ATOM     31  O   UNL A   1      32.647  35.219  28.776  1.00  0.00    -0.269 OA
BRANCH  29  32
ATOM     32  C   UNL A   1      34.457  33.736  28.887  1.00  0.00     0.039 A 
ATOM     33  C   UNL A   1      34.507  32.957  30.046  1.00  0.00     0.014 A 
ATOM     34  C   UNL A   1      35.630  34.044  28.194  1.00  0.00     0.014 A 
ATOM     35  C   UNL A   1      35.724  32.415  30.461  1.00  0.00     0.010 A 
ATOM     36  C   UNL A   1      36.826  33.438  28.563  1.00  0.00     0.010 A 
ATOM     37  C   UNL A   1      36.887  32.618  29.700  1.00  0.00    -0.014 A 
BRANCH  37  38
ATOM     38  C   UNL A   1      38.178  31.999  30.094  1.00  0.00     0.031 A 
ATOM     39  C   UNL A   1      39.087  32.715  31.055  1.00  0.00     0.074 A 
ATOM     40  C   UNL A   1      38.555  30.822  29.556  1.00  0.00     0.049 A 
ATOM     41  N   UNL A   1      40.273  32.367  31.485  1.00  0.00    -0.248 NA
ATOM     42  C   UNL A   1      38.612  34.005  31.581  1.00  0.00     0.031 C 
ATOM     43  C   UNL A   1      37.788  30.050  28.574  1.00  0.00     0.029 A 
ATOM     44  N   UNL A   1      39.685  30.070  29.758  1.00  0.00    -0.354 N 
ATOM     45  C   UNL A   1      40.687  33.399  32.318  1.00  0.00     0.074 A 
ATOM     46  C   UNL A   1      39.655  34.412  32.286  1.00  0.00     0.031 C 
ATOM     47  C   UNL A   1      38.458  28.921  28.283  1.00  0.00     0.029 A 
ATOM     48  C   UNL A   1      39.709  28.902  29.033  1.00  0.00     0.049 A 
ATOM     49  H   UNL A   1      40.410  30.342  30.366  1.00  0.00     0.167 HD
ATOM     50  C   UNL A   1      41.811  33.487  33.068  1.00  0.00     0.031 A 
ATOM     51  C   UNL A   1      40.634  27.925  28.986  1.00  0.00     0.031 A 
ATOM     52  C   UNL A   1      42.832  32.476  33.117  1.00  0.00     0.049 A 
ATOM     53  C   UNL A   1      41.860  28.033  29.851  1.00  0.00     0.074 A 
ATOM     54  C   UNL A   1      44.003  32.464  33.854  1.00  0.00     0.029 A 
ATOM     55  N   UNL A   1      42.792  31.287  32.406  1.00  0.00    -0.354 N 
ATOM     56  N   UNL A   1      42.214  28.998  30.665  1.00  0.00    -0.248 NA
ATOM     57  C   UNL A   1      42.798  26.903  29.810  1.00  0.00     0.031 C 
ATOM     58  C   UNL A   1      44.681  31.271  33.575  1.00  0.00     0.029 A 
ATOM     59  C   UNL A   1      43.911  30.527  32.696  1.00  0.00     0.049 A 
ATOM     60  H   UNL A   1      42.073  31.022  31.787  1.00  0.00     0.167 HD
ATOM     61  C   UNL A   1      43.396  28.575  31.259  1.00  0.00     0.074 A 
ATOM     62  C   UNL A   1      43.689  27.261  30.724  1.00  0.00     0.031 C 
ATOM     63  C   UNL A   1      44.172  29.216  32.166  1.00  0.00     0.031 A 
BRANCH  50  64
ATOM     64  C   UNL A   1      41.976  34.720  33.909  1.00  0.00    -0.014 A 
ATOM     65  C   UNL A   1      41.507  34.756  35.233  1.00  0.00     0.009 A 
ATOM     66  C   UNL A   1      42.619  35.851  33.386  1.00  0.00     0.009 A 
ATOM     67  C   UNL A   1      41.643  35.912  36.002  1.00  0.00     0.001 A 
ATOM     68  C   UNL A   1      42.780  36.998  34.167  1.00  0.00     0.001 A 
ATOM     69  C   UNL A   1      42.282  37.031  35.470  1.00  0.00     0.000 A 
ENDBRANCH  50  64
BRANCH  51  70
ATOM     70  C   UNL A   1      40.430  26.737  28.117  1.00  0.00    -0.014 A 
ATOM     71  C   UNL A   1      40.920  26.722  26.801  1.00  0.00     0.009 A 
ATOM     72  C   UNL A   1      39.714  25.624  28.585  1.00  0.00     0.009 A 
ATOM     73  C   UNL A   1      40.662  25.637  25.960  1.00  0.00     0.001 A 
ATOM     74  C   UNL A   1      39.483  24.528  27.750  1.00  0.00     0.001 A 
ATOM     75  C   UNL A   1      39.946  24.541  26.436  1.00  0.00     0.000 A 
ENDBRANCH  51  70
BRANCH  63  76
ATOM     76  C   UNL A   1      45.375  28.478  32.679  1.00  0.00    -0.014 A 
ATOM     77  C   UNL A   1      46.629  28.599  32.059  1.00  0.00     0.009 A 
ATOM     78  C   UNL A   1      45.253  27.666  33.817  1.00  0.00     0.009 A 
ATOM     79  C   UNL A   1      47.726  27.888  32.545  1.00  0.00     0.001 A 
ATOM     80  C   UNL A   1      46.358  26.977  34.317  1.00  0.00     0.001 A 
ATOM     81  C   UNL A   1      47.591  27.080  33.675  1.00  0.00     0.000 A 
ENDBRANCH  63  76
ENDBRANCH  37  38
ENDBRANCH  29  32
ENDBRANCH  27  28
ENDBRANCH  26  27
ENDBRANCH   1  26
TORSDOF 14
ENDMDL
