MODEL 1
REMARK VINA RESULT:     -11.2      0.000      0.000
REMARK SMILES O=C(C[C@@H]1CCCCO1)N[C@]1(C(=O)NCCCCNC(=O)c2ccc(-c3c4nc(c(-c5ccccc5)c5ccc([nH]5)c(-c5ccccc5)c5nc(c(-c6ccccc6)c6ccc3[nH]6)C=C5)C=C4)cc2)CCOC1
REMARK SMILES IDX 16 1 15 2 14 3 12 4 13 5 11 7 70 8 73 9 71 10 72 11 10 12
REMARK SMILES IDX 1 13 2 14 3 16 4 17 5 18 9 19 6 20 8 21 7 22 17 23 18 24
REMARK SMILES IDX 19 25 20 26 21 28 22 29 23 30 69 31 24 32 68 33 25 34 26 35
REMARK SMILES IDX 27 36 62 37 28 38 67 39 61 40 63 41 29 42 66 43 60 44 59 45
REMARK SMILES IDX 30 47 52 48 37 49 51 50 38 51 41 52 50 53 64 54 39 55 40 56
REMARK SMILES IDX 49 58 65 59 42 60 31 61 32 62 36 63 33 64 35 65 34 66 53 67
REMARK SMILES IDX 54 68 58 69 55 70 57 71 56 72 43 73 44 74 48 75 45 76 47 77
REMARK SMILES IDX 46 78
REMARK H PARENT 14 6 10 15 19 27 63 46 41 57
REMARK Flexibility Score: inf
ROOT
ATOM      1  C   UNL A   1      31.783  30.492  25.938  1.00  0.00     0.023 C 
ENDROOT
BRANCH   1   2
ATOM      2  C   UNL A   1      32.605  29.376  26.570  1.00  0.00     0.116 C 
BRANCH   2   3
ATOM      3  N   UNL A   1      31.772  28.238  26.931  1.00  0.00    -0.354 N 
ATOM      4  C   UNL A   1      31.363  27.164  26.197  1.00  0.00     0.248 C 
ATOM      5  O   UNL A   1      30.698  26.305  26.792  1.00  0.00    -0.272 OA
ATOM      6  H   UNL A   1      31.451  28.245  27.862  1.00  0.00     0.163 HD
BRANCH   4   7
ATOM      7  C   UNL A   1      31.769  26.954  24.713  1.00  0.00     0.144 C 
ATOM      8  C   UNL A   1      33.214  27.310  24.400  1.00  0.00     0.069 C 
ATOM      9  C   UNL A   1      31.683  25.449  24.419  1.00  0.00     0.198 C 
ATOM     10  C   UNL A   1      33.654  26.213  23.447  1.00  0.00     0.163 C 
ATOM     11  O   UNL A   1      32.885  25.044  23.752  1.00  0.00    -0.378 OA
BRANCH   7  12
ATOM     12  N   UNL A   1      30.777  27.720  23.905  1.00  0.00    -0.340 N 
ATOM     13  O   UNL A   1      29.016  26.247  23.810  1.00  0.00    -0.275 OA
ATOM     14  C   UNL A   1      29.484  27.361  23.604  1.00  0.00     0.223 C 
ATOM     15  H   UNL A   1      31.084  28.583  23.544  1.00  0.00     0.164 HD
BRANCH  14  16
ATOM     16  C   UNL A   1      28.641  28.457  22.993  1.00  0.00     0.132 C 
BRANCH  16  17
ATOM     17  C   UNL A   1      29.382  29.779  22.732  1.00  0.00     0.127 C 
ATOM     18  C   UNL A   1      29.051  30.953  23.660  1.00  0.00     0.033 C 
ATOM     19  O   UNL A   1      29.384  30.165  21.351  1.00  0.00    -0.378 OA
ATOM     20  C   UNL A   1      27.869  31.785  23.178  1.00  0.00     0.005 C 
ATOM     21  C   UNL A   1      28.234  30.876  20.900  1.00  0.00     0.160 C 
ATOM     22  C   UNL A   1      28.006  32.140  21.712  1.00  0.00     0.029 C 
ENDBRANCH  16  17
ENDBRANCH  14  16
ENDBRANCH   7  12
ENDBRANCH   4   7
ENDBRANCH   2   3
ENDBRANCH   1   2
BRANCH   1  23
ATOM     23  C   UNL A   1      31.525  31.674  26.868  1.00  0.00     0.023 C 
BRANCH  23  24
ATOM     24  C   UNL A   1      32.769  32.468  27.245  1.00  0.00     0.116 C 
BRANCH  24  25
ATOM     25  N   UNL A   1      32.476  33.842  27.627  1.00  0.00    -0.352 N 
ATOM     26  C   UNL A   1      33.147  34.641  28.520  1.00  0.00     0.251 C 
ATOM     27  H   UNL A   1      31.696  34.252  27.189  1.00  0.00     0.163 HD
ATOM     28  O   UNL A   1      32.704  35.740  28.837  1.00  0.00    -0.269 OA
BRANCH  26  29
ATOM     29  C   UNL A   1      34.397  34.140  29.121  1.00  0.00     0.039 A 
ATOM     30  C   UNL A   1      34.329  33.394  30.299  1.00  0.00     0.014 A 
ATOM     31  C   UNL A   1      35.621  34.354  28.481  1.00  0.00     0.014 A 
ATOM     32  C   UNL A   1      35.486  32.798  30.799  1.00  0.00     0.010 A 
ATOM     33  C   UNL A   1      36.755  33.695  28.936  1.00  0.00     0.010 A 
ATOM     34  C   UNL A   1      36.699  32.911  30.099  1.00  0.00    -0.014 A 
BRANCH  34  35
ATOM     35  C   UNL A   1      37.923  32.215  30.564  1.00  0.00     0.031 A 
ATOM     36  C   UNL A   1      38.766  32.823  31.649  1.00  0.00     0.074 A 
ATOM     37  C   UNL A   1      38.314  31.076  29.960  1.00  0.00     0.049 A 
ATOM     38  N   UNL A   1      39.902  32.404  32.144  1.00  0.00    -0.248 NA
ATOM     39  C   UNL A   1      38.282  34.083  32.237  1.00  0.00     0.031 C 
ATOM     40  C   UNL A   1      37.606  30.407  28.865  1.00  0.00     0.029 A 
ATOM     41  N   UNL A   1      39.409  30.280  30.182  1.00  0.00    -0.354 N 
ATOM     42  C   UNL A   1      40.276  33.356  33.084  1.00  0.00     0.074 A 
ATOM     43  C   UNL A   1      39.275  34.400  33.053  1.00  0.00     0.031 C 
ATOM     44  C   UNL A   1      38.271  29.288  28.531  1.00  0.00     0.029 A 
ATOM     45  C   UNL A   1      39.468  29.181  29.359  1.00  0.00     0.049 A 
ATOM     46  H   UNL A   1      40.089  30.477  30.866  1.00  0.00     0.167 HD
ATOM     47  C   UNL A   1      41.344  33.352  33.914  1.00  0.00     0.031 A 
ATOM     48  C   UNL A   1      40.386  28.200  29.278  1.00  0.00     0.031 A 
ATOM     49  C   UNL A   1      42.331  32.307  33.955  1.00  0.00     0.049 A 
ATOM     50  C   UNL A   1      41.569  28.225  30.204  1.00  0.00     0.074 A 
ATOM     51  C   UNL A   1      43.420  32.182  34.801  1.00  0.00     0.029 A 
ATOM     52  N   UNL A   1      42.349  31.207  33.112  1.00  0.00    -0.354 N 
ATOM     53  N   UNL A   1      41.872  29.096  31.135  1.00  0.00    -0.248 NA
ATOM     54  C   UNL A   1      42.531  27.120  30.075  1.00  0.00     0.031 C 
ATOM     55  C   UNL A   1      44.124  31.029  34.438  1.00  0.00     0.029 A 
ATOM     56  C   UNL A   1      43.444  30.410  33.402  1.00  0.00     0.049 A 
ATOM     57  H   UNL A   1      41.684  31.021  32.411  1.00  0.00     0.167 HD
ATOM     58  C   UNL A   1      43.043  28.633  31.720  1.00  0.00     0.074 A 
ATOM     59  C   UNL A   1      43.386  27.395  31.050  1.00  0.00     0.031 C 
ATOM     60  C   UNL A   1      43.768  29.181  32.725  1.00  0.00     0.031 A 
BRANCH  47  61
ATOM     61  C   UNL A   1      41.500  34.523  34.845  1.00  0.00    -0.014 A 
ATOM     62  C   UNL A   1      40.872  34.541  36.101  1.00  0.00     0.009 A 
ATOM     63  C   UNL A   1      42.304  35.610  34.472  1.00  0.00     0.009 A 
ATOM     64  C   UNL A   1      41.015  35.641  36.948  1.00  0.00     0.001 A 
ATOM     65  C   UNL A   1      42.471  36.695  35.334  1.00  0.00     0.001 A 
ATOM     66  C   UNL A   1      41.818  36.715  36.565  1.00  0.00     0.000 A 
ENDBRANCH  47  61
BRANCH  48  67
ATOM     67  C   UNL A   1      40.215  27.100  28.294  1.00  0.00    -0.014 A 
ATOM     68  C   UNL A   1      39.489  25.948  28.636  1.00  0.00     0.009 A 
ATOM     69  C   UNL A   1      40.782  27.188  27.013  1.00  0.00     0.009 A 
ATOM     70  C   UNL A   1      39.358  24.897  27.726  1.00  0.00     0.001 A 
ATOM     71  C   UNL A   1      40.624  26.149  26.095  1.00  0.00     0.001 A 
ATOM     72  C   UNL A   1      39.922  25.000  26.455  1.00  0.00     0.000 A 
ENDBRANCH  48  67
BRANCH  60  73
ATOM     73  C   UNL A   1      44.985  28.429  33.184  1.00  0.00    -0.014 A 
ATOM     74  C   UNL A   1      46.243  28.652  32.604  1.00  0.00     0.009 A 
ATOM     75  C   UNL A   1      44.875  27.513  34.242  1.00  0.00     0.009 A 
ATOM     76  C   UNL A   1      47.361  27.950  33.055  1.00  0.00     0.001 A 
ATOM     77  C   UNL A   1      46.000  26.832  34.710  1.00  0.00     0.001 A 
ATOM     78  C   UNL A   1      47.240  27.045  34.110  1.00  0.00     0.000 A 
ENDBRANCH  60  73
ENDBRANCH  34  35
ENDBRANCH  26  29
ENDBRANCH  24  25
ENDBRANCH  23  24
ENDBRANCH   1  23
TORSDOF 14
ENDMDL
MODEL 2
REMARK VINA RESULT:     -11.2      5.274     10.366
REMARK SMILES O=C(C[C@@H]1CCCCO1)N[C@]1(C(=O)NCCCCNC(=O)c2ccc(-c3c4nc(c(-c5ccccc5)c5ccc([nH]5)c(-c5ccccc5)c5nc(c(-c6ccccc6)c6ccc3[nH]6)C=C5)C=C4)cc2)CCOC1
REMARK SMILES IDX 16 1 15 2 14 3 12 4 13 5 11 7 70 8 73 9 71 10 72 11 10 12
REMARK SMILES IDX 1 13 2 14 3 16 4 17 5 18 9 19 6 20 8 21 7 22 17 23 18 24
REMARK SMILES IDX 19 25 20 26 21 28 22 29 23 30 69 31 24 32 68 33 25 34 26 35
REMARK SMILES IDX 27 36 62 37 28 38 67 39 61 40 63 41 29 42 66 43 60 44 59 45
REMARK SMILES IDX 30 47 52 48 37 49 51 50 38 51 41 52 50 53 64 54 39 55 40 56
REMARK SMILES IDX 49 58 65 59 42 60 31 61 32 62 36 63 33 64 35 65 34 66 53 67
REMARK SMILES IDX 54 68 58 69 55 70 57 71 56 72 43 73 44 74 48 75 45 76 47 77
REMARK SMILES IDX 46 78
REMARK H PARENT 14 6 10 15 19 27 63 46 41 57
REMARK Flexibility Score: inf
ROOT
ATOM      1  C   UNL A   1      36.496  20.643  25.185  1.00  0.00     0.023 C 
ENDROOT
BRANCH   1   2
ATOM      2  C   UNL A   1      36.487  22.166  25.130  1.00  0.00     0.116 C 
BRANCH   2   3
ATOM      3  N   UNL A   1      35.936  22.650  23.873  1.00  0.00    -0.354 N 
ATOM      4  C   UNL A   1      34.652  22.929  23.510  1.00  0.00     0.248 C 
ATOM      5  O   UNL A   1      34.483  23.394  22.374  1.00  0.00    -0.272 OA
ATOM      6  H   UNL A   1      36.604  22.804  23.165  1.00  0.00     0.163 HD
BRANCH   4   7
ATOM      7  C   UNL A   1      33.449  22.770  24.480  1.00  0.00     0.144 C 
ATOM      8  C   UNL A   1      33.697  23.305  25.882  1.00  0.00     0.069 C 
ATOM      9  C   UNL A   1      32.305  23.643  23.944  1.00  0.00     0.198 C 
ATOM     10  C   UNL A   1      32.385  23.976  26.246  1.00  0.00     0.163 C 
ATOM     11  O   UNL A   1      31.775  24.418  25.027  1.00  0.00    -0.378 OA
BRANCH   7  12
ATOM     12  N   UNL A   1      33.086  21.324  24.448  1.00  0.00    -0.340 N 
ATOM     13  O   UNL A   1      32.069  21.144  22.397  1.00  0.00    -0.275 OA
ATOM     14  C   UNL A   1      32.528  20.623  23.406  1.00  0.00     0.223 C 
ATOM     15  H   UNL A   1      33.268  20.812  25.269  1.00  0.00     0.164 HD
BRANCH  14  16
ATOM     16  C   UNL A   1      32.519  19.120  23.576  1.00  0.00     0.132 C 
BRANCH  16  17
ATOM     17  C   UNL A   1      33.438  18.587  24.688  1.00  0.00     0.127 C 
ATOM     18  C   UNL A   1      34.625  17.721  24.251  1.00  0.00     0.033 C 
ATOM     19  O   UNL A   1      32.722  18.007  25.787  1.00  0.00    -0.378 OA
ATOM     20  C   UNL A   1      34.281  16.242  24.139  1.00  0.00     0.005 C 
ATOM     21  C   UNL A   1      32.341  16.641  25.632  1.00  0.00     0.160 C 
ATOM     22  C   UNL A   1      33.546  15.753  25.370  1.00  0.00     0.029 C 
ENDBRANCH  16  17
ENDBRANCH  14  16
ENDBRANCH   7  12
ENDBRANCH   4   7
ENDBRANCH   2   3
ENDBRANCH   1   2
BRANCH   1  23
ATOM     23  C   UNL A   1      37.828  20.017  24.785  1.00  0.00     0.023 C 
BRANCH  23  24
ATOM     24  C   UNL A   1      38.974  20.291  25.752  1.00  0.00     0.116 C 
BRANCH  24  25
ATOM     25  N   UNL A   1      39.940  19.203  25.817  1.00  0.00    -0.352 N 
ATOM     26  C   UNL A   1      41.291  19.274  26.053  1.00  0.00     0.251 C 
ATOM     27  H   UNL A   1      39.577  18.299  25.673  1.00  0.00     0.163 HD
ATOM     28  O   UNL A   1      42.000  18.280  25.950  1.00  0.00    -0.269 OA
BRANCH  26  29
ATOM     29  C   UNL A   1      41.883  20.580  26.400  1.00  0.00     0.039 A 
ATOM     30  C   UNL A   1      42.330  21.414  25.374  1.00  0.00     0.014 A 
ATOM     31  C   UNL A   1      41.931  20.997  27.733  1.00  0.00     0.014 A 
ATOM     32  C   UNL A   1      42.761  22.703  25.681  1.00  0.00     0.010 A 
ATOM     33  C   UNL A   1      42.285  22.308  28.027  1.00  0.00     0.010 A 
ATOM     34  C   UNL A   1      42.704  23.173  27.004  1.00  0.00    -0.014 A 
BRANCH  34  35
ATOM     35  C   UNL A   1      43.075  24.568  27.342  1.00  0.00     0.031 A 
ATOM     36  C   UNL A   1      44.518  24.987  27.325  1.00  0.00     0.074 A 
ATOM     37  C   UNL A   1      42.122  25.436  27.734  1.00  0.00     0.049 A 
ATOM     38  N   UNL A   1      45.047  26.137  27.652  1.00  0.00    -0.248 NA
ATOM     39  C   UNL A   1      45.498  23.969  26.910  1.00  0.00     0.031 C 
ATOM     40  C   UNL A   1      40.691  25.140  27.835  1.00  0.00     0.029 A 
ATOM     41  N   UNL A   1      42.217  26.748  28.126  1.00  0.00    -0.354 N 
ATOM     42  C   UNL A   1      46.419  25.975  27.502  1.00  0.00     0.074 A 
ATOM     43  C   UNL A   1      46.644  24.602  27.107  1.00  0.00     0.031 C 
ATOM     44  C   UNL A   1      40.040  26.247  28.233  1.00  0.00     0.029 A 
ATOM     45  C   UNL A   1      41.010  27.315  28.453  1.00  0.00     0.049 A 
ATOM     46  H   UNL A   1      43.071  27.237  28.169  1.00  0.00     0.167 HD
ATOM     47  C   UNL A   1      47.402  26.892  27.659  1.00  0.00     0.031 A 
ATOM     48  C   UNL A   1      40.717  28.555  28.886  1.00  0.00     0.031 A 
ATOM     49  C   UNL A   1      47.176  28.261  28.038  1.00  0.00     0.049 A 
ATOM     50  C   UNL A   1      41.828  29.552  29.061  1.00  0.00     0.074 A 
ATOM     51  C   UNL A   1      48.101  29.282  28.167  1.00  0.00     0.029 A 
ATOM     52  N   UNL A   1      45.938  28.798  28.351  1.00  0.00    -0.354 N 
ATOM     53  N   UNL A   1      43.113  29.403  28.849  1.00  0.00    -0.248 NA
ATOM     54  C   UNL A   1      41.444  30.894  29.526  1.00  0.00     0.031 C 
ATOM     55  C   UNL A   1      47.427  30.428  28.604  1.00  0.00     0.029 A 
ATOM     56  C   UNL A   1      46.076  30.132  28.695  1.00  0.00     0.049 A 
ATOM     57  H   UNL A   1      45.086  28.304  28.332  1.00  0.00     0.167 HD
ATOM     58  C   UNL A   1      43.688  30.637  29.127  1.00  0.00     0.074 A 
ATOM     59  C   UNL A   1      42.610  31.526  29.507  1.00  0.00     0.031 C 
ATOM     60  C   UNL A   1      44.991  31.002  29.070  1.00  0.00     0.031 A 
BRANCH  47  61
ATOM     61  C   UNL A   1      48.815  26.436  27.422  1.00  0.00    -0.014 A 
ATOM     62  C   UNL A   1      49.620  25.985  28.481  1.00  0.00     0.009 A 
ATOM     63  C   UNL A   1      49.340  26.433  26.121  1.00  0.00     0.009 A 
ATOM     64  C   UNL A   1      50.934  25.578  28.247  1.00  0.00     0.001 A 
ATOM     65  C   UNL A   1      50.644  25.996  25.886  1.00  0.00     0.001 A 
ATOM     66  C   UNL A   1      51.444  25.580  26.948  1.00  0.00     0.000 A 
ENDBRANCH  47  61
BRANCH  48  67
ATOM     67  C   UNL A   1      39.308  28.934  29.166  1.00  0.00    -0.014 A 
ATOM     68  C   UNL A   1      38.513  29.507  28.161  1.00  0.00     0.009 A 
ATOM     69  C   UNL A   1      38.751  28.733  30.439  1.00  0.00     0.009 A 
ATOM     70  C   UNL A   1      37.199  29.896  28.433  1.00  0.00     0.001 A 
ATOM     71  C   UNL A   1      37.428  29.096  30.699  1.00  0.00     0.001 A 
ATOM     72  C   UNL A   1      36.657  29.687  29.699  1.00  0.00     0.000 A 
ENDBRANCH  48  67
BRANCH  60  73
ATOM     73  C   UNL A   1      45.320  32.431  29.392  1.00  0.00    -0.014 A 
ATOM     74  C   UNL A   1      45.668  32.824  30.693  1.00  0.00     0.009 A 
ATOM     75  C   UNL A   1      45.320  33.390  28.367  1.00  0.00     0.009 A 
ATOM     76  C   UNL A   1      45.980  34.157  30.967  1.00  0.00     0.001 A 
ATOM     77  C   UNL A   1      45.660  34.717  28.638  1.00  0.00     0.001 A 
ATOM     78  C   UNL A   1      45.981  35.100  29.939  1.00  0.00     0.000 A 
ENDBRANCH  60  73
ENDBRANCH  34  35
ENDBRANCH  26  29
ENDBRANCH  24  25
ENDBRANCH  23  24
ENDBRANCH   1  23
TORSDOF 14
ENDMDL
MODEL 3
REMARK VINA RESULT:     -11.2      0.569      6.038
REMARK SMILES O=C(C[C@@H]1CCCCO1)N[C@]1(C(=O)NCCCCNC(=O)c2ccc(-c3c4nc(c(-c5ccccc5)c5ccc([nH]5)c(-c5ccccc5)c5nc(c(-c6ccccc6)c6ccc3[nH]6)C=C5)C=C4)cc2)CCOC1
REMARK SMILES IDX 16 1 15 2 14 3 12 4 13 5 11 7 70 8 73 9 71 10 72 11 10 12
REMARK SMILES IDX 1 13 2 14 3 16 4 17 5 18 9 19 6 20 8 21 7 22 17 23 18 24
REMARK SMILES IDX 19 25 20 26 21 28 22 29 23 30 69 31 24 32 68 33 25 34 26 35
REMARK SMILES IDX 27 36 62 37 28 38 67 39 61 40 63 41 29 42 66 43 60 44 59 45
REMARK SMILES IDX 30 47 52 48 37 49 51 50 38 51 41 52 50 53 64 54 39 55 40 56
REMARK SMILES IDX 49 58 65 59 42 60 31 61 32 62 36 63 33 64 35 65 34 66 53 67
REMARK SMILES IDX 54 68 58 69 55 70 57 71 56 72 43 73 44 74 48 75 45 76 47 77
REMARK SMILES IDX 46 78
REMARK H PARENT 14 6 10 15 19 27 63 46 41 57
REMARK Flexibility Score: inf
ROOT
ATOM      1  C   UNL A   1      32.118  29.675  26.979  1.00  0.00     0.023 C 
ENDROOT
BRANCH   1   2
ATOM      2  C   UNL A   1      31.780  28.836  25.753  1.00  0.00     0.116 C 
BRANCH   2   3
ATOM      3  N   UNL A   1      31.386  27.485  26.124  1.00  0.00    -0.354 N 
ATOM      4  C   UNL A   1      31.196  26.370  25.362  1.00  0.00     0.248 C 
ATOM      5  O   UNL A   1      30.917  25.325  25.966  1.00  0.00    -0.272 OA
ATOM      6  H   UNL A   1      31.233  27.353  27.089  1.00  0.00     0.163 HD
BRANCH   4   7
ATOM      7  C   UNL A   1      31.399  26.357  23.823  1.00  0.00     0.144 C 
ATOM      8  C   UNL A   1      32.826  26.634  23.375  1.00  0.00     0.069 C 
ATOM      9  C   UNL A   1      31.124  24.928  23.332  1.00  0.00     0.198 C 
ATOM     10  C   UNL A   1      33.035  25.664  22.226  1.00  0.00     0.163 C 
ATOM     11  O   UNL A   1      32.190  24.531  22.460  1.00  0.00    -0.378 OA
BRANCH   7  12
ATOM     12  N   UNL A   1      30.403  27.319  23.270  1.00  0.00    -0.340 N 
ATOM     13  O   UNL A   1      28.420  26.376  23.946  1.00  0.00    -0.275 OA
ATOM     14  C   UNL A   1      29.039  27.308  23.448  1.00  0.00     0.223 C 
ATOM     15  H   UNL A   1      30.763  28.047  22.713  1.00  0.00     0.164 HD
BRANCH  14  16
ATOM     16  C   UNL A   1      28.323  28.558  22.986  1.00  0.00     0.132 C 
BRANCH  16  17
ATOM     17  C   UNL A   1      29.237  29.759  22.690  1.00  0.00     0.127 C 
ATOM     18  C   UNL A   1      29.147  30.951  23.649  1.00  0.00     0.033 C 
ATOM     19  O   UNL A   1      29.210  30.167  21.316  1.00  0.00    -0.378 OA
ATOM     20  C   UNL A   1      28.075  31.960  23.254  1.00  0.00     0.005 C 
ATOM     21  C   UNL A   1      28.154  31.051  20.948  1.00  0.00     0.160 C 
ATOM     22  C   UNL A   1      28.171  32.319  21.786  1.00  0.00     0.029 C 
ENDBRANCH  16  17
ENDBRANCH  14  16
ENDBRANCH   7  12
ENDBRANCH   4   7
ENDBRANCH   2   3
ENDBRANCH   1   2
BRANCH   1  23
ATOM     23  C   UNL A   1      31.866  31.169  26.795  1.00  0.00     0.023 C 
BRANCH  23  24
ATOM     24  C   UNL A   1      33.029  32.064  27.203  1.00  0.00     0.116 C 
BRANCH  24  25
ATOM     25  N   UNL A   1      32.614  33.410  27.570  1.00  0.00    -0.352 N 
ATOM     26  C   UNL A   1      33.205  34.274  28.459  1.00  0.00     0.251 C 
ATOM     27  H   UNL A   1      31.804  33.746  27.122  1.00  0.00     0.163 HD
ATOM     28  O   UNL A   1      32.665  35.332  28.762  1.00  0.00    -0.269 OA
BRANCH  26  29
ATOM     29  C   UNL A   1      34.489  33.889  29.075  1.00  0.00     0.039 A 
ATOM     30  C   UNL A   1      34.477  33.152  30.260  1.00  0.00     0.014 A 
ATOM     31  C   UNL A   1      35.694  34.204  28.441  1.00  0.00     0.014 A 
ATOM     32  C   UNL A   1      35.677  32.665  30.774  1.00  0.00     0.010 A 
ATOM     33  C   UNL A   1      36.879  33.651  28.911  1.00  0.00     0.010 A 
ATOM     34  C   UNL A   1      36.882  32.876  30.082  1.00  0.00    -0.014 A 
BRANCH  34  35
ATOM     35  C   UNL A   1      38.158  32.296  30.562  1.00  0.00     0.031 A 
ATOM     36  C   UNL A   1      38.664  31.007  29.978  1.00  0.00     0.074 A 
ATOM     37  C   UNL A   1      38.825  32.890  31.571  1.00  0.00     0.049 A 
ATOM     38  N   UNL A   1      39.719  30.309  30.309  1.00  0.00    -0.248 NA
ATOM     39  C   UNL A   1      37.862  30.409  28.898  1.00  0.00     0.031 C 
ATOM     40  C   UNL A   1      38.416  34.121  32.252  1.00  0.00     0.029 A 
ATOM     41  N   UNL A   1      39.988  32.532  32.204  1.00  0.00    -0.354 N 
ATOM     42  C   UNL A   1      39.696  29.184  29.494  1.00  0.00     0.074 A 
ATOM     43  C   UNL A   1      38.497  29.266  28.691  1.00  0.00     0.031 C 
ATOM     44  C   UNL A   1      39.330  34.430  33.187  1.00  0.00     0.029 A 
ATOM     45  C   UNL A   1      40.365  33.401  33.199  1.00  0.00     0.049 A 
ATOM     46  H   UNL A   1      40.505  31.728  31.968  1.00  0.00     0.167 HD
ATOM     47  C   UNL A   1      40.604  28.184  29.405  1.00  0.00     0.031 A 
ATOM     48  C   UNL A   1      41.423  33.371  34.030  1.00  0.00     0.031 A 
ATOM     49  C   UNL A   1      41.804  28.110  30.194  1.00  0.00     0.049 A 
ATOM     50  C   UNL A   1      42.411  32.243  33.918  1.00  0.00     0.074 A 
ATOM     51  C   UNL A   1      42.815  27.168  30.138  1.00  0.00     0.029 A 
ATOM     52  N   UNL A   1      42.154  29.016  31.183  1.00  0.00    -0.354 N 
ATOM     53  N   UNL A   1      42.411  31.223  33.095  1.00  0.00    -0.248 NA
ATOM     54  C   UNL A   1      43.552  32.271  34.846  1.00  0.00     0.031 C 
ATOM     55  C   UNL A   1      43.755  27.477  31.127  1.00  0.00     0.029 A 
ATOM     56  C   UNL A   1      43.355  28.641  31.761  1.00  0.00     0.049 A 
ATOM     57  H   UNL A   1      41.626  29.807  31.438  1.00  0.00     0.167 HD
ATOM     58  C   UNL A   1      43.563  30.504  33.385  1.00  0.00     0.074 A 
ATOM     59  C   UNL A   1      44.244  31.212  34.449  1.00  0.00     0.031 C 
ATOM     60  C   UNL A   1      44.018  29.359  32.819  1.00  0.00     0.031 A 
BRANCH  47  61
ATOM     61  C   UNL A   1      40.324  27.084  28.419  1.00  0.00    -0.014 A 
ATOM     62  C   UNL A   1      40.864  27.116  27.123  1.00  0.00     0.009 A 
ATOM     63  C   UNL A   1      39.533  25.990  28.799  1.00  0.00     0.009 A 
ATOM     64  C   UNL A   1      40.584  26.094  26.215  1.00  0.00     0.001 A 
ATOM     65  C   UNL A   1      39.280  24.953  27.898  1.00  0.00     0.001 A 
ATOM     66  C   UNL A   1      39.796  25.011  26.605  1.00  0.00     0.000 A 
ENDBRANCH  47  61
BRANCH  48  67
ATOM     67  C   UNL A   1      41.617  34.452  35.030  1.00  0.00    -0.014 A 
ATOM     68  C   UNL A   1      41.067  34.336  36.316  1.00  0.00     0.009 A 
ATOM     69  C   UNL A   1      42.343  35.608  34.705  1.00  0.00     0.009 A 
ATOM     70  C   UNL A   1      41.218  35.366  37.247  1.00  0.00     0.001 A 
ATOM     71  C   UNL A   1      42.517  36.624  35.647  1.00  0.00     0.001 A 
ATOM     72  C   UNL A   1      41.946  36.507  36.913  1.00  0.00     0.000 A 
ENDBRANCH  48  67
BRANCH  60  73
ATOM     73  C   UNL A   1      45.329  28.821  33.315  1.00  0.00    -0.014 A 
ATOM     74  C   UNL A   1      45.387  27.890  34.363  1.00  0.00     0.009 A 
ATOM     75  C   UNL A   1      46.522  29.223  32.694  1.00  0.00     0.009 A 
ATOM     76  C   UNL A   1      46.617  27.396  34.800  1.00  0.00     0.001 A 
ATOM     77  C   UNL A   1      47.749  28.706  33.114  1.00  0.00     0.001 A 
ATOM     78  C   UNL A   1      47.795  27.800  34.172  1.00  0.00     0.000 A 
ENDBRANCH  60  73
ENDBRANCH  34  35
ENDBRANCH  26  29
ENDBRANCH  24  25
ENDBRANCH  23  24
ENDBRANCH   1  23
TORSDOF 14
ENDMDL
