MODEL 1
REMARK VINA RESULT:     -11.1      0.000      0.000
REMARK SMILES C=CCc1cccc(-c2ccc([C@@H](C)C(=O)NCCCCNC(=O)c3ccc(-c4c5nc(c(-c6ccccc6)c6ccc([nH]6)c(-c6ccccc6)c6nc(c(-c7ccccc7)c7ccc4[nH]7)C=C6)C=C5)cc3)cc2)c1
REMARK SMILES IDX 18 1 17 2 15 3 16 4 13 6 14 7 12 8 9 9 10 10 74 11 11 12
REMARK SMILES IDX 73 13 8 14 4 15 5 16 75 17 6 18 7 19 3 20 2 21 1 22 19 23
REMARK SMILES IDX 20 24 21 25 22 26 23 27 24 29 25 30 26 31 72 32 27 33 71 34
REMARK SMILES IDX 28 35 29 36 30 37 65 38 31 39 70 40 64 41 66 42 32 43 69 44
REMARK SMILES IDX 63 45 62 46 33 48 55 49 40 50 54 51 41 52 44 53 53 54 67 55
REMARK SMILES IDX 42 56 43 57 52 59 68 60 45 61 34 62 35 63 39 64 36 65 38 66
REMARK SMILES IDX 37 67 56 68 57 69 61 70 58 71 60 72 59 73 46 74 47 75 51 76
REMARK SMILES IDX 48 77 50 78 49 79
REMARK H PARENT 17 5 22 28 66 47 44 58
REMARK Flexibility Score: inf
ROOT
ATOM      1  C   UNL A   1      30.726  30.069  24.902  1.00  0.00     0.116 C 
ENDROOT
BRANCH   1   2
ATOM      2  N   UNL A   1      30.503  30.201  23.479  1.00  0.00    -0.356 N 
ATOM      3  C   UNL A   1      29.983  29.333  22.566  1.00  0.00     0.227 C 
ATOM      4  O   UNL A   1      29.979  29.712  21.389  1.00  0.00    -0.274 OA
ATOM      5  H   UNL A   1      30.774  31.070  23.104  1.00  0.00     0.163 HD
BRANCH   3   6
ATOM      6  C   UNL A   1      29.406  27.956  22.932  1.00  0.00     0.105 C 
ATOM      7  C   UNL A   1      27.985  28.013  23.491  1.00  0.00     0.023 C 
BRANCH   6   8
ATOM      8  C   UNL A   1      30.392  27.070  23.680  1.00  0.00    -0.036 A 
ATOM      9  C   UNL A   1      32.111  25.242  25.062  1.00  0.00    -0.018 A 
ATOM     10  C   UNL A   1      32.507  25.884  23.877  1.00  0.00     0.009 A 
ATOM     11  C   UNL A   1      30.840  25.571  25.557  1.00  0.00     0.009 A 
ATOM     12  C   UNL A   1      31.683  26.806  23.219  1.00  0.00     0.005 A 
ATOM     13  C   UNL A   1      29.988  26.448  24.871  1.00  0.00     0.005 A 
BRANCH   9  14
ATOM     14  C   UNL A   1      33.001  24.270  25.748  1.00  0.00    -0.018 A 
ATOM     15  C   UNL A   1      35.250  23.351  26.206  1.00  0.00    -0.044 A 
ATOM     16  C   UNL A   1      34.679  22.405  27.064  1.00  0.00     0.004 A 
ATOM     17  C   UNL A   1      34.399  24.274  25.562  1.00  0.00     0.012 A 
ATOM     18  C   UNL A   1      33.306  22.386  27.280  1.00  0.00     0.001 A 
ATOM     19  C   UNL A   1      32.480  23.299  26.623  1.00  0.00     0.009 A 
BRANCH  15  20
ATOM     20  C   UNL A   1      36.729  23.363  25.873  1.00  0.00     0.062 C 
BRANCH  20  21
ATOM     21  C   UNL A   1      37.143  22.479  24.728  1.00  0.00    -0.030 C 
ATOM     22  C   UNL A   1      36.742  22.649  23.460  1.00  0.00     0.004 C 
ENDBRANCH  20  21
ENDBRANCH  15  20
ENDBRANCH   9  14
ENDBRANCH   6   8
ENDBRANCH   3   6
ENDBRANCH   1   2
BRANCH   1  23
ATOM     23  C   UNL A   1      32.179  29.721  25.233  1.00  0.00     0.023 C 
BRANCH  23  24
ATOM     24  C   UNL A   1      32.364  28.773  26.414  1.00  0.00     0.023 C 
BRANCH  24  25
ATOM     25  C   UNL A   1      33.570  29.063  27.298  1.00  0.00     0.116 C 
BRANCH  25  26
ATOM     26  N   UNL A   1      33.667  30.447  27.742  1.00  0.00    -0.352 N 
ATOM     27  C   UNL A   1      34.759  31.078  28.300  1.00  0.00     0.251 C 
ATOM     28  H   UNL A   1      32.858  30.996  27.632  1.00  0.00     0.163 HD
ATOM     29  O   UNL A   1      34.694  32.235  28.689  1.00  0.00    -0.269 OA
BRANCH  27  30
ATOM     30  C   UNL A   1      36.005  30.301  28.466  1.00  0.00     0.039 A 
ATOM     31  C   UNL A   1      36.949  30.309  27.438  1.00  0.00     0.014 A 
ATOM     32  C   UNL A   1      36.275  29.662  29.678  1.00  0.00     0.014 A 
ATOM     33  C   UNL A   1      38.211  29.754  27.660  1.00  0.00     0.010 A 
ATOM     34  C   UNL A   1      37.551  29.172  29.921  1.00  0.00     0.010 A 
ATOM     35  C   UNL A   1      38.536  29.228  28.920  1.00  0.00    -0.014 A 
BRANCH  35  36
ATOM     36  C   UNL A   1      39.898  28.734  29.237  1.00  0.00     0.031 A 
ATOM     37  C   UNL A   1      40.878  29.646  29.917  1.00  0.00     0.074 A 
ATOM     38  C   UNL A   1      40.285  27.512  28.822  1.00  0.00     0.049 A 
ATOM     39  N   UNL A   1      42.159  29.478  30.122  1.00  0.00    -0.248 NA
ATOM     40  C   UNL A   1      40.352  30.932  30.403  1.00  0.00     0.031 C 
ATOM     41  C   UNL A   1      39.437  26.536  28.133  1.00  0.00     0.029 A 
ATOM     42  N   UNL A   1      41.505  26.888  28.908  1.00  0.00    -0.354 N 
ATOM     43  C   UNL A   1      42.596  30.645  30.734  1.00  0.00     0.074 A 
ATOM     44  C   UNL A   1      41.454  31.528  30.832  1.00  0.00     0.031 C 
ATOM     45  C   UNL A   1      40.158  25.432  27.875  1.00  0.00     0.029 A 
ATOM     46  C   UNL A   1      41.528  25.638  28.336  1.00  0.00     0.049 A 
ATOM     47  H   UNL A   1      42.291  27.298  29.337  1.00  0.00     0.167 HD
ATOM     48  C   UNL A   1      43.834  30.950  31.187  1.00  0.00     0.031 A 
ATOM     49  C   UNL A   1      42.541  24.767  28.185  1.00  0.00     0.031 A 
ATOM     50  C   UNL A   1      44.964  30.066  31.111  1.00  0.00     0.049 A 
ATOM     51  C   UNL A   1      43.911  25.135  28.683  1.00  0.00     0.074 A 
ATOM     52  C   UNL A   1      46.252  30.272  31.573  1.00  0.00     0.029 A 
ATOM     53  N   UNL A   1      44.935  28.802  30.546  1.00  0.00    -0.354 N 
ATOM     54  N   UNL A   1      44.303  26.234  29.280  1.00  0.00    -0.248 NA
ATOM     55  C   UNL A   1      44.977  24.141  28.489  1.00  0.00     0.031 C 
ATOM     56  C   UNL A   1      47.011  29.139  31.264  1.00  0.00     0.029 A 
ATOM     57  C   UNL A   1      46.184  28.216  30.645  1.00  0.00     0.049 A 
ATOM     58  H   UNL A   1      44.144  28.383  30.137  1.00  0.00     0.167 HD
ATOM     59  C   UNL A   1      45.650  26.051  29.563  1.00  0.00     0.074 A 
ATOM     60  C   UNL A   1      46.008  24.735  29.075  1.00  0.00     0.031 C 
ATOM     61  C   UNL A   1      46.513  26.896  30.173  1.00  0.00     0.031 A 
BRANCH  48  62
ATOM     62  C   UNL A   1      44.024  32.304  31.807  1.00  0.00    -0.014 A 
ATOM     63  C   UNL A   1      44.140  33.453  31.010  1.00  0.00     0.009 A 
ATOM     64  C   UNL A   1      44.061  32.436  33.203  1.00  0.00     0.009 A 
ATOM     65  C   UNL A   1      44.325  34.705  31.597  1.00  0.00     0.001 A 
ATOM     66  C   UNL A   1      44.222  33.693  33.789  1.00  0.00     0.001 A 
ATOM     67  C   UNL A   1      44.363  34.825  32.987  1.00  0.00     0.000 A 
ENDBRANCH  48  62
BRANCH  49  68
ATOM     68  C   UNL A   1      42.306  23.447  27.542  1.00  0.00    -0.014 A 
ATOM     69  C   UNL A   1      41.790  22.379  28.292  1.00  0.00     0.009 A 
ATOM     70  C   UNL A   1      42.610  23.244  26.187  1.00  0.00     0.009 A 
ATOM     71  C   UNL A   1      41.610  21.125  27.705  1.00  0.00     0.001 A 
ATOM     72  C   UNL A   1      42.405  21.994  25.598  1.00  0.00     0.001 A 
ATOM     73  C   UNL A   1      41.915  20.933  26.359  1.00  0.00     0.000 A 
ENDBRANCH  49  68
BRANCH  61  74
ATOM     74  C   UNL A   1      47.912  26.408  30.403  1.00  0.00    -0.014 A 
ATOM     75  C   UNL A   1      48.273  25.772  31.601  1.00  0.00     0.009 A 
ATOM     76  C   UNL A   1      48.863  26.527  29.378  1.00  0.00     0.009 A 
ATOM     77  C   UNL A   1      49.568  25.281  31.772  1.00  0.00     0.001 A 
ATOM     78  C   UNL A   1      50.150  26.018  29.545  1.00  0.00     0.001 A 
ATOM     79  C   UNL A   1      50.503  25.399  30.743  1.00  0.00     0.000 A 
ENDBRANCH  61  74
ENDBRANCH  35  36
ENDBRANCH  27  30
ENDBRANCH  25  26
ENDBRANCH  24  25
ENDBRANCH  23  24
ENDBRANCH   1  23
TORSDOF 15
ENDMDL
MODEL 2
REMARK VINA RESULT:     -10.8      2.741      7.129
REMARK SMILES C=CCc1cccc(-c2ccc([C@@H](C)C(=O)NCCCCNC(=O)c3ccc(-c4c5nc(c(-c6ccccc6)c6ccc([nH]6)c(-c6ccccc6)c6nc(c(-c7ccccc7)c7ccc4[nH]7)C=C6)C=C5)cc3)cc2)c1
REMARK SMILES IDX 18 1 17 2 15 3 16 4 13 6 14 7 12 8 9 9 10 10 74 11 11 12
REMARK SMILES IDX 73 13 8 14 4 15 5 16 75 17 6 18 7 19 3 20 2 21 1 22 19 23
REMARK SMILES IDX 20 24 21 25 22 26 23 27 24 29 25 30 26 31 72 32 27 33 71 34
REMARK SMILES IDX 28 35 29 36 30 37 65 38 31 39 70 40 64 41 66 42 32 43 69 44
REMARK SMILES IDX 63 45 62 46 33 48 55 49 40 50 54 51 41 52 44 53 53 54 67 55
REMARK SMILES IDX 42 56 43 57 52 59 68 60 45 61 34 62 35 63 39 64 36 65 38 66
REMARK SMILES IDX 37 67 56 68 57 69 61 70 58 71 60 72 59 73 46 74 47 75 51 76
REMARK SMILES IDX 48 77 50 78 49 79
REMARK H PARENT 17 5 22 28 66 47 44 58
REMARK Flexibility Score: inf
ROOT
ATOM      1  C   UNL A   1      31.670  28.383  26.151  1.00  0.00     0.116 C 
ENDROOT
BRANCH   1   2
ATOM      2  N   UNL A   1      31.207  28.318  24.781  1.00  0.00    -0.356 N 
ATOM      3  C   UNL A   1      31.881  28.121  23.613  1.00  0.00     0.227 C 
ATOM      4  O   UNL A   1      31.209  28.182  22.576  1.00  0.00    -0.274 OA
ATOM      5  H   UNL A   1      30.236  28.436  24.675  1.00  0.00     0.163 HD
BRANCH   3   6
ATOM      6  C   UNL A   1      33.386  27.820  23.538  1.00  0.00     0.105 C 
ATOM      7  C   UNL A   1      34.078  28.442  22.325  1.00  0.00     0.023 C 
BRANCH   6   8
ATOM      8  C   UNL A   1      33.726  26.368  23.838  1.00  0.00    -0.036 A 
ATOM      9  C   UNL A   1      34.524  23.649  24.266  1.00  0.00    -0.018 A 
ATOM     10  C   UNL A   1      34.531  24.599  25.302  1.00  0.00     0.009 A 
ATOM     11  C   UNL A   1      34.070  24.093  23.015  1.00  0.00     0.009 A 
ATOM     12  C   UNL A   1      34.106  25.918  25.104  1.00  0.00     0.005 A 
ATOM     13  C   UNL A   1      33.699  25.428  22.797  1.00  0.00     0.005 A 
BRANCH   9  14
ATOM     14  C   UNL A   1      34.974  22.252  24.496  1.00  0.00    -0.018 A 
ATOM     15  C   UNL A   1      34.493  19.838  24.723  1.00  0.00    -0.044 A 
ATOM     16  C   UNL A   1      35.854  19.596  24.941  1.00  0.00     0.004 A 
ATOM     17  C   UNL A   1      34.075  21.167  24.500  1.00  0.00     0.012 A 
ATOM     18  C   UNL A   1      36.768  20.644  24.928  1.00  0.00     0.001 A 
ATOM     19  C   UNL A   1      36.331  21.953  24.719  1.00  0.00     0.009 A 
BRANCH  15  20
ATOM     20  C   UNL A   1      33.447  18.744  24.808  1.00  0.00     0.062 C 
BRANCH  20  21
ATOM     21  C   UNL A   1      33.362  17.834  23.613  1.00  0.00    -0.030 C 
ATOM     22  C   UNL A   1      33.950  16.631  23.538  1.00  0.00     0.004 C 
ENDBRANCH  20  21
ENDBRANCH  15  20
ENDBRANCH   9  14
ENDBRANCH   6   8
ENDBRANCH   3   6
ENDBRANCH   1   2
BRANCH   1  23
ATOM     23  C   UNL A   1      32.706  29.489  26.362  1.00  0.00     0.023 C 
BRANCH  23  24
ATOM     24  C   UNL A   1      32.165  30.769  26.992  1.00  0.00     0.023 C 
BRANCH  24  25
ATOM     25  C   UNL A   1      33.222  31.782  27.415  1.00  0.00     0.116 C 
BRANCH  25  26
ATOM     26  N   UNL A   1      32.694  33.107  27.715  1.00  0.00    -0.352 N 
ATOM     27  C   UNL A   1      33.262  34.078  28.512  1.00  0.00     0.251 C 
ATOM     28  H   UNL A   1      31.831  33.335  27.301  1.00  0.00     0.163 HD
ATOM     29  O   UNL A   1      32.686  35.133  28.734  1.00  0.00    -0.269 OA
BRANCH  27  30
ATOM     30  C   UNL A   1      34.569  33.791  29.139  1.00  0.00     0.039 A 
ATOM     31  C   UNL A   1      34.610  32.987  30.279  1.00  0.00     0.014 A 
ATOM     32  C   UNL A   1      35.748  34.231  28.533  1.00  0.00     0.014 A 
ATOM     33  C   UNL A   1      35.842  32.540  30.760  1.00  0.00     0.010 A 
ATOM     34  C   UNL A   1      36.967  33.731  28.972  1.00  0.00     0.010 A 
ATOM     35  C   UNL A   1      37.024  32.868  30.079  1.00  0.00    -0.014 A 
BRANCH  35  36
ATOM     36  C   UNL A   1      38.342  32.322  30.485  1.00  0.00     0.031 A 
ATOM     37  C   UNL A   1      38.821  31.026  29.896  1.00  0.00     0.074 A 
ATOM     38  C   UNL A   1      39.054  32.931  31.453  1.00  0.00     0.049 A 
ATOM     39  N   UNL A   1      39.847  30.291  30.242  1.00  0.00    -0.248 NA
ATOM     40  C   UNL A   1      38.022  30.469  28.794  1.00  0.00     0.031 C 
ATOM     41  C   UNL A   1      38.690  34.182  32.122  1.00  0.00     0.029 A 
ATOM     42  N   UNL A   1      40.231  32.563  32.057  1.00  0.00    -0.354 N 
ATOM     43  C   UNL A   1      39.799  29.174  29.419  1.00  0.00     0.074 A 
ATOM     44  C   UNL A   1      38.624  29.309  28.585  1.00  0.00     0.031 C 
ATOM     45  C   UNL A   1      39.633  34.487  33.029  1.00  0.00     0.029 A 
ATOM     46  C   UNL A   1      40.641  33.431  33.041  1.00  0.00     0.049 A 
ATOM     47  H   UNL A   1      40.734  31.754  31.810  1.00  0.00     0.167 HD
ATOM     48  C   UNL A   1      40.664  28.135  29.352  1.00  0.00     0.031 A 
ATOM     49  C   UNL A   1      41.700  33.372  33.870  1.00  0.00     0.031 A 
ATOM     50  C   UNL A   1      41.843  28.011  30.163  1.00  0.00     0.049 A 
ATOM     51  C   UNL A   1      42.637  32.200  33.787  1.00  0.00     0.074 A 
ATOM     52  C   UNL A   1      42.800  27.010  30.146  1.00  0.00     0.029 A 
ATOM     53  N   UNL A   1      42.232  28.925  31.128  1.00  0.00    -0.354 N 
ATOM     54  N   UNL A   1      42.590  31.163  32.988  1.00  0.00    -0.248 NA
ATOM     55  C   UNL A   1      43.775  32.193  34.718  1.00  0.00     0.031 C 
ATOM     56  C   UNL A   1      43.757  27.307  31.121  1.00  0.00     0.029 A 
ATOM     57  C   UNL A   1      43.414  28.510  31.717  1.00  0.00     0.049 A 
ATOM     58  H   UNL A   1      41.741  29.745  31.361  1.00  0.00     0.167 HD
ATOM     59  C   UNL A   1      43.708  30.398  33.296  1.00  0.00     0.074 A 
ATOM     60  C   UNL A   1      44.415  31.091  34.353  1.00  0.00     0.031 C 
ATOM     61  C   UNL A   1      44.112  29.226  32.751  1.00  0.00     0.031 A 
BRANCH  48  62
ATOM     62  C   UNL A   1      40.357  27.050  28.362  1.00  0.00    -0.014 A 
ATOM     63  C   UNL A   1      40.901  27.079  27.068  1.00  0.00     0.009 A 
ATOM     64  C   UNL A   1      39.537  25.974  28.732  1.00  0.00     0.009 A 
ATOM     65  C   UNL A   1      40.602  26.069  26.152  1.00  0.00     0.001 A 
ATOM     66  C   UNL A   1      39.259  24.952  27.822  1.00  0.00     0.001 A 
ATOM     67  C   UNL A   1      39.784  25.004  26.531  1.00  0.00     0.000 A 
ENDBRANCH  48  62
BRANCH  49  68
ATOM     68  C   UNL A   1      41.945  34.462  34.850  1.00  0.00    -0.014 A 
ATOM     69  C   UNL A   1      41.389  34.392  36.137  1.00  0.00     0.009 A 
ATOM     70  C   UNL A   1      42.716  35.582  34.502  1.00  0.00     0.009 A 
ATOM     71  C   UNL A   1      41.577  35.435  37.047  1.00  0.00     0.001 A 
ATOM     72  C   UNL A   1      42.922  36.611  35.424  1.00  0.00     0.001 A 
ATOM     73  C   UNL A   1      42.345  36.542  36.691  1.00  0.00     0.000 A 
ENDBRANCH  49  68
BRANCH  61  74
ATOM     74  C   UNL A   1      45.405  28.647  33.243  1.00  0.00    -0.014 A 
ATOM     75  C   UNL A   1      46.636  29.062  32.713  1.00  0.00     0.009 A 
ATOM     76  C   UNL A   1      45.390  27.720  34.296  1.00  0.00     0.009 A 
ATOM     77  C   UNL A   1      47.829  28.545  33.221  1.00  0.00     0.001 A 
ATOM     78  C   UNL A   1      46.584  27.220  34.814  1.00  0.00     0.001 A 
ATOM     79  C   UNL A   1      47.803  27.630  34.274  1.00  0.00     0.000 A 
ENDBRANCH  61  74
ENDBRANCH  35  36
ENDBRANCH  27  30
ENDBRANCH  25  26
ENDBRANCH  24  25
ENDBRANCH  23  24
ENDBRANCH   1  23
TORSDOF 15
ENDMDL
MODEL 3
REMARK VINA RESULT:     -10.8      3.496      5.122
REMARK SMILES C=CCc1cccc(-c2ccc([C@@H](C)C(=O)NCCCCNC(=O)c3ccc(-c4c5nc(c(-c6ccccc6)c6ccc([nH]6)c(-c6ccccc6)c6nc(c(-c7ccccc7)c7ccc4[nH]7)C=C6)C=C5)cc3)cc2)c1
REMARK SMILES IDX 18 1 17 2 15 3 16 4 13 6 14 7 12 8 9 9 10 10 74 11 11 12
REMARK SMILES IDX 73 13 8 14 4 15 5 16 75 17 6 18 7 19 3 20 2 21 1 22 19 23
REMARK SMILES IDX 20 24 21 25 22 26 23 27 24 29 25 30 26 31 72 32 27 33 71 34
REMARK SMILES IDX 28 35 29 36 30 37 65 38 31 39 70 40 64 41 66 42 32 43 69 44
REMARK SMILES IDX 63 45 62 46 33 48 55 49 40 50 54 51 41 52 44 53 53 54 67 55
REMARK SMILES IDX 42 56 43 57 52 59 68 60 45 61 34 62 35 63 39 64 36 65 38 66
REMARK SMILES IDX 37 67 56 68 57 69 61 70 58 71 60 72 59 73 46 74 47 75 51 76
REMARK SMILES IDX 48 77 50 78 49 79
REMARK H PARENT 17 5 22 28 66 47 44 58
REMARK Flexibility Score: inf
ROOT
ATOM      1  C   UNL A   1      32.663  29.597  27.121  1.00  0.00     0.116 C 
ENDROOT
BRANCH   1   2
ATOM      2  N   UNL A   1      31.807  28.448  27.319  1.00  0.00    -0.356 N 
ATOM      3  C   UNL A   1      31.502  27.403  26.500  1.00  0.00     0.227 C 
ATOM      4  O   UNL A   1      30.673  26.592  26.930  1.00  0.00    -0.274 OA
ATOM      5  H   UNL A   1      31.368  28.415  28.200  1.00  0.00     0.163 HD
BRANCH   3   6
ATOM      6  C   UNL A   1      32.137  27.191  25.116  1.00  0.00     0.105 C 
ATOM      7  C   UNL A   1      31.256  27.654  23.956  1.00  0.00     0.023 C 
BRANCH   6   8
ATOM      8  C   UNL A   1      32.800  25.830  24.960  1.00  0.00    -0.036 A 
ATOM      9  C   UNL A   1      34.052  23.254  24.874  1.00  0.00    -0.018 A 
ATOM     10  C   UNL A   1      32.781  23.482  24.322  1.00  0.00     0.009 A 
ATOM     11  C   UNL A   1      34.696  24.366  25.441  1.00  0.00     0.009 A 
ATOM     12  C   UNL A   1      32.183  24.749  24.329  1.00  0.00     0.005 A 
ATOM     13  C   UNL A   1      34.076  25.622  25.503  1.00  0.00     0.005 A 
BRANCH   9  14
ATOM     14  C   UNL A   1      34.673  21.905  24.854  1.00  0.00    -0.018 A 
ATOM     15  C   UNL A   1      34.482  19.441  24.785  1.00  0.00    -0.044 A 
ATOM     16  C   UNL A   1      35.877  19.341  24.819  1.00  0.00     0.004 A 
ATOM     17  C   UNL A   1      33.901  20.726  24.800  1.00  0.00     0.012 A 
ATOM     18  C   UNL A   1      36.666  20.485  24.856  1.00  0.00     0.001 A 
ATOM     19  C   UNL A   1      36.071  21.747  24.884  1.00  0.00     0.009 A 
BRANCH  15  20
ATOM     20  C   UNL A   1      33.576  18.226  24.826  1.00  0.00     0.062 C 
BRANCH  20  21
ATOM     21  C   UNL A   1      34.119  16.990  24.161  1.00  0.00    -0.030 C 
ATOM     22  C   UNL A   1      34.173  16.810  22.834  1.00  0.00     0.004 C 
ENDBRANCH  20  21
ENDBRANCH  15  20
ENDBRANCH   9  14
ENDBRANCH   6   8
ENDBRANCH   3   6
ENDBRANCH   1   2
BRANCH   1  23
ATOM     23  C   UNL A   1      32.037  30.635  26.188  1.00  0.00     0.023 C 
BRANCH  23  24
ATOM     24  C   UNL A   1      31.617  31.939  26.860  1.00  0.00     0.023 C 
BRANCH  24  25
ATOM     25  C   UNL A   1      32.762  32.808  27.367  1.00  0.00     0.116 C 
BRANCH  25  26
ATOM     26  N   UNL A   1      32.384  34.184  27.659  1.00  0.00    -0.352 N 
ATOM     27  C   UNL A   1      32.978  35.048  28.555  1.00  0.00     0.251 C 
ATOM     28  H   UNL A   1      31.615  34.539  27.159  1.00  0.00     0.163 HD
ATOM     29  O   UNL A   1      32.526  36.166  28.754  1.00  0.00    -0.269 OA
BRANCH  27  30
ATOM     30  C   UNL A   1      34.151  34.568  29.315  1.00  0.00     0.039 A 
ATOM     31  C   UNL A   1      33.951  33.980  30.566  1.00  0.00     0.014 A 
ATOM     32  C   UNL A   1      35.422  34.607  28.739  1.00  0.00     0.014 A 
ATOM     33  C   UNL A   1      35.018  33.340  31.201  1.00  0.00     0.010 A 
ATOM     34  C   UNL A   1      36.464  33.913  29.340  1.00  0.00     0.010 A 
ATOM     35  C   UNL A   1      36.268  33.259  30.568  1.00  0.00    -0.014 A 
BRANCH  35  36
ATOM     36  C   UNL A   1      37.395  32.491  31.151  1.00  0.00     0.031 A 
ATOM     37  C   UNL A   1      38.049  32.979  32.412  1.00  0.00     0.074 A 
ATOM     38  C   UNL A   1      37.894  31.425  30.497  1.00  0.00     0.049 A 
ATOM     39  N   UNL A   1      39.149  32.564  32.985  1.00  0.00    -0.248 NA
ATOM     40  C   UNL A   1      37.395  34.103  33.101  1.00  0.00     0.031 C 
ATOM     41  C   UNL A   1      37.365  30.862  29.253  1.00  0.00     0.029 A 
ATOM     42  N   UNL A   1      38.978  30.632  30.784  1.00  0.00    -0.354 N 
ATOM     43  C   UNL A   1      39.333  33.393  34.084  1.00  0.00     0.074 A 
ATOM     44  C   UNL A   1      38.254  34.357  34.076  1.00  0.00     0.031 C 
ATOM     45  C   UNL A   1      38.114  29.805  28.895  1.00  0.00     0.029 A 
ATOM     46  C   UNL A   1      39.202  29.645  29.854  1.00  0.00     0.049 A 
ATOM     47  H   UNL A   1      39.543  30.760  31.580  1.00  0.00     0.167 HD
ATOM     48  C   UNL A   1      40.304  33.347  35.025  1.00  0.00     0.031 A 
ATOM     49  C   UNL A   1      40.183  28.727  29.776  1.00  0.00     0.031 A 
ATOM     50  C   UNL A   1      41.363  32.376  35.048  1.00  0.00     0.049 A 
ATOM     51  C   UNL A   1      41.259  28.707  30.825  1.00  0.00     0.074 A 
ATOM     52  C   UNL A   1      42.377  32.228  35.979  1.00  0.00     0.029 A 
ATOM     53  N   UNL A   1      41.536  31.381  34.101  1.00  0.00    -0.354 N 
ATOM     54  N   UNL A   1      41.406  29.484  31.870  1.00  0.00    -0.248 NA
ATOM     55  C   UNL A   1      42.303  27.681  30.684  1.00  0.00     0.031 C 
ATOM     56  C   UNL A   1      43.180  31.155  35.580  1.00  0.00     0.029 A 
ATOM     57  C   UNL A   1      42.643  30.615  34.423  1.00  0.00     0.049 A 
ATOM     58  H   UNL A   1      40.959  31.240  33.317  1.00  0.00     0.167 HD
ATOM     59  C   UNL A   1      42.537  29.020  32.529  1.00  0.00     0.074 A 
ATOM     60  C   UNL A   1      43.037  27.894  31.768  1.00  0.00     0.031 C 
ATOM     61  C   UNL A   1      43.110  29.485  33.664  1.00  0.00     0.031 A 
BRANCH  48  62
ATOM     62  C   UNL A   1      40.259  34.385  36.109  1.00  0.00    -0.014 A 
ATOM     63  C   UNL A   1      39.477  34.193  37.259  1.00  0.00     0.009 A 
ATOM     64  C   UNL A   1      41.025  35.554  35.993  1.00  0.00     0.009 A 
ATOM     65  C   UNL A   1      39.435  35.169  38.256  1.00  0.00     0.001 A 
ATOM     66  C   UNL A   1      41.001  36.517  37.003  1.00  0.00     0.001 A 
ATOM     67  C   UNL A   1      40.200  36.329  38.129  1.00  0.00     0.000 A 
ENDBRANCH  48  62
BRANCH  49  68
ATOM     68  C   UNL A   1      40.195  27.737  28.668  1.00  0.00    -0.014 A 
ATOM     69  C   UNL A   1      39.578  26.487  28.832  1.00  0.00     0.009 A 
ATOM     70  C   UNL A   1      40.836  28.025  27.453  1.00  0.00     0.009 A 
ATOM     71  C   UNL A   1      39.626  25.534  27.812  1.00  0.00     0.001 A 
ATOM     72  C   UNL A   1      40.860  27.078  26.426  1.00  0.00     0.001 A 
ATOM     73  C   UNL A   1      40.264  25.831  26.609  1.00  0.00     0.000 A 
ENDBRANCH  49  68
BRANCH  61  74
ATOM     74  C   UNL A   1      44.305  28.745  34.188  1.00  0.00    -0.014 A 
ATOM     75  C   UNL A   1      45.607  29.113  33.819  1.00  0.00     0.009 A 
ATOM     76  C   UNL A   1      44.123  27.709  35.116  1.00  0.00     0.009 A 
ATOM     77  C   UNL A   1      46.706  28.442  34.358  1.00  0.00     0.001 A 
ATOM     78  C   UNL A   1      45.222  27.053  35.668  1.00  0.00     0.001 A 
ATOM     79  C   UNL A   1      46.514  27.418  35.286  1.00  0.00     0.000 A 
ENDBRANCH  61  74
ENDBRANCH  35  36
ENDBRANCH  27  30
ENDBRANCH  25  26
ENDBRANCH  24  25
ENDBRANCH  23  24
ENDBRANCH   1  23
TORSDOF 15
ENDMDL
