MODEL 1
REMARK VINA RESULT:     -13.5      0.000      0.000
REMARK SMILES Cc1ccc(NC(=O)c2cnn3c2NC2=C(C(=O)CCC2)[C@H]3c2ccc(C(=O)NCCCCNC(=O)c3ccc(-c4c5nc(c(-c6ccccc6)c6ccc([nH]6)c(-c6ccccc6)c6nc(c(-c7ccccc7)c7ccc4[nH]7)C=C6)C=C5)cc3)cc2)cc1
REMARK SMILES IDX 31 1 30 2 29 3 27 4 28 5 26 7 23 8 24 9 86 10 25 11 85 12
REMARK SMILES IDX 22 13 9 14 10 15 13 16 11 17 12 18 14 19 15 20 16 22 21 23
REMARK SMILES IDX 17 24 20 25 18 26 19 27 7 28 6 29 8 31 5 32 1 33 2 34 3 35
REMARK SMILES IDX 88 36 4 37 87 38 32 39 33 40 34 41 35 42 36 44 37 45 38 46
REMARK SMILES IDX 84 47 39 48 83 49 40 50 41 51 42 52 77 53 43 54 82 55 76 56
REMARK SMILES IDX 78 57 44 58 81 59 75 60 74 61 45 63 67 64 52 65 66 66 53 67
REMARK SMILES IDX 56 68 65 69 79 70 54 71 55 72 64 74 80 75 57 76 46 77 47 78
REMARK SMILES IDX 51 79 48 80 50 81 49 82 68 83 69 84 73 85 70 86 72 87 71 88
REMARK SMILES IDX 58 89 59 90 63 91 60 92 62 93 61 94
REMARK H PARENT 29 6 14 21 6 30 34 43 78 62 56 73
REMARK Flexibility Score: inf
ROOT
ATOM      1  C   UNL A   1      40.933  21.034  27.652  1.00  0.00     0.023 C 
ENDROOT
BRANCH   1   2
ATOM      2  C   UNL A   1      39.865  21.575  26.686  1.00  0.00     0.116 C 
BRANCH   2   3
ATOM      3  N   UNL A   1      39.477  22.949  26.970  1.00  0.00    -0.352 N 
ATOM      4  C   UNL A   1      38.380  23.717  26.659  1.00  0.00     0.251 C 
ATOM      5  O   UNL A   1      38.309  24.821  27.202  1.00  0.00    -0.269 OA
ATOM      6  H   UNL A   1      40.148  23.435  27.502  1.00  0.00     0.163 HD
BRANCH   4   7
ATOM      7  C   UNL A   1      37.269  23.297  25.750  1.00  0.00     0.039 A 
ATOM      8  C   UNL A   1      35.177  22.774  23.882  1.00  0.00    -0.019 A 
ATOM      9  C   UNL A   1      36.470  23.087  23.439  1.00  0.00     0.007 A 
ATOM     10  C   UNL A   1      35.025  22.518  25.254  1.00  0.00     0.007 A 
ATOM     11  C   UNL A   1      37.497  23.353  24.364  1.00  0.00     0.014 A 
ATOM     12  C   UNL A   1      36.038  22.813  26.174  1.00  0.00     0.014 A 
BRANCH   8  13
ATOM     13  C   UNL A   1      33.935  22.910  22.940  1.00  0.00     0.175 C 
ATOM     14  C   UNL A   1      31.371  23.312  25.401  1.00  0.00     0.102 A 
ATOM     15  C   UNL A   1      30.982  22.138  24.687  1.00  0.00     0.151 A 
ATOM     16  C   UNL A   1      32.342  23.860  24.592  1.00  0.00     0.142 A 
ATOM     17  N   UNL A   1      31.824  21.816  23.698  1.00  0.00    -0.178 NA
ATOM     18  N   UNL A   1      32.704  22.827  23.741  1.00  0.00    -0.237 N 
ATOM     19  N   UNL A   1      32.999  25.056  24.451  1.00  0.00    -0.343 N 
ATOM     20  C   UNL A   1      33.624  25.343  23.222  1.00  0.00     0.026 C 
ATOM     21  H   UNL A   1      33.034  25.700  25.194  1.00  0.00     0.168 HD
ATOM     22  C   UNL A   1      33.852  24.311  22.372  1.00  0.00     0.044 C 
ATOM     23  C   UNL A   1      33.694  26.755  22.712  1.00  0.00     0.055 C 
ATOM     24  C   UNL A   1      33.186  24.495  21.052  1.00  0.00     0.163 C 
ATOM     25  C   UNL A   1      32.895  26.943  21.419  1.00  0.00     0.014 C 
ATOM     26  O   UNL A   1      33.299  23.652  20.170  1.00  0.00    -0.294 OA
ATOM     27  C   UNL A   1      32.210  25.661  20.958  1.00  0.00     0.081 C 
BRANCH  14  28
ATOM     28  C   UNL A   1      30.829  23.846  26.630  1.00  0.00     0.261 C 
ATOM     29  N   UNL A   1      30.576  25.205  26.728  1.00  0.00    -0.322 N 
ATOM     30  H   UNL A   1      30.501  25.535  27.652  1.00  0.00     0.170 HD
ATOM     31  O   UNL A   1      30.615  23.128  27.607  1.00  0.00    -0.269 OA
BRANCH  29  32
ATOM     32  C   UNL A   1      30.407  26.203  25.742  1.00  0.00     0.041 A 
ATOM     33  C   UNL A   1      30.210  29.232  22.656  1.00  0.00     0.044 C 
ATOM     34  C   UNL A   1      30.247  28.217  23.759  1.00  0.00    -0.051 A 
ATOM     35  C   UNL A   1      29.439  27.084  23.686  1.00  0.00     0.005 A 
ATOM     36  C   UNL A   1      31.106  28.357  24.854  1.00  0.00     0.005 A 
ATOM     37  C   UNL A   1      29.496  26.112  24.689  1.00  0.00     0.026 A 
ATOM     38  C   UNL A   1      31.178  27.363  25.842  1.00  0.00     0.026 A 
ENDBRANCH  29  32
ENDBRANCH  14  28
ENDBRANCH   8  13
ENDBRANCH   4   7
ENDBRANCH   2   3
ENDBRANCH   1   2
BRANCH   1  39
ATOM     39  C   UNL A   1      42.384  21.261  27.221  1.00  0.00     0.023 C 
BRANCH  39  40
ATOM     40  C   UNL A   1      42.545  21.798  25.808  1.00  0.00     0.116 C 
BRANCH  40  41
ATOM     41  N   UNL A   1      43.524  21.088  24.990  1.00  0.00    -0.352 N 
ATOM     42  C   UNL A   1      44.826  21.460  24.669  1.00  0.00     0.251 C 
ATOM     43  H   UNL A   1      43.222  20.229  24.616  1.00  0.00     0.163 HD
ATOM     44  O   UNL A   1      45.521  20.759  23.966  1.00  0.00    -0.269 OA
BRANCH  42  45
ATOM     45  C   UNL A   1      45.392  22.673  25.316  1.00  0.00     0.039 A 
ATOM     46  C   UNL A   1      45.821  22.560  26.642  1.00  0.00     0.014 A 
ATOM     47  C   UNL A   1      45.261  23.924  24.719  1.00  0.00     0.014 A 
ATOM     48  C   UNL A   1      45.846  23.699  27.442  1.00  0.00     0.010 A 
ATOM     49  C   UNL A   1      45.192  25.039  25.530  1.00  0.00     0.010 A 
ATOM     50  C   UNL A   1      45.403  24.910  26.905  1.00  0.00    -0.014 A 
BRANCH  50  51
ATOM     51  C   UNL A   1      44.993  26.034  27.738  1.00  0.00     0.031 A 
ATOM     52  C   UNL A   1      43.588  26.490  27.745  1.00  0.00     0.074 A 
ATOM     53  C   UNL A   1      45.904  26.681  28.500  1.00  0.00     0.049 A 
ATOM     54  N   UNL A   1      43.226  27.713  27.950  1.00  0.00    -0.248 NA
ATOM     55  C   UNL A   1      42.471  25.593  27.472  1.00  0.00     0.031 C 
ATOM     56  C   UNL A   1      45.645  27.692  29.524  1.00  0.00     0.029 A 
ATOM     57  N   UNL A   1      47.285  26.677  28.428  1.00  0.00    -0.354 N 
ATOM     58  C   UNL A   1      41.862  27.712  28.131  1.00  0.00     0.074 A 
ATOM     59  C   UNL A   1      41.430  26.392  27.732  1.00  0.00     0.031 C 
ATOM     60  C   UNL A   1      46.773  28.391  29.737  1.00  0.00     0.029 A 
ATOM     61  C   UNL A   1      47.750  27.947  28.757  1.00  0.00     0.049 A 
ATOM     62  H   UNL A   1      47.845  25.905  28.185  1.00  0.00     0.167 HD
ATOM     63  C   UNL A   1      41.259  28.772  28.743  1.00  0.00     0.031 A 
ATOM     64  C   UNL A   1      48.405  28.768  27.883  1.00  0.00     0.031 A 
ATOM     65  C   UNL A   1      42.214  29.822  29.086  1.00  0.00     0.049 A 
ATOM     66  C   UNL A   1      47.685  30.085  27.639  1.00  0.00     0.074 A 
ATOM     67  C   UNL A   1      42.854  30.154  30.271  1.00  0.00     0.029 A 
ATOM     68  N   UNL A   1      42.860  30.525  28.078  1.00  0.00    -0.354 N 
ATOM     69  N   UNL A   1      46.437  30.300  27.953  1.00  0.00    -0.248 NA
ATOM     70  C   UNL A   1      48.288  31.238  26.967  1.00  0.00     0.031 C 
ATOM     71  C   UNL A   1      43.942  31.008  29.956  1.00  0.00     0.029 A 
ATOM     72  C   UNL A   1      43.941  31.218  28.588  1.00  0.00     0.049 A 
ATOM     73  H   UNL A   1      42.587  30.529  27.132  1.00  0.00     0.167 HD
ATOM     74  C   UNL A   1      46.062  31.549  27.540  1.00  0.00     0.074 A 
ATOM     75  C   UNL A   1      47.260  32.107  26.940  1.00  0.00     0.031 C 
ATOM     76  C   UNL A   1      44.788  32.010  27.710  1.00  0.00     0.031 A 
BRANCH  63  77
ATOM     77  C   UNL A   1      39.859  28.710  29.306  1.00  0.00    -0.014 A 
ATOM     78  C   UNL A   1      38.790  29.264  28.576  1.00  0.00     0.009 A 
ATOM     79  C   UNL A   1      39.531  28.174  30.563  1.00  0.00     0.009 A 
ATOM     80  C   UNL A   1      37.501  29.379  29.113  1.00  0.00     0.001 A 
ATOM     81  C   UNL A   1      38.256  28.323  31.125  1.00  0.00     0.001 A 
ATOM     82  C   UNL A   1      37.242  28.939  30.405  1.00  0.00     0.000 A 
ENDBRANCH  63  77
BRANCH  64  83
ATOM     83  C   UNL A   1      49.204  28.053  26.851  1.00  0.00    -0.014 A 
ATOM     84  C   UNL A   1      50.520  27.663  27.173  1.00  0.00     0.009 A 
ATOM     85  C   UNL A   1      48.583  27.464  25.741  1.00  0.00     0.009 A 
ATOM     86  C   UNL A   1      51.147  26.623  26.482  1.00  0.00     0.001 A 
ATOM     87  C   UNL A   1      49.222  26.433  25.042  1.00  0.00     0.001 A 
ATOM     88  C   UNL A   1      50.484  25.987  25.436  1.00  0.00     0.000 A 
ENDBRANCH  64  83
BRANCH  76  89
ATOM     89  C   UNL A   1      44.216  33.276  27.125  1.00  0.00    -0.014 A 
ATOM     90  C   UNL A   1      43.955  33.464  25.761  1.00  0.00     0.009 A 
ATOM     91  C   UNL A   1      43.776  34.292  28.004  1.00  0.00     0.009 A 
ATOM     92  C   UNL A   1      43.319  34.625  25.298  1.00  0.00     0.001 A 
ATOM     93  C   UNL A   1      43.105  35.428  27.550  1.00  0.00     0.001 A 
ATOM     94  C   UNL A   1      42.885  35.600  26.193  1.00  0.00     0.000 A 
ENDBRANCH  76  89
ENDBRANCH  50  51
ENDBRANCH  42  45
ENDBRANCH  40  41
ENDBRANCH  39  40
ENDBRANCH   1  39
TORSDOF 14
ENDMDL
MODEL 2
REMARK VINA RESULT:     -12.9      3.684      5.846
REMARK SMILES Cc1ccc(NC(=O)c2cnn3c2NC2=C(C(=O)CCC2)[C@H]3c2ccc(C(=O)NCCCCNC(=O)c3ccc(-c4c5nc(c(-c6ccccc6)c6ccc([nH]6)c(-c6ccccc6)c6nc(c(-c7ccccc7)c7ccc4[nH]7)C=C6)C=C5)cc3)cc2)cc1
REMARK SMILES IDX 31 1 30 2 29 3 27 4 28 5 26 7 23 8 24 9 86 10 25 11 85 12
REMARK SMILES IDX 22 13 9 14 10 15 13 16 11 17 12 18 14 19 15 20 16 22 21 23
REMARK SMILES IDX 17 24 20 25 18 26 19 27 7 28 6 29 8 31 5 32 1 33 2 34 3 35
REMARK SMILES IDX 88 36 4 37 87 38 32 39 33 40 34 41 35 42 36 44 37 45 38 46
REMARK SMILES IDX 84 47 39 48 83 49 40 50 41 51 42 52 77 53 43 54 82 55 76 56
REMARK SMILES IDX 78 57 44 58 81 59 75 60 74 61 45 63 67 64 52 65 66 66 53 67
REMARK SMILES IDX 56 68 65 69 79 70 54 71 55 72 64 74 80 75 57 76 46 77 47 78
REMARK SMILES IDX 51 79 48 80 50 81 49 82 68 83 69 84 73 85 70 86 72 87 71 88
REMARK SMILES IDX 58 89 59 90 63 91 60 92 62 93 61 94
REMARK H PARENT 29 6 14 21 6 30 34 43 78 62 56 73
REMARK Flexibility Score: inf
ROOT
ATOM      1  C   UNL A   1      40.578  25.148  28.375  1.00  0.00     0.023 C 
ENDROOT
BRANCH   1   2
ATOM      2  C   UNL A   1      39.374  24.490  27.680  1.00  0.00     0.116 C 
BRANCH   2   3
ATOM      3  N   UNL A   1      39.666  23.161  27.162  1.00  0.00    -0.352 N 
ATOM      4  C   UNL A   1      39.018  22.307  26.300  1.00  0.00     0.251 C 
ATOM      5  O   UNL A   1      39.638  21.300  25.955  1.00  0.00    -0.269 OA
ATOM      6  H   UNL A   1      40.513  22.794  27.502  1.00  0.00     0.163 HD
BRANCH   4   7
ATOM      7  C   UNL A   1      37.652  22.532  25.736  1.00  0.00     0.039 A 
ATOM      8  C   UNL A   1      35.116  22.744  24.447  1.00  0.00    -0.019 A 
ATOM      9  C   UNL A   1      35.548  21.521  24.980  1.00  0.00     0.007 A 
ATOM     10  C   UNL A   1      35.878  23.878  24.770  1.00  0.00     0.007 A 
ATOM     11  C   UNL A   1      36.803  21.419  25.606  1.00  0.00     0.014 A 
ATOM     12  C   UNL A   1      37.141  23.769  25.366  1.00  0.00     0.014 A 
BRANCH   8  13
ATOM     13  C   UNL A   1      33.974  22.814  23.379  1.00  0.00     0.175 C 
ATOM     14  C   UNL A   1      31.163  23.234  25.549  1.00  0.00     0.102 A 
ATOM     15  C   UNL A   1      30.876  22.026  24.844  1.00  0.00     0.151 A 
ATOM     16  C   UNL A   1      32.199  23.780  24.823  1.00  0.00     0.142 A 
ATOM     17  N   UNL A   1      31.822  21.692  23.959  1.00  0.00    -0.178 NA
ATOM     18  N   UNL A   1      32.670  22.727  24.053  1.00  0.00    -0.237 N 
ATOM     19  N   UNL A   1      32.840  24.986  24.704  1.00  0.00    -0.343 N 
ATOM     20  C   UNL A   1      33.581  25.246  23.536  1.00  0.00     0.026 C 
ATOM     21  H   UNL A   1      32.784  25.657  25.423  1.00  0.00     0.168 HD
ATOM     22  C   UNL A   1      33.918  24.191  22.752  1.00  0.00     0.044 C 
ATOM     23  C   UNL A   1      33.672  26.641  22.982  1.00  0.00     0.055 C 
ATOM     24  C   UNL A   1      33.387  24.311  21.366  1.00  0.00     0.163 C 
ATOM     25  C   UNL A   1      33.005  26.762  21.609  1.00  0.00     0.014 C 
ATOM     26  O   UNL A   1      33.609  23.441  20.532  1.00  0.00    -0.294 OA
ATOM     27  C   UNL A   1      32.400  25.447  21.129  1.00  0.00     0.081 C 
BRANCH  14  28
ATOM     28  C   UNL A   1      30.486  23.797  26.696  1.00  0.00     0.261 C 
ATOM     29  N   UNL A   1      30.218  25.156  26.728  1.00  0.00    -0.322 N 
ATOM     30  H   UNL A   1      30.039  25.511  27.629  1.00  0.00     0.170 HD
ATOM     31  O   UNL A   1      30.169  23.104  27.662  1.00  0.00    -0.269 OA
BRANCH  29  32
ATOM     32  C   UNL A   1      30.154  26.126  25.703  1.00  0.00     0.041 A 
ATOM     33  C   UNL A   1      30.283  29.054  22.517  1.00  0.00     0.044 C 
ATOM     34  C   UNL A   1      30.206  28.077  23.652  1.00  0.00    -0.051 A 
ATOM     35  C   UNL A   1      29.359  26.974  23.560  1.00  0.00     0.005 A 
ATOM     36  C   UNL A   1      30.998  28.220  24.796  1.00  0.00     0.005 A 
ATOM     37  C   UNL A   1      29.310  26.036  24.595  1.00  0.00     0.026 A 
ATOM     38  C   UNL A   1      30.965  27.258  25.816  1.00  0.00     0.026 A 
ENDBRANCH  29  32
ENDBRANCH  14  28
ENDBRANCH   8  13
ENDBRANCH   4   7
ENDBRANCH   2   3
ENDBRANCH   1   2
BRANCH   1  39
ATOM     39  C   UNL A   1      41.949  24.783  27.801  1.00  0.00     0.023 C 
BRANCH  39  40
ATOM     40  C   UNL A   1      42.880  25.968  27.592  1.00  0.00     0.116 C 
BRANCH  40  41
ATOM     41  N   UNL A   1      43.034  26.389  26.202  1.00  0.00    -0.352 N 
ATOM     42  C   UNL A   1      42.557  27.541  25.584  1.00  0.00     0.251 C 
ATOM     43  H   UNL A   1      43.545  25.776  25.626  1.00  0.00     0.163 HD
ATOM     44  O   UNL A   1      42.764  27.750  24.408  1.00  0.00    -0.269 OA
BRANCH  42  45
ATOM     45  C   UNL A   1      41.903  28.575  26.427  1.00  0.00     0.039 A 
ATOM     46  C   UNL A   1      42.722  29.363  27.241  1.00  0.00     0.014 A 
ATOM     47  C   UNL A   1      40.521  28.585  26.595  1.00  0.00     0.014 A 
ATOM     48  C   UNL A   1      42.183  29.933  28.391  1.00  0.00     0.010 A 
ATOM     49  C   UNL A   1      40.002  29.068  27.780  1.00  0.00     0.010 A 
ATOM     50  C   UNL A   1      40.851  29.668  28.714  1.00  0.00    -0.014 A 
BRANCH  50  51
ATOM     51  C   UNL A   1      40.319  29.848  30.059  1.00  0.00     0.031 A 
ATOM     52  C   UNL A   1      39.441  30.995  30.372  1.00  0.00     0.074 A 
ATOM     53  C   UNL A   1      40.639  28.972  31.038  1.00  0.00     0.049 A 
ATOM     54  N   UNL A   1      39.379  31.562  31.530  1.00  0.00    -0.248 NA
ATOM     55  C   UNL A   1      38.587  31.625  29.372  1.00  0.00     0.031 C 
ATOM     56  C   UNL A   1      40.059  28.889  32.377  1.00  0.00     0.029 A 
ATOM     57  N   UNL A   1      41.663  28.045  31.100  1.00  0.00    -0.354 N 
ATOM     58  C   UNL A   1      38.295  32.409  31.515  1.00  0.00     0.074 A 
ATOM     59  C   UNL A   1      37.895  32.484  30.128  1.00  0.00     0.031 C 
ATOM     60  C   UNL A   1      40.906  28.216  33.176  1.00  0.00     0.029 A 
ATOM     61  C   UNL A   1      42.119  27.972  32.413  1.00  0.00     0.049 A 
ATOM     62  H   UNL A   1      42.011  27.523  30.341  1.00  0.00     0.167 HD
ATOM     63  C   UNL A   1      37.753  32.838  32.691  1.00  0.00     0.031 A 
ATOM     64  C   UNL A   1      43.374  28.344  32.805  1.00  0.00     0.031 A 
ATOM     65  C   UNL A   1      38.487  32.333  33.849  1.00  0.00     0.049 A 
ATOM     66  C   UNL A   1      43.377  29.473  33.824  1.00  0.00     0.074 A 
ATOM     67  C   UNL A   1      38.256  31.276  34.714  1.00  0.00     0.029 A 
ATOM     68  N   UNL A   1      39.792  32.752  34.075  1.00  0.00    -0.354 N 
ATOM     69  N   UNL A   1      42.346  30.234  34.068  1.00  0.00    -0.248 NA
ATOM     70  C   UNL A   1      44.552  29.877  34.599  1.00  0.00     0.031 C 
ATOM     71  C   UNL A   1      39.461  31.012  35.414  1.00  0.00     0.029 A 
ATOM     72  C   UNL A   1      40.410  31.927  34.996  1.00  0.00     0.049 A 
ATOM     73  H   UNL A   1      40.217  33.526  33.640  1.00  0.00     0.167 HD
ATOM     74  C   UNL A   1      42.686  31.201  34.975  1.00  0.00     0.074 A 
ATOM     75  C   UNL A   1      44.075  30.927  35.291  1.00  0.00     0.031 C 
ATOM     76  C   UNL A   1      41.797  32.156  35.374  1.00  0.00     0.031 A 
BRANCH  63  77
ATOM     77  C   UNL A   1      36.377  33.453  32.788  1.00  0.00    -0.014 A 
ATOM     78  C   UNL A   1      36.233  34.851  32.699  1.00  0.00     0.009 A 
ATOM     79  C   UNL A   1      35.197  32.728  33.018  1.00  0.00     0.009 A 
ATOM     80  C   UNL A   1      35.009  35.490  32.939  1.00  0.00     0.001 A 
ATOM     81  C   UNL A   1      33.978  33.360  33.301  1.00  0.00     0.001 A 
ATOM     82  C   UNL A   1      33.887  34.744  33.276  1.00  0.00     0.000 A 
ENDBRANCH  63  77
BRANCH  64  83
ATOM     83  C   UNL A   1      44.422  28.160  31.764  1.00  0.00    -0.014 A 
ATOM     84  C   UNL A   1      44.797  26.846  31.415  1.00  0.00     0.009 A 
ATOM     85  C   UNL A   1      44.771  29.208  30.901  1.00  0.00     0.009 A 
ATOM     86  C   UNL A   1      45.391  26.576  30.179  1.00  0.00     0.001 A 
ATOM     87  C   UNL A   1      45.380  28.933  29.671  1.00  0.00     0.001 A 
ATOM     88  C   UNL A   1      45.653  27.618  29.294  1.00  0.00     0.000 A 
ENDBRANCH  64  83
BRANCH  76  89
ATOM     89  C   UNL A   1      42.113  33.373  36.206  1.00  0.00    -0.014 A 
ATOM     90  C   UNL A   1      42.655  34.558  35.692  1.00  0.00     0.009 A 
ATOM     91  C   UNL A   1      41.714  33.390  37.561  1.00  0.00     0.009 A 
ATOM     92  C   UNL A   1      42.823  35.690  36.502  1.00  0.00     0.001 A 
ATOM     93  C   UNL A   1      41.840  34.528  38.359  1.00  0.00     0.001 A 
ATOM     94  C   UNL A   1      42.405  35.678  37.830  1.00  0.00     0.000 A 
ENDBRANCH  76  89
ENDBRANCH  50  51
ENDBRANCH  42  45
ENDBRANCH  40  41
ENDBRANCH  39  40
ENDBRANCH   1  39
TORSDOF 14
ENDMDL
MODEL 3
REMARK VINA RESULT:     -12.8      5.569     10.934
REMARK SMILES Cc1ccc(NC(=O)c2cnn3c2NC2=C(C(=O)CCC2)[C@H]3c2ccc(C(=O)NCCCCNC(=O)c3ccc(-c4c5nc(c(-c6ccccc6)c6ccc([nH]6)c(-c6ccccc6)c6nc(c(-c7ccccc7)c7ccc4[nH]7)C=C6)C=C5)cc3)cc2)cc1
REMARK SMILES IDX 31 1 30 2 29 3 27 4 28 5 26 7 23 8 24 9 86 10 25 11 85 12
REMARK SMILES IDX 22 13 9 14 10 15 13 16 11 17 12 18 14 19 15 20 16 22 21 23
REMARK SMILES IDX 17 24 20 25 18 26 19 27 7 28 6 29 8 31 5 32 1 33 2 34 3 35
REMARK SMILES IDX 88 36 4 37 87 38 32 39 33 40 34 41 35 42 36 44 37 45 38 46
REMARK SMILES IDX 84 47 39 48 83 49 40 50 41 51 42 52 77 53 43 54 82 55 76 56
REMARK SMILES IDX 78 57 44 58 81 59 75 60 74 61 45 63 67 64 52 65 66 66 53 67
REMARK SMILES IDX 56 68 65 69 79 70 54 71 55 72 64 74 80 75 57 76 46 77 47 78
REMARK SMILES IDX 51 79 48 80 50 81 49 82 68 83 69 84 73 85 70 86 72 87 71 88
REMARK SMILES IDX 58 89 59 90 63 91 60 92 62 93 61 94
REMARK H PARENT 29 6 14 21 6 30 34 43 78 62 56 73
REMARK Flexibility Score: inf
ROOT
ATOM      1  C   UNL A   1      43.849  26.256  25.110  1.00  0.00     0.023 C 
ENDROOT
BRANCH   1   2
ATOM      2  C   UNL A   1      44.223  27.033  26.384  1.00  0.00     0.116 C 
BRANCH   2   3
ATOM      3  N   UNL A   1      44.511  28.438  26.135  1.00  0.00    -0.352 N 
ATOM      4  C   UNL A   1      44.441  29.579  26.900  1.00  0.00     0.251 C 
ATOM      5  O   UNL A   1      44.915  30.603  26.405  1.00  0.00    -0.269 OA
ATOM      6  H   UNL A   1      44.824  28.609  25.218  1.00  0.00     0.163 HD
BRANCH   4   7
ATOM      7  C   UNL A   1      43.872  29.651  28.280  1.00  0.00     0.039 A 
ATOM      8  C   UNL A   1      42.793  30.100  30.883  1.00  0.00    -0.019 A 
ATOM      9  C   UNL A   1      42.137  30.586  29.743  1.00  0.00     0.007 A 
ATOM     10  C   UNL A   1      43.860  29.213  30.668  1.00  0.00     0.007 A 
ATOM     11  C   UNL A   1      42.677  30.370  28.462  1.00  0.00     0.014 A 
ATOM     12  C   UNL A   1      44.414  29.025  29.395  1.00  0.00     0.014 A 
BRANCH   8  13
ATOM     13  C   UNL A   1      42.493  30.676  32.307  1.00  0.00     0.175 C 
ATOM     14  C   UNL A   1      39.011  29.891  32.539  1.00  0.00     0.102 A 
ATOM     15  C   UNL A   1      39.055  31.313  32.673  1.00  0.00     0.151 A 
ATOM     16  C   UNL A   1      40.329  29.524  32.705  1.00  0.00     0.142 A 
ATOM     17  N   UNL A   1      40.294  31.813  32.620  1.00  0.00    -0.178 NA
ATOM     18  N   UNL A   1      41.040  30.701  32.527  1.00  0.00    -0.237 N 
ATOM     19  N   UNL A   1      41.049  28.382  32.952  1.00  0.00    -0.343 N 
ATOM     20  C   UNL A   1      42.351  28.504  33.472  1.00  0.00     0.026 C 
ATOM     21  H   UNL A   1      40.662  27.496  32.768  1.00  0.00     0.168 HD
ATOM     22  C   UNL A   1      42.961  29.712  33.377  1.00  0.00     0.044 C 
ATOM     23  C   UNL A   1      42.897  27.469  34.416  1.00  0.00     0.055 C 
ATOM     24  C   UNL A   1      43.345  30.268  34.704  1.00  0.00     0.163 C 
ATOM     25  C   UNL A   1      43.164  28.042  35.811  1.00  0.00     0.014 C 
ATOM     26  O   UNL A   1      43.910  31.352  34.790  1.00  0.00    -0.294 OA
ATOM     27  C   UNL A   1      42.807  29.520  35.918  1.00  0.00     0.081 C 
BRANCH  14  28
ATOM     28  C   UNL A   1      37.864  29.033  32.355  1.00  0.00     0.261 C 
ATOM     29  N   UNL A   1      37.548  28.583  31.083  1.00  0.00    -0.322 N 
ATOM     30  H   UNL A   1      36.620  28.268  30.986  1.00  0.00     0.170 HD
ATOM     31  O   UNL A   1      37.139  28.714  33.297  1.00  0.00    -0.269 OA
BRANCH  29  32
ATOM     32  C   UNL A   1      38.314  28.495  29.899  1.00  0.00     0.041 A 
ATOM     33  C   UNL A   1      40.747  28.540  26.320  1.00  0.00     0.044 C 
ATOM     34  C   UNL A   1      39.863  28.497  27.530  1.00  0.00    -0.051 A 
ATOM     35  C   UNL A   1      40.120  27.577  28.544  1.00  0.00     0.005 A 
ATOM     36  C   UNL A   1      38.798  29.390  27.690  1.00  0.00     0.005 A 
ATOM     37  C   UNL A   1      39.327  27.556  29.694  1.00  0.00     0.026 A 
ATOM     38  C   UNL A   1      38.025  29.382  28.861  1.00  0.00     0.026 A 
ENDBRANCH  29  32
ENDBRANCH  14  28
ENDBRANCH   8  13
ENDBRANCH   4   7
ENDBRANCH   2   3
ENDBRANCH   1   2
BRANCH   1  39
ATOM     39  C   UNL A   1      42.610  25.366  25.222  1.00  0.00     0.023 C 
BRANCH  39  40
ATOM     40  C   UNL A   1      42.901  23.927  25.620  1.00  0.00     0.116 C 
BRANCH  40  41
ATOM     41  N   UNL A   1      41.748  23.181  26.114  1.00  0.00    -0.352 N 
ATOM     42  C   UNL A   1      41.423  22.848  27.425  1.00  0.00     0.251 C 
ATOM     43  H   UNL A   1      41.114  22.873  25.426  1.00  0.00     0.163 HD
ATOM     44  O   UNL A   1      40.422  22.212  27.678  1.00  0.00    -0.269 OA
BRANCH  42  45
ATOM     45  C   UNL A   1      42.258  23.403  28.521  1.00  0.00     0.039 A 
ATOM     46  C   UNL A   1      42.163  24.773  28.781  1.00  0.00     0.014 A 
ATOM     47  C   UNL A   1      43.279  22.645  29.090  1.00  0.00     0.014 A 
ATOM     48  C   UNL A   1      43.240  25.425  29.373  1.00  0.00     0.010 A 
ATOM     49  C   UNL A   1      44.388  23.300  29.590  1.00  0.00     0.010 A 
ATOM     50  C   UNL A   1      44.398  24.695  29.653  1.00  0.00    -0.014 A 
BRANCH  50  51
ATOM     51  C   UNL A   1      45.693  25.330  29.868  1.00  0.00     0.031 A 
ATOM     52  C   UNL A   1      46.769  25.199  28.864  1.00  0.00     0.074 A 
ATOM     53  C   UNL A   1      45.925  26.032  31.000  1.00  0.00     0.049 A 
ATOM     54  N   UNL A   1      48.028  25.202  29.149  1.00  0.00    -0.248 NA
ATOM     55  C   UNL A   1      46.498  25.007  27.444  1.00  0.00     0.031 C 
ATOM     56  C   UNL A   1      47.078  26.879  31.296  1.00  0.00     0.029 A 
ATOM     57  N   UNL A   1      45.240  26.030  32.201  1.00  0.00    -0.354 N 
ATOM     58  C   UNL A   1      48.718  25.312  27.965  1.00  0.00     0.074 A 
ATOM     59  C   UNL A   1      47.731  25.093  26.932  1.00  0.00     0.031 C 
ATOM     60  C   UNL A   1      47.165  27.043  32.628  1.00  0.00     0.029 A 
ATOM     61  C   UNL A   1      46.157  26.190  33.236  1.00  0.00     0.049 A 
ATOM     62  H   UNL A   1      44.266  25.933  32.307  1.00  0.00     0.167 HD
ATOM     63  C   UNL A   1      50.017  25.729  27.972  1.00  0.00     0.031 A 
ATOM     64  C   UNL A   1      46.411  25.237  34.182  1.00  0.00     0.031 A 
ATOM     65  C   UNL A   1      50.510  25.959  29.328  1.00  0.00     0.049 A 
ATOM     66  C   UNL A   1      47.856  24.764  34.188  1.00  0.00     0.074 A 
ATOM     67  C   UNL A   1      50.667  27.111  30.082  1.00  0.00     0.029 A 
ATOM     68  N   UNL A   1      50.646  24.891  30.204  1.00  0.00    -0.354 N 
ATOM     69  N   UNL A   1      48.695  24.980  33.213  1.00  0.00    -0.248 NA
ATOM     70  C   UNL A   1      48.452  23.959  35.256  1.00  0.00     0.031 C 
ATOM     71  C   UNL A   1      50.826  26.728  31.439  1.00  0.00     0.029 A 
ATOM     72  C   UNL A   1      50.795  25.346  31.501  1.00  0.00     0.049 A 
ATOM     73  H   UNL A   1      50.636  23.943  29.940  1.00  0.00     0.167 HD
ATOM     74  C   UNL A   1      49.889  24.367  33.482  1.00  0.00     0.074 A 
ATOM     75  C   UNL A   1      49.695  23.751  34.782  1.00  0.00     0.031 C 
ATOM     76  C   UNL A   1      50.930  24.403  32.600  1.00  0.00     0.031 A 
BRANCH  63  77
ATOM     77  C   UNL A   1      50.731  26.225  26.737  1.00  0.00    -0.014 A 
ATOM     78  C   UNL A   1      50.322  27.430  26.134  1.00  0.00     0.009 A 
ATOM     79  C   UNL A   1      51.769  25.536  26.089  1.00  0.00     0.009 A 
ATOM     80  C   UNL A   1      50.836  27.859  24.904  1.00  0.00     0.001 A 
ATOM     81  C   UNL A   1      52.260  25.935  24.838  1.00  0.00     0.001 A 
ATOM     82  C   UNL A   1      51.782  27.091  24.237  1.00  0.00     0.000 A 
ENDBRANCH  63  77
BRANCH  64  83
ATOM     83  C   UNL A   1      45.249  24.363  34.500  1.00  0.00    -0.014 A 
ATOM     84  C   UNL A   1      44.512  24.630  35.672  1.00  0.00     0.009 A 
ATOM     85  C   UNL A   1      44.675  23.543  33.520  1.00  0.00     0.009 A 
ATOM     86  C   UNL A   1      43.190  24.193  35.801  1.00  0.00     0.001 A 
ATOM     87  C   UNL A   1      43.357  23.094  33.661  1.00  0.00     0.001 A 
ATOM     88  C   UNL A   1      42.603  23.451  34.780  1.00  0.00     0.000 A 
ENDBRANCH  64  83
BRANCH  76  89
ATOM     89  C   UNL A   1      52.207  23.608  32.701  1.00  0.00    -0.014 A 
ATOM     90  C   UNL A   1      52.267  22.209  32.666  1.00  0.00     0.009 A 
ATOM     91  C   UNL A   1      53.440  24.299  32.683  1.00  0.00     0.009 A 
ATOM     92  C   UNL A   1      53.497  21.536  32.653  1.00  0.00     0.001 A 
ATOM     93  C   UNL A   1      54.665  23.633  32.628  1.00  0.00     0.001 A 
ATOM     94  C   UNL A   1      54.694  22.248  32.622  1.00  0.00     0.000 A 
ENDBRANCH  76  89
ENDBRANCH  50  51
ENDBRANCH  42  45
ENDBRANCH  40  41
ENDBRANCH  39  40
ENDBRANCH   1  39
TORSDOF 14
ENDMDL
