MODEL 1
REMARK VINA RESULT:     -10.5      0.000      0.000
REMARK SMILES CC[C@H](C)Oc1ccc(NC(=O)/C=C/C(=O)NCCCCNC(=O)c2ccc(-c3c4nc(c(-c5ccccc5)c5ccc([nH]5)c(-c5ccccc5)c5nc(c(-c6ccccc6)c6ccc3[nH]6)C=C5)C=C4)cc2)cc1
REMARK SMILES IDX 18 1 17 2 15 3 16 4 14 6 13 7 11 8 10 9 12 11 9 12 6 13 7 14
REMARK SMILES IDX 74 15 8 16 73 17 5 18 3 19 4 20 2 21 1 22 19 23 20 24 21 25
REMARK SMILES IDX 22 26 23 27 24 29 25 30 26 31 72 32 27 33 71 34 28 35 29 36
REMARK SMILES IDX 30 37 65 38 31 39 70 40 64 41 66 42 32 43 69 44 63 45 62 46
REMARK SMILES IDX 33 48 55 49 40 50 54 51 41 52 44 53 53 54 67 55 42 56 43 57
REMARK SMILES IDX 52 59 68 60 45 61 34 62 35 63 39 64 36 65 38 66 37 67 56 68
REMARK SMILES IDX 57 69 61 70 58 71 60 72 59 73 46 74 47 75 51 76 48 77 50 78
REMARK SMILES IDX 49 79
REMARK H PARENT 17 5 10 10 22 28 66 47 44 58
REMARK Flexibility Score: inf
ROOT
ATOM      1  C   UNL A   1      32.038  26.344  26.019  1.00  0.00     0.116 C 
ENDROOT
BRANCH   1   2
ATOM      2  N   UNL A   1      31.744  25.071  26.646  1.00  0.00    -0.353 N 
ATOM      3  C   UNL A   1      31.972  23.816  26.181  1.00  0.00     0.244 C 
ATOM      4  O   UNL A   1      31.816  22.846  26.917  1.00  0.00    -0.270 OA
ATOM      5  H   UNL A   1      31.319  25.124  27.533  1.00  0.00     0.163 HD
BRANCH   3   6
ATOM      6  C   UNL A   1      32.424  23.615  24.793  1.00  0.00     0.077 C 
ATOM      7  C   UNL A   1      33.489  24.277  24.321  1.00  0.00     0.077 C 
BRANCH   7   8
ATOM      8  C   UNL A   1      33.800  24.247  22.884  1.00  0.00     0.248 C 
ATOM      9  N   UNL A   1      33.314  25.221  22.061  1.00  0.00    -0.323 N 
ATOM     10  H   UNL A   1      33.500  25.072  21.106  1.00  0.00     0.170 HD
ATOM     11  O   UNL A   1      34.482  23.325  22.441  1.00  0.00    -0.270 OA
BRANCH   9  12
ATOM     12  C   UNL A   1      32.593  26.401  22.329  1.00  0.00     0.041 A 
ATOM     13  C   UNL A   1      31.000  28.576  23.142  1.00  0.00     0.119 A 
ATOM     14  C   UNL A   1      32.381  28.713  23.026  1.00  0.00     0.048 A 
ATOM     15  C   UNL A   1      30.409  27.385  22.743  1.00  0.00     0.048 A 
ATOM     16  C   UNL A   1      33.169  27.641  22.603  1.00  0.00     0.030 A 
ATOM     17  C   UNL A   1      31.199  26.302  22.336  1.00  0.00     0.030 A 
BRANCH  13  18
ATOM     18  O   UNL A   1      30.354  29.684  23.593  1.00  0.00    -0.491 OA
BRANCH  18  19
ATOM     19  C   UNL A   1      29.119  30.118  23.004  1.00  0.00     0.170 C 
ATOM     20  C   UNL A   1      28.478  31.254  23.798  1.00  0.00     0.053 C 
BRANCH  19  21
ATOM     21  C   UNL A   1      29.189  30.343  21.483  1.00  0.00     0.041 C 
ATOM     22  C   UNL A   1      28.324  31.504  21.013  1.00  0.00     0.008 C 
ENDBRANCH  19  21
ENDBRANCH  18  19
ENDBRANCH  13  18
ENDBRANCH   9  12
ENDBRANCH   7   8
ENDBRANCH   3   6
ENDBRANCH   1   2
BRANCH   1  23
ATOM     23  C   UNL A   1      31.214  27.472  26.634  1.00  0.00     0.023 C 
BRANCH  23  24
ATOM     24  C   UNL A   1      31.918  28.233  27.762  1.00  0.00     0.023 C 
BRANCH  24  25
ATOM     25  C   UNL A   1      33.273  28.826  27.395  1.00  0.00     0.116 C 
BRANCH  25  26
ATOM     26  N   UNL A   1      33.351  30.264  27.604  1.00  0.00    -0.352 N 
ATOM     27  C   UNL A   1      34.418  31.009  28.040  1.00  0.00     0.251 C 
ATOM     28  H   UNL A   1      32.529  30.770  27.406  1.00  0.00     0.163 HD
ATOM     29  O   UNL A   1      34.301  32.215  28.237  1.00  0.00    -0.269 OA
BRANCH  27  30
ATOM     30  C   UNL A   1      35.696  30.331  28.319  1.00  0.00     0.039 A 
ATOM     31  C   UNL A   1      36.668  30.303  27.317  1.00  0.00     0.014 A 
ATOM     32  C   UNL A   1      35.949  29.778  29.577  1.00  0.00     0.014 A 
ATOM     33  C   UNL A   1      37.927  29.779  27.601  1.00  0.00     0.010 A 
ATOM     34  C   UNL A   1      37.226  29.317  29.878  1.00  0.00     0.010 A 
ATOM     35  C   UNL A   1      38.227  29.318  28.893  1.00  0.00    -0.014 A 
BRANCH  35  36
ATOM     36  C   UNL A   1      39.591  28.852  29.235  1.00  0.00     0.031 A 
ATOM     37  C   UNL A   1      40.528  29.745  29.994  1.00  0.00     0.074 A 
ATOM     38  C   UNL A   1      40.001  27.642  28.807  1.00  0.00     0.049 A 
ATOM     39  N   UNL A   1      41.763  29.519  30.364  1.00  0.00    -0.248 NA
ATOM     40  C   UNL A   1      40.022  31.077  30.366  1.00  0.00     0.031 C 
ATOM     41  C   UNL A   1      39.199  26.704  28.018  1.00  0.00     0.029 A 
ATOM     42  N   UNL A   1      41.198  26.995  28.977  1.00  0.00    -0.354 N 
ATOM     43  C   UNL A   1      42.183  30.680  30.998  1.00  0.00     0.074 A 
ATOM     44  C   UNL A   1      41.092  31.626  30.920  1.00  0.00     0.031 C 
ATOM     45  C   UNL A   1      39.915  25.590  27.800  1.00  0.00     0.029 A 
ATOM     46  C   UNL A   1      41.234  25.747  28.404  1.00  0.00     0.049 A 
ATOM     47  H   UNL A   1      41.958  27.386  29.464  1.00  0.00     0.167 HD
ATOM     48  C   UNL A   1      43.365  30.929  31.610  1.00  0.00     0.031 A 
ATOM     49  C   UNL A   1      42.220  24.832  28.369  1.00  0.00     0.031 A 
ATOM     50  C   UNL A   1      44.445  29.984  31.695  1.00  0.00     0.049 A 
ATOM     51  C   UNL A   1      43.522  25.133  29.055  1.00  0.00     0.074 A 
ATOM     52  C   UNL A   1      45.660  30.118  32.346  1.00  0.00     0.029 A 
ATOM     53  N   UNL A   1      44.442  28.728  31.107  1.00  0.00    -0.354 N 
ATOM     54  N   UNL A   1      43.877  26.207  29.718  1.00  0.00    -0.248 NA
ATOM     55  C   UNL A   1      44.555  24.089  28.997  1.00  0.00     0.031 C 
ATOM     56  C   UNL A   1      46.410  28.961  32.112  1.00  0.00     0.029 A 
ATOM     57  C   UNL A   1      45.642  28.086  31.359  1.00  0.00     0.049 A 
ATOM     58  H   UNL A   1      43.695  28.350  30.587  1.00  0.00     0.167 HD
ATOM     59  C   UNL A   1      45.165  25.960  30.176  1.00  0.00     0.074 A 
ATOM     60  C   UNL A   1      45.520  24.628  29.730  1.00  0.00     0.031 C 
ATOM     61  C   UNL A   1      45.979  26.763  30.902  1.00  0.00     0.031 A 
BRANCH  48  62
ATOM     62  C   UNL A   1      43.546  32.286  32.231  1.00  0.00    -0.014 A 
ATOM     63  C   UNL A   1      43.197  32.524  33.570  1.00  0.00     0.009 A 
ATOM     64  C   UNL A   1      44.097  33.332  31.476  1.00  0.00     0.009 A 
ATOM     65  C   UNL A   1      43.360  33.793  34.129  1.00  0.00     0.001 A 
ATOM     66  C   UNL A   1      44.284  34.594  32.046  1.00  0.00     0.001 A 
ATOM     67  C   UNL A   1      43.907  34.825  33.368  1.00  0.00     0.000 A 
ENDBRANCH  48  62
BRANCH  49  68
ATOM     68  C   UNL A   1      42.005  23.533  27.683  1.00  0.00    -0.014 A 
ATOM     69  C   UNL A   1      42.433  23.350  26.358  1.00  0.00     0.009 A 
ATOM     70  C   UNL A   1      41.374  22.468  28.345  1.00  0.00     0.009 A 
ATOM     71  C   UNL A   1      42.210  22.136  25.704  1.00  0.00     0.001 A 
ATOM     72  C   UNL A   1      41.177  21.248  27.697  1.00  0.00     0.001 A 
ATOM     73  C   UNL A   1      41.586  21.086  26.375  1.00  0.00     0.000 A 
ENDBRANCH  49  68
BRANCH  61  74
ATOM     74  C   UNL A   1      47.324  26.211  31.277  1.00  0.00    -0.014 A 
ATOM     75  C   UNL A   1      47.550  25.641  32.539  1.00  0.00     0.009 A 
ATOM     76  C   UNL A   1      48.371  26.233  30.341  1.00  0.00     0.009 A 
ATOM     77  C   UNL A   1      48.809  25.132  32.868  1.00  0.00     0.001 A 
ATOM     78  C   UNL A   1      49.618  25.700  30.664  1.00  0.00     0.001 A 
ATOM     79  C   UNL A   1      49.839  25.159  31.928  1.00  0.00     0.000 A 
ENDBRANCH  61  74
ENDBRANCH  35  36
ENDBRANCH  27  30
ENDBRANCH  25  26
ENDBRANCH  24  25
ENDBRANCH  23  24
ENDBRANCH   1  23
TORSDOF 16
ENDMDL
MODEL 2
REMARK VINA RESULT:     -10.5      1.711      4.336
REMARK SMILES CC[C@H](C)Oc1ccc(NC(=O)/C=C/C(=O)NCCCCNC(=O)c2ccc(-c3c4nc(c(-c5ccccc5)c5ccc([nH]5)c(-c5ccccc5)c5nc(c(-c6ccccc6)c6ccc3[nH]6)C=C5)C=C4)cc2)cc1
REMARK SMILES IDX 18 1 17 2 15 3 16 4 14 6 13 7 11 8 10 9 12 11 9 12 6 13 7 14
REMARK SMILES IDX 74 15 8 16 73 17 5 18 3 19 4 20 2 21 1 22 19 23 20 24 21 25
REMARK SMILES IDX 22 26 23 27 24 29 25 30 26 31 72 32 27 33 71 34 28 35 29 36
REMARK SMILES IDX 30 37 65 38 31 39 70 40 64 41 66 42 32 43 69 44 63 45 62 46
REMARK SMILES IDX 33 48 55 49 40 50 54 51 41 52 44 53 53 54 67 55 42 56 43 57
REMARK SMILES IDX 52 59 68 60 45 61 34 62 35 63 39 64 36 65 38 66 37 67 56 68
REMARK SMILES IDX 57 69 61 70 58 71 60 72 59 73 46 74 47 75 51 76 48 77 50 78
REMARK SMILES IDX 49 79
REMARK H PARENT 17 5 10 10 22 28 66 47 44 58
REMARK Flexibility Score: inf
ROOT
ATOM      1  C   UNL A   1      31.241  28.649  24.293  1.00  0.00     0.116 C 
ENDROOT
BRANCH   1   2
ATOM      2  N   UNL A   1      31.849  27.667  23.418  1.00  0.00    -0.353 N 
ATOM      3  C   UNL A   1      32.016  26.334  23.613  1.00  0.00     0.244 C 
ATOM      4  O   UNL A   1      32.398  25.617  22.693  1.00  0.00    -0.270 OA
ATOM      5  H   UNL A   1      32.188  28.016  22.562  1.00  0.00     0.163 HD
BRANCH   3   6
ATOM      6  C   UNL A   1      31.722  25.739  24.929  1.00  0.00     0.077 C 
ATOM      7  C   UNL A   1      31.085  24.563  25.018  1.00  0.00     0.077 C 
BRANCH   7   8
ATOM      8  C   UNL A   1      30.597  24.085  26.320  1.00  0.00     0.248 C 
ATOM      9  N   UNL A   1      31.232  23.054  26.950  1.00  0.00    -0.323 N 
ATOM     10  H   UNL A   1      30.784  22.747  27.771  1.00  0.00     0.170 HD
ATOM     11  O   UNL A   1      29.602  24.613  26.813  1.00  0.00    -0.270 OA
BRANCH   9  12
ATOM     12  C   UNL A   1      32.411  22.350  26.639  1.00  0.00     0.041 A 
ATOM     13  C   UNL A   1      34.752  21.104  25.692  1.00  0.00     0.119 A 
ATOM     14  C   UNL A   1      34.770  21.841  26.872  1.00  0.00     0.048 A 
ATOM     15  C   UNL A   1      33.539  20.899  25.048  1.00  0.00     0.048 A 
ATOM     16  C   UNL A   1      33.605  22.442  27.354  1.00  0.00     0.030 A 
ATOM     17  C   UNL A   1      32.373  21.516  25.519  1.00  0.00     0.030 A 
BRANCH  13  18
ATOM     18  O   UNL A   1      35.958  20.599  25.318  1.00  0.00    -0.491 OA
BRANCH  18  19
ATOM     19  C   UNL A   1      36.912  21.400  24.604  1.00  0.00     0.170 C 
ATOM     20  C   UNL A   1      36.246  22.556  23.864  1.00  0.00     0.053 C 
BRANCH  19  21
ATOM     21  C   UNL A   1      38.157  21.781  25.426  1.00  0.00     0.041 C 
ATOM     22  C   UNL A   1      38.039  23.151  26.081  1.00  0.00     0.008 C 
ENDBRANCH  19  21
ENDBRANCH  18  19
ENDBRANCH  13  18
ENDBRANCH   9  12
ENDBRANCH   7   8
ENDBRANCH   3   6
ENDBRANCH   1   2
BRANCH   1  23
ATOM     23  C   UNL A   1      32.289  29.369  25.136  1.00  0.00     0.023 C 
BRANCH  23  24
ATOM     24  C   UNL A   1      32.391  28.877  26.583  1.00  0.00     0.023 C 
BRANCH  24  25
ATOM     25  C   UNL A   1      33.714  29.177  27.278  1.00  0.00     0.116 C 
BRANCH  25  26
ATOM     26  N   UNL A   1      33.722  30.449  27.984  1.00  0.00    -0.352 N 
ATOM     27  C   UNL A   1      34.748  31.033  28.682  1.00  0.00     0.251 C 
ATOM     28  H   UNL A   1      32.879  30.958  27.957  1.00  0.00     0.163 HD
ATOM     29  O   UNL A   1      34.572  32.086  29.290  1.00  0.00    -0.269 OA
BRANCH  27  30
ATOM     30  C   UNL A   1      36.054  30.354  28.735  1.00  0.00     0.039 A 
ATOM     31  C   UNL A   1      36.907  30.464  27.635  1.00  0.00     0.014 A 
ATOM     32  C   UNL A   1      36.451  29.662  29.882  1.00  0.00     0.014 A 
ATOM     33  C   UNL A   1      38.194  29.936  27.714  1.00  0.00     0.010 A 
ATOM     34  C   UNL A   1      37.758  29.196  29.983  1.00  0.00     0.010 A 
ATOM     35  C   UNL A   1      38.641  29.333  28.900  1.00  0.00    -0.014 A 
BRANCH  35  36
ATOM     36  C   UNL A   1      40.038  28.859  29.031  1.00  0.00     0.031 A 
ATOM     37  C   UNL A   1      41.109  29.784  29.529  1.00  0.00     0.074 A 
ATOM     38  C   UNL A   1      40.348  27.605  28.644  1.00  0.00     0.049 A 
ATOM     39  N   UNL A   1      42.387  29.554  29.690  1.00  0.00    -0.248 NA
ATOM     40  C   UNL A   1      40.696  31.156  29.868  1.00  0.00     0.031 C 
ATOM     41  C   UNL A   1      39.404  26.628  28.096  1.00  0.00     0.029 A 
ATOM     42  N   UNL A   1      41.547  26.941  28.652  1.00  0.00    -0.354 N 
ATOM     43  C   UNL A   1      42.931  30.752  30.136  1.00  0.00     0.074 A 
ATOM     44  C   UNL A   1      41.856  31.719  30.171  1.00  0.00     0.031 C 
ATOM     45  C   UNL A   1      40.054  25.480  27.851  1.00  0.00     0.029 A 
ATOM     46  C   UNL A   1      41.463  25.649  28.192  1.00  0.00     0.049 A 
ATOM     47  H   UNL A   1      42.388  27.350  28.959  1.00  0.00     0.167 HD
ATOM     48  C   UNL A   1      44.207  31.016  30.501  1.00  0.00     0.031 A 
ATOM     49  C   UNL A   1      42.414  24.707  28.061  1.00  0.00     0.031 A 
ATOM     50  C   UNL A   1      45.272  30.051  30.473  1.00  0.00     0.049 A 
ATOM     51  C   UNL A   1      43.823  25.026  28.473  1.00  0.00     0.074 A 
ATOM     52  C   UNL A   1      46.586  30.204  30.881  1.00  0.00     0.029 A 
ATOM     53  N   UNL A   1      45.146  28.752  30.007  1.00  0.00    -0.354 N 
ATOM     54  N   UNL A   1      44.306  26.141  28.966  1.00  0.00    -0.248 NA
ATOM     55  C   UNL A   1      44.814  23.952  28.323  1.00  0.00     0.031 C 
ATOM     56  C   UNL A   1      47.267  29.011  30.618  1.00  0.00     0.029 A 
ATOM     57  C   UNL A   1      46.363  28.099  30.094  1.00  0.00     0.049 A 
ATOM     58  H   UNL A   1      44.313  28.353  29.664  1.00  0.00     0.167 HD
ATOM     59  C   UNL A   1      45.652  25.896  29.206  1.00  0.00     0.074 A 
ATOM     60  C   UNL A   1      45.903  24.522  28.821  1.00  0.00     0.031 C 
ATOM     61  C   UNL A   1      46.595  26.733  29.701  1.00  0.00     0.031 A 
BRANCH  48  62
ATOM     62  C   UNL A   1      44.515  32.415  30.959  1.00  0.00    -0.014 A 
ATOM     63  C   UNL A   1      44.800  33.435  30.038  1.00  0.00     0.009 A 
ATOM     64  C   UNL A   1      44.495  32.722  32.328  1.00  0.00     0.009 A 
ATOM     65  C   UNL A   1      45.097  34.726  30.480  1.00  0.00     0.001 A 
ATOM     66  C   UNL A   1      44.766  34.021  32.766  1.00  0.00     0.001 A 
ATOM     67  C   UNL A   1      45.075  35.018  31.843  1.00  0.00     0.000 A 
ENDBRANCH  48  62
BRANCH  49  68
ATOM     68  C   UNL A   1      42.062  23.361  27.540  1.00  0.00    -0.014 A 
ATOM     69  C   UNL A   1      41.483  22.401  28.385  1.00  0.00     0.009 A 
ATOM     70  C   UNL A   1      42.299  23.028  26.198  1.00  0.00     0.009 A 
ATOM     71  C   UNL A   1      41.173  21.128  27.902  1.00  0.00     0.001 A 
ATOM     72  C   UNL A   1      41.965  21.763  25.711  1.00  0.00     0.001 A 
ATOM     73  C   UNL A   1      41.410  20.812  26.566  1.00  0.00     0.000 A 
ENDBRANCH  49  68
BRANCH  61  74
ATOM     74  C   UNL A   1      47.978  26.176  29.875  1.00  0.00    -0.014 A 
ATOM     75  C   UNL A   1      48.886  26.134  28.805  1.00  0.00     0.009 A 
ATOM     76  C   UNL A   1      48.389  25.718  31.136  1.00  0.00     0.009 A 
ATOM     77  C   UNL A   1      50.168  25.614  28.989  1.00  0.00     0.001 A 
ATOM     78  C   UNL A   1      49.680  25.223  31.322  1.00  0.00     0.001 A 
ATOM     79  C   UNL A   1      50.565  25.163  30.247  1.00  0.00     0.000 A 
ENDBRANCH  61  74
ENDBRANCH  35  36
ENDBRANCH  27  30
ENDBRANCH  25  26
ENDBRANCH  24  25
ENDBRANCH  23  24
ENDBRANCH   1  23
TORSDOF 16
ENDMDL
MODEL 3
REMARK VINA RESULT:     -10.4      2.754      5.194
REMARK SMILES CC[C@H](C)Oc1ccc(NC(=O)/C=C/C(=O)NCCCCNC(=O)c2ccc(-c3c4nc(c(-c5ccccc5)c5ccc([nH]5)c(-c5ccccc5)c5nc(c(-c6ccccc6)c6ccc3[nH]6)C=C5)C=C4)cc2)cc1
REMARK SMILES IDX 18 1 17 2 15 3 16 4 14 6 13 7 11 8 10 9 12 11 9 12 6 13 7 14
REMARK SMILES IDX 74 15 8 16 73 17 5 18 3 19 4 20 2 21 1 22 19 23 20 24 21 25
REMARK SMILES IDX 22 26 23 27 24 29 25 30 26 31 72 32 27 33 71 34 28 35 29 36
REMARK SMILES IDX 30 37 65 38 31 39 70 40 64 41 66 42 32 43 69 44 63 45 62 46
REMARK SMILES IDX 33 48 55 49 40 50 54 51 41 52 44 53 53 54 67 55 42 56 43 57
REMARK SMILES IDX 52 59 68 60 45 61 34 62 35 63 39 64 36 65 38 66 37 67 56 68
REMARK SMILES IDX 57 69 61 70 58 71 60 72 59 73 46 74 47 75 51 76 48 77 50 78
REMARK SMILES IDX 49 79
REMARK H PARENT 17 5 10 10 22 28 66 47 44 58
REMARK Flexibility Score: inf
ROOT
ATOM      1  C   UNL A   1      32.434  28.701  25.593  1.00  0.00     0.116 C 
ENDROOT
BRANCH   1   2
ATOM      2  N   UNL A   1      31.542  27.724  26.184  1.00  0.00    -0.353 N 
ATOM      3  C   UNL A   1      31.298  26.446  25.799  1.00  0.00     0.244 C 
ATOM      4  O   UNL A   1      30.639  25.699  26.516  1.00  0.00    -0.270 OA
ATOM      5  H   UNL A   1      31.044  28.031  26.976  1.00  0.00     0.163 HD
BRANCH   3   6
ATOM      6  C   UNL A   1      31.837  25.944  24.523  1.00  0.00     0.077 C 
ATOM      7  C   UNL A   1      33.035  25.343  24.479  1.00  0.00     0.077 C 
BRANCH   7   8
ATOM      8  C   UNL A   1      33.666  25.049  23.184  1.00  0.00     0.248 C 
ATOM      9  N   UNL A   1      34.000  23.765  22.864  1.00  0.00    -0.323 N 
ATOM     10  H   UNL A   1      34.494  23.676  22.018  1.00  0.00     0.170 HD
ATOM     11  O   UNL A   1      33.903  25.976  22.413  1.00  0.00    -0.270 OA
BRANCH   9  12
ATOM     12  C   UNL A   1      33.767  22.544  23.526  1.00  0.00     0.041 A 
ATOM     13  C   UNL A   1      33.228  19.964  24.519  1.00  0.00     0.119 A 
ATOM     14  C   UNL A   1      34.441  20.590  24.792  1.00  0.00     0.048 A 
ATOM     15  C   UNL A   1      32.245  20.676  23.844  1.00  0.00     0.048 A 
ATOM     16  C   UNL A   1      34.701  21.877  24.318  1.00  0.00     0.030 A 
ATOM     17  C   UNL A   1      32.510  21.960  23.352  1.00  0.00     0.030 A 
BRANCH  13  18
ATOM     18  O   UNL A   1      33.114  18.702  25.011  1.00  0.00    -0.491 OA
BRANCH  18  19
ATOM     19  C   UNL A   1      33.310  17.554  24.172  1.00  0.00     0.170 C 
ATOM     20  C   UNL A   1      32.757  17.775  22.766  1.00  0.00     0.053 C 
BRANCH  19  21
ATOM     21  C   UNL A   1      34.731  16.965  24.229  1.00  0.00     0.041 C 
ATOM     22  C   UNL A   1      34.893  15.907  25.312  1.00  0.00     0.008 C 
ENDBRANCH  19  21
ENDBRANCH  18  19
ENDBRANCH  13  18
ENDBRANCH   9  12
ENDBRANCH   7   8
ENDBRANCH   3   6
ENDBRANCH   1   2
BRANCH   1  23
ATOM     23  C   UNL A   1      31.744  30.050  25.415  1.00  0.00     0.023 C 
BRANCH  23  24
ATOM     24  C   UNL A   1      31.600  30.867  26.703  1.00  0.00     0.023 C 
BRANCH  24  25
ATOM     25  C   UNL A   1      32.787  31.764  27.037  1.00  0.00     0.116 C 
BRANCH  25  26
ATOM     26  N   UNL A   1      32.400  33.098  27.469  1.00  0.00    -0.352 N 
ATOM     27  C   UNL A   1      33.084  33.966  28.282  1.00  0.00     0.251 C 
ATOM     28  H   UNL A   1      31.532  33.422  27.134  1.00  0.00     0.163 HD
ATOM     29  O   UNL A   1      32.585  35.037  28.616  1.00  0.00    -0.269 OA
BRANCH  27  30
ATOM     30  C   UNL A   1      34.409  33.573  28.793  1.00  0.00     0.039 A 
ATOM     31  C   UNL A   1      34.477  32.856  29.988  1.00  0.00     0.014 A 
ATOM     32  C   UNL A   1      35.567  33.863  28.066  1.00  0.00     0.014 A 
ATOM     33  C   UNL A   1      35.707  32.367  30.424  1.00  0.00     0.010 A 
ATOM     34  C   UNL A   1      36.782  33.317  28.467  1.00  0.00     0.010 A 
ATOM     35  C   UNL A   1      36.860  32.561  29.647  1.00  0.00    -0.014 A 
BRANCH  35  36
ATOM     36  C   UNL A   1      38.153  31.960  30.047  1.00  0.00     0.031 A 
ATOM     37  C   UNL A   1      39.072  32.691  30.982  1.00  0.00     0.074 A 
ATOM     38  C   UNL A   1      38.522  30.777  29.518  1.00  0.00     0.049 A 
ATOM     39  N   UNL A   1      40.250  32.334  31.426  1.00  0.00    -0.248 NA
ATOM     40  C   UNL A   1      38.620  34.008  31.462  1.00  0.00     0.031 C 
ATOM     41  C   UNL A   1      37.738  29.994  28.560  1.00  0.00     0.029 A 
ATOM     42  N   UNL A   1      39.654  30.028  29.713  1.00  0.00    -0.354 N 
ATOM     43  C   UNL A   1      40.683  33.384  32.225  1.00  0.00     0.074 A 
ATOM     44  C   UNL A   1      39.668  34.411  32.165  1.00  0.00     0.031 C 
ATOM     45  C   UNL A   1      38.398  28.860  28.275  1.00  0.00     0.029 A 
ATOM     46  C   UNL A   1      39.663  28.851  29.003  1.00  0.00     0.049 A 
ATOM     47  H   UNL A   1      40.389  30.305  30.305  1.00  0.00     0.167 HD
ATOM     48  C   UNL A   1      41.817  33.474  32.960  1.00  0.00     0.031 A 
ATOM     49  C   UNL A   1      40.586  27.875  28.946  1.00  0.00     0.031 A 
ATOM     50  C   UNL A   1      42.822  32.448  33.026  1.00  0.00     0.049 A 
ATOM     51  C   UNL A   1      41.836  28.000  29.770  1.00  0.00     0.074 A 
ATOM     52  C   UNL A   1      43.976  32.418  33.789  1.00  0.00     0.029 A 
ATOM     53  N   UNL A   1      42.791  31.268  32.298  1.00  0.00    -0.354 N 
ATOM     54  N   UNL A   1      42.196  28.964  30.581  1.00  0.00    -0.248 NA
ATOM     55  C   UNL A   1      42.800  26.894  29.679  1.00  0.00     0.031 C 
ATOM     56  C   UNL A   1      44.669  31.241  33.486  1.00  0.00     0.029 A 
ATOM     57  C   UNL A   1      43.919  30.514  32.574  1.00  0.00     0.049 A 
ATOM     58  H   UNL A   1      42.074  31.006  31.676  1.00  0.00     0.167 HD
ATOM     59  C   UNL A   1      43.417  28.573  31.116  1.00  0.00     0.074 A 
ATOM     60  C   UNL A   1      43.725  27.275  30.550  1.00  0.00     0.031 C 
ATOM     61  C   UNL A   1      44.211  29.228  31.996  1.00  0.00     0.031 A 
BRANCH  48  62
ATOM     62  C   UNL A   1      42.027  34.737  33.748  1.00  0.00    -0.014 A 
ATOM     63  C   UNL A   1      41.562  34.856  35.067  1.00  0.00     0.009 A 
ATOM     64  C   UNL A   1      42.721  35.813  33.173  1.00  0.00     0.009 A 
ATOM     65  C   UNL A   1      41.754  36.040  35.782  1.00  0.00     0.001 A 
ATOM     66  C   UNL A   1      42.935  36.986  33.900  1.00  0.00     0.001 A 
ATOM     67  C   UNL A   1      42.444  37.102  35.199  1.00  0.00     0.000 A 
ENDBRANCH  48  62
BRANCH  49  68
ATOM     68  C   UNL A   1      40.353  26.678  28.097  1.00  0.00    -0.014 A 
ATOM     69  C   UNL A   1      40.853  26.629  26.787  1.00  0.00     0.009 A 
ATOM     70  C   UNL A   1      39.632  25.580  28.590  1.00  0.00     0.009 A 
ATOM     71  C   UNL A   1      40.614  25.514  25.980  1.00  0.00     0.001 A 
ATOM     72  C   UNL A   1      39.416  24.456  27.790  1.00  0.00     0.001 A 
ATOM     73  C   UNL A   1      39.900  24.428  26.483  1.00  0.00     0.000 A 
ENDBRANCH  49  68
BRANCH  61  74
ATOM     74  C   UNL A   1      45.477  28.539  32.417  1.00  0.00    -0.014 A 
ATOM     75  C   UNL A   1      45.498  27.660  33.511  1.00  0.00     0.009 A 
ATOM     76  C   UNL A   1      46.658  28.749  31.689  1.00  0.00     0.009 A 
ATOM     77  C   UNL A   1      46.685  27.029  33.886  1.00  0.00     0.001 A 
ATOM     78  C   UNL A   1      47.837  28.095  32.049  1.00  0.00     0.001 A 
ATOM     79  C   UNL A   1      47.852  27.244  33.152  1.00  0.00     0.000 A 
ENDBRANCH  61  74
ENDBRANCH  35  36
ENDBRANCH  27  30
ENDBRANCH  25  26
ENDBRANCH  24  25
ENDBRANCH  23  24
ENDBRANCH   1  23
TORSDOF 16
ENDMDL
