MODEL 1
REMARK VINA RESULT:     -12.1      0.000      0.000
REMARK SMILES Cc1cc(=O)c(Oc2ccc(C(=O)NCCCCNC(=O)c3ccc(-c4c5nc(c(-c6ccccc6)c6ccc([nH]6)c(-c6ccccc6)c6nc(c(-c7ccccc7)c7ccc4[nH]7)C=C6)C=C5)cc3)cc2)c(-c2ccc(S(C)(=O)=O)cc2)o1
REMARK SMILES IDX 15 1 14 2 12 3 13 4 11 6 8 7 9 8 71 9 10 10 70 11 7 12 6 13
REMARK SMILES IDX 1 14 2 15 3 16 83 17 4 18 72 19 5 20 73 21 74 22 82 23 75 24
REMARK SMILES IDX 81 25 76 26 77 27 78 28 79 29 80 30 16 31 17 32 18 33 19 34
REMARK SMILES IDX 20 35 21 37 22 38 23 39 69 40 24 41 68 42 25 43 26 44 27 45
REMARK SMILES IDX 62 46 28 47 67 48 61 49 63 50 29 51 66 52 60 53 59 54 30 56
REMARK SMILES IDX 52 57 37 58 51 59 38 60 41 61 50 62 64 63 39 64 40 65 49 67
REMARK SMILES IDX 65 68 42 69 31 70 32 71 36 72 33 73 35 74 34 75 53 76 54 77
REMARK SMILES IDX 58 78 55 79 57 80 56 81 43 82 44 83 48 84 45 85 47 86 46 87
REMARK H PARENT 14 5 19 36 63 55 41 66
REMARK Flexibility Score: inf
ROOT
ATOM      1  C   UNL A   1      38.969  24.195  26.688  1.00  0.00     0.116 C 
ENDROOT
BRANCH   1   2
ATOM      2  N   UNL A   1      38.857  22.774  26.419  1.00  0.00    -0.352 N 
ATOM      3  C   UNL A   1      37.966  22.078  25.625  1.00  0.00     0.251 C 
ATOM      4  O   UNL A   1      38.156  20.882  25.423  1.00  0.00    -0.269 OA
ATOM      5  H   UNL A   1      39.525  22.213  26.878  1.00  0.00     0.163 HD
BRANCH   3   6
ATOM      6  C   UNL A   1      36.718  22.711  25.119  1.00  0.00     0.040 A 
ATOM      7  C   UNL A   1      34.810  24.496  24.170  1.00  0.00     0.127 A 
ATOM      8  C   UNL A   1      34.991  24.365  25.541  1.00  0.00     0.048 A 
ATOM      9  C   UNL A   1      35.385  23.568  23.303  1.00  0.00     0.048 A 
ATOM     10  C   UNL A   1      35.980  23.499  26.016  1.00  0.00     0.017 A 
ATOM     11  C   UNL A   1      36.308  22.643  23.789  1.00  0.00     0.017 A 
BRANCH   7  12
ATOM     12  O   UNL A   1      34.017  25.450  23.608  1.00  0.00    -0.449 OA
BRANCH  12  13
ATOM     13  C   UNL A   1      32.642  25.531  23.792  1.00  0.00     0.217 A 
ATOM     14  C   UNL A   1      28.398  26.331  23.985  1.00  0.00     0.088 C 
ATOM     15  C   UNL A   1      29.886  26.178  23.976  1.00  0.00     0.105 A 
ATOM     16  C   UNL A   1      30.721  27.211  23.857  1.00  0.00     0.098 A 
ATOM     17  O   UNL A   1      30.328  24.877  24.090  1.00  0.00    -0.457 OA
ATOM     18  C   UNL A   1      32.166  26.953  23.821  1.00  0.00     0.228 A 
ATOM     19  C   UNL A   1      31.685  24.580  23.978  1.00  0.00     0.180 A 
ATOM     20  O   UNL A   1      32.942  27.904  23.807  1.00  0.00    -0.285 OA
BRANCH  19  21
ATOM     21  C   UNL A   1      31.870  23.117  24.052  1.00  0.00     0.021 A 
ATOM     22  C   UNL A   1      32.011  22.381  22.862  1.00  0.00     0.013 A 
ATOM     23  C   UNL A   1      31.892  22.440  25.279  1.00  0.00     0.013 A 
ATOM     24  C   UNL A   1      32.263  21.007  22.898  1.00  0.00     0.021 A 
ATOM     25  C   UNL A   1      32.131  21.060  25.320  1.00  0.00     0.021 A 
ATOM     26  C   UNL A   1      32.333  20.355  24.131  1.00  0.00     0.067 A 
BRANCH  26  27
ATOM     27  S   UNL A   1      32.789  18.635  24.174  1.00  0.00     0.175 S 
ATOM     28  C   UNL A   1      32.364  18.045  22.559  1.00  0.00     0.163 C 
ATOM     29  O   UNL A   1      34.231  18.576  24.299  1.00  0.00    -0.224 OA
ATOM     30  O   UNL A   1      31.920  17.964  25.126  1.00  0.00    -0.224 OA
ENDBRANCH  26  27
ENDBRANCH  19  21
ENDBRANCH  12  13
ENDBRANCH   7  12
ENDBRANCH   3   6
ENDBRANCH   1   2
BRANCH   1  31
ATOM     31  C   UNL A   1      39.782  24.591  27.915  1.00  0.00     0.023 C 
BRANCH  31  32
ATOM     32  C   UNL A   1      41.293  24.633  27.763  1.00  0.00     0.023 C 
BRANCH  32  33
ATOM     33  C   UNL A   1      42.068  23.520  28.449  1.00  0.00     0.116 C 
BRANCH  33  34
ATOM     34  N   UNL A   1      42.914  22.733  27.558  1.00  0.00    -0.352 N 
ATOM     35  C   UNL A   1      44.008  23.119  26.812  1.00  0.00     0.251 C 
ATOM     36  H   UNL A   1      42.666  21.784  27.478  1.00  0.00     0.163 HD
ATOM     37  O   UNL A   1      44.566  22.317  26.069  1.00  0.00    -0.269 OA
BRANCH  35  38
ATOM     38  C   UNL A   1      44.466  24.524  26.859  1.00  0.00     0.039 A 
ATOM     39  C   UNL A   1      44.399  25.329  25.723  1.00  0.00     0.014 A 
ATOM     40  C   UNL A   1      45.059  25.011  28.027  1.00  0.00     0.014 A 
ATOM     41  C   UNL A   1      45.150  26.495  25.672  1.00  0.00     0.010 A 
ATOM     42  C   UNL A   1      45.708  26.250  28.010  1.00  0.00     0.010 A 
ATOM     43  C   UNL A   1      45.831  26.965  26.809  1.00  0.00    -0.014 A 
BRANCH  43  44
ATOM     44  C   UNL A   1      46.685  28.178  26.698  1.00  0.00     0.031 A 
ATOM     45  C   UNL A   1      48.160  28.066  26.410  1.00  0.00     0.074 A 
ATOM     46  C   UNL A   1      46.112  29.394  26.774  1.00  0.00     0.049 A 
ATOM     47  N   UNL A   1      49.041  29.024  26.240  1.00  0.00    -0.248 NA
ATOM     48  C   UNL A   1      48.727  26.712  26.304  1.00  0.00     0.031 C 
ATOM     49  C   UNL A   1      44.689  29.638  27.019  1.00  0.00     0.029 A 
ATOM     50  N   UNL A   1      46.642  30.651  26.618  1.00  0.00    -0.354 N 
ATOM     51  C   UNL A   1      50.257  28.389  26.018  1.00  0.00     0.074 A 
ATOM     52  C   UNL A   1      50.016  26.968  26.125  1.00  0.00     0.031 C 
ATOM     53  C   UNL A   1      44.447  30.952  26.927  1.00  0.00     0.029 A 
ATOM     54  C   UNL A   1      45.707  31.654  26.704  1.00  0.00     0.049 A 
ATOM     55  H   UNL A   1      47.599  30.818  26.458  1.00  0.00     0.167 HD
ATOM     56  C   UNL A   1      51.463  28.939  25.733  1.00  0.00     0.031 A 
ATOM     57  C   UNL A   1      45.837  32.992  26.630  1.00  0.00     0.031 A 
ATOM     58  C   UNL A   1      51.700  30.356  25.628  1.00  0.00     0.049 A 
ATOM     59  C   UNL A   1      47.191  33.584  26.378  1.00  0.00     0.074 A 
ATOM     60  C   UNL A   1      52.888  31.008  25.345  1.00  0.00     0.029 A 
ATOM     61  N   UNL A   1      50.735  31.339  25.795  1.00  0.00    -0.354 N 
ATOM     62  N   UNL A   1      48.332  32.970  26.177  1.00  0.00    -0.248 NA
ATOM     63  C   UNL A   1      47.281  35.050  26.336  1.00  0.00     0.031 C 
ATOM     64  C   UNL A   1      52.659  32.384  25.414  1.00  0.00     0.029 A 
ATOM     65  C   UNL A   1      51.308  32.592  25.649  1.00  0.00     0.049 A 
ATOM     66  H   UNL A   1      49.784  31.171  25.988  1.00  0.00     0.167 HD
ATOM     67  C   UNL A   1      49.272  33.969  25.969  1.00  0.00     0.074 A 
ATOM     68  C   UNL A   1      48.564  35.231  26.048  1.00  0.00     0.031 C 
ATOM     69  C   UNL A   1      50.601  33.846  25.734  1.00  0.00     0.031 A 
BRANCH  56  70
ATOM     70  C   UNL A   1      52.631  28.011  25.520  1.00  0.00    -0.014 A 
ATOM     71  C   UNL A   1      52.887  27.485  24.243  1.00  0.00     0.009 A 
ATOM     72  C   UNL A   1      53.434  27.589  26.593  1.00  0.00     0.009 A 
ATOM     73  C   UNL A   1      53.909  26.553  24.046  1.00  0.00     0.001 A 
ATOM     74  C   UNL A   1      54.480  26.686  26.388  1.00  0.00     0.001 A 
ATOM     75  C   UNL A   1      54.709  26.161  25.117  1.00  0.00     0.000 A 
ENDBRANCH  56  70
BRANCH  57  76
ATOM     76  C   UNL A   1      44.622  33.836  26.791  1.00  0.00    -0.014 A 
ATOM     77  C   UNL A   1      43.927  34.300  25.660  1.00  0.00     0.009 A 
ATOM     78  C   UNL A   1      44.215  34.271  28.060  1.00  0.00     0.009 A 
ATOM     79  C   UNL A   1      42.887  35.221  25.792  1.00  0.00     0.001 A 
ATOM     80  C   UNL A   1      43.148  35.164  28.191  1.00  0.00     0.001 A 
ATOM     81  C   UNL A   1      42.498  35.652  27.058  1.00  0.00     0.000 A 
ENDBRANCH  57  76
BRANCH  69  82
ATOM     82  C   UNL A   1      51.404  35.102  25.528  1.00  0.00    -0.014 A 
ATOM     83  C   UNL A   1      51.597  35.599  24.228  1.00  0.00     0.009 A 
ATOM     84  C   UNL A   1      52.070  35.725  26.595  1.00  0.00     0.009 A 
ATOM     85  C   UNL A   1      52.457  36.673  23.995  1.00  0.00     0.001 A 
ATOM     86  C   UNL A   1      52.902  36.823  26.364  1.00  0.00     0.001 A 
ATOM     87  C   UNL A   1      53.106  37.287  25.065  1.00  0.00     0.000 A 
ENDBRANCH  69  82
ENDBRANCH  43  44
ENDBRANCH  35  38
ENDBRANCH  33  34
ENDBRANCH  32  33
ENDBRANCH  31  32
ENDBRANCH   1  31
TORSDOF 15
ENDMDL
MODEL 2
REMARK VINA RESULT:     -11.9      4.208      7.014
REMARK SMILES Cc1cc(=O)c(Oc2ccc(C(=O)NCCCCNC(=O)c3ccc(-c4c5nc(c(-c6ccccc6)c6ccc([nH]6)c(-c6ccccc6)c6nc(c(-c7ccccc7)c7ccc4[nH]7)C=C6)C=C5)cc3)cc2)c(-c2ccc(S(C)(=O)=O)cc2)o1
REMARK SMILES IDX 15 1 14 2 12 3 13 4 11 6 8 7 9 8 71 9 10 10 70 11 7 12 6 13
REMARK SMILES IDX 1 14 2 15 3 16 83 17 4 18 72 19 5 20 73 21 74 22 82 23 75 24
REMARK SMILES IDX 81 25 76 26 77 27 78 28 79 29 80 30 16 31 17 32 18 33 19 34
REMARK SMILES IDX 20 35 21 37 22 38 23 39 69 40 24 41 68 42 25 43 26 44 27 45
REMARK SMILES IDX 62 46 28 47 67 48 61 49 63 50 29 51 66 52 60 53 59 54 30 56
REMARK SMILES IDX 52 57 37 58 51 59 38 60 41 61 50 62 64 63 39 64 40 65 49 67
REMARK SMILES IDX 65 68 42 69 31 70 32 71 36 72 33 73 35 74 34 75 53 76 54 77
REMARK SMILES IDX 58 78 55 79 57 80 56 81 43 82 44 83 48 84 45 85 47 86 46 87
REMARK H PARENT 14 5 19 36 63 55 41 66
REMARK Flexibility Score: inf
ROOT
ATOM      1  C   UNL A   1      36.906  23.244  24.812  1.00  0.00     0.116 C 
ENDROOT
BRANCH   1   2
ATOM      2  N   UNL A   1      35.844  22.308  24.497  1.00  0.00    -0.352 N 
ATOM      3  C   UNL A   1      34.473  22.473  24.494  1.00  0.00     0.251 C 
ATOM      4  O   UNL A   1      33.765  21.578  24.040  1.00  0.00    -0.269 OA
ATOM      5  H   UNL A   1      36.150  21.406  24.244  1.00  0.00     0.163 HD
BRANCH   3   6
ATOM      6  C   UNL A   1      33.830  23.649  25.143  1.00  0.00     0.040 A 
ATOM      7  C   UNL A   1      32.230  25.842  25.737  1.00  0.00     0.127 A 
ATOM      8  C   UNL A   1      33.390  26.032  24.996  1.00  0.00     0.048 A 
ATOM      9  C   UNL A   1      32.012  24.627  26.385  1.00  0.00     0.048 A 
ATOM     10  C   UNL A   1      34.171  24.922  24.661  1.00  0.00     0.017 A 
ATOM     11  C   UNL A   1      32.844  23.541  26.122  1.00  0.00     0.017 A 
BRANCH   7  12
ATOM     12  O   UNL A   1      31.306  26.821  25.943  1.00  0.00    -0.449 OA
BRANCH  12  13
ATOM     13  C   UNL A   1      30.921  27.748  24.982  1.00  0.00     0.217 A 
ATOM     14  C   UNL A   1      29.192  30.242  21.904  1.00  0.00     0.088 C 
ATOM     15  C   UNL A   1      29.794  29.278  22.876  1.00  0.00     0.105 A 
ATOM     16  C   UNL A   1      29.564  27.965  22.831  1.00  0.00     0.098 A 
ATOM     17  O   UNL A   1      30.599  29.856  23.833  1.00  0.00    -0.457 OA
ATOM     18  C   UNL A   1      30.171  27.104  23.854  1.00  0.00     0.228 A 
ATOM     19  C   UNL A   1      31.127  29.089  24.870  1.00  0.00     0.180 A 
ATOM     20  O   UNL A   1      30.041  25.887  23.764  1.00  0.00    -0.285 OA
BRANCH  19  21
ATOM     21  C   UNL A   1      31.874  29.967  25.792  1.00  0.00     0.021 A 
ATOM     22  C   UNL A   1      33.141  29.563  26.251  1.00  0.00     0.013 A 
ATOM     23  C   UNL A   1      31.347  31.188  26.236  1.00  0.00     0.013 A 
ATOM     24  C   UNL A   1      33.907  30.403  27.063  1.00  0.00     0.021 A 
ATOM     25  C   UNL A   1      32.106  32.027  27.061  1.00  0.00     0.021 A 
ATOM     26  C   UNL A   1      33.388  31.638  27.456  1.00  0.00     0.067 A 
BRANCH  26  27
ATOM     27  S   UNL A   1      34.423  32.757  28.375  1.00  0.00     0.175 S 
ATOM     28  C   UNL A   1      33.503  34.270  28.387  1.00  0.00     0.163 C 
ATOM     29  O   UNL A   1      34.482  32.266  29.737  1.00  0.00    -0.224 OA
ATOM     30  O   UNL A   1      35.632  32.987  27.602  1.00  0.00    -0.224 OA
ENDBRANCH  26  27
ENDBRANCH  19  21
ENDBRANCH  12  13
ENDBRANCH   7  12
ENDBRANCH   3   6
ENDBRANCH   1   2
BRANCH   1  31
ATOM     31  C   UNL A   1      38.023  22.725  25.708  1.00  0.00     0.023 C 
BRANCH  31  32
ATOM     32  C   UNL A   1      38.621  21.372  25.360  1.00  0.00     0.023 C 
BRANCH  32  33
ATOM     33  C   UNL A   1      39.376  20.665  26.473  1.00  0.00     0.116 C 
BRANCH  33  34
ATOM     34  N   UNL A   1      40.319  19.650  26.016  1.00  0.00    -0.352 N 
ATOM     35  C   UNL A   1      41.698  19.672  26.000  1.00  0.00     0.251 C 
ATOM     36  H   UNL A   1      39.909  18.826  25.667  1.00  0.00     0.163 HD
ATOM     37  O   UNL A   1      42.327  18.734  25.520  1.00  0.00    -0.269 OA
BRANCH  35  38
ATOM     38  C   UNL A   1      42.417  20.863  26.503  1.00  0.00     0.039 A 
ATOM     39  C   UNL A   1      42.593  21.058  27.871  1.00  0.00     0.014 A 
ATOM     40  C   UNL A   1      42.831  21.843  25.597  1.00  0.00     0.014 A 
ATOM     41  C   UNL A   1      42.929  22.320  28.340  1.00  0.00     0.010 A 
ATOM     42  C   UNL A   1      43.293  23.075  26.073  1.00  0.00     0.010 A 
ATOM     43  C   UNL A   1      43.266  23.354  27.448  1.00  0.00    -0.014 A 
BRANCH  43  44
ATOM     44  C   UNL A   1      43.550  24.714  27.982  1.00  0.00     0.031 A 
ATOM     45  C   UNL A   1      44.966  25.204  28.146  1.00  0.00     0.074 A 
ATOM     46  C   UNL A   1      42.523  25.545  28.243  1.00  0.00     0.049 A 
ATOM     47  N   UNL A   1      45.389  26.376  28.557  1.00  0.00    -0.248 NA
ATOM     48  C   UNL A   1      46.049  24.265  27.814  1.00  0.00     0.031 C 
ATOM     49  C   UNL A   1      41.107  25.201  28.096  1.00  0.00     0.029 A 
ATOM     50  N   UNL A   1      42.507  26.856  28.648  1.00  0.00    -0.354 N 
ATOM     51  C   UNL A   1      46.777  26.309  28.541  1.00  0.00     0.074 A 
ATOM     52  C   UNL A   1      47.128  24.968  28.131  1.00  0.00     0.031 C 
ATOM     53  C   UNL A   1      40.365  26.290  28.337  1.00  0.00     0.029 A 
ATOM     54  C   UNL A   1      41.242  27.385  28.741  1.00  0.00     0.049 A 
ATOM     55  H   UNL A   1      43.322  27.369  28.852  1.00  0.00     0.167 HD
ATOM     56  C   UNL A   1      47.678  27.280  28.825  1.00  0.00     0.031 A 
ATOM     57  C   UNL A   1      40.819  28.606  29.121  1.00  0.00     0.031 A 
ATOM     58  C   UNL A   1      47.324  28.615  29.236  1.00  0.00     0.049 A 
ATOM     59  C   UNL A   1      41.831  29.648  29.494  1.00  0.00     0.074 A 
ATOM     60  C   UNL A   1      48.167  29.668  29.547  1.00  0.00     0.029 A 
ATOM     61  N   UNL A   1      46.028  29.084  29.385  1.00  0.00    -0.354 N 
ATOM     62  N   UNL A   1      43.139  29.565  29.480  1.00  0.00    -0.248 NA
ATOM     63  C   UNL A   1      41.314  30.952  29.930  1.00  0.00     0.031 C 
ATOM     64  C   UNL A   1      47.384  30.749  29.956  1.00  0.00     0.029 A 
ATOM     65  C   UNL A   1      46.049  30.402  29.812  1.00  0.00     0.049 A 
ATOM     66  H   UNL A   1      45.213  28.559  29.213  1.00  0.00     0.167 HD
ATOM     67  C   UNL A   1      43.605  30.807  29.888  1.00  0.00     0.074 A 
ATOM     68  C   UNL A   1      42.437  31.633  30.123  1.00  0.00     0.031 C 
ATOM     69  C   UNL A   1      44.885  31.220  30.051  1.00  0.00     0.031 A 
BRANCH  56  70
ATOM     70  C   UNL A   1      49.143  26.941  28.714  1.00  0.00    -0.014 A 
ATOM     71  C   UNL A   1      49.839  26.462  29.836  1.00  0.00     0.009 A 
ATOM     72  C   UNL A   1      49.857  27.169  27.527  1.00  0.00     0.009 A 
ATOM     73  C   UNL A   1      51.215  26.230  29.777  1.00  0.00     0.001 A 
ATOM     74  C   UNL A   1      51.227  26.901  27.457  1.00  0.00     0.001 A 
ATOM     75  C   UNL A   1      51.906  26.442  28.585  1.00  0.00     0.000 A 
ENDBRANCH  56  70
BRANCH  57  76
ATOM     76  C   UNL A   1      39.357  28.877  29.145  1.00  0.00    -0.014 A 
ATOM     77  C   UNL A   1      38.716  29.406  28.011  1.00  0.00     0.009 A 
ATOM     78  C   UNL A   1      38.618  28.717  30.326  1.00  0.00     0.009 A 
ATOM     79  C   UNL A   1      37.383  29.816  28.073  1.00  0.00     0.001 A 
ATOM     80  C   UNL A   1      37.273  29.093  30.374  1.00  0.00     0.001 A 
ATOM     81  C   UNL A   1      36.663  29.659  29.255  1.00  0.00     0.000 A 
ENDBRANCH  57  76
BRANCH  69  82
ATOM     82  C   UNL A   1      45.122  32.638  30.496  1.00  0.00    -0.014 A 
ATOM     83  C   UNL A   1      45.112  32.948  31.866  1.00  0.00     0.009 A 
ATOM     84  C   UNL A   1      45.231  33.685  29.566  1.00  0.00     0.009 A 
ATOM     85  C   UNL A   1      45.180  34.273  32.298  1.00  0.00     0.001 A 
ATOM     86  C   UNL A   1      45.335  35.008  30.003  1.00  0.00     0.001 A 
ATOM     87  C   UNL A   1      45.295  35.302  31.365  1.00  0.00     0.000 A 
ENDBRANCH  69  82
ENDBRANCH  43  44
ENDBRANCH  35  38
ENDBRANCH  33  34
ENDBRANCH  32  33
ENDBRANCH  31  32
ENDBRANCH   1  31
TORSDOF 15
ENDMDL
MODEL 3
REMARK VINA RESULT:     -11.9      4.026      8.680
REMARK SMILES Cc1cc(=O)c(Oc2ccc(C(=O)NCCCCNC(=O)c3ccc(-c4c5nc(c(-c6ccccc6)c6ccc([nH]6)c(-c6ccccc6)c6nc(c(-c7ccccc7)c7ccc4[nH]7)C=C6)C=C5)cc3)cc2)c(-c2ccc(S(C)(=O)=O)cc2)o1
REMARK SMILES IDX 15 1 14 2 12 3 13 4 11 6 8 7 9 8 71 9 10 10 70 11 7 12 6 13
REMARK SMILES IDX 1 14 2 15 3 16 83 17 4 18 72 19 5 20 73 21 74 22 82 23 75 24
REMARK SMILES IDX 81 25 76 26 77 27 78 28 79 29 80 30 16 31 17 32 18 33 19 34
REMARK SMILES IDX 20 35 21 37 22 38 23 39 69 40 24 41 68 42 25 43 26 44 27 45
REMARK SMILES IDX 62 46 28 47 67 48 61 49 63 50 29 51 66 52 60 53 59 54 30 56
REMARK SMILES IDX 52 57 37 58 51 59 38 60 41 61 50 62 64 63 39 64 40 65 49 67
REMARK SMILES IDX 65 68 42 69 31 70 32 71 36 72 33 73 35 74 34 75 53 76 54 77
REMARK SMILES IDX 58 78 55 79 57 80 56 81 43 82 44 83 48 84 45 85 47 86 46 87
REMARK H PARENT 14 5 19 36 63 55 41 66
REMARK Flexibility Score: inf
ROOT
ATOM      1  C   UNL A   1      35.470  21.148  25.579  1.00  0.00     0.116 C 
ENDROOT
BRANCH   1   2
ATOM      2  N   UNL A   1      34.860  21.508  26.845  1.00  0.00    -0.352 N 
ATOM      3  C   UNL A   1      33.901  22.456  27.141  1.00  0.00     0.251 C 
ATOM      4  O   UNL A   1      33.417  22.483  28.270  1.00  0.00    -0.269 OA
ATOM      5  H   UNL A   1      35.182  20.992  27.620  1.00  0.00     0.163 HD
BRANCH   3   6
ATOM      6  C   UNL A   1      33.537  23.524  26.170  1.00  0.00     0.040 A 
ATOM      7  C   UNL A   1      33.176  25.949  24.861  1.00  0.00     0.127 A 
ATOM      8  C   UNL A   1      32.233  25.537  25.794  1.00  0.00     0.048 A 
ATOM      9  C   UNL A   1      34.139  25.050  24.405  1.00  0.00     0.048 A 
ATOM     10  C   UNL A   1      32.438  24.338  26.483  1.00  0.00     0.017 A 
ATOM     11  C   UNL A   1      34.288  23.815  25.032  1.00  0.00     0.017 A 
BRANCH   7  12
ATOM     12  O   UNL A   1      33.170  27.184  24.287  1.00  0.00    -0.449 OA
BRANCH  12  13
ATOM     13  C   UNL A   1      32.020  27.913  24.013  1.00  0.00     0.217 A 
ATOM     14  C   UNL A   1      28.161  29.592  23.025  1.00  0.00     0.088 C 
ATOM     15  C   UNL A   1      29.499  28.960  23.238  1.00  0.00     0.105 A 
ATOM     16  C   UNL A   1      29.877  27.836  22.628  1.00  0.00     0.098 A 
ATOM     17  O   UNL A   1      30.312  29.628  24.129  1.00  0.00    -0.457 OA
ATOM     18  C   UNL A   1      31.198  27.274  22.933  1.00  0.00     0.228 A 
ATOM     19  C   UNL A   1      31.538  29.086  24.510  1.00  0.00     0.180 A 
ATOM     20  O   UNL A   1      31.589  26.293  22.306  1.00  0.00    -0.285 OA
BRANCH  19  21
ATOM     21  C   UNL A   1      32.158  29.956  25.529  1.00  0.00     0.021 A 
ATOM     22  C   UNL A   1      33.402  29.593  26.077  1.00  0.00     0.013 A 
ATOM     23  C   UNL A   1      31.532  31.127  25.977  1.00  0.00     0.013 A 
ATOM     24  C   UNL A   1      34.054  30.431  26.986  1.00  0.00     0.021 A 
ATOM     25  C   UNL A   1      32.175  31.964  26.898  1.00  0.00     0.021 A 
ATOM     26  C   UNL A   1      33.438  31.620  27.384  1.00  0.00     0.067 A 
BRANCH  26  27
ATOM     27  S   UNL A   1      34.333  32.745  28.435  1.00  0.00     0.175 S 
ATOM     28  C   UNL A   1      33.248  34.136  28.585  1.00  0.00     0.163 C 
ATOM     29  O   UNL A   1      34.437  32.123  29.739  1.00  0.00    -0.224 OA
ATOM     30  O   UNL A   1      35.514  33.189  27.713  1.00  0.00    -0.224 OA
ENDBRANCH  26  27
ENDBRANCH  19  21
ENDBRANCH  12  13
ENDBRANCH   7  12
ENDBRANCH   3   6
ENDBRANCH   1   2
BRANCH   1  31
ATOM     31  C   UNL A   1      36.858  21.716  25.310  1.00  0.00     0.023 C 
BRANCH  31  32
ATOM     32  C   UNL A   1      37.971  20.722  25.020  1.00  0.00     0.023 C 
BRANCH  32  33
ATOM     33  C   UNL A   1      39.162  20.755  25.962  1.00  0.00     0.116 C 
BRANCH  33  34
ATOM     34  N   UNL A   1      40.038  19.591  25.873  1.00  0.00    -0.352 N 
ATOM     35  C   UNL A   1      41.398  19.493  26.082  1.00  0.00     0.251 C 
ATOM     36  H   UNL A   1      39.591  18.750  25.625  1.00  0.00     0.163 HD
ATOM     37  O   UNL A   1      41.977  18.426  25.903  1.00  0.00    -0.269 OA
BRANCH  35  38
ATOM     38  C   UNL A   1      42.169  20.698  26.459  1.00  0.00     0.039 A 
ATOM     39  C   UNL A   1      42.270  21.085  27.794  1.00  0.00     0.014 A 
ATOM     40  C   UNL A   1      42.713  21.502  25.454  1.00  0.00     0.014 A 
ATOM     41  C   UNL A   1      42.667  22.379  28.097  1.00  0.00     0.010 A 
ATOM     42  C   UNL A   1      43.233  22.760  25.779  1.00  0.00     0.010 A 
ATOM     43  C   UNL A   1      43.138  23.243  27.093  1.00  0.00    -0.014 A 
BRANCH  43  44
ATOM     44  C   UNL A   1      43.487  24.647  27.443  1.00  0.00     0.031 A 
ATOM     45  C   UNL A   1      42.419  25.640  27.826  1.00  0.00     0.074 A 
ATOM     46  C   UNL A   1      44.783  25.009  27.496  1.00  0.00     0.049 A 
ATOM     47  N   UNL A   1      42.554  26.890  28.200  1.00  0.00    -0.248 NA
ATOM     48  C   UNL A   1      41.022  25.180  27.783  1.00  0.00     0.031 C 
ATOM     49  C   UNL A   1      45.912  24.133  27.178  1.00  0.00     0.029 A 
ATOM     50  N   UNL A   1      45.373  26.190  27.872  1.00  0.00    -0.354 N 
ATOM     51  C   UNL A   1      41.266  27.363  28.424  1.00  0.00     0.074 A 
ATOM     52  C   UNL A   1      40.360  26.286  28.097  1.00  0.00     0.031 C 
ATOM     53  C   UNL A   1      47.055  24.780  27.438  1.00  0.00     0.029 A 
ATOM     54  C   UNL A   1      46.746  26.144  27.857  1.00  0.00     0.049 A 
ATOM     55  H   UNL A   1      44.862  26.992  28.128  1.00  0.00     0.167 HD
ATOM     56  C   UNL A   1      40.875  28.578  28.879  1.00  0.00     0.031 A 
ATOM     57  C   UNL A   1      47.665  27.089  28.131  1.00  0.00     0.031 A 
ATOM     58  C   UNL A   1      41.781  29.650  29.203  1.00  0.00     0.049 A 
ATOM     59  C   UNL A   1      47.210  28.449  28.570  1.00  0.00     0.074 A 
ATOM     60  C   UNL A   1      41.478  30.918  29.669  1.00  0.00     0.029 A 
ATOM     61  N   UNL A   1      43.163  29.581  29.103  1.00  0.00    -0.354 N 
ATOM     62  N   UNL A   1      45.988  28.881  28.771  1.00  0.00    -0.248 NA
ATOM     63  C   UNL A   1      48.253  29.450  28.828  1.00  0.00     0.031 C 
ATOM     64  C   UNL A   1      42.668  31.639  29.779  1.00  0.00     0.029 A 
ATOM     65  C   UNL A   1      43.723  30.794  29.471  1.00  0.00     0.049 A 
ATOM     66  H   UNL A   1      43.670  28.788  28.814  1.00  0.00     0.167 HD
ATOM     67  C   UNL A   1      46.113  30.197  29.192  1.00  0.00     0.074 A 
ATOM     68  C   UNL A   1      47.532  30.487  29.239  1.00  0.00     0.031 C 
ATOM     69  C   UNL A   1      45.136  31.081  29.511  1.00  0.00     0.031 A 
BRANCH  56  70
ATOM     70  C   UNL A   1      39.398  28.828  29.048  1.00  0.00    -0.014 A 
ATOM     71  C   UNL A   1      38.649  29.357  27.983  1.00  0.00     0.009 A 
ATOM     72  C   UNL A   1      38.757  28.619  30.280  1.00  0.00     0.009 A 
ATOM     73  C   UNL A   1      37.301  29.681  28.149  1.00  0.00     0.001 A 
ATOM     74  C   UNL A   1      37.399  28.907  30.435  1.00  0.00     0.001 A 
ATOM     75  C   UNL A   1      36.675  29.448  29.373  1.00  0.00     0.000 A 
ENDBRANCH  56  70
BRANCH  57  76
ATOM     76  C   UNL A   1      49.106  26.742  27.998  1.00  0.00    -0.014 A 
ATOM     77  C   UNL A   1      49.741  26.824  26.746  1.00  0.00     0.009 A 
ATOM     78  C   UNL A   1      49.821  26.224  29.087  1.00  0.00     0.009 A 
ATOM     79  C   UNL A   1      51.042  26.348  26.576  1.00  0.00     0.001 A 
ATOM     80  C   UNL A   1      51.137  25.784  28.922  1.00  0.00     0.001 A 
ATOM     81  C   UNL A   1      51.739  25.828  27.664  1.00  0.00     0.000 A 
ENDBRANCH  57  76
BRANCH  69  82
ATOM     82  C   UNL A   1      45.545  32.459  29.957  1.00  0.00    -0.014 A 
ATOM     83  C   UNL A   1      45.745  33.469  29.001  1.00  0.00     0.009 A 
ATOM     84  C   UNL A   1      45.851  32.729  31.301  1.00  0.00     0.009 A 
ATOM     85  C   UNL A   1      46.266  34.709  29.373  1.00  0.00     0.001 A 
ATOM     86  C   UNL A   1      46.338  33.984  31.675  1.00  0.00     0.001 A 
ATOM     87  C   UNL A   1      46.558  34.967  30.710  1.00  0.00     0.000 A 
ENDBRANCH  69  82
ENDBRANCH  43  44
ENDBRANCH  35  38
ENDBRANCH  33  34
ENDBRANCH  32  33
ENDBRANCH  31  32
ENDBRANCH   1  31
TORSDOF 15
ENDMDL
