MODEL 1
REMARK VINA RESULT:     -10.9      0.000      0.000
REMARK SMILES CC(C)[C@@H](NC(=O)N[C@H]1CCS(=O)(=O)C1)C(=O)NCCCCNC(=O)c1ccc(-c2c3nc(c(-c4ccccc4)c4ccc([nH]4)c(-c4ccccc4)c4nc(c(-c5ccccc5)c5ccc2[nH]5)C=C4)C=C3)cc1
REMARK SMILES IDX 20 1 19 2 18 3 16 4 17 5 4 7 2 8 1 9 3 10 5 11 6 12 7 14
REMARK SMILES IDX 8 15 9 17 10 18 15 19 11 20 12 21 13 22 14 23 21 24 22 25
REMARK SMILES IDX 23 26 24 27 25 29 26 30 27 31 73 32 28 33 72 34 29 35 30 36
REMARK SMILES IDX 31 37 66 38 32 39 71 40 65 41 67 42 33 43 70 44 64 45 63 46
REMARK SMILES IDX 34 48 56 49 41 50 55 51 42 52 45 53 54 54 68 55 43 56 44 57
REMARK SMILES IDX 53 59 69 60 46 61 35 62 36 63 40 64 37 65 39 66 38 67 57 68
REMARK SMILES IDX 58 69 62 70 59 71 61 72 60 73 47 74 48 75 52 76 49 77 51 78
REMARK SMILES IDX 50 79
REMARK H PARENT 18 6 5 13 8 16 23 28 67 47 45 58
REMARK Flexibility Score: inf
ROOT
ATOM      1  C   UNL A   1      36.504  19.370  24.900  1.00  0.00     0.023 C 
ENDROOT
BRANCH   1   2
ATOM      2  C   UNL A   1      35.563  20.509  25.276  1.00  0.00     0.116 C 
BRANCH   2   3
ATOM      3  N   UNL A   1      34.179  20.053  25.140  1.00  0.00    -0.354 N 
ATOM      4  C   UNL A   1      32.934  20.660  25.262  1.00  0.00     0.242 C 
ATOM      5  O   UNL A   1      31.840  20.096  25.277  1.00  0.00    -0.273 OA
ATOM      6  H   UNL A   1      34.115  19.097  24.910  1.00  0.00     0.163 HD
BRANCH   4   7
ATOM      7  C   UNL A   1      32.881  22.124  25.279  1.00  0.00     0.175 C 
BRANCH   7   8
ATOM      8  C   UNL A   1      32.704  22.424  23.743  1.00  0.00     0.015 C 
ATOM      9  C   UNL A   1      31.452  23.176  23.332  1.00  0.00     0.010 C 
ATOM     10  C   UNL A   1      33.921  23.267  23.225  1.00  0.00     0.010 C 
ENDBRANCH   7   8
BRANCH   7  11
ATOM     11  N   UNL A   1      31.901  22.237  26.382  1.00  0.00    -0.326 N 
ATOM     12  C   UNL A   1      31.137  23.275  26.835  1.00  0.00     0.315 C 
ATOM     13  H   UNL A   1      31.775  21.402  26.887  1.00  0.00     0.166 HD
ATOM     14  O   UNL A   1      30.202  22.949  27.581  1.00  0.00    -0.249 OA
ATOM     15  N   UNL A   1      31.295  24.624  26.714  1.00  0.00    -0.334 N 
ATOM     16  H   UNL A   1      30.766  24.979  27.465  1.00  0.00     0.165 HD
BRANCH  15  17
ATOM     17  C   UNL A   1      31.869  25.945  26.019  1.00  0.00     0.099 C 
ATOM     18  C   UNL A   1      30.756  26.452  25.041  1.00  0.00     0.042 C 
ATOM     19  C   UNL A   1      32.150  27.315  26.726  1.00  0.00     0.161 C 
ATOM     20  C   UNL A   1      31.178  27.781  24.392  1.00  0.00     0.139 C 
ATOM     21  S   UNL A   1      32.350  28.529  25.479  1.00  0.00     0.152 S 
ATOM     22  O   UNL A   1      33.671  28.414  24.912  1.00  0.00    -0.229 OA
ATOM     23  O   UNL A   1      31.823  29.780  25.996  1.00  0.00    -0.229 OA
ENDBRANCH  15  17
ENDBRANCH   7  11
ENDBRANCH   4   7
ENDBRANCH   2   3
ENDBRANCH   1   2
BRANCH   1  24
ATOM     24  C   UNL A   1      37.947  19.793  24.587  1.00  0.00     0.023 C 
BRANCH  24  25
ATOM     25  C   UNL A   1      38.817  20.131  25.796  1.00  0.00     0.116 C 
BRANCH  25  26
ATOM     26  N   UNL A   1      39.984  19.272  25.863  1.00  0.00    -0.352 N 
ATOM     27  C   UNL A   1      41.305  19.598  26.030  1.00  0.00     0.251 C 
ATOM     28  H   UNL A   1      39.799  18.309  25.775  1.00  0.00     0.163 HD
ATOM     29  O   UNL A   1      42.168  18.769  25.750  1.00  0.00    -0.269 OA
BRANCH  27  30
ATOM     30  C   UNL A   1      41.710  20.924  26.552  1.00  0.00     0.039 A 
ATOM     31  C   UNL A   1      41.594  21.170  27.923  1.00  0.00     0.014 A 
ATOM     32  C   UNL A   1      42.107  21.956  25.696  1.00  0.00     0.014 A 
ATOM     33  C   UNL A   1      41.892  22.436  28.436  1.00  0.00     0.010 A 
ATOM     34  C   UNL A   1      42.474  23.198  26.218  1.00  0.00     0.010 A 
ATOM     35  C   UNL A   1      42.346  23.460  27.591  1.00  0.00    -0.014 A 
BRANCH  35  36
ATOM     36  C   UNL A   1      42.641  24.819  28.121  1.00  0.00     0.031 A 
ATOM     37  C   UNL A   1      44.046  25.191  28.517  1.00  0.00     0.074 A 
ATOM     38  C   UNL A   1      41.644  25.713  28.277  1.00  0.00     0.049 A 
ATOM     39  N   UNL A   1      44.492  26.310  29.035  1.00  0.00    -0.248 NA
ATOM     40  C   UNL A   1      45.085  24.165  28.330  1.00  0.00     0.031 C 
ATOM     41  C   UNL A   1      40.236  25.478  27.952  1.00  0.00     0.029 A 
ATOM     42  N   UNL A   1      41.666  27.002  28.750  1.00  0.00    -0.354 N 
ATOM     43  C   UNL A   1      45.852  26.115  29.247  1.00  0.00     0.074 A 
ATOM     44  C   UNL A   1      46.147  24.754  28.856  1.00  0.00     0.031 C 
ATOM     45  C   UNL A   1      39.535  26.595  28.209  1.00  0.00     0.029 A 
ATOM     46  C   UNL A   1      40.432  27.608  28.756  1.00  0.00     0.049 A 
ATOM     47  H   UNL A   1      42.488  27.451  29.055  1.00  0.00     0.167 HD
ATOM     48  C   UNL A   1      46.778  26.991  29.706  1.00  0.00     0.031 A 
ATOM     49  C   UNL A   1      40.062  28.838  29.163  1.00  0.00     0.031 A 
ATOM     50  C   UNL A   1      46.489  28.348  30.088  1.00  0.00     0.049 A 
ATOM     51  C   UNL A   1      41.103  29.781  29.700  1.00  0.00     0.074 A 
ATOM     52  C   UNL A   1      47.367  29.328  30.522  1.00  0.00     0.029 A 
ATOM     53  N   UNL A   1      45.225  28.918  30.086  1.00  0.00    -0.354 N 
ATOM     54  N   UNL A   1      42.394  29.599  29.839  1.00  0.00    -0.248 NA
ATOM     55  C   UNL A   1      40.635  31.109  30.123  1.00  0.00     0.031 C 
ATOM     56  C   UNL A   1      46.626  30.470  30.841  1.00  0.00     0.029 A 
ATOM     57  C   UNL A   1      45.296  30.227  30.536  1.00  0.00     0.049 A 
ATOM     58  H   UNL A   1      44.400  28.461  29.805  1.00  0.00     0.167 HD
ATOM     59  C   UNL A   1      42.896  30.799  30.328  1.00  0.00     0.074 A 
ATOM     60  C   UNL A   1      41.773  31.705  30.448  1.00  0.00     0.031 C 
ATOM     61  C   UNL A   1      44.173  31.121  30.646  1.00  0.00     0.031 A 
BRANCH  48  62
ATOM     62  C   UNL A   1      48.196  26.502  29.833  1.00  0.00    -0.014 A 
ATOM     63  C   UNL A   1      49.130  26.688  28.801  1.00  0.00     0.009 A 
ATOM     64  C   UNL A   1      48.615  25.877  31.019  1.00  0.00     0.009 A 
ATOM     65  C   UNL A   1      50.439  26.221  28.937  1.00  0.00     0.001 A 
ATOM     66  C   UNL A   1      49.934  25.443  31.165  1.00  0.00     0.001 A 
ATOM     67  C   UNL A   1      50.842  25.605  30.120  1.00  0.00     0.000 A 
ENDBRANCH  48  62
BRANCH  49  68
ATOM     68  C   UNL A   1      38.637  29.257  29.073  1.00  0.00    -0.014 A 
ATOM     69  C   UNL A   1      38.132  29.827  27.893  1.00  0.00     0.009 A 
ATOM     70  C   UNL A   1      37.778  29.109  30.173  1.00  0.00     0.009 A 
ATOM     71  C   UNL A   1      36.810  30.270  27.829  1.00  0.00     0.001 A 
ATOM     72  C   UNL A   1      36.446  29.522  30.094  1.00  0.00     0.001 A 
ATOM     73  C   UNL A   1      35.967  30.114  28.927  1.00  0.00     0.000 A 
ENDBRANCH  49  68
BRANCH  61  74
ATOM     74  C   UNL A   1      44.438  32.530  31.105  1.00  0.00    -0.014 A 
ATOM     75  C   UNL A   1      44.720  33.561  30.197  1.00  0.00     0.009 A 
ATOM     76  C   UNL A   1      44.362  32.834  32.474  1.00  0.00     0.009 A 
ATOM     77  C   UNL A   1      44.961  34.859  30.654  1.00  0.00     0.001 A 
ATOM     78  C   UNL A   1      44.568  34.139  32.926  1.00  0.00     0.001 A 
ATOM     79  C   UNL A   1      44.878  35.147  32.016  1.00  0.00     0.000 A 
ENDBRANCH  61  74
ENDBRANCH  35  36
ENDBRANCH  27  30
ENDBRANCH  25  26
ENDBRANCH  24  25
ENDBRANCH   1  24
TORSDOF 14
ENDMDL
MODEL 2
REMARK VINA RESULT:     -10.9      0.601      6.025
REMARK SMILES CC(C)[C@@H](NC(=O)N[C@H]1CCS(=O)(=O)C1)C(=O)NCCCCNC(=O)c1ccc(-c2c3nc(c(-c4ccccc4)c4ccc([nH]4)c(-c4ccccc4)c4nc(c(-c5ccccc5)c5ccc2[nH]5)C=C4)C=C3)cc1
REMARK SMILES IDX 20 1 19 2 18 3 16 4 17 5 4 7 2 8 1 9 3 10 5 11 6 12 7 14
REMARK SMILES IDX 8 15 9 17 10 18 15 19 11 20 12 21 13 22 14 23 21 24 22 25
REMARK SMILES IDX 23 26 24 27 25 29 26 30 27 31 73 32 28 33 72 34 29 35 30 36
REMARK SMILES IDX 31 37 66 38 32 39 71 40 65 41 67 42 33 43 70 44 64 45 63 46
REMARK SMILES IDX 34 48 56 49 41 50 55 51 42 52 45 53 54 54 68 55 43 56 44 57
REMARK SMILES IDX 53 59 69 60 46 61 35 62 36 63 40 64 37 65 39 66 38 67 57 68
REMARK SMILES IDX 58 69 62 70 59 71 61 72 60 73 47 74 48 75 52 76 49 77 51 78
REMARK SMILES IDX 50 79
REMARK H PARENT 18 6 5 13 8 16 23 28 67 47 45 58
REMARK Flexibility Score: inf
ROOT
ATOM      1  C   UNL A   1      36.533  19.594  24.963  1.00  0.00     0.023 C 
ENDROOT
BRANCH   1   2
ATOM      2  C   UNL A   1      35.541  20.735  25.153  1.00  0.00     0.116 C 
BRANCH   2   3
ATOM      3  N   UNL A   1      34.179  20.205  25.069  1.00  0.00    -0.354 N 
ATOM      4  C   UNL A   1      32.908  20.749  25.225  1.00  0.00     0.242 C 
ATOM      5  O   UNL A   1      31.846  20.129  25.283  1.00  0.00    -0.273 OA
ATOM      6  H   UNL A   1      34.157  19.245  24.854  1.00  0.00     0.163 HD
BRANCH   4   7
ATOM      7  C   UNL A   1      32.779  22.208  25.225  1.00  0.00     0.175 C 
BRANCH   7   8
ATOM      8  C   UNL A   1      32.559  22.478  23.688  1.00  0.00     0.015 C 
ATOM      9  C   UNL A   1      31.310  23.248  23.300  1.00  0.00     0.010 C 
ATOM     10  C   UNL A   1      33.776  23.283  23.112  1.00  0.00     0.010 C 
ENDBRANCH   7   8
BRANCH   7  11
ATOM     11  N   UNL A   1      31.815  22.285  26.344  1.00  0.00    -0.326 N 
ATOM     12  C   UNL A   1      31.041  23.302  26.828  1.00  0.00     0.315 C 
ATOM     13  H   UNL A   1      31.710  21.439  26.835  1.00  0.00     0.166 HD
ATOM     14  O   UNL A   1      30.123  22.946  27.583  1.00  0.00    -0.249 OA
ATOM     15  N   UNL A   1      31.176  24.655  26.730  1.00  0.00    -0.334 N 
ATOM     16  H   UNL A   1      30.653  24.987  27.495  1.00  0.00     0.165 HD
BRANCH  15  17
ATOM     17  C   UNL A   1      31.718  25.998  26.051  1.00  0.00     0.099 C 
ATOM     18  C   UNL A   1      30.571  26.518  25.119  1.00  0.00     0.042 C 
ATOM     19  C   UNL A   1      32.008  27.352  26.783  1.00  0.00     0.161 C 
ATOM     20  C   UNL A   1      30.963  27.866  24.491  1.00  0.00     0.139 C 
ATOM     21  S   UNL A   1      32.161  28.599  25.561  1.00  0.00     0.152 S 
ATOM     22  O   UNL A   1      33.465  28.509  24.953  1.00  0.00    -0.229 OA
ATOM     23  O   UNL A   1      31.639  29.832  26.124  1.00  0.00    -0.229 OA
ENDBRANCH  15  17
ENDBRANCH   7  11
ENDBRANCH   4   7
ENDBRANCH   2   3
ENDBRANCH   1   2
BRANCH   1  24
ATOM     24  C   UNL A   1      37.970  20.027  24.636  1.00  0.00     0.023 C 
BRANCH  24  25
ATOM     25  C   UNL A   1      38.859  20.340  25.838  1.00  0.00     0.116 C 
BRANCH  25  26
ATOM     26  N   UNL A   1      39.950  19.390  25.949  1.00  0.00    -0.352 N 
ATOM     27  C   UNL A   1      41.294  19.612  26.108  1.00  0.00     0.251 C 
ATOM     28  H   UNL A   1      39.685  18.443  25.903  1.00  0.00     0.163 HD
ATOM     29  O   UNL A   1      42.084  18.701  25.869  1.00  0.00    -0.269 OA
BRANCH  27  30
ATOM     30  C   UNL A   1      41.808  20.921  26.572  1.00  0.00     0.039 A 
ATOM     31  C   UNL A   1      41.792  21.200  27.942  1.00  0.00     0.014 A 
ATOM     32  C   UNL A   1      42.210  21.910  25.670  1.00  0.00     0.014 A 
ATOM     33  C   UNL A   1      42.195  22.456  28.406  1.00  0.00     0.010 A 
ATOM     34  C   UNL A   1      42.682  23.138  26.139  1.00  0.00     0.010 A 
ATOM     35  C   UNL A   1      42.655  23.434  27.511  1.00  0.00    -0.014 A 
BRANCH  35  36
ATOM     36  C   UNL A   1      43.062  24.784  27.990  1.00  0.00     0.031 A 
ATOM     37  C   UNL A   1      42.019  25.839  28.259  1.00  0.00     0.074 A 
ATOM     38  C   UNL A   1      44.367  25.076  28.156  1.00  0.00     0.049 A 
ATOM     39  N   UNL A   1      42.180  27.082  28.642  1.00  0.00    -0.248 NA
ATOM     40  C   UNL A   1      40.614  25.455  28.049  1.00  0.00     0.031 C 
ATOM     41  C   UNL A   1      45.479  24.156  27.913  1.00  0.00     0.029 A 
ATOM     42  N   UNL A   1      44.977  26.235  28.569  1.00  0.00    -0.354 N 
ATOM     43  C   UNL A   1      40.903  27.628  28.703  1.00  0.00     0.074 A 
ATOM     44  C   UNL A   1      39.985  26.600  28.263  1.00  0.00     0.031 C 
ATOM     45  C   UNL A   1      46.633  24.777  28.209  1.00  0.00     0.029 A 
ATOM     46  C   UNL A   1      46.348  26.149  28.618  1.00  0.00     0.049 A 
ATOM     47  H   UNL A   1      44.480  27.051  28.807  1.00  0.00     0.167 HD
ATOM     48  C   UNL A   1      40.522  28.865  29.105  1.00  0.00     0.031 A 
ATOM     49  C   UNL A   1      47.273  27.071  28.948  1.00  0.00     0.031 A 
ATOM     50  C   UNL A   1      41.432  29.887  29.550  1.00  0.00     0.049 A 
ATOM     51  C   UNL A   1      46.827  28.448  29.360  1.00  0.00     0.074 A 
ATOM     52  C   UNL A   1      41.139  31.156  30.022  1.00  0.00     0.029 A 
ATOM     53  N   UNL A   1      42.812  29.759  29.578  1.00  0.00    -0.354 N 
ATOM     54  N   UNL A   1      45.612  28.928  29.467  1.00  0.00    -0.248 NA
ATOM     55  C   UNL A   1      47.885  29.406  29.712  1.00  0.00     0.031 C 
ATOM     56  C   UNL A   1      42.345  31.817  30.275  1.00  0.00     0.029 A 
ATOM     57  C   UNL A   1      43.386  30.936  30.032  1.00  0.00     0.049 A 
ATOM     58  H   UNL A   1      43.311  28.952  29.313  1.00  0.00     0.167 HD
ATOM     59  C   UNL A   1      45.758  30.229  29.934  1.00  0.00     0.074 A 
ATOM     60  C   UNL A   1      47.177  30.456  30.102  1.00  0.00     0.031 C 
ATOM     61  C   UNL A   1      44.800  31.150  30.201  1.00  0.00     0.031 A 
BRANCH  48  62
ATOM     62  C   UNL A   1      39.052  29.185  29.069  1.00  0.00    -0.014 A 
ATOM     63  C   UNL A   1      38.434  29.660  27.901  1.00  0.00     0.009 A 
ATOM     64  C   UNL A   1      38.263  28.974  30.212  1.00  0.00     0.009 A 
ATOM     65  C   UNL A   1      37.070  29.957  27.890  1.00  0.00     0.001 A 
ATOM     66  C   UNL A   1      36.892  29.239  30.188  1.00  0.00     0.001 A 
ATOM     67  C   UNL A   1      36.299  29.741  29.032  1.00  0.00     0.000 A 
ENDBRANCH  48  62
BRANCH  49  68
ATOM     68  C   UNL A   1      48.719  26.725  28.913  1.00  0.00    -0.014 A 
ATOM     69  C   UNL A   1      49.371  26.254  30.063  1.00  0.00     0.009 A 
ATOM     70  C   UNL A   1      49.463  26.883  27.732  1.00  0.00     0.009 A 
ATOM     71  C   UNL A   1      50.741  25.982  30.042  1.00  0.00     0.001 A 
ATOM     72  C   UNL A   1      50.825  26.577  27.705  1.00  0.00     0.001 A 
ATOM     73  C   UNL A   1      51.465  26.139  28.862  1.00  0.00     0.000 A 
ENDBRANCH  49  68
BRANCH  61  74
ATOM     74  C   UNL A   1      45.250  32.474  30.756  1.00  0.00    -0.014 A 
ATOM     75  C   UNL A   1      45.429  32.674  32.133  1.00  0.00     0.009 A 
ATOM     76  C   UNL A   1      45.537  33.529  29.875  1.00  0.00     0.009 A 
ATOM     77  C   UNL A   1      45.849  33.916  32.618  1.00  0.00     0.001 A 
ATOM     78  C   UNL A   1      45.990  34.758  30.359  1.00  0.00     0.001 A 
ATOM     79  C   UNL A   1      46.135  34.952  31.731  1.00  0.00     0.000 A 
ENDBRANCH  61  74
ENDBRANCH  35  36
ENDBRANCH  27  30
ENDBRANCH  25  26
ENDBRANCH  24  25
ENDBRANCH   1  24
TORSDOF 14
ENDMDL
MODEL 3
REMARK VINA RESULT:     -10.8      3.752      9.067
REMARK SMILES CC(C)[C@@H](NC(=O)N[C@H]1CCS(=O)(=O)C1)C(=O)NCCCCNC(=O)c1ccc(-c2c3nc(c(-c4ccccc4)c4ccc([nH]4)c(-c4ccccc4)c4nc(c(-c5ccccc5)c5ccc2[nH]5)C=C4)C=C3)cc1
REMARK SMILES IDX 20 1 19 2 18 3 16 4 17 5 4 7 2 8 1 9 3 10 5 11 6 12 7 14
REMARK SMILES IDX 8 15 9 17 10 18 15 19 11 20 12 21 13 22 14 23 21 24 22 25
REMARK SMILES IDX 23 26 24 27 25 29 26 30 27 31 73 32 28 33 72 34 29 35 30 36
REMARK SMILES IDX 31 37 66 38 32 39 71 40 65 41 67 42 33 43 70 44 64 45 63 46
REMARK SMILES IDX 34 48 56 49 41 50 55 51 42 52 45 53 54 54 68 55 43 56 44 57
REMARK SMILES IDX 53 59 69 60 46 61 35 62 36 63 40 64 37 65 39 66 38 67 57 68
REMARK SMILES IDX 58 69 62 70 59 71 61 72 60 73 47 74 48 75 52 76 49 77 51 78
REMARK SMILES IDX 50 79
REMARK H PARENT 18 6 5 13 8 16 23 28 67 47 45 58
REMARK Flexibility Score: inf
ROOT
ATOM      1  C   UNL A   1      31.405  30.427  26.443  1.00  0.00     0.023 C 
ENDROOT
BRANCH   1   2
ATOM      2  C   UNL A   1      32.382  29.946  25.377  1.00  0.00     0.116 C 
BRANCH   2   3
ATOM      3  N   UNL A   1      31.651  29.701  24.132  1.00  0.00    -0.354 N 
ATOM      4  C   UNL A   1      31.511  28.612  23.280  1.00  0.00     0.242 C 
ATOM      5  O   UNL A   1      30.983  28.612  22.168  1.00  0.00    -0.273 OA
ATOM      6  H   UNL A   1      31.143  30.489  23.829  1.00  0.00     0.163 HD
BRANCH   4   7
ATOM      7  C   UNL A   1      31.938  27.298  23.767  1.00  0.00     0.175 C 
BRANCH   7   8
ATOM      8  C   UNL A   1      30.608  26.796  24.446  1.00  0.00     0.015 C 
ATOM      9  C   UNL A   1      29.936  25.585  23.824  1.00  0.00     0.010 C 
ATOM     10  C   UNL A   1      30.884  26.431  25.946  1.00  0.00     0.010 C 
ENDBRANCH   7   8
BRANCH   7  11
ATOM     11  N   UNL A   1      32.578  26.859  22.508  1.00  0.00    -0.326 N 
ATOM     12  C   UNL A   1      33.072  25.654  22.094  1.00  0.00     0.315 C 
ATOM     13  H   UNL A   1      32.665  27.574  21.838  1.00  0.00     0.166 HD
ATOM     14  O   UNL A   1      33.262  25.559  20.872  1.00  0.00    -0.249 OA
ATOM     15  N   UNL A   1      33.512  24.575  22.802  1.00  0.00    -0.334 N 
ATOM     16  H   UNL A   1      34.099  24.112  22.161  1.00  0.00     0.165 HD
BRANCH  15  17
ATOM     17  C   UNL A   1      33.598  23.650  24.104  1.00  0.00     0.099 C 
ATOM     18  C   UNL A   1      34.384  24.473  25.181  1.00  0.00     0.042 C 
ATOM     19  C   UNL A   1      32.399  23.222  25.016  1.00  0.00     0.161 C 
ATOM     20  C   UNL A   1      34.436  23.700  26.510  1.00  0.00     0.139 C 
ATOM     21  S   UNL A   1      33.062  22.592  26.511  1.00  0.00     0.152 S 
ATOM     22  O   UNL A   1      33.531  21.246  26.291  1.00  0.00    -0.229 OA
ATOM     23  O   UNL A   1      32.142  22.939  27.580  1.00  0.00    -0.229 OA
ENDBRANCH  15  17
ENDBRANCH   7  11
ENDBRANCH   4   7
ENDBRANCH   2   3
ENDBRANCH   1   2
BRANCH   1  24
ATOM     24  C   UNL A   1      31.405  31.943  26.691  1.00  0.00     0.023 C 
BRANCH  24  25
ATOM     25  C   UNL A   1      32.735  32.541  27.144  1.00  0.00     0.116 C 
BRANCH  25  26
ATOM     26  N   UNL A   1      32.567  33.900  27.625  1.00  0.00    -0.352 N 
ATOM     27  C   UNL A   1      33.176  34.542  28.672  1.00  0.00     0.251 C 
ATOM     28  H   UNL A   1      31.916  34.442  27.124  1.00  0.00     0.163 HD
ATOM     29  O   UNL A   1      32.679  35.577  29.112  1.00  0.00    -0.269 OA
BRANCH  27  30
ATOM     30  C   UNL A   1      34.425  34.020  29.273  1.00  0.00     0.039 A 
ATOM     31  C   UNL A   1      35.641  34.294  28.639  1.00  0.00     0.014 A 
ATOM     32  C   UNL A   1      34.403  33.184  30.393  1.00  0.00     0.014 A 
ATOM     33  C   UNL A   1      36.829  33.749  29.135  1.00  0.00     0.010 A 
ATOM     34  C   UNL A   1      35.597  32.700  30.931  1.00  0.00     0.010 A 
ATOM     35  C   UNL A   1      36.821  32.956  30.293  1.00  0.00    -0.014 A 
BRANCH  35  36
ATOM     36  C   UNL A   1      38.076  32.349  30.816  1.00  0.00     0.031 A 
ATOM     37  C   UNL A   1      38.628  31.093  30.192  1.00  0.00     0.074 A 
ATOM     38  C   UNL A   1      38.706  32.904  31.870  1.00  0.00     0.049 A 
ATOM     39  N   UNL A   1      39.684  30.394  30.532  1.00  0.00    -0.248 NA
ATOM     40  C   UNL A   1      37.885  30.534  29.051  1.00  0.00     0.031 C 
ATOM     41  C   UNL A   1      38.271  34.107  32.581  1.00  0.00     0.029 A 
ATOM     42  N   UNL A   1      39.852  32.525  32.526  1.00  0.00    -0.354 N 
ATOM     43  C   UNL A   1      39.719  29.313  29.660  1.00  0.00     0.074 A 
ATOM     44  C   UNL A   1      38.551  29.415  28.814  1.00  0.00     0.031 C 
ATOM     45  C   UNL A   1      39.153  34.384  33.555  1.00  0.00     0.029 A 
ATOM     46  C   UNL A   1      40.190  33.356  33.568  1.00  0.00     0.049 A 
ATOM     47  H   UNL A   1      40.381  31.734  32.275  1.00  0.00     0.167 HD
ATOM     48  C   UNL A   1      40.649  28.331  29.556  1.00  0.00     0.031 A 
ATOM     49  C   UNL A   1      41.214  33.295  34.441  1.00  0.00     0.031 A 
ATOM     50  C   UNL A   1      41.816  28.231  30.392  1.00  0.00     0.049 A 
ATOM     51  C   UNL A   1      42.215  32.177  34.326  1.00  0.00     0.074 A 
ATOM     52  C   UNL A   1      42.840  27.299  30.333  1.00  0.00     0.029 A 
ATOM     53  N   UNL A   1      42.116  29.088  31.438  1.00  0.00    -0.354 N 
ATOM     54  N   UNL A   1      42.265  31.195  33.458  1.00  0.00    -0.248 NA
ATOM     55  C   UNL A   1      43.311  32.169  35.305  1.00  0.00     0.031 C 
ATOM     56  C   UNL A   1      43.726  27.557  31.384  1.00  0.00     0.029 A 
ATOM     57  C   UNL A   1      43.294  28.693  32.051  1.00  0.00     0.049 A 
ATOM     58  H   UNL A   1      41.572  29.864  31.706  1.00  0.00     0.167 HD
ATOM     59  C   UNL A   1      43.415  30.478  33.763  1.00  0.00     0.074 A 
ATOM     60  C   UNL A   1      44.039  31.145  34.886  1.00  0.00     0.031 C 
ATOM     61  C   UNL A   1      43.910  29.367  33.164  1.00  0.00     0.031 A 
BRANCH  48  62
ATOM     62  C   UNL A   1      40.431  27.276  28.505  1.00  0.00    -0.014 A 
ATOM     63  C   UNL A   1      39.624  26.153  28.751  1.00  0.00     0.009 A 
ATOM     64  C   UNL A   1      41.012  27.425  27.235  1.00  0.00     0.009 A 
ATOM     65  C   UNL A   1      39.439  25.183  27.764  1.00  0.00     0.001 A 
ATOM     66  C   UNL A   1      40.797  26.471  26.239  1.00  0.00     0.001 A 
ATOM     67  C   UNL A   1      40.020  25.345  26.507  1.00  0.00     0.000 A 
ENDBRANCH  48  62
BRANCH  49  68
ATOM     68  C   UNL A   1      41.356  34.329  35.500  1.00  0.00    -0.014 A 
ATOM     69  C   UNL A   1      40.726  34.170  36.745  1.00  0.00     0.009 A 
ATOM     70  C   UNL A   1      42.106  35.493  35.268  1.00  0.00     0.009 A 
ATOM     71  C   UNL A   1      40.815  35.167  37.718  1.00  0.00     0.001 A 
ATOM     72  C   UNL A   1      42.222  36.473  36.256  1.00  0.00     0.001 A 
ATOM     73  C   UNL A   1      41.566  36.315  37.475  1.00  0.00     0.000 A 
ENDBRANCH  49  68
BRANCH  61  74
ATOM     74  C   UNL A   1      45.220  28.831  33.675  1.00  0.00    -0.014 A 
ATOM     75  C   UNL A   1      45.275  27.853  34.679  1.00  0.00     0.009 A 
ATOM     76  C   UNL A   1      46.420  29.289  33.108  1.00  0.00     0.009 A 
ATOM     77  C   UNL A   1      46.507  27.374  35.133  1.00  0.00     0.001 A 
ATOM     78  C   UNL A   1      47.649  28.783  33.537  1.00  0.00     0.001 A 
ATOM     79  C   UNL A   1      47.690  27.834  34.557  1.00  0.00     0.000 A 
ENDBRANCH  61  74
ENDBRANCH  35  36
ENDBRANCH  27  30
ENDBRANCH  25  26
ENDBRANCH  24  25
ENDBRANCH   1  24
TORSDOF 14
ENDMDL
