MODEL 1
REMARK VINA RESULT:     -10.2      0.000      0.000
REMARK SMILES C#CCN(CC(=O)NCCCCNC(=O)c1ccc(-c2c3nc(c(-c4ccccc4)c4ccc([nH]4)c(-c4ccccc4)c4nc(c(-c5ccccc5)c5ccc2[nH]5)C=C4)C=C3)cc1)C(=O)NCc1ccnc(C)n1
REMARK SMILES IDX 9 1 8 2 6 3 7 4 5 6 4 7 3 8 2 9 1 10 64 11 65 12 66 13 67 15
REMARK SMILES IDX 68 16 69 17 74 18 70 19 72 20 71 21 73 22 10 23 11 24 12 25
REMARK SMILES IDX 13 26 14 27 15 29 16 30 17 31 63 32 18 33 62 34 19 35 20 36
REMARK SMILES IDX 21 37 56 38 22 39 61 40 55 41 57 42 23 43 60 44 54 45 53 46
REMARK SMILES IDX 24 48 46 49 31 50 45 51 32 52 35 53 44 54 58 55 33 56 34 57
REMARK SMILES IDX 43 59 59 60 36 61 25 62 26 63 30 64 27 65 29 66 28 67 47 68
REMARK SMILES IDX 48 69 52 70 49 71 51 72 50 73 37 74 38 75 42 76 39 77 41 78
REMARK SMILES IDX 40 79
REMARK H PARENT 8 5 66 14 13 28 57 47 35 58
REMARK Flexibility Score: inf
ROOT
ATOM      1  C   UNL A   1      33.589  28.479  23.755  1.00  0.00     0.116 C 
ENDROOT
BRANCH   1   2
ATOM      2  N   UNL A   1      33.994  27.179  24.239  1.00  0.00    -0.355 N 
ATOM      3  C   UNL A   1      33.615  25.929  23.843  1.00  0.00     0.239 C 
ATOM      4  O   UNL A   1      34.334  24.995  24.214  1.00  0.00    -0.273 OA
ATOM      5  H   UNL A   1      34.651  27.197  24.974  1.00  0.00     0.163 HD
BRANCH   3   6
ATOM      6  C   UNL A   1      32.456  25.670  22.865  1.00  0.00     0.222 C 
BRANCH   6   7
ATOM      7  N   UNL A   1      31.133  25.519  23.459  1.00  0.00    -0.304 N 
BRANCH   7   8
ATOM      8  C   UNL A   1      30.533  24.193  23.344  1.00  0.00     0.211 C 
BRANCH   8   9
ATOM      9  C   UNL A   1      31.556  23.084  23.165  1.00  0.00    -0.085 C 
ATOM     10  C   UNL A   1      32.434  22.132  23.011  1.00  0.00     0.006 C 
ENDBRANCH   8   9
ENDBRANCH   7   8
BRANCH   7  11
ATOM     11  C   UNL A   1      30.400  26.461  24.121  1.00  0.00     0.318 C 
ATOM     12  O   UNL A   1      30.003  26.266  25.276  1.00  0.00    -0.249 OA
ATOM     13  N   UNL A   1      30.015  27.632  23.603  1.00  0.00    -0.332 N 
ATOM     14  H   UNL A   1      29.505  28.148  24.268  1.00  0.00     0.165 HD
BRANCH  13  15
ATOM     15  C   UNL A   1      30.117  28.379  22.356  1.00  0.00     0.174 C 
BRANCH  15  16
ATOM     16  C   UNL A   1      29.509  29.763  22.463  1.00  0.00     0.063 A 
ATOM     17  C   UNL A   1      29.431  30.413  23.680  1.00  0.00     0.046 A 
ATOM     18  N   UNL A   1      29.020  30.316  21.331  1.00  0.00    -0.236 NA
ATOM     19  C   UNL A   1      28.820  31.643  23.684  1.00  0.00     0.115 A 
ATOM     20  C   UNL A   1      28.438  31.528  21.438  1.00  0.00     0.125 A 
ATOM     21  N   UNL A   1      28.318  32.224  22.584  1.00  0.00    -0.242 NA
ATOM     22  C   UNL A   1      27.907  32.154  20.188  1.00  0.00     0.089 C 
ENDBRANCH  15  16
ENDBRANCH  13  15
ENDBRANCH   7  11
ENDBRANCH   6   7
ENDBRANCH   3   6
ENDBRANCH   1   2
BRANCH   1  23
ATOM     23  C   UNL A   1      32.922  29.352  24.818  1.00  0.00     0.023 C 
BRANCH  23  24
ATOM     24  C   UNL A   1      32.607  28.673  26.147  1.00  0.00     0.023 C 
BRANCH  24  25
ATOM     25  C   UNL A   1      33.622  28.895  27.254  1.00  0.00     0.116 C 
BRANCH  25  26
ATOM     26  N   UNL A   1      33.632  30.249  27.782  1.00  0.00    -0.352 N 
ATOM     27  C   UNL A   1      34.666  30.923  28.388  1.00  0.00     0.251 C 
ATOM     28  H   UNL A   1      32.789  30.750  27.693  1.00  0.00     0.163 HD
ATOM     29  O   UNL A   1      34.492  32.052  28.836  1.00  0.00    -0.269 OA
BRANCH  27  30
ATOM     30  C   UNL A   1      35.972  30.253  28.544  1.00  0.00     0.039 A 
ATOM     31  C   UNL A   1      36.883  30.311  27.486  1.00  0.00     0.014 A 
ATOM     32  C   UNL A   1      36.316  29.616  29.739  1.00  0.00     0.014 A 
ATOM     33  C   UNL A   1      38.168  29.794  27.655  1.00  0.00     0.010 A 
ATOM     34  C   UNL A   1      37.618  29.170  29.932  1.00  0.00     0.010 A 
ATOM     35  C   UNL A   1      38.556  29.256  28.892  1.00  0.00    -0.014 A 
BRANCH  35  36
ATOM     36  C   UNL A   1      39.938  28.773  29.124  1.00  0.00     0.031 A 
ATOM     37  C   UNL A   1      40.957  29.684  29.745  1.00  0.00     0.074 A 
ATOM     38  C   UNL A   1      40.296  27.543  28.709  1.00  0.00     0.049 A 
ATOM     39  N   UNL A   1      42.231  29.473  29.962  1.00  0.00    -0.248 NA
ATOM     40  C   UNL A   1      40.489  31.018  30.152  1.00  0.00     0.031 C 
ATOM     41  C   UNL A   1      39.409  26.574  28.061  1.00  0.00     0.029 A 
ATOM     42  N   UNL A   1      41.506  26.900  28.767  1.00  0.00    -0.354 N 
ATOM     43  C   UNL A   1      42.718  30.653  30.510  1.00  0.00     0.074 A 
ATOM     44  C   UNL A   1      41.616  31.590  30.546  1.00  0.00     0.031 C 
ATOM     45  C   UNL A   1      40.098  25.448  27.813  1.00  0.00     0.029 A 
ATOM     46  C   UNL A   1      41.479  25.630  28.247  1.00  0.00     0.049 A 
ATOM     47  H   UNL A   1      42.316  27.310  29.147  1.00  0.00     0.167 HD
ATOM     48  C   UNL A   1      43.965  30.928  30.959  1.00  0.00     0.031 A 
ATOM     49  C   UNL A   1      42.459  24.715  28.131  1.00  0.00     0.031 A 
ATOM     50  C   UNL A   1      45.058  29.994  30.934  1.00  0.00     0.049 A 
ATOM     51  C   UNL A   1      43.839  25.047  28.621  1.00  0.00     0.074 A 
ATOM     52  C   UNL A   1      46.345  30.158  31.415  1.00  0.00     0.029 A 
ATOM     53  N   UNL A   1      44.991  28.719  30.393  1.00  0.00    -0.354 N 
ATOM     54  N   UNL A   1      44.272  26.147  29.186  1.00  0.00    -0.248 NA
ATOM     55  C   UNL A   1      44.864  24.005  28.461  1.00  0.00     0.031 C 
ATOM     56  C   UNL A   1      47.069  28.994  31.130  1.00  0.00     0.029 A 
ATOM     57  C   UNL A   1      46.219  28.091  30.512  1.00  0.00     0.049 A 
ATOM     58  H   UNL A   1      44.189  28.319  29.986  1.00  0.00     0.167 HD
ATOM     59  C   UNL A   1      45.611  25.922  29.473  1.00  0.00     0.074 A 
ATOM     60  C   UNL A   1      45.917  24.578  29.028  1.00  0.00     0.031 C 
ATOM     61  C   UNL A   1      46.506  26.755  30.060  1.00  0.00     0.031 A 
BRANCH  48  62
ATOM     62  C   UNL A   1      44.204  32.307  31.505  1.00  0.00    -0.014 A 
ATOM     63  C   UNL A   1      43.992  32.596  32.864  1.00  0.00     0.009 A 
ATOM     64  C   UNL A   1      44.641  33.331  30.652  1.00  0.00     0.009 A 
ATOM     65  C   UNL A   1      44.168  33.894  33.345  1.00  0.00     0.001 A 
ATOM     66  C   UNL A   1      44.845  34.621  31.143  1.00  0.00     0.001 A 
ATOM     67  C   UNL A   1      44.596  34.905  32.486  1.00  0.00     0.000 A 
ENDBRANCH  48  62
BRANCH  49  68
ATOM     68  C   UNL A   1      42.158  23.379  27.557  1.00  0.00    -0.014 A 
ATOM     69  C   UNL A   1      42.417  23.123  26.202  1.00  0.00     0.009 A 
ATOM     70  C   UNL A   1      41.630  22.354  28.356  1.00  0.00     0.009 A 
ATOM     71  C   UNL A   1      42.136  21.870  25.653  1.00  0.00     0.001 A 
ATOM     72  C   UNL A   1      41.370  21.095  27.809  1.00  0.00     0.001 A 
ATOM     73  C   UNL A   1      41.619  20.856  26.458  1.00  0.00     0.000 A 
ENDBRANCH  49  68
BRANCH  61  74
ATOM     74  C   UNL A   1      47.892  26.221  30.282  1.00  0.00    -0.014 A 
ATOM     75  C   UNL A   1      48.835  26.192  29.244  1.00  0.00     0.009 A 
ATOM     76  C   UNL A   1      48.269  25.777  31.559  1.00  0.00     0.009 A 
ATOM     77  C   UNL A   1      50.122  25.702  29.474  1.00  0.00     0.001 A 
ATOM     78  C   UNL A   1      49.563  25.311  31.793  1.00  0.00     0.001 A 
ATOM     79  C   UNL A   1      50.486  25.267  30.749  1.00  0.00     0.000 A 
ENDBRANCH  61  74
ENDBRANCH  35  36
ENDBRANCH  27  30
ENDBRANCH  25  26
ENDBRANCH  24  25
ENDBRANCH  23  24
ENDBRANCH   1  23
TORSDOF 17
ENDMDL
MODEL 2
REMARK VINA RESULT:     -10.1      3.598      6.028
REMARK SMILES C#CCN(CC(=O)NCCCCNC(=O)c1ccc(-c2c3nc(c(-c4ccccc4)c4ccc([nH]4)c(-c4ccccc4)c4nc(c(-c5ccccc5)c5ccc2[nH]5)C=C4)C=C3)cc1)C(=O)NCc1ccnc(C)n1
REMARK SMILES IDX 9 1 8 2 6 3 7 4 5 6 4 7 3 8 2 9 1 10 64 11 65 12 66 13 67 15
REMARK SMILES IDX 68 16 69 17 74 18 70 19 72 20 71 21 73 22 10 23 11 24 12 25
REMARK SMILES IDX 13 26 14 27 15 29 16 30 17 31 63 32 18 33 62 34 19 35 20 36
REMARK SMILES IDX 21 37 56 38 22 39 61 40 55 41 57 42 23 43 60 44 54 45 53 46
REMARK SMILES IDX 24 48 46 49 31 50 45 51 32 52 35 53 44 54 58 55 33 56 34 57
REMARK SMILES IDX 43 59 59 60 36 61 25 62 26 63 30 64 27 65 29 66 28 67 47 68
REMARK SMILES IDX 48 69 52 70 49 71 51 72 50 73 37 74 38 75 42 76 39 77 41 78
REMARK SMILES IDX 40 79
REMARK H PARENT 8 5 66 14 13 28 57 47 35 58
REMARK Flexibility Score: inf
ROOT
ATOM      1  C   UNL A   1      31.069  30.045  24.994  1.00  0.00     0.116 C 
ENDROOT
BRANCH   1   2
ATOM      2  N   UNL A   1      32.131  29.706  24.073  1.00  0.00    -0.355 N 
ATOM      3  C   UNL A   1      32.499  28.499  23.553  1.00  0.00     0.239 C 
ATOM      4  O   UNL A   1      33.240  28.531  22.565  1.00  0.00    -0.273 OA
ATOM      5  H   UNL A   1      32.677  30.468  23.773  1.00  0.00     0.163 HD
BRANCH   3   6
ATOM      6  C   UNL A   1      31.922  27.158  24.043  1.00  0.00     0.222 C 
BRANCH   6   7
ATOM      7  N   UNL A   1      32.232  26.789  25.419  1.00  0.00    -0.304 N 
BRANCH   7   8
ATOM      8  C   UNL A   1      33.651  26.742  25.761  1.00  0.00     0.211 C 
BRANCH   8   9
ATOM      9  C   UNL A   1      34.129  27.975  26.511  1.00  0.00    -0.085 C 
ATOM     10  C   UNL A   1      34.539  29.032  27.154  1.00  0.00     0.006 C 
ENDBRANCH   8   9
ENDBRANCH   7   8
BRANCH   7  11
ATOM     11  C   UNL A   1      31.356  26.500  26.426  1.00  0.00     0.318 C 
ATOM     12  O   UNL A   1      31.059  27.345  27.278  1.00  0.00    -0.249 OA
ATOM     13  N   UNL A   1      30.778  25.309  26.616  1.00  0.00    -0.332 N 
ATOM     14  H   UNL A   1      30.181  25.341  27.398  1.00  0.00     0.165 HD
BRANCH  13  15
ATOM     15  C   UNL A   1      30.761  23.978  26.023  1.00  0.00     0.174 C 
BRANCH  15  16
ATOM     16  C   UNL A   1      32.114  23.301  26.087  1.00  0.00     0.063 A 
ATOM     17  C   UNL A   1      32.604  22.802  27.279  1.00  0.00     0.046 A 
ATOM     18  N   UNL A   1      32.831  23.236  24.943  1.00  0.00    -0.236 NA
ATOM     19  C   UNL A   1      33.860  22.249  27.246  1.00  0.00     0.115 A 
ATOM     20  C   UNL A   1      34.055  22.673  25.013  1.00  0.00     0.125 A 
ATOM     21  N   UNL A   1      34.605  22.169  26.133  1.00  0.00    -0.242 NA
ATOM     22  C   UNL A   1      34.849  22.585  23.749  1.00  0.00     0.089 C 
ENDBRANCH  15  16
ENDBRANCH  13  15
ENDBRANCH   7  11
ENDBRANCH   6   7
ENDBRANCH   3   6
ENDBRANCH   1   2
BRANCH   1  23
ATOM     23  C   UNL A   1      31.565  30.609  26.325  1.00  0.00     0.023 C 
BRANCH  23  24
ATOM     24  C   UNL A   1      31.414  32.115  26.518  1.00  0.00     0.023 C 
BRANCH  24  25
ATOM     25  C   UNL A   1      32.553  32.800  27.253  1.00  0.00     0.116 C 
BRANCH  25  26
ATOM     26  N   UNL A   1      32.272  34.177  27.623  1.00  0.00    -0.352 N 
ATOM     27  C   UNL A   1      32.946  34.977  28.514  1.00  0.00     0.251 C 
ATOM     28  H   UNL A   1      31.497  34.591  27.177  1.00  0.00     0.163 HD
ATOM     29  O   UNL A   1      32.542  36.109  28.761  1.00  0.00    -0.269 OA
BRANCH  27  30
ATOM     30  C   UNL A   1      34.132  34.442  29.212  1.00  0.00     0.039 A 
ATOM     31  C   UNL A   1      33.949  33.780  30.429  1.00  0.00     0.014 A 
ATOM     32  C   UNL A   1      35.407  34.548  28.650  1.00  0.00     0.014 A 
ATOM     33  C   UNL A   1      35.036  33.159  31.046  1.00  0.00     0.010 A 
ATOM     34  C   UNL A   1      36.472  33.865  29.225  1.00  0.00     0.010 A 
ATOM     35  C   UNL A   1      36.296  33.164  30.428  1.00  0.00    -0.014 A 
BRANCH  35  36
ATOM     36  C   UNL A   1      37.449  32.444  31.019  1.00  0.00     0.031 A 
ATOM     37  C   UNL A   1      38.049  32.919  32.310  1.00  0.00     0.074 A 
ATOM     38  C   UNL A   1      38.001  31.409  30.358  1.00  0.00     0.049 A 
ATOM     39  N   UNL A   1      39.100  32.470  32.947  1.00  0.00    -0.248 NA
ATOM     40  C   UNL A   1      37.396  34.068  32.958  1.00  0.00     0.031 C 
ATOM     41  C   UNL A   1      37.533  30.871  29.078  1.00  0.00     0.029 A 
ATOM     42  N   UNL A   1      39.083  30.627  30.672  1.00  0.00    -0.354 N 
ATOM     43  C   UNL A   1      39.247  33.294  34.056  1.00  0.00     0.074 A 
ATOM     44  C   UNL A   1      38.208  34.298  33.979  1.00  0.00     0.031 C 
ATOM     45  C   UNL A   1      38.304  29.826  28.735  1.00  0.00     0.029 A 
ATOM     46  C   UNL A   1      39.340  29.646  29.747  1.00  0.00     0.049 A 
ATOM     47  H   UNL A   1      39.623  30.756  31.485  1.00  0.00     0.167 HD
ATOM     48  C   UNL A   1      40.153  33.213  35.059  1.00  0.00     0.031 A 
ATOM     49  C   UNL A   1      40.304  28.708  29.716  1.00  0.00     0.031 A 
ATOM     50  C   UNL A   1      41.178  32.208  35.144  1.00  0.00     0.049 A 
ATOM     51  C   UNL A   1      41.308  28.647  30.830  1.00  0.00     0.074 A 
ATOM     52  C   UNL A   1      42.110  32.008  36.148  1.00  0.00     0.029 A 
ATOM     53  N   UNL A   1      41.409  31.236  34.183  1.00  0.00    -0.354 N 
ATOM     54  N   UNL A   1      41.402  29.398  31.900  1.00  0.00    -0.248 NA
ATOM     55  C   UNL A   1      42.338  27.601  30.734  1.00  0.00     0.031 C 
ATOM     56  C   UNL A   1      42.929  30.937  35.774  1.00  0.00     0.029 A 
ATOM     57  C   UNL A   1      42.479  30.444  34.560  1.00  0.00     0.049 A 
ATOM     58  H   UNL A   1      40.887  31.125  33.355  1.00  0.00     0.167 HD
ATOM     59  C   UNL A   1      42.481  28.902  32.618  1.00  0.00     0.074 A 
ATOM     60  C   UNL A   1      43.006  27.780  31.866  1.00  0.00     0.031 C 
ATOM     61  C   UNL A   1      42.989  29.334  33.798  1.00  0.00     0.031 A 
BRANCH  48  62
ATOM     62  C   UNL A   1      40.070  34.255  36.138  1.00  0.00    -0.014 A 
ATOM     63  C   UNL A   1      39.289  34.049  37.288  1.00  0.00     0.009 A 
ATOM     64  C   UNL A   1      40.776  35.459  36.002  1.00  0.00     0.009 A 
ATOM     65  C   UNL A   1      39.181  35.048  38.257  1.00  0.00     0.001 A 
ATOM     66  C   UNL A   1      40.688  36.445  36.987  1.00  0.00     0.001 A 
ATOM     67  C   UNL A   1      39.882  36.244  38.106  1.00  0.00     0.000 A 
ENDBRANCH  48  62
BRANCH  49  68
ATOM     68  C   UNL A   1      40.342  27.724  28.605  1.00  0.00    -0.014 A 
ATOM     69  C   UNL A   1      39.659  26.505  28.722  1.00  0.00     0.009 A 
ATOM     70  C   UNL A   1      41.042  28.002  27.421  1.00  0.00     0.009 A 
ATOM     71  C   UNL A   1      39.690  25.573  27.682  1.00  0.00     0.001 A 
ATOM     72  C   UNL A   1      41.053  27.078  26.374  1.00  0.00     0.001 A 
ATOM     73  C   UNL A   1      40.382  25.863  26.507  1.00  0.00     0.000 A 
ENDBRANCH  49  68
BRANCH  61  74
ATOM     74  C   UNL A   1      44.151  28.570  34.362  1.00  0.00    -0.014 A 
ATOM     75  C   UNL A   1      43.955  27.464  35.203  1.00  0.00     0.009 A 
ATOM     76  C   UNL A   1      45.461  28.939  34.015  1.00  0.00     0.009 A 
ATOM     77  C   UNL A   1      45.049  26.759  35.707  1.00  0.00     0.001 A 
ATOM     78  C   UNL A   1      46.552  28.218  34.501  1.00  0.00     0.001 A 
ATOM     79  C   UNL A   1      46.346  27.133  35.352  1.00  0.00     0.000 A 
ENDBRANCH  61  74
ENDBRANCH  35  36
ENDBRANCH  27  30
ENDBRANCH  25  26
ENDBRANCH  24  25
ENDBRANCH  23  24
ENDBRANCH   1  23
TORSDOF 17
ENDMDL
MODEL 3
REMARK VINA RESULT:     -10.1      2.346      7.355
REMARK SMILES C#CCN(CC(=O)NCCCCNC(=O)c1ccc(-c2c3nc(c(-c4ccccc4)c4ccc([nH]4)c(-c4ccccc4)c4nc(c(-c5ccccc5)c5ccc2[nH]5)C=C4)C=C3)cc1)C(=O)NCc1ccnc(C)n1
REMARK SMILES IDX 9 1 8 2 6 3 7 4 5 6 4 7 3 8 2 9 1 10 64 11 65 12 66 13 67 15
REMARK SMILES IDX 68 16 69 17 74 18 70 19 72 20 71 21 73 22 10 23 11 24 12 25
REMARK SMILES IDX 13 26 14 27 15 29 16 30 17 31 63 32 18 33 62 34 19 35 20 36
REMARK SMILES IDX 21 37 56 38 22 39 61 40 55 41 57 42 23 43 60 44 54 45 53 46
REMARK SMILES IDX 24 48 46 49 31 50 45 51 32 52 35 53 44 54 58 55 33 56 34 57
REMARK SMILES IDX 43 59 59 60 36 61 25 62 26 63 30 64 27 65 29 66 28 67 47 68
REMARK SMILES IDX 48 69 52 70 49 71 51 72 50 73 37 74 38 75 42 76 39 77 41 78
REMARK SMILES IDX 40 79
REMARK H PARENT 8 5 66 14 13 28 57 47 35 58
REMARK Flexibility Score: inf
ROOT
ATOM      1  C   UNL A   1      36.862  22.105  25.894  1.00  0.00     0.116 C 
ENDROOT
BRANCH   1   2
ATOM      2  N   UNL A   1      36.268  23.315  25.370  1.00  0.00    -0.355 N 
ATOM      3  C   UNL A   1      35.108  23.949  25.707  1.00  0.00     0.239 C 
ATOM      4  O   UNL A   1      34.989  25.116  25.320  1.00  0.00    -0.273 OA
ATOM      5  H   UNL A   1      36.785  23.753  24.655  1.00  0.00     0.163 HD
BRANCH   3   6
ATOM      6  C   UNL A   1      34.053  23.335  26.644  1.00  0.00     0.222 C 
BRANCH   6   7
ATOM      7  N   UNL A   1      32.672  23.381  26.176  1.00  0.00    -0.304 N 
BRANCH   7   8
ATOM      8  C   UNL A   1      32.388  22.622  24.962  1.00  0.00     0.211 C 
BRANCH   8   9
ATOM      9  C   UNL A   1      32.622  21.128  25.118  1.00  0.00    -0.085 C 
ATOM     10  C   UNL A   1      32.824  19.847  25.252  1.00  0.00     0.006 C 
ENDBRANCH   8   9
ENDBRANCH   7   8
BRANCH   7  11
ATOM     11  C   UNL A   1      31.616  24.031  26.746  1.00  0.00     0.318 C 
ATOM     12  O   UNL A   1      30.735  23.411  27.353  1.00  0.00    -0.249 OA
ATOM     13  N   UNL A   1      31.405  25.350  26.679  1.00  0.00    -0.332 N 
ATOM     14  H   UNL A   1      30.586  25.590  27.170  1.00  0.00     0.165 HD
BRANCH  13  15
ATOM     15  C   UNL A   1      32.014  26.542  26.103  1.00  0.00     0.174 C 
BRANCH  15  16
ATOM     16  C   UNL A   1      31.550  26.796  24.683  1.00  0.00     0.063 A 
ATOM     17  C   UNL A   1      32.311  26.390  23.604  1.00  0.00     0.046 A 
ATOM     18  N   UNL A   1      30.384  27.461  24.520  1.00  0.00    -0.236 NA
ATOM     19  C   UNL A   1      31.830  26.708  22.357  1.00  0.00     0.115 A 
ATOM     20  C   UNL A   1      29.997  27.725  23.256  1.00  0.00     0.125 A 
ATOM     21  N   UNL A   1      30.681  27.370  22.153  1.00  0.00    -0.242 NA
ATOM     22  C   UNL A   1      28.702  28.448  23.065  1.00  0.00     0.089 C 
ENDBRANCH  15  16
ENDBRANCH  13  15
ENDBRANCH   7  11
ENDBRANCH   6   7
ENDBRANCH   3   6
ENDBRANCH   1   2
BRANCH   1  23
ATOM     23  C   UNL A   1      36.703  20.893  24.976  1.00  0.00     0.023 C 
BRANCH  23  24
ATOM     24  C   UNL A   1      37.919  19.983  24.846  1.00  0.00     0.023 C 
BRANCH  24  25
ATOM     25  C   UNL A   1      39.108  20.347  25.718  1.00  0.00     0.116 C 
BRANCH  25  26
ATOM     26  N   UNL A   1      40.155  19.339  25.740  1.00  0.00    -0.352 N 
ATOM     27  C   UNL A   1      41.466  19.476  26.130  1.00  0.00     0.251 C 
ATOM     28  H   UNL A   1      39.890  18.440  25.436  1.00  0.00     0.163 HD
ATOM     29  O   UNL A   1      42.244  18.532  26.031  1.00  0.00    -0.269 OA
BRANCH  27  30
ATOM     30  C   UNL A   1      41.942  20.785  26.619  1.00  0.00     0.039 A 
ATOM     31  C   UNL A   1      42.409  21.716  25.688  1.00  0.00     0.014 A 
ATOM     32  C   UNL A   1      41.882  21.111  27.976  1.00  0.00     0.014 A 
ATOM     33  C   UNL A   1      42.748  23.002  26.111  1.00  0.00     0.010 A 
ATOM     34  C   UNL A   1      42.146  22.413  28.384  1.00  0.00     0.010 A 
ATOM     35  C   UNL A   1      42.581  23.371  27.455  1.00  0.00    -0.014 A 
BRANCH  35  36
ATOM     36  C   UNL A   1      42.855  24.752  27.916  1.00  0.00     0.031 A 
ATOM     37  C   UNL A   1      44.259  25.168  28.248  1.00  0.00     0.074 A 
ATOM     38  C   UNL A   1      41.833  25.608  28.107  1.00  0.00     0.049 A 
ATOM     39  N   UNL A   1      44.690  26.305  28.734  1.00  0.00    -0.248 NA
ATOM     40  C   UNL A   1      45.313  24.166  28.029  1.00  0.00     0.031 C 
ATOM     41  C   UNL A   1      40.420  25.316  27.854  1.00  0.00     0.029 A 
ATOM     42  N   UNL A   1      41.828  26.902  28.564  1.00  0.00    -0.354 N 
ATOM     43  C   UNL A   1      46.060  26.145  28.899  1.00  0.00     0.074 A 
ATOM     44  C   UNL A   1      46.379  24.789  28.508  1.00  0.00     0.031 C 
ATOM     45  C   UNL A   1      39.691  26.409  28.128  1.00  0.00     0.029 A 
ATOM     46  C   UNL A   1      40.577  27.463  28.611  1.00  0.00     0.049 A 
ATOM     47  H   UNL A   1      42.645  27.381  28.832  1.00  0.00     0.167 HD
ATOM     48  C   UNL A   1      46.974  27.050  29.321  1.00  0.00     0.031 A 
ATOM     49  C   UNL A   1      40.187  28.691  29.002  1.00  0.00     0.031 A 
ATOM     50  C   UNL A   1      46.660  28.402  29.699  1.00  0.00     0.049 A 
ATOM     51  C   UNL A   1      41.216  29.673  29.482  1.00  0.00     0.074 A 
ATOM     52  C   UNL A   1      47.523  29.412  30.087  1.00  0.00     0.029 A 
ATOM     53  N   UNL A   1      45.379  28.930  29.738  1.00  0.00    -0.354 N 
ATOM     54  N   UNL A   1      42.514  29.526  29.581  1.00  0.00    -0.248 NA
ATOM     55  C   UNL A   1      40.723  30.994  29.898  1.00  0.00     0.031 C 
ATOM     56  C   UNL A   1      46.758  30.541  30.399  1.00  0.00     0.029 A 
ATOM     57  C   UNL A   1      45.425  30.247  30.162  1.00  0.00     0.049 A 
ATOM     58  H   UNL A   1      44.559  28.442  29.499  1.00  0.00     0.167 HD
ATOM     59  C   UNL A   1      42.997  30.742  30.045  1.00  0.00     0.074 A 
ATOM     60  C   UNL A   1      41.854  31.618  30.199  1.00  0.00     0.031 C 
ATOM     61  C   UNL A   1      44.277  31.102  30.314  1.00  0.00     0.031 A 
BRANCH  48  62
ATOM     62  C   UNL A   1      48.402  26.589  29.402  1.00  0.00    -0.014 A 
ATOM     63  C   UNL A   1      49.259  26.683  28.293  1.00  0.00     0.009 A 
ATOM     64  C   UNL A   1      48.896  26.050  30.599  1.00  0.00     0.009 A 
ATOM     65  C   UNL A   1      50.567  26.202  28.368  1.00  0.00     0.001 A 
ATOM     66  C   UNL A   1      50.214  25.598  30.679  1.00  0.00     0.001 A 
ATOM     67  C   UNL A   1      51.044  25.662  29.561  1.00  0.00     0.000 A 
ENDBRANCH  48  62
BRANCH  49  68
ATOM     68  C   UNL A   1      38.754  29.071  28.920  1.00  0.00    -0.014 A 
ATOM     69  C   UNL A   1      37.922  28.919  30.039  1.00  0.00     0.009 A 
ATOM     70  C   UNL A   1      38.216  29.601  27.737  1.00  0.00     0.009 A 
ATOM     71  C   UNL A   1      36.573  29.273  29.971  1.00  0.00     0.001 A 
ATOM     72  C   UNL A   1      36.871  29.975  27.679  1.00  0.00     0.001 A 
ATOM     73  C   UNL A   1      36.050  29.806  28.793  1.00  0.00     0.000 A 
ENDBRANCH  49  68
BRANCH  61  74
ATOM     74  C   UNL A   1      44.507  32.513  30.771  1.00  0.00    -0.014 A 
ATOM     75  C   UNL A   1      44.715  33.551  29.850  1.00  0.00     0.009 A 
ATOM     76  C   UNL A   1      44.476  32.813  32.142  1.00  0.00     0.009 A 
ATOM     77  C   UNL A   1      44.915  34.859  30.296  1.00  0.00     0.001 A 
ATOM     78  C   UNL A   1      44.653  34.125  32.583  1.00  0.00     0.001 A 
ATOM     79  C   UNL A   1      44.879  35.145  31.661  1.00  0.00     0.000 A 
ENDBRANCH  61  74
ENDBRANCH  35  36
ENDBRANCH  27  30
ENDBRANCH  25  26
ENDBRANCH  24  25
ENDBRANCH  23  24
ENDBRANCH   1  23
TORSDOF 17
ENDMDL
