MODEL 1
REMARK VINA RESULT:     -11.5      0.000      0.000
REMARK SMILES C[C@@H](C(=O)NCCCCNC(=O)c1ccc(-c2c3nc(c(-c4ccccc4)c4ccc([nH]4)c(-c4ccccc4)c4nc(c(-c5ccccc5)c5ccc2[nH]5)C=C4)C=C3)cc1)c1ccc(-c2ccccc2)c(F)c1
REMARK SMILES IDX 7 1 6 2 5 3 3 4 4 5 2 7 1 8 61 9 62 10 73 11 63 12 71 13
REMARK SMILES IDX 64 14 72 15 65 16 66 17 70 18 67 19 69 20 68 21 8 22 9 23
REMARK SMILES IDX 10 24 11 25 12 27 13 28 14 29 60 30 15 31 59 32 16 33 17 34
REMARK SMILES IDX 18 35 53 36 19 37 58 38 52 39 54 40 20 41 57 42 51 43 50 44
REMARK SMILES IDX 21 46 43 47 28 48 42 49 29 50 32 51 41 52 55 53 30 54 31 55
REMARK SMILES IDX 40 57 56 58 33 59 22 60 23 61 27 62 24 63 26 64 25 65 44 66
REMARK SMILES IDX 45 67 49 68 46 69 48 70 47 71 34 72 35 73 39 74 36 75 38 76
REMARK SMILES IDX 37 77
REMARK H PARENT 5 6 10 26 54 45 32 56
REMARK Flexibility Score: inf
ROOT
ATOM      1  C   UNL A   1      32.656  29.543  25.056  1.00  0.00     0.023 C 
ENDROOT
BRANCH   1   2
ATOM      2  C   UNL A   1      31.138  29.419  24.889  1.00  0.00     0.116 C 
BRANCH   2   3
ATOM      3  N   UNL A   1      30.720  29.846  23.568  1.00  0.00    -0.356 N 
ATOM      4  C   UNL A   1      30.276  29.111  22.503  1.00  0.00     0.227 C 
ATOM      5  O   UNL A   1      30.129  29.718  21.440  1.00  0.00    -0.274 OA
ATOM      6  H   UNL A   1      30.761  30.817  23.413  1.00  0.00     0.163 HD
BRANCH   4   7
ATOM      7  C   UNL A   1      29.951  27.613  22.674  1.00  0.00     0.105 C 
ATOM      8  C   UNL A   1      28.774  27.440  23.642  1.00  0.00     0.023 C 
BRANCH   7   9
ATOM      9  C   UNL A   1      31.178  26.780  23.068  1.00  0.00    -0.033 A 
ATOM     10  C   UNL A   1      32.396  26.954  22.388  1.00  0.00     0.005 A 
ATOM     11  C   UNL A   1      31.137  25.807  24.076  1.00  0.00     0.044 A 
ATOM     12  C   UNL A   1      33.534  26.207  22.727  1.00  0.00     0.012 A 
ATOM     13  C   UNL A   1      32.266  25.054  24.397  1.00  0.00     0.131 A 
ATOM     14  C   UNL A   1      33.487  25.239  23.742  1.00  0.00     0.017 A 
ATOM     15  F   UNL A   1      32.151  24.140  25.374  1.00  0.00    -0.206 F 
BRANCH  14  16
ATOM     16  C   UNL A   1      34.672  24.455  24.116  1.00  0.00    -0.015 A 
ATOM     17  C   UNL A   1      35.282  24.622  25.369  1.00  0.00     0.009 A 
ATOM     18  C   UNL A   1      35.200  23.489  23.244  1.00  0.00     0.009 A 
ATOM     19  C   UNL A   1      36.380  23.841  25.741  1.00  0.00     0.001 A 
ATOM     20  C   UNL A   1      36.299  22.711  23.613  1.00  0.00     0.001 A 
ATOM     21  C   UNL A   1      36.886  22.885  24.864  1.00  0.00     0.000 A 
ENDBRANCH  14  16
ENDBRANCH   7   9
ENDBRANCH   4   7
ENDBRANCH   2   3
ENDBRANCH   1   2
BRANCH   1  22
ATOM     22  C   UNL A   1      33.311  28.403  25.836  1.00  0.00     0.023 C 
BRANCH  22  23
ATOM     23  C   UNL A   1      33.508  28.671  27.321  1.00  0.00     0.116 C 
BRANCH  23  24
ATOM     24  N   UNL A   1      33.571  30.090  27.642  1.00  0.00    -0.352 N 
ATOM     25  C   UNL A   1      34.629  30.794  28.168  1.00  0.00     0.251 C 
ATOM     26  H   UNL A   1      32.756  30.609  27.460  1.00  0.00     0.163 HD
ATOM     27  O   UNL A   1      34.504  31.970  28.490  1.00  0.00    -0.269 OA
BRANCH  25  28
ATOM     28  C   UNL A   1      35.912  30.096  28.374  1.00  0.00     0.039 A 
ATOM     29  C   UNL A   1      36.849  30.076  27.338  1.00  0.00     0.014 A 
ATOM     30  C   UNL A   1      36.209  29.534  29.618  1.00  0.00     0.014 A 
ATOM     31  C   UNL A   1      38.124  29.562  27.577  1.00  0.00     0.010 A 
ATOM     32  C   UNL A   1      37.498  29.084  29.872  1.00  0.00     0.010 A 
ATOM     33  C   UNL A   1      38.470  29.103  28.857  1.00  0.00    -0.014 A 
BRANCH  33  34
ATOM     34  C   UNL A   1      39.840  28.642  29.185  1.00  0.00     0.031 A 
ATOM     35  C   UNL A   1      40.822  29.605  29.784  1.00  0.00     0.074 A 
ATOM     36  C   UNL A   1      40.237  27.408  28.822  1.00  0.00     0.049 A 
ATOM     37  N   UNL A   1      42.109  29.465  29.971  1.00  0.00    -0.248 NA
ATOM     38  C   UNL A   1      40.290  30.916  30.189  1.00  0.00     0.031 C 
ATOM     39  C   UNL A   1      39.391  26.393  28.190  1.00  0.00     0.029 A 
ATOM     40  N   UNL A   1      41.470  26.811  28.903  1.00  0.00    -0.354 N 
ATOM     41  C   UNL A   1      42.548  30.682  30.474  1.00  0.00     0.074 A 
ATOM     42  C   UNL A   1      41.397  31.558  30.533  1.00  0.00     0.031 C 
ATOM     43  C   UNL A   1      40.131  25.301  27.940  1.00  0.00     0.029 A 
ATOM     44  C   UNL A   1      41.507  25.554  28.354  1.00  0.00     0.049 A 
ATOM     45  H   UNL A   1      42.253  27.243  29.317  1.00  0.00     0.167 HD
ATOM     46  C   UNL A   1      43.797  31.038  30.857  1.00  0.00     0.031 A 
ATOM     47  C   UNL A   1      42.538  24.706  28.178  1.00  0.00     0.031 A 
ATOM     48  C   UNL A   1      44.934  30.160  30.821  1.00  0.00     0.049 A 
ATOM     49  C   UNL A   1      43.910  25.109  28.635  1.00  0.00     0.074 A 
ATOM     50  C   UNL A   1      46.222  30.398  31.263  1.00  0.00     0.029 A 
ATOM     51  N   UNL A   1      44.916  28.871  30.311  1.00  0.00    -0.354 N 
ATOM     52  N   UNL A   1      44.300  26.241  29.170  1.00  0.00    -0.248 NA
ATOM     53  C   UNL A   1      44.983  24.117  28.471  1.00  0.00     0.031 C 
ATOM     54  C   UNL A   1      46.996  29.266  30.984  1.00  0.00     0.029 A 
ATOM     55  C   UNL A   1      46.177  28.308  30.408  1.00  0.00     0.049 A 
ATOM     56  H   UNL A   1      44.124  28.423  29.934  1.00  0.00     0.167 HD
ATOM     57  C   UNL A   1      45.657  26.090  29.429  1.00  0.00     0.074 A 
ATOM     58  C   UNL A   1      46.020  24.755  28.997  1.00  0.00     0.031 C 
ATOM     59  C   UNL A   1      46.520  26.978  29.977  1.00  0.00     0.031 A 
BRANCH  46  60
ATOM     60  C   UNL A   1      43.991  32.452  31.327  1.00  0.00    -0.014 A 
ATOM     61  C   UNL A   1      43.841  32.799  32.680  1.00  0.00     0.009 A 
ATOM     62  C   UNL A   1      44.326  33.452  30.402  1.00  0.00     0.009 A 
ATOM     63  C   UNL A   1      43.976  34.128  33.087  1.00  0.00     0.001 A 
ATOM     64  C   UNL A   1      44.489  34.775  30.817  1.00  0.00     0.001 A 
ATOM     65  C   UNL A   1      44.301  35.114  32.156  1.00  0.00     0.000 A 
ENDBRANCH  46  60
BRANCH  47  66
ATOM     66  C   UNL A   1      42.301  23.387  27.542  1.00  0.00    -0.014 A 
ATOM     67  C   UNL A   1      42.600  23.188  26.186  1.00  0.00     0.009 A 
ATOM     68  C   UNL A   1      41.809  22.309  28.296  1.00  0.00     0.009 A 
ATOM     69  C   UNL A   1      42.401  21.939  25.594  1.00  0.00     0.001 A 
ATOM     70  C   UNL A   1      41.632  21.056  27.705  1.00  0.00     0.001 A 
ATOM     71  C   UNL A   1      41.922  20.873  26.355  1.00  0.00     0.000 A 
ENDBRANCH  47  66
BRANCH  59  72
ATOM     72  C   UNL A   1      47.938  26.527  30.177  1.00  0.00    -0.014 A 
ATOM     73  C   UNL A   1      48.341  25.899  31.365  1.00  0.00     0.009 A 
ATOM     74  C   UNL A   1      48.866  26.676  29.134  1.00  0.00     0.009 A 
ATOM     75  C   UNL A   1      49.652  25.446  31.512  1.00  0.00     0.001 A 
ATOM     76  C   UNL A   1      50.170  26.203  29.275  1.00  0.00     0.001 A 
ATOM     77  C   UNL A   1      50.564  25.593  30.466  1.00  0.00     0.000 A 
ENDBRANCH  59  72
ENDBRANCH  33  34
ENDBRANCH  25  28
ENDBRANCH  23  24
ENDBRANCH  22  23
ENDBRANCH   1  22
TORSDOF 13
ENDMDL
MODEL 2
REMARK VINA RESULT:     -11.1      1.829      3.807
REMARK SMILES C[C@@H](C(=O)NCCCCNC(=O)c1ccc(-c2c3nc(c(-c4ccccc4)c4ccc([nH]4)c(-c4ccccc4)c4nc(c(-c5ccccc5)c5ccc2[nH]5)C=C4)C=C3)cc1)c1ccc(-c2ccccc2)c(F)c1
REMARK SMILES IDX 7 1 6 2 5 3 3 4 4 5 2 7 1 8 61 9 62 10 73 11 63 12 71 13
REMARK SMILES IDX 64 14 72 15 65 16 66 17 70 18 67 19 69 20 68 21 8 22 9 23
REMARK SMILES IDX 10 24 11 25 12 27 13 28 14 29 60 30 15 31 59 32 16 33 17 34
REMARK SMILES IDX 18 35 53 36 19 37 58 38 52 39 54 40 20 41 57 42 51 43 50 44
REMARK SMILES IDX 21 46 43 47 28 48 42 49 29 50 32 51 41 52 55 53 30 54 31 55
REMARK SMILES IDX 40 57 56 58 33 59 22 60 23 61 27 62 24 63 26 64 25 65 44 66
REMARK SMILES IDX 45 67 49 68 46 69 48 70 47 71 34 72 35 73 39 74 36 75 38 76
REMARK SMILES IDX 37 77
REMARK H PARENT 5 6 10 26 54 45 32 56
REMARK Flexibility Score: inf
ROOT
ATOM      1  C   UNL A   1      31.626  27.473  26.918  1.00  0.00     0.023 C 
ENDROOT
BRANCH   1   2
ATOM      2  C   UNL A   1      32.288  26.196  26.389  1.00  0.00     0.116 C 
BRANCH   2   3
ATOM      3  N   UNL A   1      31.462  25.033  26.646  1.00  0.00    -0.356 N 
ATOM      4  C   UNL A   1      30.686  24.296  25.795  1.00  0.00     0.227 C 
ATOM      5  O   UNL A   1      29.963  23.441  26.311  1.00  0.00    -0.274 OA
ATOM      6  H   UNL A   1      31.459  24.724  27.582  1.00  0.00     0.163 HD
BRANCH   4   7
ATOM      7  C   UNL A   1      30.768  24.527  24.272  1.00  0.00     0.105 C 
ATOM      8  C   UNL A   1      32.169  24.165  23.763  1.00  0.00     0.023 C 
BRANCH   7   9
ATOM      9  C   UNL A   1      30.327  25.938  23.860  1.00  0.00    -0.033 A 
ATOM     10  C   UNL A   1      28.994  26.343  24.048  1.00  0.00     0.005 A 
ATOM     11  C   UNL A   1      31.201  26.857  23.261  1.00  0.00     0.044 A 
ATOM     12  C   UNL A   1      28.564  27.627  23.682  1.00  0.00     0.012 A 
ATOM     13  C   UNL A   1      30.763  28.124  22.882  1.00  0.00     0.131 A 
ATOM     14  C   UNL A   1      29.446  28.543  23.089  1.00  0.00     0.017 A 
ATOM     15  F   UNL A   1      31.657  28.950  22.313  1.00  0.00    -0.206 F 
BRANCH  14  16
ATOM     16  C   UNL A   1      29.013  29.894  22.708  1.00  0.00    -0.015 A 
ATOM     17  C   UNL A   1      29.025  30.945  23.638  1.00  0.00     0.009 A 
ATOM     18  C   UNL A   1      28.615  30.178  21.391  1.00  0.00     0.009 A 
ATOM     19  C   UNL A   1      28.659  32.241  23.261  1.00  0.00     0.001 A 
ATOM     20  C   UNL A   1      28.246  31.471  21.014  1.00  0.00     0.001 A 
ATOM     21  C   UNL A   1      28.271  32.503  21.949  1.00  0.00     0.000 A 
ENDBRANCH  14  16
ENDBRANCH   7   9
ENDBRANCH   4   7
ENDBRANCH   2   3
ENDBRANCH   1   2
BRANCH   1  22
ATOM     22  C   UNL A   1      32.290  28.775  26.468  1.00  0.00     0.023 C 
BRANCH  22  23
ATOM     23  C   UNL A   1      33.605  29.098  27.161  1.00  0.00     0.116 C 
BRANCH  23  24
ATOM     24  N   UNL A   1      33.631  30.432  27.742  1.00  0.00    -0.352 N 
ATOM     25  C   UNL A   1      34.647  31.029  28.452  1.00  0.00     0.251 C 
ATOM     26  H   UNL A   1      32.821  30.975  27.612  1.00  0.00     0.163 HD
ATOM     27  O   UNL A   1      34.489  32.124  28.979  1.00  0.00    -0.269 OA
BRANCH  25  28
ATOM     28  C   UNL A   1      35.924  30.306  28.602  1.00  0.00     0.039 A 
ATOM     29  C   UNL A   1      36.833  30.307  27.541  1.00  0.00     0.014 A 
ATOM     30  C   UNL A   1      36.246  29.701  29.819  1.00  0.00     0.014 A 
ATOM     31  C   UNL A   1      38.107  29.768  27.729  1.00  0.00     0.010 A 
ATOM     32  C   UNL A   1      37.534  29.225  30.024  1.00  0.00     0.010 A 
ATOM     33  C   UNL A   1      38.479  29.263  28.985  1.00  0.00    -0.014 A 
BRANCH  33  34
ATOM     34  C   UNL A   1      39.851  28.773  29.261  1.00  0.00     0.031 A 
ATOM     35  C   UNL A   1      40.881  29.720  29.802  1.00  0.00     0.074 A 
ATOM     36  C   UNL A   1      40.201  27.525  28.902  1.00  0.00     0.049 A 
ATOM     37  N   UNL A   1      42.171  29.550  29.936  1.00  0.00    -0.248 NA
ATOM     38  C   UNL A   1      40.399  31.050  30.208  1.00  0.00     0.031 C 
ATOM     39  C   UNL A   1      39.304  26.522  28.322  1.00  0.00     0.029 A 
ATOM     40  N   UNL A   1      41.422  26.898  28.939  1.00  0.00    -0.354 N 
ATOM     41  C   UNL A   1      42.660  30.764  30.401  1.00  0.00     0.074 A 
ATOM     42  C   UNL A   1      41.535  31.669  30.495  1.00  0.00     0.031 C 
ATOM     43  C   UNL A   1      40.006  25.408  28.058  1.00  0.00     0.029 A 
ATOM     44  C   UNL A   1      41.405  25.632  28.409  1.00  0.00     0.049 A 
ATOM     45  H   UNL A   1      42.232  27.316  29.312  1.00  0.00     0.167 HD
ATOM     46  C   UNL A   1      43.933  31.094  30.724  1.00  0.00     0.031 A 
ATOM     47  C   UNL A   1      42.406  24.756  28.203  1.00  0.00     0.031 A 
ATOM     48  C   UNL A   1      45.046  30.187  30.654  1.00  0.00     0.049 A 
ATOM     49  C   UNL A   1      43.806  25.132  28.594  1.00  0.00     0.074 A 
ATOM     50  C   UNL A   1      46.357  30.400  31.037  1.00  0.00     0.029 A 
ATOM     51  N   UNL A   1      44.975  28.891  30.165  1.00  0.00    -0.354 N 
ATOM     52  N   UNL A   1      44.246  26.261  29.094  1.00  0.00    -0.248 NA
ATOM     53  C   UNL A   1      44.846  24.111  28.401  1.00  0.00     0.031 C 
ATOM     54  C   UNL A   1      47.091  29.244  30.743  1.00  0.00     0.029 A 
ATOM     55  C   UNL A   1      46.224  28.298  30.218  1.00  0.00     0.049 A 
ATOM     56  H   UNL A   1      44.157  28.458  29.830  1.00  0.00     0.167 HD
ATOM     57  C   UNL A   1      45.608  26.080  29.297  1.00  0.00     0.074 A 
ATOM     58  C   UNL A   1      45.920  24.730  28.872  1.00  0.00     0.031 C 
ATOM     59  C   UNL A   1      46.516  26.954  29.793  1.00  0.00     0.031 A 
BRANCH  46  60
ATOM     60  C   UNL A   1      44.182  32.509  31.163  1.00  0.00    -0.014 A 
ATOM     61  C   UNL A   1      44.456  33.525  30.234  1.00  0.00     0.009 A 
ATOM     62  C   UNL A   1      44.143  32.829  32.529  1.00  0.00     0.009 A 
ATOM     63  C   UNL A   1      44.734  34.823  30.667  1.00  0.00     0.001 A 
ATOM     64  C   UNL A   1      44.393  34.134  32.958  1.00  0.00     0.001 A 
ATOM     65  C   UNL A   1      44.702  35.126  32.028  1.00  0.00     0.000 A 
ENDBRANCH  46  60
BRANCH  47  66
ATOM     66  C   UNL A   1      42.110  23.434  27.598  1.00  0.00    -0.014 A 
ATOM     67  C   UNL A   1      41.552  22.407  28.374  1.00  0.00     0.009 A 
ATOM     68  C   UNL A   1      42.349  23.204  26.233  1.00  0.00     0.009 A 
ATOM     69  C   UNL A   1      41.250  21.171  27.798  1.00  0.00     0.001 A 
ATOM     70  C   UNL A   1      42.025  21.974  25.656  1.00  0.00     0.001 A 
ATOM     71  C   UNL A   1      41.482  20.958  26.439  1.00  0.00     0.000 A 
ENDBRANCH  47  66
BRANCH  59  72
ATOM     72  C   UNL A   1      47.929  26.471  29.940  1.00  0.00    -0.014 A 
ATOM     73  C   UNL A   1      48.362  25.833  31.112  1.00  0.00     0.009 A 
ATOM     74  C   UNL A   1      48.822  26.600  28.863  1.00  0.00     0.009 A 
ATOM     75  C   UNL A   1      49.668  25.350  31.209  1.00  0.00     0.001 A 
ATOM     76  C   UNL A   1      50.119  26.097  28.955  1.00  0.00     0.001 A 
ATOM     77  C   UNL A   1      50.543  25.477  30.130  1.00  0.00     0.000 A 
ENDBRANCH  59  72
ENDBRANCH  33  34
ENDBRANCH  25  28
ENDBRANCH  23  24
ENDBRANCH  22  23
ENDBRANCH   1  22
TORSDOF 13
ENDMDL
MODEL 3
REMARK VINA RESULT:     -11.1      3.107      7.979
REMARK SMILES C[C@@H](C(=O)NCCCCNC(=O)c1ccc(-c2c3nc(c(-c4ccccc4)c4ccc([nH]4)c(-c4ccccc4)c4nc(c(-c5ccccc5)c5ccc2[nH]5)C=C4)C=C3)cc1)c1ccc(-c2ccccc2)c(F)c1
REMARK SMILES IDX 7 1 6 2 5 3 3 4 4 5 2 7 1 8 61 9 62 10 73 11 63 12 71 13
REMARK SMILES IDX 64 14 72 15 65 16 66 17 70 18 67 19 69 20 68 21 8 22 9 23
REMARK SMILES IDX 10 24 11 25 12 27 13 28 14 29 60 30 15 31 59 32 16 33 17 34
REMARK SMILES IDX 18 35 53 36 19 37 58 38 52 39 54 40 20 41 57 42 51 43 50 44
REMARK SMILES IDX 21 46 43 47 28 48 42 49 29 50 32 51 41 52 55 53 30 54 31 55
REMARK SMILES IDX 40 57 56 58 33 59 22 60 23 61 27 62 24 63 26 64 25 65 44 66
REMARK SMILES IDX 45 67 49 68 46 69 48 70 47 71 34 72 35 73 39 74 36 75 38 76
REMARK SMILES IDX 37 77
REMARK H PARENT 5 6 10 26 54 45 32 56
REMARK Flexibility Score: inf
ROOT
ATOM      1  C   UNL A   1      35.512  22.078  26.119  1.00  0.00     0.023 C 
ENDROOT
BRANCH   1   2
ATOM      2  C   UNL A   1      34.791  21.513  24.892  1.00  0.00     0.116 C 
BRANCH   2   3
ATOM      3  N   UNL A   1      33.421  21.157  25.206  1.00  0.00    -0.356 N 
ATOM      4  C   UNL A   1      32.248  21.758  24.843  1.00  0.00     0.227 C 
ATOM      5  O   UNL A   1      31.223  21.331  25.378  1.00  0.00    -0.274 OA
ATOM      6  H   UNL A   1      33.320  20.356  25.770  1.00  0.00     0.163 HD
BRANCH   4   7
ATOM      7  C   UNL A   1      32.245  22.882  23.787  1.00  0.00     0.105 C 
ATOM      8  C   UNL A   1      33.249  22.557  22.673  1.00  0.00     0.023 C 
BRANCH   7   9
ATOM      9  C   UNL A   1      32.460  24.273  24.399  1.00  0.00    -0.033 A 
ATOM     10  C   UNL A   1      32.026  24.541  25.710  1.00  0.00     0.005 A 
ATOM     11  C   UNL A   1      33.053  25.327  23.690  1.00  0.00     0.044 A 
ATOM     12  C   UNL A   1      32.210  25.803  26.295  1.00  0.00     0.012 A 
ATOM     13  C   UNL A   1      33.216  26.584  24.269  1.00  0.00     0.131 A 
ATOM     14  C   UNL A   1      32.810  26.851  25.580  1.00  0.00     0.017 A 
ATOM     15  F   UNL A   1      33.792  27.544  23.528  1.00  0.00    -0.206 F 
BRANCH  14  16
ATOM     16  C   UNL A   1      33.019  28.174  26.182  1.00  0.00    -0.015 A 
ATOM     17  C   UNL A   1      31.962  29.090  26.296  1.00  0.00     0.009 A 
ATOM     18  C   UNL A   1      34.274  28.542  26.695  1.00  0.00     0.009 A 
ATOM     19  C   UNL A   1      32.151  30.330  26.912  1.00  0.00     0.001 A 
ATOM     20  C   UNL A   1      34.465  29.782  27.308  1.00  0.00     0.001 A 
ATOM     21  C   UNL A   1      33.402  30.675  27.419  1.00  0.00     0.000 A 
ENDBRANCH  14  16
ENDBRANCH   7   9
ENDBRANCH   4   7
ENDBRANCH   2   3
ENDBRANCH   1   2
BRANCH   1  22
ATOM     22  C   UNL A   1      36.138  23.458  25.918  1.00  0.00     0.023 C 
BRANCH  22  23
ATOM     23  C   UNL A   1      37.351  23.485  25.000  1.00  0.00     0.116 C 
BRANCH  23  24
ATOM     24  N   UNL A   1      38.419  22.598  25.439  1.00  0.00    -0.352 N 
ATOM     25  C   UNL A   1      39.504  22.902  26.227  1.00  0.00     0.251 C 
ATOM     26  H   UNL A   1      38.357  21.665  25.132  1.00  0.00     0.163 HD
ATOM     27  O   UNL A   1      40.388  22.077  26.428  1.00  0.00    -0.269 OA
BRANCH  25  28
ATOM     28  C   UNL A   1      39.607  24.258  26.798  1.00  0.00     0.039 A 
ATOM     29  C   UNL A   1      39.073  24.504  28.065  1.00  0.00     0.014 A 
ATOM     30  C   UNL A   1      40.299  25.256  26.109  1.00  0.00     0.014 A 
ATOM     31  C   UNL A   1      39.306  25.734  28.682  1.00  0.00     0.010 A 
ATOM     32  C   UNL A   1      40.586  26.454  26.749  1.00  0.00     0.010 A 
ATOM     33  C   UNL A   1      40.100  26.701  28.045  1.00  0.00    -0.014 A 
BRANCH  33  34
ATOM     34  C   UNL A   1      40.460  27.981  28.701  1.00  0.00     0.031 A 
ATOM     35  C   UNL A   1      41.774  28.105  29.413  1.00  0.00     0.074 A 
ATOM     36  C   UNL A   1      39.555  28.975  28.769  1.00  0.00     0.049 A 
ATOM     37  N   UNL A   1      42.200  29.058  30.202  1.00  0.00    -0.248 NA
ATOM     38  C   UNL A   1      42.717  26.988  29.247  1.00  0.00     0.031 C 
ATOM     39  C   UNL A   1      38.224  28.959  28.158  1.00  0.00     0.029 A 
ATOM     40  N   UNL A   1      39.609  30.182  29.420  1.00  0.00    -0.354 N 
ATOM     41  C   UNL A   1      43.441  28.636  30.659  1.00  0.00     0.074 A 
ATOM     42  C   UNL A   1      43.684  27.329  30.086  1.00  0.00     0.031 C 
ATOM     43  C   UNL A   1      37.589  30.101  28.464  1.00  0.00     0.029 A 
ATOM     44  C   UNL A   1      38.448  30.908  29.324  1.00  0.00     0.049 A 
ATOM     45  H   UNL A   1      40.404  30.498  29.907  1.00  0.00     0.167 HD
ATOM     46  C   UNL A   1      44.303  29.280  31.481  1.00  0.00     0.031 A 
ATOM     47  C   UNL A   1      38.101  32.081  29.887  1.00  0.00     0.031 A 
ATOM     48  C   UNL A   1      44.071  30.589  32.029  1.00  0.00     0.049 A 
ATOM     49  C   UNL A   1      39.083  32.793  30.772  1.00  0.00     0.074 A 
ATOM     50  C   UNL A   1      44.918  31.361  32.804  1.00  0.00     0.029 A 
ATOM     51  N   UNL A   1      42.904  31.317  31.860  1.00  0.00    -0.354 N 
ATOM     52  N   UNL A   1      40.281  32.414  31.146  1.00  0.00    -0.248 NA
ATOM     53  C   UNL A   1      38.669  34.099  31.308  1.00  0.00     0.031 C 
ATOM     54  C   UNL A   1      44.247  32.543  33.137  1.00  0.00     0.029 A 
ATOM     55  C   UNL A   1      42.999  32.523  32.532  1.00  0.00     0.049 A 
ATOM     56  H   UNL A   1      42.123  31.020  31.339  1.00  0.00     0.167 HD
ATOM     57  C   UNL A   1      40.773  33.441  31.940  1.00  0.00     0.074 A 
ATOM     58  C   UNL A   1      39.747  34.463  31.988  1.00  0.00     0.031 C 
ATOM     59  C   UNL A   1      41.970  33.528  32.568  1.00  0.00     0.031 A 
BRANCH  46  60
ATOM     60  C   UNL A   1      45.569  28.558  31.847  1.00  0.00    -0.014 A 
ATOM     61  C   UNL A   1      46.729  28.674  31.065  1.00  0.00     0.009 A 
ATOM     62  C   UNL A   1      45.599  27.745  32.990  1.00  0.00     0.009 A 
ATOM     63  C   UNL A   1      47.879  27.954  31.394  1.00  0.00     0.001 A 
ATOM     64  C   UNL A   1      46.758  27.049  33.334  1.00  0.00     0.001 A 
ATOM     65  C   UNL A   1      47.893  27.143  32.529  1.00  0.00     0.000 A 
ENDBRANCH  46  60
BRANCH  47  66
ATOM     66  C   UNL A   1      36.758  32.653  29.619  1.00  0.00    -0.014 A 
ATOM     67  C   UNL A   1      35.718  32.488  30.545  1.00  0.00     0.009 A 
ATOM     68  C   UNL A   1      36.520  33.399  28.452  1.00  0.00     0.009 A 
ATOM     69  C   UNL A   1      34.462  33.049  30.304  1.00  0.00     0.001 A 
ATOM     70  C   UNL A   1      35.269  33.976  28.225  1.00  0.00     0.001 A 
ATOM     71  C   UNL A   1      34.240  33.796  29.147  1.00  0.00     0.000 A 
ENDBRANCH  47  66
BRANCH  59  72
ATOM     72  C   UNL A   1      42.254  34.786  33.337  1.00  0.00    -0.014 A 
ATOM     73  C   UNL A   1      42.983  35.839  32.763  1.00  0.00     0.009 A 
ATOM     74  C   UNL A   1      41.729  34.943  34.629  1.00  0.00     0.009 A 
ATOM     75  C   UNL A   1      43.197  37.018  33.479  1.00  0.00     0.001 A 
ATOM     76  C   UNL A   1      41.925  36.131  35.333  1.00  0.00     0.001 A 
ATOM     77  C   UNL A   1      42.663  37.166  34.759  1.00  0.00     0.000 A 
ENDBRANCH  59  72
ENDBRANCH  33  34
ENDBRANCH  25  28
ENDBRANCH  23  24
ENDBRANCH  22  23
ENDBRANCH   1  22
TORSDOF 13
ENDMDL
