MODEL 1
REMARK VINA RESULT:     -13.9      0.000      0.000
REMARK SMILES Cc1nn([C@H]2CCS(=O)(=O)C2)c(C)c1/C=C(\CC(=O)NCCCCNC(=O)c1ccc(-c2c3nc(c(-c4ccccc4)c4ccc([nH]4)c(-c4ccccc4)c4nc(c(-c5ccccc5)c5ccc2[nH]5)C=C4)C=C3)cc1)c1nc2ccccc2s1
REMARK SMILES IDX 22 1 21 2 20 3 18 4 19 5 17 7 16 8 15 9 14 10 1 11 2 12 3 13
REMARK SMILES IDX 4 14 12 15 13 16 5 17 6 18 11 19 7 20 8 21 9 22 10 23 76 24
REMARK SMILES IDX 77 25 84 26 78 27 83 28 79 29 82 30 80 31 81 32 23 33 24 34
REMARK SMILES IDX 25 35 26 36 27 38 28 39 29 40 75 41 30 42 74 43 31 44 32 45
REMARK SMILES IDX 33 46 68 47 34 48 73 49 67 50 69 51 35 52 72 53 66 54 65 55
REMARK SMILES IDX 36 57 58 58 43 59 57 60 44 61 47 62 56 63 70 64 45 65 46 66
REMARK SMILES IDX 55 68 71 69 48 70 37 71 38 72 42 73 39 74 41 75 40 76 59 77
REMARK SMILES IDX 60 78 64 79 61 80 63 81 62 82 49 83 50 84 54 85 51 86 53 87
REMARK SMILES IDX 52 88
REMARK H PARENT 20 6 25 37 69 56 47 67
REMARK Flexibility Score: inf
ROOT
ATOM      1  C   UNL A   1      33.563  27.572  24.728  1.00  0.00     0.023 C 
ENDROOT
BRANCH   1   2
ATOM      2  C   UNL A   1      34.256  26.210  24.693  1.00  0.00     0.116 C 
BRANCH   2   3
ATOM      3  N   UNL A   1      33.808  25.374  25.786  1.00  0.00    -0.356 N 
ATOM      4  C   UNL A   1      33.175  24.166  25.719  1.00  0.00     0.224 C 
ATOM      5  O   UNL A   1      32.670  23.708  26.744  1.00  0.00    -0.275 OA
ATOM      6  H   UNL A   1      33.981  25.720  26.691  1.00  0.00     0.163 HD
BRANCH   4   7
ATOM      7  C   UNL A   1      33.299  23.339  24.448  1.00  0.00     0.138 C 
BRANCH   7   8
ATOM      8  C   UNL A   1      32.043  22.766  23.806  1.00  0.00    -0.002 C 
ATOM      9  C   UNL A   1      31.099  23.519  23.183  1.00  0.00     0.019 C 
BRANCH   9  10
ATOM     10  C   UNL A   1      31.046  24.953  23.103  1.00  0.00     0.019 A 
ATOM     11  C   UNL A   1      32.673  25.414  21.103  1.00  0.00     0.069 C 
ATOM     12  C   UNL A   1      31.657  25.778  22.124  1.00  0.00     0.067 A 
ATOM     13  N   UNL A   1      31.210  27.037  22.206  1.00  0.00    -0.177 NA
ATOM     14  N   UNL A   1      30.377  27.031  23.267  1.00  0.00    -0.265 N 
ATOM     15  C   UNL A   1      30.480  25.859  23.989  1.00  0.00     0.043 A 
ATOM     16  C   UNL A   1      30.063  25.708  25.410  1.00  0.00     0.067 C 
BRANCH  14  17
ATOM     17  C   UNL A   1      29.570  28.224  23.512  1.00  0.00     0.123 C 
ATOM     18  C   UNL A   1      30.422  29.512  23.645  1.00  0.00     0.044 C 
ATOM     19  C   UNL A   1      28.575  28.562  22.405  1.00  0.00     0.164 C 
ATOM     20  C   UNL A   1      29.460  30.692  23.718  1.00  0.00     0.139 C 
ATOM     21  S   UNL A   1      28.050  30.220  22.743  1.00  0.00     0.152 S 
ATOM     22  O   UNL A   1      26.892  30.155  23.597  1.00  0.00    -0.229 OA
ATOM     23  O   UNL A   1      28.061  30.965  21.495  1.00  0.00    -0.229 OA
ENDBRANCH  14  17
ENDBRANCH   9  10
BRANCH   8  24
ATOM     24  C   UNL A   1      31.885  21.337  23.831  1.00  0.00     0.121 A 
ATOM     25  N   UNL A   1      31.886  20.620  24.936  1.00  0.00    -0.236 NA
ATOM     26  S   UNL A   1      32.006  20.395  22.386  1.00  0.00    -0.114 S 
ATOM     27  C   UNL A   1      32.404  19.367  24.675  1.00  0.00     0.082 A 
ATOM     28  C   UNL A   1      32.579  19.067  23.324  1.00  0.00     0.055 A 
ATOM     29  C   UNL A   1      32.836  18.439  25.642  1.00  0.00     0.030 A 
ATOM     30  C   UNL A   1      33.184  17.875  22.899  1.00  0.00     0.021 A 
ATOM     31  C   UNL A   1      33.516  17.287  25.233  1.00  0.00     0.002 A 
ATOM     32  C   UNL A   1      33.692  17.015  23.879  1.00  0.00     0.002 A 
ENDBRANCH   8  24
ENDBRANCH   7   8
ENDBRANCH   4   7
ENDBRANCH   2   3
ENDBRANCH   1   2
BRANCH   1  33
ATOM     33  C   UNL A   1      33.222  28.067  26.141  1.00  0.00     0.023 C 
BRANCH  33  34
ATOM     34  C   UNL A   1      34.427  28.549  26.939  1.00  0.00     0.116 C 
BRANCH  34  35
ATOM     35  N   UNL A   1      34.530  30.004  26.948  1.00  0.00    -0.352 N 
ATOM     36  C   UNL A   1      35.374  30.788  27.702  1.00  0.00     0.251 C 
ATOM     37  H   UNL A   1      33.921  30.484  26.341  1.00  0.00     0.163 HD
ATOM     38  O   UNL A   1      35.102  31.959  27.939  1.00  0.00    -0.269 OA
BRANCH  36  39
ATOM     39  C   UNL A   1      36.620  30.200  28.217  1.00  0.00     0.039 A 
ATOM     40  C   UNL A   1      36.653  29.606  29.479  1.00  0.00     0.014 A 
ATOM     41  C   UNL A   1      37.761  30.237  27.412  1.00  0.00     0.014 A 
ATOM     42  C   UNL A   1      37.819  28.968  29.890  1.00  0.00     0.010 A 
ATOM     43  C   UNL A   1      38.882  29.522  27.777  1.00  0.00     0.010 A 
ATOM     44  C   UNL A   1      38.924  28.901  29.022  1.00  0.00    -0.014 A 
BRANCH  44  45
ATOM     45  C   UNL A   1      40.031  27.996  29.338  1.00  0.00     0.031 A 
ATOM     46  C   UNL A   1      40.417  28.035  30.774  1.00  0.00     0.074 A 
ATOM     47  C   UNL A   1      40.517  27.049  28.504  1.00  0.00     0.049 A 
ATOM     48  N   UNL A   1      41.498  28.524  31.285  1.00  0.00    -0.248 NA
ATOM     49  C   UNL A   1      39.413  27.635  31.779  1.00  0.00     0.031 C 
ATOM     50  C   UNL A   1      39.982  26.680  27.188  1.00  0.00     0.029 A 
ATOM     51  N   UNL A   1      41.508  26.125  28.695  1.00  0.00    -0.354 N 
ATOM     52  C   UNL A   1      41.426  28.234  32.646  1.00  0.00     0.074 A 
ATOM     53  C   UNL A   1      40.050  27.915  32.917  1.00  0.00     0.031 C 
ATOM     54  C   UNL A   1      40.473  25.477  26.820  1.00  0.00     0.029 A 
ATOM     55  C   UNL A   1      41.491  25.079  27.774  1.00  0.00     0.049 A 
ATOM     56  H   UNL A   1      42.173  26.193  29.417  1.00  0.00     0.167 HD
ATOM     57  C   UNL A   1      42.558  27.890  33.324  1.00  0.00     0.031 A 
ATOM     58  C   UNL A   1      42.251  23.957  27.778  1.00  0.00     0.031 A 
ATOM     59  C   UNL A   1      43.734  28.235  32.564  1.00  0.00     0.049 A 
ATOM     60  C   UNL A   1      43.447  24.218  28.599  1.00  0.00     0.074 A 
ATOM     61  C   UNL A   1      44.441  29.365  32.222  1.00  0.00     0.029 A 
ATOM     62  N   UNL A   1      44.109  27.244  31.700  1.00  0.00    -0.354 N 
ATOM     63  N   UNL A   1      44.384  25.052  28.250  1.00  0.00    -0.248 NA
ATOM     64  C   UNL A   1      43.474  23.789  29.993  1.00  0.00     0.031 C 
ATOM     65  C   UNL A   1      45.176  29.036  31.041  1.00  0.00     0.029 A 
ATOM     66  C   UNL A   1      44.938  27.702  30.718  1.00  0.00     0.049 A 
ATOM     67  H   UNL A   1      43.814  26.307  31.776  1.00  0.00     0.167 HD
ATOM     68  C   UNL A   1      44.813  25.589  29.445  1.00  0.00     0.074 A 
ATOM     69  C   UNL A   1      44.373  24.653  30.472  1.00  0.00     0.031 C 
ATOM     70  C   UNL A   1      45.164  26.904  29.534  1.00  0.00     0.031 A 
BRANCH  57  71
ATOM     71  C   UNL A   1      42.619  26.717  34.297  1.00  0.00    -0.014 A 
ATOM     72  C   UNL A   1      43.546  25.689  34.028  1.00  0.00     0.009 A 
ATOM     73  C   UNL A   1      41.616  26.415  35.237  1.00  0.00     0.009 A 
ATOM     74  C   UNL A   1      43.413  24.411  34.588  1.00  0.00     0.001 A 
ATOM     75  C   UNL A   1      41.496  25.149  35.821  1.00  0.00     0.001 A 
ATOM     76  C   UNL A   1      42.378  24.138  35.473  1.00  0.00     0.000 A 
ENDBRANCH  57  71
BRANCH  58  77
ATOM     77  C   UNL A   1      41.980  22.614  27.225  1.00  0.00    -0.014 A 
ATOM     78  C   UNL A   1      42.793  22.076  26.212  1.00  0.00     0.009 A 
ATOM     79  C   UNL A   1      41.097  21.744  27.888  1.00  0.00     0.009 A 
ATOM     80  C   UNL A   1      42.763  20.707  25.914  1.00  0.00     0.001 A 
ATOM     81  C   UNL A   1      41.067  20.377  27.588  1.00  0.00     0.001 A 
ATOM     82  C   UNL A   1      41.914  19.856  26.614  1.00  0.00     0.000 A 
ENDBRANCH  58  77
BRANCH  70  83
ATOM     83  C   UNL A   1      45.645  27.588  28.293  1.00  0.00    -0.014 A 
ATOM     84  C   UNL A   1      44.853  28.434  27.502  1.00  0.00     0.009 A 
ATOM     85  C   UNL A   1      46.993  27.409  27.946  1.00  0.00     0.009 A 
ATOM     86  C   UNL A   1      45.397  29.065  26.377  1.00  0.00     0.001 A 
ATOM     87  C   UNL A   1      47.540  28.054  26.838  1.00  0.00     0.001 A 
ATOM     88  C   UNL A   1      46.740  28.878  26.050  1.00  0.00     0.000 A 
ENDBRANCH  70  83
ENDBRANCH  44  45
ENDBRANCH  36  39
ENDBRANCH  34  35
ENDBRANCH  33  34
ENDBRANCH   1  33
TORSDOF 15
ENDMDL
MODEL 2
REMARK VINA RESULT:     -13.7      1.878      5.623
REMARK SMILES Cc1nn([C@H]2CCS(=O)(=O)C2)c(C)c1/C=C(\CC(=O)NCCCCNC(=O)c1ccc(-c2c3nc(c(-c4ccccc4)c4ccc([nH]4)c(-c4ccccc4)c4nc(c(-c5ccccc5)c5ccc2[nH]5)C=C4)C=C3)cc1)c1nc2ccccc2s1
REMARK SMILES IDX 22 1 21 2 20 3 18 4 19 5 17 7 16 8 15 9 14 10 1 11 2 12 3 13
REMARK SMILES IDX 4 14 12 15 13 16 5 17 6 18 11 19 7 20 8 21 9 22 10 23 76 24
REMARK SMILES IDX 77 25 84 26 78 27 83 28 79 29 82 30 80 31 81 32 23 33 24 34
REMARK SMILES IDX 25 35 26 36 27 38 28 39 29 40 75 41 30 42 74 43 31 44 32 45
REMARK SMILES IDX 33 46 68 47 34 48 73 49 67 50 69 51 35 52 72 53 66 54 65 55
REMARK SMILES IDX 36 57 58 58 43 59 57 60 44 61 47 62 56 63 70 64 45 65 46 66
REMARK SMILES IDX 55 68 71 69 48 70 37 71 38 72 42 73 39 74 41 75 40 76 59 77
REMARK SMILES IDX 60 78 64 79 61 80 63 81 62 82 49 83 50 84 54 85 51 86 53 87
REMARK SMILES IDX 52 88
REMARK H PARENT 20 6 25 37 69 56 47 67
REMARK Flexibility Score: inf
ROOT
ATOM      1  C   UNL A   1      34.251  29.359  26.921  1.00  0.00     0.023 C 
ENDROOT
BRANCH   1   2
ATOM      2  C   UNL A   1      33.363  28.638  25.907  1.00  0.00     0.116 C 
BRANCH   2   3
ATOM      3  N   UNL A   1      32.352  27.846  26.574  1.00  0.00    -0.356 N 
ATOM      4  C   UNL A   1      31.502  26.929  26.025  1.00  0.00     0.224 C 
ATOM      5  O   UNL A   1      30.560  26.519  26.705  1.00  0.00    -0.275 OA
ATOM      6  H   UNL A   1      32.267  27.987  27.544  1.00  0.00     0.163 HD
BRANCH   4   7
ATOM      7  C   UNL A   1      31.864  26.294  24.691  1.00  0.00     0.138 C 
BRANCH   7   8
ATOM      8  C   UNL A   1      30.756  25.761  23.794  1.00  0.00    -0.002 C 
ATOM      9  C   UNL A   1      30.505  24.439  23.603  1.00  0.00     0.019 C 
BRANCH   9  10
ATOM     10  C   UNL A   1      31.269  23.329  24.103  1.00  0.00     0.019 A 
ATOM     11  C   UNL A   1      30.457  23.230  26.591  1.00  0.00     0.069 C 
ATOM     12  C   UNL A   1      31.172  22.734  25.387  1.00  0.00     0.067 A 
ATOM     13  N   UNL A   1      31.850  21.580  25.437  1.00  0.00    -0.177 NA
ATOM     14  N   UNL A   1      32.429  21.476  24.223  1.00  0.00    -0.265 N 
ATOM     15  C   UNL A   1      32.322  22.650  23.505  1.00  0.00     0.043 A 
ATOM     16  C   UNL A   1      33.204  23.021  22.365  1.00  0.00     0.067 C 
BRANCH  14  17
ATOM     17  C   UNL A   1      33.093  20.219  23.886  1.00  0.00     0.123 C 
ATOM     18  C   UNL A   1      34.203  19.834  24.898  1.00  0.00     0.044 C 
ATOM     19  C   UNL A   1      32.180  18.997  23.870  1.00  0.00     0.164 C 
ATOM     20  C   UNL A   1      34.688  18.435  24.535  1.00  0.00     0.139 C 
ATOM     21  S   UNL A   1      33.272  17.602  23.853  1.00  0.00     0.152 S 
ATOM     22  O   UNL A   1      33.546  17.266  22.479  1.00  0.00    -0.229 OA
ATOM     23  O   UNL A   1      32.782  16.628  24.815  1.00  0.00    -0.229 OA
ENDBRANCH  14  17
ENDBRANCH   9  10
BRANCH   8  24
ATOM     24  C   UNL A   1      29.907  26.727  23.152  1.00  0.00     0.121 A 
ATOM     25  N   UNL A   1      30.348  27.659  22.331  1.00  0.00    -0.236 NA
ATOM     26  S   UNL A   1      28.269  26.958  23.657  1.00  0.00    -0.114 S 
ATOM     27  C   UNL A   1      29.547  28.779  22.428  1.00  0.00     0.082 A 
ATOM     28  C   UNL A   1      28.368  28.604  23.154  1.00  0.00     0.055 A 
ATOM     29  C   UNL A   1      29.864  30.061  21.941  1.00  0.00     0.030 A 
ATOM     30  C   UNL A   1      27.496  29.669  23.424  1.00  0.00     0.021 A 
ATOM     31  C   UNL A   1      29.047  31.145  22.276  1.00  0.00     0.002 A 
ATOM     32  C   UNL A   1      27.882  30.950  23.012  1.00  0.00     0.002 A 
ENDBRANCH   8  24
ENDBRANCH   7   8
ENDBRANCH   4   7
ENDBRANCH   2   3
ENDBRANCH   1   2
BRANCH   1  33
ATOM     33  C   UNL A   1      33.634  30.643  27.494  1.00  0.00     0.023 C 
BRANCH  33  34
ATOM     34  C   UNL A   1      34.607  31.810  27.594  1.00  0.00     0.116 C 
BRANCH  34  35
ATOM     35  N   UNL A   1      34.645  32.377  28.937  1.00  0.00    -0.352 N 
ATOM     36  C   UNL A   1      35.345  31.918  30.031  1.00  0.00     0.251 C 
ATOM     37  H   UNL A   1      34.103  33.186  29.080  1.00  0.00     0.163 HD
ATOM     38  O   UNL A   1      34.993  32.202  31.169  1.00  0.00    -0.269 OA
BRANCH  36  39
ATOM     39  C   UNL A   1      36.535  31.080  29.813  1.00  0.00     0.039 A 
ATOM     40  C   UNL A   1      37.784  31.667  29.605  1.00  0.00     0.014 A 
ATOM     41  C   UNL A   1      36.390  29.692  29.834  1.00  0.00     0.014 A 
ATOM     42  C   UNL A   1      38.903  30.846  29.508  1.00  0.00     0.010 A 
ATOM     43  C   UNL A   1      37.507  28.884  29.836  1.00  0.00     0.010 A 
ATOM     44  C   UNL A   1      38.765  29.454  29.656  1.00  0.00    -0.014 A 
BRANCH  44  45
ATOM     45  C   UNL A   1      39.961  28.628  29.838  1.00  0.00     0.031 A 
ATOM     46  C   UNL A   1      40.350  28.484  31.267  1.00  0.00     0.074 A 
ATOM     47  C   UNL A   1      40.536  27.877  28.872  1.00  0.00     0.049 A 
ATOM     48  N   UNL A   1      41.378  28.996  31.858  1.00  0.00    -0.248 NA
ATOM     49  C   UNL A   1      39.399  27.832  32.187  1.00  0.00     0.031 C 
ATOM     50  C   UNL A   1      40.034  27.665  27.509  1.00  0.00     0.029 A 
ATOM     51  N   UNL A   1      41.618  27.041  28.927  1.00  0.00    -0.354 N 
ATOM     52  C   UNL A   1      41.345  28.492  33.156  1.00  0.00     0.074 A 
ATOM     53  C   UNL A   1      40.011  27.996  33.361  1.00  0.00     0.031 C 
ATOM     54  C   UNL A   1      40.642  26.590  26.965  1.00  0.00     0.029 A 
ATOM     55  C   UNL A   1      41.702  26.155  27.855  1.00  0.00     0.049 A 
ATOM     56  H   UNL A   1      42.278  27.064  29.656  1.00  0.00     0.167 HD
ATOM     57  C   UNL A   1      42.512  28.165  33.783  1.00  0.00     0.031 A 
ATOM     58  C   UNL A   1      42.573  25.130  27.691  1.00  0.00     0.031 A 
ATOM     59  C   UNL A   1      43.641  28.741  33.097  1.00  0.00     0.049 A 
ATOM     60  C   UNL A   1      43.742  25.381  28.555  1.00  0.00     0.074 A 
ATOM     61  C   UNL A   1      44.226  29.977  32.941  1.00  0.00     0.029 A 
ATOM     62  N   UNL A   1      44.110  27.940  32.093  1.00  0.00    -0.354 N 
ATOM     63  N   UNL A   1      44.586  26.350  28.348  1.00  0.00    -0.248 NA
ATOM     64  C   UNL A   1      43.822  24.746  29.865  1.00  0.00     0.031 C 
ATOM     65  C   UNL A   1      44.983  29.913  31.730  1.00  0.00     0.029 A 
ATOM     66  C   UNL A   1      44.881  28.628  31.202  1.00  0.00     0.049 A 
ATOM     67  H   UNL A   1      43.914  26.978  32.021  1.00  0.00     0.167 HD
ATOM     68  C   UNL A   1      44.966  26.736  29.616  1.00  0.00     0.074 A 
ATOM     69  C   UNL A   1      44.630  25.612  30.481  1.00  0.00     0.031 C 
ATOM     70  C   UNL A   1      45.181  28.050  29.911  1.00  0.00     0.031 A 
BRANCH  57  71
ATOM     71  C   UNL A   1      42.699  26.867  34.563  1.00  0.00    -0.014 A 
ATOM     72  C   UNL A   1      43.623  25.927  34.061  1.00  0.00     0.009 A 
ATOM     73  C   UNL A   1      41.801  26.392  35.537  1.00  0.00     0.009 A 
ATOM     74  C   UNL A   1      43.580  24.578  34.436  1.00  0.00     0.001 A 
ATOM     75  C   UNL A   1      41.773  25.052  35.937  1.00  0.00     0.001 A 
ATOM     76  C   UNL A   1      42.644  24.138  35.364  1.00  0.00     0.000 A 
ENDBRANCH  57  71
BRANCH  58  77
ATOM     77  C   UNL A   1      42.438  23.868  26.935  1.00  0.00    -0.014 A 
ATOM     78  C   UNL A   1      43.082  23.699  25.697  1.00  0.00     0.009 A 
ATOM     79  C   UNL A   1      41.909  22.725  27.559  1.00  0.00     0.009 A 
ATOM     80  C   UNL A   1      43.240  22.426  25.133  1.00  0.00     0.001 A 
ATOM     81  C   UNL A   1      42.066  21.454  26.993  1.00  0.00     0.001 A 
ATOM     82  C   UNL A   1      42.748  21.303  25.790  1.00  0.00     0.000 A 
ENDBRANCH  58  77
BRANCH  70  83
ATOM     83  C   UNL A   1      45.580  28.965  28.795  1.00  0.00    -0.014 A 
ATOM     84  C   UNL A   1      46.904  29.170  28.380  1.00  0.00     0.009 A 
ATOM     85  C   UNL A   1      44.547  29.604  28.094  1.00  0.00     0.009 A 
ATOM     86  C   UNL A   1      47.184  30.014  27.299  1.00  0.00     0.001 A 
ATOM     87  C   UNL A   1      44.824  30.429  27.004  1.00  0.00     0.001 A 
ATOM     88  C   UNL A   1      46.144  30.638  26.611  1.00  0.00     0.000 A 
ENDBRANCH  70  83
ENDBRANCH  44  45
ENDBRANCH  36  39
ENDBRANCH  34  35
ENDBRANCH  33  34
ENDBRANCH   1  33
TORSDOF 15
ENDMDL
MODEL 3
REMARK VINA RESULT:     -13.4      1.803      5.585
REMARK SMILES Cc1nn([C@H]2CCS(=O)(=O)C2)c(C)c1/C=C(\CC(=O)NCCCCNC(=O)c1ccc(-c2c3nc(c(-c4ccccc4)c4ccc([nH]4)c(-c4ccccc4)c4nc(c(-c5ccccc5)c5ccc2[nH]5)C=C4)C=C3)cc1)c1nc2ccccc2s1
REMARK SMILES IDX 22 1 21 2 20 3 18 4 19 5 17 7 16 8 15 9 14 10 1 11 2 12 3 13
REMARK SMILES IDX 4 14 12 15 13 16 5 17 6 18 11 19 7 20 8 21 9 22 10 23 76 24
REMARK SMILES IDX 77 25 84 26 78 27 83 28 79 29 82 30 80 31 81 32 23 33 24 34
REMARK SMILES IDX 25 35 26 36 27 38 28 39 29 40 75 41 30 42 74 43 31 44 32 45
REMARK SMILES IDX 33 46 68 47 34 48 73 49 67 50 69 51 35 52 72 53 66 54 65 55
REMARK SMILES IDX 36 57 58 58 43 59 57 60 44 61 47 62 56 63 70 64 45 65 46 66
REMARK SMILES IDX 55 68 71 69 48 70 37 71 38 72 42 73 39 74 41 75 40 76 59 77
REMARK SMILES IDX 60 78 64 79 61 80 63 81 62 82 49 83 50 84 54 85 51 86 53 87
REMARK SMILES IDX 52 88
REMARK H PARENT 20 6 25 37 69 56 47 67
REMARK Flexibility Score: inf
ROOT
ATOM      1  C   UNL A   1      33.152  27.739  25.524  1.00  0.00     0.023 C 
ENDROOT
BRANCH   1   2
ATOM      2  C   UNL A   1      33.893  26.439  25.215  1.00  0.00     0.116 C 
BRANCH   2   3
ATOM      3  N   UNL A   1      33.580  25.419  26.192  1.00  0.00    -0.356 N 
ATOM      4  C   UNL A   1      33.068  24.172  25.973  1.00  0.00     0.224 C 
ATOM      5  O   UNL A   1      32.656  23.527  26.939  1.00  0.00    -0.275 OA
ATOM      6  H   UNL A   1      33.756  25.654  27.131  1.00  0.00     0.163 HD
BRANCH   4   7
ATOM      7  C   UNL A   1      33.218  23.544  24.595  1.00  0.00     0.138 C 
BRANCH   7   8
ATOM      8  C   UNL A   1      31.987  22.997  23.887  1.00  0.00    -0.002 C 
ATOM      9  C   UNL A   1      31.077  23.772  23.242  1.00  0.00     0.019 C 
BRANCH   9  10
ATOM     10  C   UNL A   1      31.038  25.209  23.193  1.00  0.00     0.019 A 
ATOM     11  C   UNL A   1      32.738  25.700  21.262  1.00  0.00     0.069 C 
ATOM     12  C   UNL A   1      31.690  26.050  22.255  1.00  0.00     0.067 A 
ATOM     13  N   UNL A   1      31.250  27.311  22.351  1.00  0.00    -0.177 NA
ATOM     14  N   UNL A   1      30.382  27.288  23.383  1.00  0.00    -0.265 N 
ATOM     15  C   UNL A   1      30.449  26.099  24.080  1.00  0.00     0.043 A 
ATOM     16  C   UNL A   1      29.982  25.920  25.482  1.00  0.00     0.067 C 
BRANCH  14  17
ATOM     17  C   UNL A   1      29.576  28.483  23.627  1.00  0.00     0.123 C 
ATOM     18  C   UNL A   1      30.435  29.749  23.875  1.00  0.00     0.044 C 
ATOM     19  C   UNL A   1      28.663  28.886  22.473  1.00  0.00     0.164 C 
ATOM     20  C   UNL A   1      29.486  30.941  23.938  1.00  0.00     0.139 C 
ATOM     21  S   UNL A   1      28.139  30.536  22.850  1.00  0.00     0.152 S 
ATOM     22  O   UNL A   1      26.925  30.453  23.621  1.00  0.00    -0.229 OA
ATOM     23  O   UNL A   1      28.245  31.335  21.640  1.00  0.00    -0.229 OA
ENDBRANCH  14  17
ENDBRANCH   9  10
BRANCH   8  24
ATOM     24  C   UNL A   1      31.817  21.570  23.872  1.00  0.00     0.121 A 
ATOM     25  N   UNL A   1      31.888  20.813  24.947  1.00  0.00    -0.236 NA
ATOM     26  S   UNL A   1      31.826  20.680  22.389  1.00  0.00    -0.114 S 
ATOM     27  C   UNL A   1      32.375  19.566  24.605  1.00  0.00     0.082 A 
ATOM     28  C   UNL A   1      32.451  19.315  23.235  1.00  0.00     0.055 A 
ATOM     29  C   UNL A   1      32.864  18.600  25.505  1.00  0.00     0.030 A 
ATOM     30  C   UNL A   1      33.013  18.135  22.726  1.00  0.00     0.021 A 
ATOM     31  C   UNL A   1      33.502  17.459  25.007  1.00  0.00     0.002 A 
ATOM     32  C   UNL A   1      33.579  17.235  23.636  1.00  0.00     0.002 A 
ENDBRANCH   8  24
ENDBRANCH   7   8
ENDBRANCH   4   7
ENDBRANCH   2   3
ENDBRANCH   1   2
BRANCH   1  33
ATOM     33  C   UNL A   1      33.528  28.370  26.873  1.00  0.00     0.023 C 
BRANCH  33  34
ATOM     34  C   UNL A   1      34.980  28.821  26.966  1.00  0.00     0.116 C 
BRANCH  34  35
ATOM     35  N   UNL A   1      35.157  29.896  27.936  1.00  0.00    -0.352 N 
ATOM     36  C   UNL A   1      36.163  30.040  28.864  1.00  0.00     0.251 C 
ATOM     37  H   UNL A   1      34.473  30.603  27.927  1.00  0.00     0.163 HD
ATOM     38  O   UNL A   1      36.000  30.720  29.870  1.00  0.00    -0.269 OA
BRANCH  36  39
ATOM     39  C   UNL A   1      37.451  29.369  28.627  1.00  0.00     0.039 A 
ATOM     40  C   UNL A   1      38.261  29.749  27.556  1.00  0.00     0.014 A 
ATOM     41  C   UNL A   1      37.852  28.359  29.504  1.00  0.00     0.014 A 
ATOM     42  C   UNL A   1      39.517  29.167  27.424  1.00  0.00     0.010 A 
ATOM     43  C   UNL A   1      39.132  27.853  29.432  1.00  0.00     0.010 A 
ATOM     44  C   UNL A   1      39.963  28.240  28.384  1.00  0.00    -0.014 A 
BRANCH  44  45
ATOM     45  C   UNL A   1      41.375  27.850  28.404  1.00  0.00     0.031 A 
ATOM     46  C   UNL A   1      41.649  26.637  27.586  1.00  0.00     0.074 A 
ATOM     47  C   UNL A   1      42.379  28.607  28.900  1.00  0.00     0.049 A 
ATOM     48  N   UNL A   1      41.966  25.459  28.009  1.00  0.00    -0.248 NA
ATOM     49  C   UNL A   1      41.380  26.696  26.137  1.00  0.00     0.031 C 
ATOM     50  C   UNL A   1      42.273  29.977  29.415  1.00  0.00     0.029 A 
ATOM     51  N   UNL A   1      43.727  28.375  28.939  1.00  0.00    -0.354 N 
ATOM     52  C   UNL A   1      42.209  24.708  26.861  1.00  0.00     0.074 A 
ATOM     53  C   UNL A   1      41.610  25.433  25.773  1.00  0.00     0.031 C 
ATOM     54  C   UNL A   1      43.501  30.536  29.471  1.00  0.00     0.029 A 
ATOM     55  C   UNL A   1      44.490  29.515  29.180  1.00  0.00     0.049 A 
ATOM     56  H   UNL A   1      44.122  27.483  28.809  1.00  0.00     0.167 HD
ATOM     57  C   UNL A   1      43.215  23.788  26.856  1.00  0.00     0.031 A 
ATOM     58  C   UNL A   1      45.839  29.634  29.148  1.00  0.00     0.031 A 
ATOM     59  C   UNL A   1      43.647  23.494  28.200  1.00  0.00     0.049 A 
ATOM     60  C   UNL A   1      46.420  28.289  29.317  1.00  0.00     0.074 A 
ATOM     61  C   UNL A   1      43.192  22.796  29.295  1.00  0.00     0.029 A 
ATOM     62  N   UNL A   1      44.614  24.354  28.640  1.00  0.00    -0.354 N 
ATOM     63  N   UNL A   1      46.340  27.612  30.426  1.00  0.00    -0.248 NA
ATOM     64  C   UNL A   1      46.834  27.529  28.144  1.00  0.00     0.031 C 
ATOM     65  C   UNL A   1      43.854  23.357  30.431  1.00  0.00     0.029 A 
ATOM     66  C   UNL A   1      44.730  24.348  29.999  1.00  0.00     0.049 A 
ATOM     67  H   UNL A   1      45.164  24.914  28.044  1.00  0.00     0.167 HD
ATOM     68  C   UNL A   1      46.243  26.301  30.008  1.00  0.00     0.074 A 
ATOM     69  C   UNL A   1      46.744  26.292  28.639  1.00  0.00     0.031 C 
ATOM     70  C   UNL A   1      45.441  25.416  30.667  1.00  0.00     0.031 A 
BRANCH  57  71
ATOM     71  C   UNL A   1      44.211  23.653  25.709  1.00  0.00    -0.014 A 
ATOM     72  C   UNL A   1      44.408  22.369  25.158  1.00  0.00     0.009 A 
ATOM     73  C   UNL A   1      45.181  24.620  25.384  1.00  0.00     0.009 A 
ATOM     74  C   UNL A   1      45.554  22.053  24.416  1.00  0.00     0.001 A 
ATOM     75  C   UNL A   1      46.312  24.317  24.620  1.00  0.00     0.001 A 
ATOM     76  C   UNL A   1      46.514  23.025  24.161  1.00  0.00     0.000 A 
ENDBRANCH  57  71
BRANCH  58  77
ATOM     77  C   UNL A   1      46.693  30.806  28.860  1.00  0.00    -0.014 A 
ATOM     78  C   UNL A   1      47.597  31.289  29.822  1.00  0.00     0.009 A 
ATOM     79  C   UNL A   1      46.824  31.276  27.542  1.00  0.00     0.009 A 
ATOM     80  C   UNL A   1      48.629  32.167  29.464  1.00  0.00     0.001 A 
ATOM     81  C   UNL A   1      47.855  32.154  27.187  1.00  0.00     0.001 A 
ATOM     82  C   UNL A   1      48.768  32.584  28.144  1.00  0.00     0.000 A 
ENDBRANCH  58  77
BRANCH  70  83
ATOM     83  C   UNL A   1      45.152  25.671  32.113  1.00  0.00    -0.014 A 
ATOM     84  C   UNL A   1      46.000  25.293  33.165  1.00  0.00     0.009 A 
ATOM     85  C   UNL A   1      43.982  26.386  32.413  1.00  0.00     0.009 A 
ATOM     86  C   UNL A   1      45.668  25.608  34.488  1.00  0.00     0.001 A 
ATOM     87  C   UNL A   1      43.663  26.717  33.729  1.00  0.00     0.001 A 
ATOM     88  C   UNL A   1      44.504  26.323  34.767  1.00  0.00     0.000 A 
ENDBRANCH  70  83
ENDBRANCH  44  45
ENDBRANCH  36  39
ENDBRANCH  34  35
ENDBRANCH  33  34
ENDBRANCH   1  33
TORSDOF 15
ENDMDL
