MODEL 1
REMARK VINA RESULT:     -11.4      0.000      0.000
REMARK SMILES C[C@@H](NC(=O)[C@@H]1CC[C@@H]2CCCC[C@@H]2[NH2+]1)C(=O)NCCCCNC(=O)c1ccc(-c2c3nc(c(-c4ccccc4)c4ccc([nH]4)c(-c4ccccc4)c4nc(c(-c5ccccc5)c5ccc2[nH]5)C=C4)C=C3)cc1
REMARK SMILES IDX 20 1 19 2 18 3 16 4 17 5 2 7 1 8 3 9 4 10 5 12 6 13 7 14
REMARK SMILES IDX 15 15 8 16 14 17 9 20 13 21 10 22 12 23 11 24 21 25 22 26
REMARK SMILES IDX 23 27 24 28 25 30 26 31 27 32 73 33 28 34 72 35 29 36 30 37
REMARK SMILES IDX 31 38 66 39 32 40 71 41 65 42 67 43 33 44 70 45 64 46 63 47
REMARK SMILES IDX 34 49 56 50 41 51 55 52 42 53 45 54 54 55 68 56 43 57 44 58
REMARK SMILES IDX 53 60 69 61 46 62 35 63 36 64 40 65 37 66 39 67 38 68 57 69
REMARK SMILES IDX 58 70 62 71 59 72 61 73 60 74 47 75 48 76 52 77 49 78 51 79
REMARK SMILES IDX 50 80
REMARK H PARENT 18 6 3 11 15 18 15 19 23 29 67 48 45 59
REMARK Flexibility Score: inf
ROOT
ATOM      1  C   UNL A   1      32.896  29.362  24.784  1.00  0.00     0.023 C 
ENDROOT
BRANCH   1   2
ATOM      2  C   UNL A   1      33.120  29.000  23.309  1.00  0.00     0.116 C 
BRANCH   2   3
ATOM      3  N   UNL A   1      31.936  29.096  22.481  1.00  0.00    -0.354 N 
ATOM      4  C   UNL A   1      30.730  28.466  22.597  1.00  0.00     0.242 C 
ATOM      5  O   UNL A   1      29.847  28.793  21.796  1.00  0.00    -0.273 OA
ATOM      6  H   UNL A   1      32.013  29.709  21.714  1.00  0.00     0.163 HD
BRANCH   4   7
ATOM      7  C   UNL A   1      30.468  27.330  23.616  1.00  0.00     0.168 C 
ATOM      8  C   UNL A   1      28.975  26.985  23.621  1.00  0.00     0.041 C 
BRANCH   7   9
ATOM      9  N   UNL A   1      31.266  26.096  23.539  1.00  0.00    -0.339 N 
ATOM     10  C   UNL A   1      30.812  24.895  24.029  1.00  0.00     0.278 C 
ATOM     11  H   UNL A   1      32.158  26.133  23.122  1.00  0.00     0.164 HD
ATOM     12  O   UNL A   1      30.329  24.096  23.219  1.00  0.00    -0.268 OA
BRANCH  10  13
ATOM     13  C   UNL A   1      31.035  24.495  25.513  1.00  0.00     0.272 C 
ATOM     14  C   UNL A   1      31.944  25.399  26.329  1.00  0.00     0.076 C 
ATOM     15  N   UNL A   1      31.519  23.081  25.592  1.00  0.00    -0.333 N 
ATOM     16  C   UNL A   1      33.380  25.250  25.864  1.00  0.00     0.016 C 
ATOM     17  C   UNL A   1      32.965  22.851  25.359  1.00  0.00     0.186 C 
ATOM     18  H   UNL A   1      31.007  22.541  24.895  1.00  0.00     0.347 HD
ATOM     19  H   UNL A   1      31.359  22.799  26.559  1.00  0.00     0.347 HD
ATOM     20  C   UNL A   1      33.843  23.831  26.153  1.00  0.00     0.048 C 
ATOM     21  C   UNL A   1      33.327  22.790  23.861  1.00  0.00     0.065 C 
ATOM     22  C   UNL A   1      35.332  23.665  25.845  1.00  0.00     0.010 C 
ATOM     23  C   UNL A   1      34.827  22.802  23.546  1.00  0.00     0.006 C 
ATOM     24  C   UNL A   1      35.630  23.809  24.360  1.00  0.00     0.001 C 
ENDBRANCH  10  13
ENDBRANCH   7   9
ENDBRANCH   4   7
ENDBRANCH   2   3
ENDBRANCH   1   2
BRANCH   1  25
ATOM     25  C   UNL A   1      33.863  28.838  25.859  1.00  0.00     0.023 C 
BRANCH  25  26
ATOM     26  C   UNL A   1      33.552  29.010  27.350  1.00  0.00     0.116 C 
BRANCH  26  27
ATOM     27  N   UNL A   1      33.682  30.358  27.880  1.00  0.00    -0.352 N 
ATOM     28  C   UNL A   1      34.782  30.967  28.441  1.00  0.00     0.251 C 
ATOM     29  H   UNL A   1      32.870  30.913  27.830  1.00  0.00     0.163 HD
ATOM     30  O   UNL A   1      34.700  32.118  28.861  1.00  0.00    -0.269 OA
BRANCH  28  31
ATOM     31  C   UNL A   1      36.055  30.225  28.590  1.00  0.00     0.039 A 
ATOM     32  C   UNL A   1      36.945  30.215  27.512  1.00  0.00     0.014 A 
ATOM     33  C   UNL A   1      36.384  29.567  29.777  1.00  0.00     0.014 A 
ATOM     34  C   UNL A   1      38.212  29.646  27.663  1.00  0.00     0.010 A 
ATOM     35  C   UNL A   1      37.665  29.035  29.942  1.00  0.00     0.010 A 
ATOM     36  C   UNL A   1      38.602  29.104  28.898  1.00  0.00    -0.014 A 
BRANCH  36  37
ATOM     37  C   UNL A   1      40.017  28.725  29.139  1.00  0.00     0.031 A 
ATOM     38  C   UNL A   1      40.991  29.679  29.764  1.00  0.00     0.074 A 
ATOM     39  C   UNL A   1      40.437  27.511  28.729  1.00  0.00     0.049 A 
ATOM     40  N   UNL A   1      42.259  29.497  30.036  1.00  0.00    -0.248 NA
ATOM     41  C   UNL A   1      40.481  31.012  30.115  1.00  0.00     0.031 C 
ATOM     42  C   UNL A   1      39.601  26.507  28.065  1.00  0.00     0.029 A 
ATOM     43  N   UNL A   1      41.672  26.916  28.803  1.00  0.00    -0.354 N 
ATOM     44  C   UNL A   1      42.702  30.692  30.590  1.00  0.00     0.074 A 
ATOM     45  C   UNL A   1      41.576  31.603  30.576  1.00  0.00     0.031 C 
ATOM     46  C   UNL A   1      40.339  25.415  27.814  1.00  0.00     0.029 A 
ATOM     47  C   UNL A   1      41.706  25.651  28.268  1.00  0.00     0.049 A 
ATOM     48  H   UNL A   1      42.459  27.353  29.202  1.00  0.00     0.167 HD
ATOM     49  C   UNL A   1      43.929  30.996  31.077  1.00  0.00     0.031 A 
ATOM     50  C   UNL A   1      42.721  24.776  28.150  1.00  0.00     0.031 A 
ATOM     51  C   UNL A   1      45.054  30.096  31.075  1.00  0.00     0.049 A 
ATOM     52  C   UNL A   1      44.077  25.144  28.680  1.00  0.00     0.074 A 
ATOM     53  C   UNL A   1      46.325  30.303  31.586  1.00  0.00     0.029 A 
ATOM     54  N   UNL A   1      45.047  28.823  30.526  1.00  0.00    -0.354 N 
ATOM     55  N   UNL A   1      44.457  26.250  29.272  1.00  0.00    -0.248 NA
ATOM     56  C   UNL A   1      45.138  24.139  28.537  1.00  0.00     0.031 C 
ATOM     57  C   UNL A   1      47.100  29.172  31.304  1.00  0.00     0.029 A 
ATOM     58  C   UNL A   1      46.298  28.242  30.663  1.00  0.00     0.049 A 
ATOM     59  H   UNL A   1      44.270  28.397  30.101  1.00  0.00     0.167 HD
ATOM     60  C   UNL A   1      45.794  26.066  29.594  1.00  0.00     0.074 A 
ATOM     61  C   UNL A   1      46.154  24.735  29.146  1.00  0.00     0.031 C 
ATOM     62  C   UNL A   1      46.646  26.921  30.207  1.00  0.00     0.031 A 
BRANCH  49  63
ATOM     63  C   UNL A   1      44.121  32.372  31.651  1.00  0.00    -0.014 A 
ATOM     64  C   UNL A   1      44.541  33.440  30.843  1.00  0.00     0.009 A 
ATOM     65  C   UNL A   1      43.843  32.613  33.005  1.00  0.00     0.009 A 
ATOM     66  C   UNL A   1      44.715  34.714  31.388  1.00  0.00     0.001 A 
ATOM     67  C   UNL A   1      43.992  33.894  33.542  1.00  0.00     0.001 A 
ATOM     68  C   UNL A   1      44.436  34.941  32.736  1.00  0.00     0.000 A 
ENDBRANCH  49  63
BRANCH  50  69
ATOM     69  C   UNL A   1      42.489  23.454  27.514  1.00  0.00    -0.014 A 
ATOM     70  C   UNL A   1      42.012  22.374  28.271  1.00  0.00     0.009 A 
ATOM     71  C   UNL A   1      42.738  23.266  26.145  1.00  0.00     0.009 A 
ATOM     72  C   UNL A   1      41.811  21.126  27.675  1.00  0.00     0.001 A 
ATOM     73  C   UNL A   1      42.511  22.026  25.547  1.00  0.00     0.001 A 
ATOM     74  C   UNL A   1      42.056  20.955  26.314  1.00  0.00     0.000 A 
ENDBRANCH  50  69
BRANCH  62  75
ATOM     75  C   UNL A   1      48.046  26.434  30.452  1.00  0.00    -0.014 A 
ATOM     76  C   UNL A   1      48.388  25.766  31.638  1.00  0.00     0.009 A 
ATOM     77  C   UNL A   1      49.029  26.621  29.467  1.00  0.00     0.009 A 
ATOM     78  C   UNL A   1      49.695  25.321  31.845  1.00  0.00     0.001 A 
ATOM     79  C   UNL A   1      50.329  26.153  29.666  1.00  0.00     0.001 A 
ATOM     80  C   UNL A   1      50.663  25.511  30.859  1.00  0.00     0.000 A 
ENDBRANCH  62  75
ENDBRANCH  36  37
ENDBRANCH  28  31
ENDBRANCH  26  27
ENDBRANCH  25  26
ENDBRANCH   1  25
TORSDOF 13
ENDMDL
MODEL 2
REMARK VINA RESULT:     -11.2      0.421      6.016
REMARK SMILES C[C@@H](NC(=O)[C@@H]1CC[C@@H]2CCCC[C@@H]2[NH2+]1)C(=O)NCCCCNC(=O)c1ccc(-c2c3nc(c(-c4ccccc4)c4ccc([nH]4)c(-c4ccccc4)c4nc(c(-c5ccccc5)c5ccc2[nH]5)C=C4)C=C3)cc1
REMARK SMILES IDX 20 1 19 2 18 3 16 4 17 5 2 7 1 8 3 9 4 10 5 12 6 13 7 14
REMARK SMILES IDX 15 15 8 16 14 17 9 20 13 21 10 22 12 23 11 24 21 25 22 26
REMARK SMILES IDX 23 27 24 28 25 30 26 31 27 32 73 33 28 34 72 35 29 36 30 37
REMARK SMILES IDX 31 38 66 39 32 40 71 41 65 42 67 43 33 44 70 45 64 46 63 47
REMARK SMILES IDX 34 49 56 50 41 51 55 52 42 53 45 54 54 55 68 56 43 57 44 58
REMARK SMILES IDX 53 60 69 61 46 62 35 63 36 64 40 65 37 66 39 67 38 68 57 69
REMARK SMILES IDX 58 70 62 71 59 72 61 73 60 74 47 75 48 76 52 77 49 78 51 79
REMARK SMILES IDX 50 80
REMARK H PARENT 18 6 3 11 15 18 15 19 23 29 67 48 45 59
REMARK Flexibility Score: inf
ROOT
ATOM      1  C   UNL A   1      33.189  29.329  24.949  1.00  0.00     0.023 C 
ENDROOT
BRANCH   1   2
ATOM      2  C   UNL A   1      31.707  29.727  24.944  1.00  0.00     0.116 C 
BRANCH   2   3
ATOM      3  N   UNL A   1      31.031  29.509  23.682  1.00  0.00    -0.354 N 
ATOM      4  C   UNL A   1      30.267  28.456  23.266  1.00  0.00     0.242 C 
ATOM      5  O   UNL A   1      29.728  28.558  22.159  1.00  0.00    -0.273 OA
ATOM      6  H   UNL A   1      31.140  30.231  23.021  1.00  0.00     0.163 HD
BRANCH   4   7
ATOM      7  C   UNL A   1      30.128  27.145  24.077  1.00  0.00     0.168 C 
ATOM      8  C   UNL A   1      28.692  26.621  23.956  1.00  0.00     0.041 C 
BRANCH   7   9
ATOM      9  N   UNL A   1      31.081  26.049  23.843  1.00  0.00    -0.339 N 
ATOM     10  C   UNL A   1      30.758  24.733  24.070  1.00  0.00     0.278 C 
ATOM     11  H   UNL A   1      31.983  26.267  23.512  1.00  0.00     0.164 HD
ATOM     12  O   UNL A   1      30.429  24.050  23.092  1.00  0.00    -0.268 OA
BRANCH  10  13
ATOM     13  C   UNL A   1      30.944  24.087  25.470  1.00  0.00     0.272 C 
ATOM     14  C   UNL A   1      31.754  24.883  26.480  1.00  0.00     0.076 C 
ATOM     15  N   UNL A   1      31.521  22.714  25.325  1.00  0.00    -0.333 N 
ATOM     16  C   UNL A   1      33.216  24.906  26.074  1.00  0.00     0.016 C 
ATOM     17  C   UNL A   1      32.988  22.616  25.133  1.00  0.00     0.186 C 
ATOM     18  H   UNL A   1      31.077  22.277  24.517  1.00  0.00     0.347 HD
ATOM     19  H   UNL A   1      31.339  22.254  26.217  1.00  0.00     0.347 HD
ATOM     20  C   UNL A   1      33.762  23.489  26.133  1.00  0.00     0.048 C 
ATOM     21  C   UNL A   1      33.416  22.846  23.670  1.00  0.00     0.065 C 
ATOM     22  C   UNL A   1      35.271  23.470  25.881  1.00  0.00     0.010 C 
ATOM     23  C   UNL A   1      34.924  23.005  23.443  1.00  0.00     0.006 C 
ATOM     24  C   UNL A   1      35.620  23.895  24.463  1.00  0.00     0.001 C 
ENDBRANCH  10  13
ENDBRANCH   7   9
ENDBRANCH   4   7
ENDBRANCH   2   3
ENDBRANCH   1   2
BRANCH   1  25
ATOM     25  C   UNL A   1      33.775  28.563  26.148  1.00  0.00     0.023 C 
BRANCH  25  26
ATOM     26  C   UNL A   1      33.404  28.944  27.585  1.00  0.00     0.116 C 
BRANCH  26  27
ATOM     27  N   UNL A   1      33.602  30.338  27.950  1.00  0.00    -0.352 N 
ATOM     28  C   UNL A   1      34.754  30.972  28.359  1.00  0.00     0.251 C 
ATOM     29  H   UNL A   1      32.801  30.908  27.895  1.00  0.00     0.163 HD
ATOM     30  O   UNL A   1      34.728  32.165  28.652  1.00  0.00    -0.269 OA
BRANCH  28  31
ATOM     31  C   UNL A   1      36.017  30.214  28.499  1.00  0.00     0.039 A 
ATOM     32  C   UNL A   1      36.882  30.160  27.402  1.00  0.00     0.014 A 
ATOM     33  C   UNL A   1      36.363  29.582  29.696  1.00  0.00     0.014 A 
ATOM     34  C   UNL A   1      38.142  29.573  27.539  1.00  0.00     0.010 A 
ATOM     35  C   UNL A   1      37.639  29.033  29.846  1.00  0.00     0.010 A 
ATOM     36  C   UNL A   1      38.552  29.059  28.780  1.00  0.00    -0.014 A 
BRANCH  36  37
ATOM     37  C   UNL A   1      39.967  28.662  28.999  1.00  0.00     0.031 A 
ATOM     38  C   UNL A   1      40.469  27.302  28.618  1.00  0.00     0.074 A 
ATOM     39  C   UNL A   1      40.793  29.536  29.608  1.00  0.00     0.049 A 
ATOM     40  N   UNL A   1      41.673  26.804  28.749  1.00  0.00    -0.248 NA
ATOM     41  C   UNL A   1      39.492  26.374  28.030  1.00  0.00     0.031 C 
ATOM     42  C   UNL A   1      40.417  30.874  30.071  1.00  0.00     0.029 A 
ATOM     43  N   UNL A   1      42.119  29.429  29.949  1.00  0.00    -0.354 N 
ATOM     44  C   UNL A   1      41.602  25.506  28.259  1.00  0.00     0.074 A 
ATOM     45  C   UNL A   1      40.226  25.281  27.868  1.00  0.00     0.031 C 
ATOM     46  C   UNL A   1      41.489  31.471  30.614  1.00  0.00     0.029 A 
ATOM     47  C   UNL A   1      42.620  30.549  30.567  1.00  0.00     0.049 A 
ATOM     48  H   UNL A   1      42.660  28.626  29.768  1.00  0.00     0.167 HD
ATOM     49  C   UNL A   1      42.594  24.591  28.135  1.00  0.00     0.031 A 
ATOM     50  C   UNL A   1      43.849  30.809  31.048  1.00  0.00     0.031 A 
ATOM     51  C   UNL A   1      43.960  24.809  28.540  1.00  0.00     0.049 A 
ATOM     52  C   UNL A   1      44.927  29.772  30.917  1.00  0.00     0.074 A 
ATOM     53  C   UNL A   1      45.043  23.955  28.414  1.00  0.00     0.029 A 
ATOM     54  N   UNL A   1      44.427  25.957  29.160  1.00  0.00    -0.354 N 
ATOM     55  N   UNL A   1      44.860  28.578  30.379  1.00  0.00    -0.248 NA
ATOM     56  C   UNL A   1      46.251  30.123  31.445  1.00  0.00     0.031 C 
ATOM     57  C   UNL A   1      46.156  24.569  29.000  1.00  0.00     0.029 A 
ATOM     58  C   UNL A   1      45.777  25.825  29.445  1.00  0.00     0.049 A 
ATOM     59  H   UNL A   1      43.880  26.749  29.368  1.00  0.00     0.167 HD
ATOM     60  C   UNL A   1      46.137  28.045  30.483  1.00  0.00     0.074 A 
ATOM     61  C   UNL A   1      46.961  29.052  31.119  1.00  0.00     0.031 C 
ATOM     62  C   UNL A   1      46.585  26.831  30.085  1.00  0.00     0.031 A 
BRANCH  49  63
ATOM     63  C   UNL A   1      42.233  23.260  27.539  1.00  0.00    -0.014 A 
ATOM     64  C   UNL A   1      41.679  22.240  28.328  1.00  0.00     0.009 A 
ATOM     65  C   UNL A   1      42.413  23.034  26.166  1.00  0.00     0.009 A 
ATOM     66  C   UNL A   1      41.347  21.007  27.762  1.00  0.00     0.001 A 
ATOM     67  C   UNL A   1      42.056  21.809  25.596  1.00  0.00     0.001 A 
ATOM     68  C   UNL A   1      41.532  20.794  26.396  1.00  0.00     0.000 A 
ENDBRANCH  49  63
BRANCH  50  69
ATOM     69  C   UNL A   1      44.132  32.119  31.688  1.00  0.00    -0.014 A 
ATOM     70  C   UNL A   1      44.584  33.203  30.921  1.00  0.00     0.009 A 
ATOM     71  C   UNL A   1      43.946  32.295  33.068  1.00  0.00     0.009 A 
ATOM     72  C   UNL A   1      44.866  34.430  31.526  1.00  0.00     0.001 A 
ATOM     73  C   UNL A   1      44.204  33.530  33.667  1.00  0.00     0.001 A 
ATOM     74  C   UNL A   1      44.672  34.593  32.896  1.00  0.00     0.000 A 
ENDBRANCH  50  69
BRANCH  62  75
ATOM     75  C   UNL A   1      48.042  26.534  30.304  1.00  0.00    -0.014 A 
ATOM     76  C   UNL A   1      48.490  25.922  31.485  1.00  0.00     0.009 A 
ATOM     77  C   UNL A   1      48.973  26.843  29.300  1.00  0.00     0.009 A 
ATOM     78  C   UNL A   1      49.848  25.654  31.669  1.00  0.00     0.001 A 
ATOM     79  C   UNL A   1      50.327  26.551  29.476  1.00  0.00     0.001 A 
ATOM     80  C   UNL A   1      50.764  25.965  30.664  1.00  0.00     0.000 A 
ENDBRANCH  62  75
ENDBRANCH  36  37
ENDBRANCH  28  31
ENDBRANCH  26  27
ENDBRANCH  25  26
ENDBRANCH   1  25
TORSDOF 13
ENDMDL
MODEL 3
REMARK VINA RESULT:     -11.1      1.292      2.335
REMARK SMILES C[C@@H](NC(=O)[C@@H]1CC[C@@H]2CCCC[C@@H]2[NH2+]1)C(=O)NCCCCNC(=O)c1ccc(-c2c3nc(c(-c4ccccc4)c4ccc([nH]4)c(-c4ccccc4)c4nc(c(-c5ccccc5)c5ccc2[nH]5)C=C4)C=C3)cc1
REMARK SMILES IDX 20 1 19 2 18 3 16 4 17 5 2 7 1 8 3 9 4 10 5 12 6 13 7 14
REMARK SMILES IDX 15 15 8 16 14 17 9 20 13 21 10 22 12 23 11 24 21 25 22 26
REMARK SMILES IDX 23 27 24 28 25 30 26 31 27 32 73 33 28 34 72 35 29 36 30 37
REMARK SMILES IDX 31 38 66 39 32 40 71 41 65 42 67 43 33 44 70 45 64 46 63 47
REMARK SMILES IDX 34 49 56 50 41 51 55 52 42 53 45 54 54 55 68 56 43 57 44 58
REMARK SMILES IDX 53 60 69 61 46 62 35 63 36 64 40 65 37 66 39 67 38 68 57 69
REMARK SMILES IDX 58 70 62 71 59 72 61 73 60 74 47 75 48 76 52 77 49 78 51 79
REMARK SMILES IDX 50 80
REMARK H PARENT 18 6 3 11 15 18 15 19 23 29 67 48 45 59
REMARK Flexibility Score: inf
ROOT
ATOM      1  C   UNL A   1      31.891  29.177  25.016  1.00  0.00     0.023 C 
ENDROOT
BRANCH   1   2
ATOM      2  C   UNL A   1      31.515  27.844  24.354  1.00  0.00     0.116 C 
BRANCH   2   3
ATOM      3  N   UNL A   1      30.593  27.032  25.121  1.00  0.00    -0.354 N 
ATOM      4  C   UNL A   1      30.780  25.817  25.717  1.00  0.00     0.242 C 
ATOM      5  O   UNL A   1      29.845  25.374  26.392  1.00  0.00    -0.273 OA
ATOM      6  H   UNL A   1      29.692  27.413  25.228  1.00  0.00     0.163 HD
BRANCH   4   7
ATOM      7  C   UNL A   1      32.057  24.966  25.511  1.00  0.00     0.168 C 
ATOM      8  C   UNL A   1      33.257  25.690  26.130  1.00  0.00     0.041 C 
BRANCH   7   9
ATOM      9  N   UNL A   1      32.056  23.554  25.926  1.00  0.00    -0.339 N 
ATOM     10  C   UNL A   1      33.189  22.778  25.895  1.00  0.00     0.278 C 
ATOM     11  H   UNL A   1      31.213  23.152  26.237  1.00  0.00     0.164 HD
ATOM     12  O   UNL A   1      33.802  22.621  26.958  1.00  0.00    -0.268 OA
BRANCH  10  13
ATOM     13  C   UNL A   1      33.601  22.005  24.612  1.00  0.00     0.272 C 
ATOM     14  C   UNL A   1      34.237  20.640  24.819  1.00  0.00     0.076 C 
ATOM     15  N   UNL A   1      34.494  22.860  23.767  1.00  0.00    -0.333 N 
ATOM     16  C   UNL A   1      35.625  20.797  25.413  1.00  0.00     0.016 C 
ATOM     17  C   UNL A   1      35.927  22.912  24.143  1.00  0.00     0.186 C 
ATOM     18  H   UNL A   1      34.132  23.813  23.804  1.00  0.00     0.347 HD
ATOM     19  H   UNL A   1      34.478  22.428  22.844  1.00  0.00     0.347 HD
ATOM     20  C   UNL A   1      36.509  21.515  24.407  1.00  0.00     0.048 C 
ATOM     21  C   UNL A   1      36.210  23.912  25.283  1.00  0.00     0.065 C 
ATOM     22  C   UNL A   1      37.960  21.567  24.888  1.00  0.00     0.010 C 
ATOM     23  C   UNL A   1      37.617  23.840  25.886  1.00  0.00     0.006 C 
ATOM     24  C   UNL A   1      38.120  22.424  26.134  1.00  0.00     0.001 C 
ENDBRANCH  10  13
ENDBRANCH   7   9
ENDBRANCH   4   7
ENDBRANCH   2   3
ENDBRANCH   1   2
BRANCH   1  25
ATOM     25  C   UNL A   1      32.148  29.237  26.531  1.00  0.00     0.023 C 
BRANCH  25  26
ATOM     26  C   UNL A   1      33.538  29.578  27.083  1.00  0.00     0.116 C 
BRANCH  26  27
ATOM     27  N   UNL A   1      33.627  30.781  27.895  1.00  0.00    -0.352 N 
ATOM     28  C   UNL A   1      34.676  31.232  28.663  1.00  0.00     0.251 C 
ATOM     29  H   UNL A   1      32.826  31.352  27.894  1.00  0.00     0.163 HD
ATOM     30  O   UNL A   1      34.563  32.271  29.309  1.00  0.00    -0.269 OA
BRANCH  28  31
ATOM     31  C   UNL A   1      35.927  30.446  28.760  1.00  0.00     0.039 A 
ATOM     32  C   UNL A   1      36.782  30.424  27.654  1.00  0.00     0.014 A 
ATOM     33  C   UNL A   1      36.270  29.757  29.925  1.00  0.00     0.014 A 
ATOM     34  C   UNL A   1      38.033  29.810  27.756  1.00  0.00     0.010 A 
ATOM     35  C   UNL A   1      37.537  29.179  30.041  1.00  0.00     0.010 A 
ATOM     36  C   UNL A   1      38.443  29.235  28.969  1.00  0.00    -0.014 A 
BRANCH  36  37
ATOM     37  C   UNL A   1      39.851  28.804  29.159  1.00  0.00     0.031 A 
ATOM     38  C   UNL A   1      40.889  29.734  29.713  1.00  0.00     0.074 A 
ATOM     39  C   UNL A   1      40.204  27.564  28.765  1.00  0.00     0.049 A 
ATOM     40  N   UNL A   1      42.160  29.508  29.934  1.00  0.00    -0.248 NA
ATOM     41  C   UNL A   1      40.449  31.096  30.048  1.00  0.00     0.031 C 
ATOM     42  C   UNL A   1      39.299  26.578  28.167  1.00  0.00     0.029 A 
ATOM     43  N   UNL A   1      41.416  26.920  28.802  1.00  0.00    -0.354 N 
ATOM     44  C   UNL A   1      42.674  30.698  30.435  1.00  0.00     0.074 A 
ATOM     45  C   UNL A   1      41.586  31.653  30.444  1.00  0.00     0.031 C 
ATOM     46  C   UNL A   1      39.982  25.450  27.915  1.00  0.00     0.029 A 
ATOM     47  C   UNL A   1      41.375  25.641  28.302  1.00  0.00     0.049 A 
ATOM     48  H   UNL A   1      42.237  27.336  29.154  1.00  0.00     0.167 HD
ATOM     49  C   UNL A   1      43.933  30.964  30.859  1.00  0.00     0.031 A 
ATOM     50  C   UNL A   1      42.349  24.723  28.165  1.00  0.00     0.031 A 
ATOM     51  C   UNL A   1      45.021  30.019  30.834  1.00  0.00     0.049 A 
ATOM     52  C   UNL A   1      43.741  25.049  28.625  1.00  0.00     0.074 A 
ATOM     53  C   UNL A   1      46.320  30.187  31.282  1.00  0.00     0.029 A 
ATOM     54  N   UNL A   1      44.938  28.733  30.321  1.00  0.00    -0.354 N 
ATOM     55  N   UNL A   1      44.190  26.154  29.169  1.00  0.00    -0.248 NA
ATOM     56  C   UNL A   1      44.754  23.998  28.465  1.00  0.00     0.031 C 
ATOM     57  C   UNL A   1      47.036  29.018  30.999  1.00  0.00     0.029 A 
ATOM     58  C   UNL A   1      46.170  28.105  30.421  1.00  0.00     0.049 A 
ATOM     59  H   UNL A   1      44.126  28.328  29.943  1.00  0.00     0.167 HD
ATOM     60  C   UNL A   1      45.533  25.924  29.437  1.00  0.00     0.074 A 
ATOM     61  C   UNL A   1      45.819  24.568  29.011  1.00  0.00     0.031 C 
ATOM     62  C   UNL A   1      46.444  26.760  29.988  1.00  0.00     0.031 A 
BRANCH  49  63
ATOM     63  C   UNL A   1      44.205  32.346  31.384  1.00  0.00    -0.014 A 
ATOM     64  C   UNL A   1      44.067  32.642  32.749  1.00  0.00     0.009 A 
ATOM     65  C   UNL A   1      44.639  33.355  30.511  1.00  0.00     0.009 A 
ATOM     66  C   UNL A   1      44.323  33.930  33.224  1.00  0.00     0.001 A 
ATOM     67  C   UNL A   1      44.919  34.637  30.993  1.00  0.00     0.001 A 
ATOM     68  C   UNL A   1      44.752  34.925  32.347  1.00  0.00     0.000 A 
ENDBRANCH  49  63
BRANCH  50  69
ATOM     69  C   UNL A   1      42.036  23.395  27.578  1.00  0.00    -0.014 A 
ATOM     70  C   UNL A   1      42.280  23.141  26.220  1.00  0.00     0.009 A 
ATOM     71  C   UNL A   1      41.498  22.372  28.374  1.00  0.00     0.009 A 
ATOM     72  C   UNL A   1      41.970  21.897  25.666  1.00  0.00     0.001 A 
ATOM     73  C   UNL A   1      41.213  21.121  27.823  1.00  0.00     0.001 A 
ATOM     74  C   UNL A   1      41.441  20.888  26.468  1.00  0.00     0.000 A 
ENDBRANCH  50  69
BRANCH  62  75
ATOM     75  C   UNL A   1      47.834  26.222  30.185  1.00  0.00    -0.014 A 
ATOM     76  C   UNL A   1      48.763  26.202  29.133  1.00  0.00     0.009 A 
ATOM     77  C   UNL A   1      48.226  25.759  31.450  1.00  0.00     0.009 A 
ATOM     78  C   UNL A   1      50.049  25.699  29.338  1.00  0.00     0.001 A 
ATOM     79  C   UNL A   1      49.521  25.280  31.659  1.00  0.00     0.001 A 
ATOM     80  C   UNL A   1      50.428  25.243  30.600  1.00  0.00     0.000 A 
ENDBRANCH  62  75
ENDBRANCH  36  37
ENDBRANCH  28  31
ENDBRANCH  26  27
ENDBRANCH  25  26
ENDBRANCH   1  25
TORSDOF 13
ENDMDL
