MODEL 1
REMARK VINA RESULT:     -12.4      0.000      0.000
REMARK SMILES O=C(COc1ccc(Br)cc1/C=C1\C(=O)Nc2ccc(Br)cc21)NCCCCNC(=O)c1ccc(-c2c3nc(c(-c4ccccc4)c4ccc([nH]4)c(-c4ccccc4)c4nc(c(-c5ccccc5)c5ccc2[nH]5)C=C4)C=C3)cc1
REMARK SMILES IDX 26 1 25 2 24 3 1 4 2 5 3 7 4 8 5 9 6 10 11 11 7 12 10 13
REMARK SMILES IDX 8 14 9 15 12 16 13 17 14 18 23 19 15 20 16 21 17 22 22 23
REMARK SMILES IDX 18 25 20 26 19 27 21 28 27 29 28 30 29 31 30 32 31 34 32 35
REMARK SMILES IDX 33 36 79 37 34 38 78 39 35 40 36 41 37 42 72 43 38 44 77 45
REMARK SMILES IDX 71 46 73 47 39 48 76 49 70 50 69 51 40 53 62 54 47 55 61 56
REMARK SMILES IDX 48 57 51 58 60 59 74 60 49 61 50 62 59 64 75 65 52 66 41 67
REMARK SMILES IDX 42 68 46 69 43 70 45 71 44 72 63 73 64 74 68 75 65 76 67 77
REMARK SMILES IDX 66 78 53 79 54 80 58 81 55 82 57 83 56 84
REMARK H PARENT 24 6 16 24 29 33 73 52 51 63
REMARK Flexibility Score: inf
ROOT
ATOM      1  C   UNL A   1      31.906  30.177  26.908  1.00  0.00     0.023 C 
ENDROOT
BRANCH   1   2
ATOM      2  C   UNL A   1      33.360  29.710  26.923  1.00  0.00     0.116 C 
BRANCH   2   3
ATOM      3  N   UNL A   1      33.937  29.385  25.622  1.00  0.00    -0.353 N 
ATOM      4  O   UNL A   1      33.439  27.146  25.717  1.00  0.00    -0.271 OA
ATOM      5  C   UNL A   1      33.767  28.130  25.055  1.00  0.00     0.257 C 
ATOM      6  H   UNL A   1      34.455  30.068  25.137  1.00  0.00     0.163 HD
BRANCH   5   7
ATOM      7  C   UNL A   1      33.954  28.046  23.511  1.00  0.00     0.329 C 
BRANCH   7   8
ATOM      8  O   UNL A   1      33.073  27.300  22.655  1.00  0.00    -0.483 OA
BRANCH   8   9
ATOM      9  C   UNL A   1      31.730  27.586  22.805  1.00  0.00     0.127 A 
ATOM     10  C   UNL A   1      31.287  28.879  22.458  1.00  0.00     0.048 A 
ATOM     11  C   UNL A   1      30.784  26.595  23.188  1.00  0.00     0.018 A 
ATOM     12  C   UNL A   1      29.968  29.282  22.601  1.00  0.00     0.019 A 
ATOM     13  C   UNL A   1      29.451  27.045  23.274  1.00  0.00     0.027 A 
ATOM     14  C   UNL A   1      29.049  28.358  23.027  1.00  0.00     0.018 A 
ATOM     15  Br  UNL A   1      27.241  28.855  23.254  1.00  0.00    -0.051 Br
BRANCH  11  16
ATOM     16  C   UNL A   1      31.134  25.162  23.528  1.00  0.00     0.026 C 
ATOM     17  C   UNL A   1      31.050  24.500  24.714  1.00  0.00     0.050 C 
ATOM     18  C   UNL A   1      30.638  25.072  26.050  1.00  0.00     0.256 C 
ATOM     19  C   UNL A   1      31.851  23.315  25.100  1.00  0.00     0.012 A 
ATOM     20  O   UNL A   1      29.565  25.520  26.396  1.00  0.00    -0.269 OA
ATOM     21  N   UNL A   1      31.673  24.731  26.899  1.00  0.00    -0.321 N 
ATOM     22  C   UNL A   1      32.356  23.639  26.375  1.00  0.00     0.049 A 
ATOM     23  C   UNL A   1      31.996  22.019  24.640  1.00  0.00     0.026 A 
ATOM     24  H   UNL A   1      31.892  25.189  27.743  1.00  0.00     0.170 HD
ATOM     25  C   UNL A   1      33.190  22.825  27.110  1.00  0.00     0.028 A 
ATOM     26  C   UNL A   1      32.744  21.129  25.436  1.00  0.00     0.018 A 
ATOM     27  C   UNL A   1      33.389  21.541  26.621  1.00  0.00     0.018 A 
ATOM     28  Br  UNL A   1      32.789  19.285  24.997  1.00  0.00    -0.051 Br
ENDBRANCH  11  16
ENDBRANCH   8   9
ENDBRANCH   7   8
ENDBRANCH   5   7
ENDBRANCH   2   3
ENDBRANCH   1   2
BRANCH   1  29
ATOM     29  C   UNL A   1      31.693  31.679  26.746  1.00  0.00     0.023 C 
BRANCH  29  30
ATOM     30  C   UNL A   1      32.802  32.573  27.290  1.00  0.00     0.116 C 
BRANCH  30  31
ATOM     31  N   UNL A   1      32.374  33.924  27.625  1.00  0.00    -0.352 N 
ATOM     32  C   UNL A   1      32.948  34.833  28.492  1.00  0.00     0.251 C 
ATOM     33  H   UNL A   1      31.559  34.234  27.169  1.00  0.00     0.163 HD
ATOM     34  O   UNL A   1      32.402  35.909  28.714  1.00  0.00    -0.269 OA
BRANCH  32  35
ATOM     35  C   UNL A   1      34.200  34.484  29.206  1.00  0.00     0.039 A 
ATOM     36  C   UNL A   1      35.445  34.706  28.616  1.00  0.00     0.014 A 
ATOM     37  C   UNL A   1      34.122  33.868  30.458  1.00  0.00     0.014 A 
ATOM     38  C   UNL A   1      36.578  34.115  29.162  1.00  0.00     0.010 A 
ATOM     39  C   UNL A   1      35.281  33.364  31.059  1.00  0.00     0.010 A 
ATOM     40  C   UNL A   1      36.510  33.419  30.382  1.00  0.00    -0.014 A 
BRANCH  40  41
ATOM     41  C   UNL A   1      37.725  32.738  30.907  1.00  0.00     0.031 A 
ATOM     42  C   UNL A   1      38.371  33.190  32.191  1.00  0.00     0.074 A 
ATOM     43  C   UNL A   1      38.210  31.660  30.263  1.00  0.00     0.049 A 
ATOM     44  N   UNL A   1      39.402  32.678  32.818  1.00  0.00    -0.248 NA
ATOM     45  C   UNL A   1      37.791  34.364  32.861  1.00  0.00     0.031 C 
ATOM     46  C   UNL A   1      37.662  31.106  29.024  1.00  0.00     0.029 A 
ATOM     47  N   UNL A   1      39.250  30.819  30.574  1.00  0.00    -0.354 N 
ATOM     48  C   UNL A   1      39.597  33.470  33.944  1.00  0.00     0.074 A 
ATOM     49  C   UNL A   1      38.607  34.522  33.894  1.00  0.00     0.031 C 
ATOM     50  C   UNL A   1      38.328  29.985  28.715  1.00  0.00     0.029 A 
ATOM     51  C   UNL A   1      39.397  29.780  29.689  1.00  0.00     0.049 A 
ATOM     52  H   UNL A   1      39.834  30.949  31.357  1.00  0.00     0.167 HD
ATOM     53  C   UNL A   1      40.508  33.325  34.937  1.00  0.00     0.031 A 
ATOM     54  C   UNL A   1      40.292  28.775  29.647  1.00  0.00     0.031 A 
ATOM     55  C   UNL A   1      41.498  32.281  34.985  1.00  0.00     0.049 A 
ATOM     56  C   UNL A   1      41.336  28.672  30.721  1.00  0.00     0.074 A 
ATOM     57  C   UNL A   1      42.456  32.051  35.957  1.00  0.00     0.029 A 
ATOM     58  N   UNL A   1      41.661  31.295  34.023  1.00  0.00    -0.354 N 
ATOM     59  N   UNL A   1      41.501  29.427  31.780  1.00  0.00    -0.248 NA
ATOM     60  C   UNL A   1      42.315  27.584  30.596  1.00  0.00     0.031 C 
ATOM     61  C   UNL A   1      43.242  30.971  35.550  1.00  0.00     0.029 A 
ATOM     62  C   UNL A   1      42.723  30.475  34.365  1.00  0.00     0.049 A 
ATOM     63  H   UNL A   1      41.103  31.194  33.218  1.00  0.00     0.167 HD
ATOM     64  C   UNL A   1      42.595  28.900  32.455  1.00  0.00     0.074 A 
ATOM     65  C   UNL A   1      43.041  27.750  31.696  1.00  0.00     0.031 C 
ATOM     66  C   UNL A   1      43.173  29.338  33.599  1.00  0.00     0.031 A 
BRANCH  53  67
ATOM     67  C   UNL A   1      40.491  34.332  36.059  1.00  0.00    -0.014 A 
ATOM     68  C   UNL A   1      39.663  34.124  37.174  1.00  0.00     0.009 A 
ATOM     69  C   UNL A   1      41.235  35.520  35.983  1.00  0.00     0.009 A 
ATOM     70  C   UNL A   1      39.574  35.086  38.184  1.00  0.00     0.001 A 
ATOM     71  C   UNL A   1      41.170  36.465  37.011  1.00  0.00     0.001 A 
ATOM     72  C   UNL A   1      40.334  36.251  38.105  1.00  0.00     0.000 A 
ENDBRANCH  53  67
BRANCH  54  73
ATOM     73  C   UNL A   1      40.207  27.789  28.538  1.00  0.00    -0.014 A 
ATOM     74  C   UNL A   1      39.528  26.571  28.722  1.00  0.00     0.009 A 
ATOM     75  C   UNL A   1      40.890  28.009  27.334  1.00  0.00     0.009 A 
ATOM     76  C   UNL A   1      39.575  25.578  27.743  1.00  0.00     0.001 A 
ATOM     77  C   UNL A   1      40.907  27.024  26.342  1.00  0.00     0.001 A 
ATOM     78  C   UNL A   1      40.265  25.805  26.554  1.00  0.00     0.000 A 
ENDBRANCH  54  73
BRANCH  66  79
ATOM     79  C   UNL A   1      44.361  28.579  34.127  1.00  0.00    -0.014 A 
ATOM     80  C   UNL A   1      45.652  28.910  33.686  1.00  0.00     0.009 A 
ATOM     81  C   UNL A   1      44.194  27.465  34.965  1.00  0.00     0.009 A 
ATOM     82  C   UNL A   1      46.750  28.130  34.055  1.00  0.00     0.001 A 
ATOM     83  C   UNL A   1      45.298  26.706  35.358  1.00  0.00     0.001 A 
ATOM     84  C   UNL A   1      46.573  27.031  34.894  1.00  0.00     0.000 A 
ENDBRANCH  66  79
ENDBRANCH  40  41
ENDBRANCH  32  35
ENDBRANCH  30  31
ENDBRANCH  29  30
ENDBRANCH   1  29
TORSDOF 14
ENDMDL
MODEL 2
REMARK VINA RESULT:     -12.1      0.926      5.810
REMARK SMILES O=C(COc1ccc(Br)cc1/C=C1\C(=O)Nc2ccc(Br)cc21)NCCCCNC(=O)c1ccc(-c2c3nc(c(-c4ccccc4)c4ccc([nH]4)c(-c4ccccc4)c4nc(c(-c5ccccc5)c5ccc2[nH]5)C=C4)C=C3)cc1
REMARK SMILES IDX 26 1 25 2 24 3 1 4 2 5 3 7 4 8 5 9 6 10 11 11 7 12 10 13
REMARK SMILES IDX 8 14 9 15 12 16 13 17 14 18 23 19 15 20 16 21 17 22 22 23
REMARK SMILES IDX 18 25 20 26 19 27 21 28 27 29 28 30 29 31 30 32 31 34 32 35
REMARK SMILES IDX 33 36 79 37 34 38 78 39 35 40 36 41 37 42 72 43 38 44 77 45
REMARK SMILES IDX 71 46 73 47 39 48 76 49 70 50 69 51 40 53 62 54 47 55 61 56
REMARK SMILES IDX 48 57 51 58 60 59 74 60 49 61 50 62 59 64 75 65 52 66 41 67
REMARK SMILES IDX 42 68 46 69 43 70 45 71 44 72 63 73 64 74 68 75 65 76 67 77
REMARK SMILES IDX 66 78 53 79 54 80 58 81 55 82 57 83 56 84
REMARK H PARENT 24 6 16 24 29 33 73 52 51 63
REMARK Flexibility Score: inf
ROOT
ATOM      1  C   UNL A   1      32.174  29.652  27.214  1.00  0.00     0.023 C 
ENDROOT
BRANCH   1   2
ATOM      2  C   UNL A   1      33.578  29.100  26.975  1.00  0.00     0.116 C 
BRANCH   2   3
ATOM      3  N   UNL A   1      33.979  28.967  25.578  1.00  0.00    -0.353 N 
ATOM      4  O   UNL A   1      33.649  26.698  25.472  1.00  0.00    -0.271 OA
ATOM      5  C   UNL A   1      33.811  27.772  24.893  1.00  0.00     0.257 C 
ATOM      6  H   UNL A   1      34.374  29.740  25.112  1.00  0.00     0.163 HD
BRANCH   5   7
ATOM      7  C   UNL A   1      33.777  27.873  23.340  1.00  0.00     0.329 C 
BRANCH   7   8
ATOM      8  O   UNL A   1      32.857  27.125  22.527  1.00  0.00    -0.483 OA
BRANCH   8   9
ATOM      9  C   UNL A   1      31.522  27.401  22.749  1.00  0.00     0.127 A 
ATOM     10  C   UNL A   1      31.043  28.680  22.395  1.00  0.00     0.048 A 
ATOM     11  C   UNL A   1      30.612  26.411  23.213  1.00  0.00     0.018 A 
ATOM     12  C   UNL A   1      29.730  29.073  22.604  1.00  0.00     0.019 A 
ATOM     13  C   UNL A   1      29.281  26.849  23.365  1.00  0.00     0.027 A 
ATOM     14  C   UNL A   1      28.850  28.151  23.109  1.00  0.00     0.018 A 
ATOM     15  Br  UNL A   1      27.053  28.635  23.429  1.00  0.00    -0.051 Br
BRANCH  11  16
ATOM     16  C   UNL A   1      30.999  24.991  23.568  1.00  0.00     0.026 C 
ATOM     17  C   UNL A   1      30.975  24.355  24.771  1.00  0.00     0.050 C 
ATOM     18  C   UNL A   1      30.609  24.950  26.111  1.00  0.00     0.256 C 
ATOM     19  C   UNL A   1      31.810  23.191  25.149  1.00  0.00     0.012 A 
ATOM     20  O   UNL A   1      29.545  25.390  26.491  1.00  0.00    -0.269 OA
ATOM     21  N   UNL A   1      31.684  24.644  26.923  1.00  0.00    -0.321 N 
ATOM     22  C   UNL A   1      32.362  23.551  26.394  1.00  0.00     0.049 A 
ATOM     23  C   UNL A   1      31.956  21.888  24.712  1.00  0.00     0.026 A 
ATOM     24  H   UNL A   1      31.930  25.124  27.747  1.00  0.00     0.170 HD
ATOM     25  C   UNL A   1      33.239  22.767  27.111  1.00  0.00     0.028 A 
ATOM     26  C   UNL A   1      32.750  21.026  25.495  1.00  0.00     0.018 A 
ATOM     27  C   UNL A   1      33.438  21.475  26.642  1.00  0.00     0.018 A 
ATOM     28  Br  UNL A   1      32.807  19.175  25.094  1.00  0.00    -0.051 Br
ENDBRANCH  11  16
ENDBRANCH   8   9
ENDBRANCH   7   8
ENDBRANCH   5   7
ENDBRANCH   2   3
ENDBRANCH   1   2
BRANCH   1  29
ATOM     29  C   UNL A   1      31.964  31.116  26.842  1.00  0.00     0.023 C 
BRANCH  29  30
ATOM     30  C   UNL A   1      33.083  32.073  27.238  1.00  0.00     0.116 C 
BRANCH  30  31
ATOM     31  N   UNL A   1      32.631  33.408  27.604  1.00  0.00    -0.352 N 
ATOM     32  C   UNL A   1      33.207  34.319  28.468  1.00  0.00     0.251 C 
ATOM     33  H   UNL A   1      31.796  33.703  27.175  1.00  0.00     0.163 HD
ATOM     34  O   UNL A   1      32.642  35.378  28.720  1.00  0.00    -0.269 OA
BRANCH  32  35
ATOM     35  C   UNL A   1      34.488  33.992  29.140  1.00  0.00     0.039 A 
ATOM     36  C   UNL A   1      35.709  34.263  28.524  1.00  0.00     0.014 A 
ATOM     37  C   UNL A   1      34.461  33.348  30.381  1.00  0.00     0.014 A 
ATOM     38  C   UNL A   1      36.874  33.694  29.027  1.00  0.00     0.010 A 
ATOM     39  C   UNL A   1      35.650  32.866  30.940  1.00  0.00     0.010 A 
ATOM     40  C   UNL A   1      36.858  32.971  30.232  1.00  0.00    -0.014 A 
BRANCH  40  41
ATOM     41  C   UNL A   1      38.106  32.315  30.711  1.00  0.00     0.031 A 
ATOM     42  C   UNL A   1      38.589  31.028  30.096  1.00  0.00     0.074 A 
ATOM     43  C   UNL A   1      38.849  32.920  31.657  1.00  0.00     0.049 A 
ATOM     44  N   UNL A   1      39.681  30.350  30.357  1.00  0.00    -0.248 NA
ATOM     45  C   UNL A   1      37.746  30.419  29.056  1.00  0.00     0.031 C 
ATOM     46  C   UNL A   1      38.506  34.181  32.315  1.00  0.00     0.029 A 
ATOM     47  N   UNL A   1      40.059  32.574  32.207  1.00  0.00    -0.354 N 
ATOM     48  C   UNL A   1      39.648  29.237  29.524  1.00  0.00     0.074 A 
ATOM     49  C   UNL A   1      38.410  29.306  28.780  1.00  0.00     0.031 C 
ATOM     50  C   UNL A   1      39.507  34.535  33.131  1.00  0.00     0.029 A 
ATOM     51  C   UNL A   1      40.531  33.493  33.112  1.00  0.00     0.049 A 
ATOM     52  H   UNL A   1      40.541  31.748  31.974  1.00  0.00     0.167 HD
ATOM     53  C   UNL A   1      40.572  28.256  29.380  1.00  0.00     0.031 A 
ATOM     54  C   UNL A   1      41.651  33.503  33.858  1.00  0.00     0.031 A 
ATOM     55  C   UNL A   1      41.802  28.184  30.125  1.00  0.00     0.049 A 
ATOM     56  C   UNL A   1      42.630  32.371  33.734  1.00  0.00     0.074 A 
ATOM     57  C   UNL A   1      42.802  27.231  30.040  1.00  0.00     0.029 A 
ATOM     58  N   UNL A   1      42.201  29.096  31.091  1.00  0.00    -0.354 N 
ATOM     59  N   UNL A   1      42.584  31.331  32.938  1.00  0.00    -0.248 NA
ATOM     60  C   UNL A   1      43.811  32.413  34.607  1.00  0.00     0.031 C 
ATOM     61  C   UNL A   1      43.772  27.527  31.001  1.00  0.00     0.029 A 
ATOM     62  C   UNL A   1      43.418  28.710  31.630  1.00  0.00     0.049 A 
ATOM     63  H   UNL A   1      41.695  29.900  31.353  1.00  0.00     0.167 HD
ATOM     64  C   UNL A   1      43.734  30.598  33.204  1.00  0.00     0.074 A 
ATOM     65  C   UNL A   1      44.466  31.324  34.222  1.00  0.00     0.031 C 
ATOM     66  C   UNL A   1      44.138  29.428  32.653  1.00  0.00     0.031 A 
BRANCH  53  67
ATOM     67  C   UNL A   1      40.287  27.161  28.385  1.00  0.00    -0.014 A 
ATOM     68  C   UNL A   1      39.533  26.042  28.772  1.00  0.00     0.009 A 
ATOM     69  C   UNL A   1      40.824  27.198  27.088  1.00  0.00     0.009 A 
ATOM     70  C   UNL A   1      39.329  24.980  27.887  1.00  0.00     0.001 A 
ATOM     71  C   UNL A   1      40.589  26.151  26.193  1.00  0.00     0.001 A 
ATOM     72  C   UNL A   1      39.850  25.039  26.596  1.00  0.00     0.000 A 
ENDBRANCH  53  67
BRANCH  54  73
ATOM     73  C   UNL A   1      41.889  34.648  34.775  1.00  0.00    -0.014 A 
ATOM     74  C   UNL A   1      42.615  35.769  34.338  1.00  0.00     0.009 A 
ATOM     75  C   UNL A   1      41.487  34.582  36.117  1.00  0.00     0.009 A 
ATOM     76  C   UNL A   1      42.974  36.777  35.234  1.00  0.00     0.001 A 
ATOM     77  C   UNL A   1      41.820  35.609  37.004  1.00  0.00     0.001 A 
ATOM     78  C   UNL A   1      42.577  36.696  36.567  1.00  0.00     0.000 A 
ENDBRANCH  54  73
BRANCH  66  79
ATOM     79  C   UNL A   1      45.439  28.837  33.123  1.00  0.00    -0.014 A 
ATOM     80  C   UNL A   1      45.451  27.960  34.219  1.00  0.00     0.009 A 
ATOM     81  C   UNL A   1      46.661  29.236  32.560  1.00  0.00     0.009 A 
ATOM     82  C   UNL A   1      46.659  27.511  34.757  1.00  0.00     0.001 A 
ATOM     83  C   UNL A   1      47.867  28.760  33.080  1.00  0.00     0.001 A 
ATOM     84  C   UNL A   1      47.865  27.908  34.185  1.00  0.00     0.000 A 
ENDBRANCH  66  79
ENDBRANCH  40  41
ENDBRANCH  32  35
ENDBRANCH  30  31
ENDBRANCH  29  30
ENDBRANCH   1  29
TORSDOF 14
ENDMDL
MODEL 3
REMARK VINA RESULT:     -11.9      1.957      6.328
REMARK SMILES O=C(COc1ccc(Br)cc1/C=C1\C(=O)Nc2ccc(Br)cc21)NCCCCNC(=O)c1ccc(-c2c3nc(c(-c4ccccc4)c4ccc([nH]4)c(-c4ccccc4)c4nc(c(-c5ccccc5)c5ccc2[nH]5)C=C4)C=C3)cc1
REMARK SMILES IDX 26 1 25 2 24 3 1 4 2 5 3 7 4 8 5 9 6 10 11 11 7 12 10 13
REMARK SMILES IDX 8 14 9 15 12 16 13 17 14 18 23 19 15 20 16 21 17 22 22 23
REMARK SMILES IDX 18 25 20 26 19 27 21 28 27 29 28 30 29 31 30 32 31 34 32 35
REMARK SMILES IDX 33 36 79 37 34 38 78 39 35 40 36 41 37 42 72 43 38 44 77 45
REMARK SMILES IDX 71 46 73 47 39 48 76 49 70 50 69 51 40 53 62 54 47 55 61 56
REMARK SMILES IDX 48 57 51 58 60 59 74 60 49 61 50 62 59 64 75 65 52 66 41 67
REMARK SMILES IDX 42 68 46 69 43 70 45 71 44 72 63 73 64 74 68 75 65 76 67 77
REMARK SMILES IDX 66 78 53 79 54 80 58 81 55 82 57 83 56 84
REMARK H PARENT 24 6 16 24 29 33 73 52 51 63
REMARK Flexibility Score: inf
ROOT
ATOM      1  C   UNL A   1      35.071  33.079  29.465  1.00  0.00     0.023 C 
ENDROOT
BRANCH   1   2
ATOM      2  C   UNL A   1      35.922  32.576  28.300  1.00  0.00     0.116 C 
BRANCH   2   3
ATOM      3  N   UNL A   1      35.361  31.464  27.538  1.00  0.00    -0.353 N 
ATOM      4  O   UNL A   1      37.208  30.116  27.733  1.00  0.00    -0.271 OA
ATOM      5  C   UNL A   1      36.013  30.241  27.468  1.00  0.00     0.257 C 
ATOM      6  H   UNL A   1      34.505  31.584  27.066  1.00  0.00     0.163 HD
BRANCH   5   7
ATOM      7  C   UNL A   1      35.129  29.016  27.094  1.00  0.00     0.329 C 
BRANCH   7   8
ATOM      8  O   UNL A   1      33.760  28.882  27.511  1.00  0.00    -0.483 OA
BRANCH   8   9
ATOM      9  C   UNL A   1      32.822  29.061  26.513  1.00  0.00     0.127 A 
ATOM     10  C   UNL A   1      32.160  30.305  26.444  1.00  0.00     0.048 A 
ATOM     11  C   UNL A   1      32.593  28.083  25.507  1.00  0.00     0.018 A 
ATOM     12  C   UNL A   1      31.179  30.580  25.504  1.00  0.00     0.019 A 
ATOM     13  C   UNL A   1      31.619  28.431  24.548  1.00  0.00     0.027 A 
ATOM     14  C   UNL A   1      30.899  29.625  24.560  1.00  0.00     0.018 A 
ATOM     15  Br  UNL A   1      29.562  29.939  23.264  1.00  0.00    -0.051 Br
BRANCH  11  16
ATOM     16  C   UNL A   1      33.286  26.738  25.444  1.00  0.00     0.026 C 
ATOM     17  C   UNL A   1      32.771  25.484  25.565  1.00  0.00     0.050 C 
ATOM     18  C   UNL A   1      31.339  25.112  25.870  1.00  0.00     0.256 C 
ATOM     19  C   UNL A   1      33.519  24.281  25.997  1.00  0.00     0.012 A 
ATOM     20  O   UNL A   1      30.339  25.297  25.209  1.00  0.00    -0.269 OA
ATOM     21  N   UNL A   1      31.434  24.263  26.957  1.00  0.00    -0.321 N 
ATOM     22  C   UNL A   1      32.709  23.709  26.996  1.00  0.00     0.049 A 
ATOM     23  C   UNL A   1      34.595  23.555  25.520  1.00  0.00     0.026 A 
ATOM     24  H   UNL A   1      30.712  24.080  27.601  1.00  0.00     0.170 HD
ATOM     25  C   UNL A   1      33.034  22.574  27.706  1.00  0.00     0.028 A 
ATOM     26  C   UNL A   1      34.878  22.326  26.150  1.00  0.00     0.018 A 
ATOM     27  C   UNL A   1      34.151  21.872  27.271  1.00  0.00     0.018 A 
ATOM     28  Br  UNL A   1      36.180  21.166  25.409  1.00  0.00    -0.051 Br
ENDBRANCH  11  16
ENDBRANCH   8   9
ENDBRANCH   7   8
ENDBRANCH   5   7
ENDBRANCH   2   3
ENDBRANCH   1   2
BRANCH   1  29
ATOM     29  C   UNL A   1      33.849  33.909  29.084  1.00  0.00     0.023 C 
BRANCH  29  30
ATOM     30  C   UNL A   1      33.864  35.366  29.532  1.00  0.00     0.116 C 
BRANCH  30  31
ATOM     31  N   UNL A   1      32.824  35.711  30.491  1.00  0.00    -0.352 N 
ATOM     32  C   UNL A   1      32.795  35.512  31.857  1.00  0.00     0.251 C 
ATOM     33  H   UNL A   1      32.028  36.148  30.112  1.00  0.00     0.163 HD
ATOM     34  O   UNL A   1      31.793  35.798  32.505  1.00  0.00    -0.269 OA
BRANCH  32  35
ATOM     35  C   UNL A   1      33.959  34.895  32.539  1.00  0.00     0.039 A 
ATOM     36  C   UNL A   1      35.194  35.542  32.572  1.00  0.00     0.014 A 
ATOM     37  C   UNL A   1      33.824  33.622  33.100  1.00  0.00     0.014 A 
ATOM     38  C   UNL A   1      36.329  34.835  32.950  1.00  0.00     0.010 A 
ATOM     39  C   UNL A   1      34.954  32.950  33.579  1.00  0.00     0.010 A 
ATOM     40  C   UNL A   1      36.228  33.521  33.441  1.00  0.00    -0.014 A 
BRANCH  40  41
ATOM     41  C   UNL A   1      37.466  32.765  33.775  1.00  0.00     0.031 A 
ATOM     42  C   UNL A   1      38.056  31.777  32.802  1.00  0.00     0.074 A 
ATOM     43  C   UNL A   1      38.107  33.021  34.932  1.00  0.00     0.049 A 
ATOM     44  N   UNL A   1      39.156  31.072  32.910  1.00  0.00    -0.248 NA
ATOM     45  C   UNL A   1      37.324  31.548  31.547  1.00  0.00     0.031 C 
ATOM     46  C   UNL A   1      37.654  33.971  35.948  1.00  0.00     0.029 A 
ATOM     47  N   UNL A   1      39.286  32.530  35.434  1.00  0.00    -0.354 N 
ATOM     48  C   UNL A   1      39.239  30.313  31.748  1.00  0.00     0.074 A 
ATOM     49  C   UNL A   1      38.059  30.611  30.966  1.00  0.00     0.031 C 
ATOM     50  C   UNL A   1      38.573  34.042  36.920  1.00  0.00     0.029 A 
ATOM     51  C   UNL A   1      39.644  33.090  36.636  1.00  0.00     0.049 A 
ATOM     52  H   UNL A   1      39.824  31.844  34.976  1.00  0.00     0.167 HD
ATOM     53  C   UNL A   1      40.217  29.460  31.359  1.00  0.00     0.031 A 
ATOM     54  C   UNL A   1      40.703  32.863  37.436  1.00  0.00     0.031 A 
ATOM     55  C   UNL A   1      41.390  29.159  32.138  1.00  0.00     0.049 A 
ATOM     56  C   UNL A   1      41.741  31.862  37.018  1.00  0.00     0.074 A 
ATOM     57  C   UNL A   1      42.437  28.313  31.821  1.00  0.00     0.029 A 
ATOM     58  N   UNL A   1      41.671  29.690  33.389  1.00  0.00    -0.354 N 
ATOM     59  N   UNL A   1      41.806  31.159  35.914  1.00  0.00    -0.248 NA
ATOM     60  C   UNL A   1      42.849  31.623  37.952  1.00  0.00     0.031 C 
ATOM     61  C   UNL A   1      43.316  28.278  32.906  1.00  0.00     0.029 A 
ATOM     62  C   UNL A   1      42.860  29.165  33.867  1.00  0.00     0.049 A 
ATOM     63  H   UNL A   1      41.108  30.344  33.865  1.00  0.00     0.167 HD
ATOM     64  C   UNL A   1      42.965  30.401  36.013  1.00  0.00     0.074 A 
ATOM     65  C   UNL A   1      43.583  30.745  37.278  1.00  0.00     0.031 C 
ATOM     66  C   UNL A   1      43.465  29.500  35.133  1.00  0.00     0.031 A 
BRANCH  53  67
ATOM     67  C   UNL A   1      40.061  28.769  30.028  1.00  0.00    -0.014 A 
ATOM     68  C   UNL A   1      39.431  27.516  29.959  1.00  0.00     0.009 A 
ATOM     69  C   UNL A   1      40.599  29.320  28.854  1.00  0.00     0.009 A 
ATOM     70  C   UNL A   1      39.351  26.826  28.748  1.00  0.00     0.001 A 
ATOM     71  C   UNL A   1      40.487  28.643  27.637  1.00  0.00     0.001 A 
ATOM     72  C   UNL A   1      39.871  27.393  27.587  1.00  0.00     0.000 A 
ENDBRANCH  53  67
BRANCH  54  73
ATOM     73  C   UNL A   1      40.816  33.626  38.705  1.00  0.00    -0.014 A 
ATOM     74  C   UNL A   1      40.230  33.134  39.885  1.00  0.00     0.009 A 
ATOM     75  C   UNL A   1      41.413  34.895  38.725  1.00  0.00     0.009 A 
ATOM     76  C   UNL A   1      40.197  33.914  41.041  1.00  0.00     0.001 A 
ATOM     77  C   UNL A   1      41.407  35.660  39.894  1.00  0.00     0.001 A 
ATOM     78  C   UNL A   1      40.786  35.177  41.045  1.00  0.00     0.000 A 
ENDBRANCH  54  73
BRANCH  66  79
ATOM     79  C   UNL A   1      44.754  28.808  35.485  1.00  0.00    -0.014 A 
ATOM     80  C   UNL A   1      44.729  27.646  36.273  1.00  0.00     0.009 A 
ATOM     81  C   UNL A   1      45.994  29.366  35.138  1.00  0.00     0.009 A 
ATOM     82  C   UNL A   1      45.917  27.070  36.726  1.00  0.00     0.001 A 
ATOM     83  C   UNL A   1      47.182  28.769  35.565  1.00  0.00     0.001 A 
ATOM     84  C   UNL A   1      47.143  27.629  36.368  1.00  0.00     0.000 A 
ENDBRANCH  66  79
ENDBRANCH  40  41
ENDBRANCH  32  35
ENDBRANCH  30  31
ENDBRANCH  29  30
ENDBRANCH   1  29
TORSDOF 14
ENDMDL
