MODEL 1
REMARK VINA RESULT:     -10.6      0.000      0.000
REMARK SMILES COc1cnc(F)c(C(=O)NCCCCNC(=O)c2ccc(-c3c4nc(c(-c5ccccc5)c5ccc([nH]5)c(-c5ccccc5)c5nc(c(-c6ccccc6)c6ccc3[nH]6)C=C5)C=C4)cc2)c1
REMARK SMILES IDX 14 1 13 2 12 3 11 4 9 5 10 6 8 8 3 9 4 10 67 11 5 12 6 13
REMARK SMILES IDX 7 14 2 15 1 16 15 17 16 18 17 19 18 21 19 22 20 23 66 24
REMARK SMILES IDX 21 25 65 26 22 27 23 28 24 29 59 30 25 31 64 32 58 33 60 34
REMARK SMILES IDX 26 35 63 36 57 37 56 38 27 40 49 41 34 42 48 43 35 44 38 45
REMARK SMILES IDX 47 46 61 47 36 48 37 49 46 51 62 52 39 53 28 54 29 55 33 56
REMARK SMILES IDX 30 57 32 58 31 59 50 60 51 61 55 62 52 63 54 64 53 65 40 66
REMARK SMILES IDX 41 67 45 68 42 69 44 70 43 71
REMARK H PARENT 11 7 16 20 60 39 38 50
REMARK Flexibility Score: inf
ROOT
ATOM      1  C   UNL A   1      37.124  20.507  24.947  1.00  0.00     0.023 C 
ENDROOT
BRANCH   1   2
ATOM      2  C   UNL A   1      35.918  21.277  25.487  1.00  0.00     0.023 C 
BRANCH   2   3
ATOM      3  C   UNL A   1      34.952  21.790  24.416  1.00  0.00     0.116 C 
BRANCH   3   4
ATOM      4  N   UNL A   1      33.580  21.686  24.874  1.00  0.00    -0.352 N 
ATOM      5  C   UNL A   1      32.654  20.680  24.804  1.00  0.00     0.256 C 
ATOM      6  O   UNL A   1      31.542  20.919  25.284  1.00  0.00    -0.269 OA
ATOM      7  H   UNL A   1      33.251  22.497  25.324  1.00  0.00     0.163 HD
BRANCH   5   8
ATOM      8  C   UNL A   1      32.896  19.323  24.262  1.00  0.00     0.098 A 
ATOM      9  C   UNL A   1      33.608  17.059  24.746  1.00  0.00     0.138 A 
ATOM     10  C   UNL A   1      33.342  16.735  23.429  1.00  0.00     0.160 A 
ATOM     11  C   UNL A   1      33.419  18.375  25.156  1.00  0.00     0.066 A 
ATOM     12  N   UNL A   1      32.819  17.608  22.542  1.00  0.00    -0.224 NA
ATOM     13  C   UNL A   1      32.577  18.866  22.992  1.00  0.00     0.225 A 
ATOM     14  F   UNL A   1      31.927  19.643  22.120  1.00  0.00    -0.184 F 
BRANCH   9  15
ATOM     15  O   UNL A   1      34.061  16.086  25.586  1.00  0.00    -0.495 OA
ATOM     16  C   UNL A   1      35.451  15.828  25.367  1.00  0.00     0.278 C 
ENDBRANCH   9  15
ENDBRANCH   5   8
ENDBRANCH   3   4
ENDBRANCH   2   3
ENDBRANCH   1   2
BRANCH   1  17
ATOM     17  C   UNL A   1      38.462  20.881  25.571  1.00  0.00     0.116 C 
BRANCH  17  18
ATOM     18  N   UNL A   1      39.425  19.792  25.566  1.00  0.00    -0.352 N 
ATOM     19  C   UNL A   1      40.736  19.802  25.979  1.00  0.00     0.251 C 
ATOM     20  H   UNL A   1      39.094  18.932  25.220  1.00  0.00     0.163 HD
ATOM     21  O   UNL A   1      41.444  18.816  25.821  1.00  0.00    -0.269 OA
BRANCH  19  22
ATOM     22  C   UNL A   1      41.301  21.030  26.576  1.00  0.00     0.039 A 
ATOM     23  C   UNL A   1      41.874  21.981  25.729  1.00  0.00     0.014 A 
ATOM     24  C   UNL A   1      41.243  21.252  27.955  1.00  0.00     0.014 A 
ATOM     25  C   UNL A   1      42.330  23.189  26.258  1.00  0.00     0.010 A 
ATOM     26  C   UNL A   1      41.642  22.481  28.472  1.00  0.00     0.010 A 
ATOM     27  C   UNL A   1      42.184  23.461  27.627  1.00  0.00    -0.014 A 
BRANCH  27  28
ATOM     28  C   UNL A   1      42.584  24.771  28.194  1.00  0.00     0.031 A 
ATOM     29  C   UNL A   1      41.559  25.849  28.402  1.00  0.00     0.074 A 
ATOM     30  C   UNL A   1      43.882  25.012  28.460  1.00  0.00     0.049 A 
ATOM     31  N   UNL A   1      41.727  27.075  28.826  1.00  0.00    -0.248 NA
ATOM     32  C   UNL A   1      40.165  25.511  28.069  1.00  0.00     0.031 C 
ATOM     33  C   UNL A   1      44.979  24.060  28.269  1.00  0.00     0.029 A 
ATOM     34  N   UNL A   1      44.499  26.137  28.948  1.00  0.00    -0.354 N 
ATOM     35  C   UNL A   1      40.467  27.659  28.794  1.00  0.00     0.074 A 
ATOM     36  C   UNL A   1      39.553  26.669  28.270  1.00  0.00     0.031 C 
ATOM     37  C   UNL A   1      46.129  24.632  28.663  1.00  0.00     0.029 A 
ATOM     38  C   UNL A   1      45.856  25.997  29.099  1.00  0.00     0.049 A 
ATOM     39  H   UNL A   1      44.014  26.965  29.168  1.00  0.00     0.167 HD
ATOM     40  C   UNL A   1      40.101  28.904  29.182  1.00  0.00     0.031 A 
ATOM     41  C   UNL A   1      46.779  26.872  29.539  1.00  0.00     0.031 A 
ATOM     42  C   UNL A   1      41.005  29.887  29.716  1.00  0.00     0.049 A 
ATOM     43  C   UNL A   1      46.347  28.249  29.957  1.00  0.00     0.074 A 
ATOM     44  C   UNL A   1      40.720  31.158  30.182  1.00  0.00     0.029 A 
ATOM     45  N   UNL A   1      42.372  29.704  29.859  1.00  0.00    -0.354 N 
ATOM     46  N   UNL A   1      45.145  28.770  29.968  1.00  0.00    -0.248 NA
ATOM     47  C   UNL A   1      47.402  29.156  30.433  1.00  0.00     0.031 C 
ATOM     48  C   UNL A   1      41.921  31.759  30.574  1.00  0.00     0.029 A 
ATOM     49  C   UNL A   1      42.946  30.845  30.391  1.00  0.00     0.049 A 
ATOM     50  H   UNL A   1      42.860  28.885  29.616  1.00  0.00     0.167 HD
ATOM     51  C   UNL A   1      45.292  30.053  30.476  1.00  0.00     0.074 A 
ATOM     52  C   UNL A   1      46.700  30.229  30.771  1.00  0.00     0.031 C 
ATOM     53  C   UNL A   1      44.347  31.001  30.680  1.00  0.00     0.031 A 
BRANCH  40  54
ATOM     54  C   UNL A   1      38.652  29.271  29.036  1.00  0.00    -0.014 A 
ATOM     55  C   UNL A   1      37.768  29.176  30.122  1.00  0.00     0.009 A 
ATOM     56  C   UNL A   1      38.171  29.748  27.806  1.00  0.00     0.009 A 
ATOM     57  C   UNL A   1      36.423  29.517  29.971  1.00  0.00     0.001 A 
ATOM     58  C   UNL A   1      36.831  30.112  27.665  1.00  0.00     0.001 A 
ATOM     59  C   UNL A   1      35.957  29.988  28.744  1.00  0.00     0.000 A 
ENDBRANCH  40  54
BRANCH  41  60
ATOM     60  C   UNL A   1      48.203  26.466  29.634  1.00  0.00    -0.014 A 
ATOM     61  C   UNL A   1      48.681  25.833  30.791  1.00  0.00     0.009 A 
ATOM     62  C   UNL A   1      49.091  26.710  28.575  1.00  0.00     0.009 A 
ATOM     63  C   UNL A   1      50.025  25.473  30.897  1.00  0.00     0.001 A 
ATOM     64  C   UNL A   1      50.431  26.327  28.676  1.00  0.00     0.001 A 
ATOM     65  C   UNL A   1      50.899  25.717  29.838  1.00  0.00     0.000 A 
ENDBRANCH  41  60
BRANCH  53  66
ATOM     66  C   UNL A   1      44.799  32.300  31.283  1.00  0.00    -0.014 A 
ATOM     67  C   UNL A   1      45.189  33.379  30.476  1.00  0.00     0.009 A 
ATOM     68  C   UNL A   1      44.796  32.455  32.678  1.00  0.00     0.009 A 
ATOM     69  C   UNL A   1      45.595  34.581  31.057  1.00  0.00     0.001 A 
ATOM     70  C   UNL A   1      45.180  33.666  33.254  1.00  0.00     0.001 A 
ATOM     71  C   UNL A   1      45.587  34.725  32.444  1.00  0.00     0.000 A 
ENDBRANCH  53  66
ENDBRANCH  27  28
ENDBRANCH  19  22
ENDBRANCH  17  18
ENDBRANCH   1  17
TORSDOF 12
ENDMDL
MODEL 2
REMARK VINA RESULT:     -10.5      5.299      9.883
REMARK SMILES COc1cnc(F)c(C(=O)NCCCCNC(=O)c2ccc(-c3c4nc(c(-c5ccccc5)c5ccc([nH]5)c(-c5ccccc5)c5nc(c(-c6ccccc6)c6ccc3[nH]6)C=C5)C=C4)cc2)c1
REMARK SMILES IDX 14 1 13 2 12 3 11 4 9 5 10 6 8 8 3 9 4 10 67 11 5 12 6 13
REMARK SMILES IDX 7 14 2 15 1 16 15 17 16 18 17 19 18 21 19 22 20 23 66 24
REMARK SMILES IDX 21 25 65 26 22 27 23 28 24 29 59 30 25 31 64 32 58 33 60 34
REMARK SMILES IDX 26 35 63 36 57 37 56 38 27 40 49 41 34 42 48 43 35 44 38 45
REMARK SMILES IDX 47 46 61 47 36 48 37 49 46 51 62 52 39 53 28 54 29 55 33 56
REMARK SMILES IDX 30 57 32 58 31 59 50 60 51 61 55 62 52 63 54 64 53 65 40 66
REMARK SMILES IDX 41 67 45 68 42 69 44 70 43 71
REMARK H PARENT 11 7 16 20 60 39 38 50
REMARK Flexibility Score: inf
ROOT
ATOM      1  C   UNL A   1      31.671  30.695  26.114  1.00  0.00     0.023 C 
ENDROOT
BRANCH   1   2
ATOM      2  C   UNL A   1      32.287  29.657  25.174  1.00  0.00     0.023 C 
BRANCH   2   3
ATOM      3  C   UNL A   1      31.610  28.284  25.203  1.00  0.00     0.116 C 
BRANCH   3   4
ATOM      4  N   UNL A   1      31.562  27.711  23.872  1.00  0.00    -0.352 N 
ATOM      5  C   UNL A   1      30.680  27.850  22.835  1.00  0.00     0.256 C 
ATOM      6  O   UNL A   1      30.918  27.196  21.816  1.00  0.00    -0.269 OA
ATOM      7  H   UNL A   1      32.311  27.102  23.676  1.00  0.00     0.163 HD
BRANCH   5   8
ATOM      8  C   UNL A   1      29.513  28.761  22.815  1.00  0.00     0.098 A 
ATOM      9  C   UNL A   1      28.662  30.929  22.149  1.00  0.00     0.138 A 
ATOM     10  C   UNL A   1      27.427  30.554  22.644  1.00  0.00     0.160 A 
ATOM     11  C   UNL A   1      29.724  30.039  22.271  1.00  0.00     0.066 A 
ATOM     12  N   UNL A   1      27.174  29.331  23.154  1.00  0.00    -0.224 NA
ATOM     13  C   UNL A   1      28.213  28.457  23.194  1.00  0.00     0.225 A 
ATOM     14  F   UNL A   1      27.874  27.220  23.570  1.00  0.00    -0.184 F 
BRANCH   9  15
ATOM     15  O   UNL A   1      28.797  32.161  21.580  1.00  0.00    -0.495 OA
ATOM     16  C   UNL A   1      27.967  32.284  20.422  1.00  0.00     0.278 C 
ENDBRANCH   9  15
ENDBRANCH   5   8
ENDBRANCH   3   4
ENDBRANCH   2   3
ENDBRANCH   1   2
BRANCH   1  17
ATOM     17  C   UNL A   1      32.656  31.383  27.051  1.00  0.00     0.116 C 
BRANCH  17  18
ATOM     18  N   UNL A   1      32.291  32.755  27.363  1.00  0.00    -0.352 N 
ATOM     19  C   UNL A   1      32.991  33.686  28.093  1.00  0.00     0.251 C 
ATOM     20  H   UNL A   1      31.426  33.058  27.005  1.00  0.00     0.163 HD
ATOM     21  O   UNL A   1      32.497  34.778  28.344  1.00  0.00    -0.269 OA
BRANCH  19  22
ATOM     22  C   UNL A   1      34.331  33.343  28.613  1.00  0.00     0.039 A 
ATOM     23  C   UNL A   1      34.422  32.702  29.851  1.00  0.00     0.014 A 
ATOM     24  C   UNL A   1      35.484  33.629  27.877  1.00  0.00     0.014 A 
ATOM     25  C   UNL A   1      35.667  32.285  30.321  1.00  0.00     0.010 A 
ATOM     26  C   UNL A   1      36.717  33.158  28.318  1.00  0.00     0.010 A 
ATOM     27  C   UNL A   1      36.819  32.479  29.541  1.00  0.00    -0.014 A 
BRANCH  27  28
ATOM     28  C   UNL A   1      38.138  31.968  29.983  1.00  0.00     0.031 A 
ATOM     29  C   UNL A   1      38.649  30.652  29.471  1.00  0.00     0.074 A 
ATOM     30  C   UNL A   1      38.846  32.658  30.898  1.00  0.00     0.049 A 
ATOM     31  N   UNL A   1      39.746  30.013  29.788  1.00  0.00    -0.248 NA
ATOM     32  C   UNL A   1      37.806  29.951  28.488  1.00  0.00     0.031 C 
ATOM     33  C   UNL A   1      38.442  33.932  31.499  1.00  0.00     0.029 A 
ATOM     34  N   UNL A   1      40.056  32.382  31.483  1.00  0.00    -0.354 N 
ATOM     35  C   UNL A   1      39.717  28.832  29.060  1.00  0.00     0.074 A 
ATOM     36  C   UNL A   1      38.476  28.821  28.317  1.00  0.00     0.031 C 
ATOM     37  C   UNL A   1      39.402  34.339  32.346  1.00  0.00     0.029 A 
ATOM     38  C   UNL A   1      40.467  33.343  32.373  1.00  0.00     0.049 A 
ATOM     39  H   UNL A   1      40.579  31.573  31.283  1.00  0.00     0.167 HD
ATOM     40  C   UNL A   1      40.648  27.849  29.002  1.00  0.00     0.031 A 
ATOM     41  C   UNL A   1      41.579  33.412  33.129  1.00  0.00     0.031 A 
ATOM     42  C   UNL A   1      41.889  27.863  29.729  1.00  0.00     0.049 A 
ATOM     43  C   UNL A   1      42.593  32.307  33.051  1.00  0.00     0.074 A 
ATOM     44  C   UNL A   1      42.917  26.938  29.697  1.00  0.00     0.029 A 
ATOM     45  N   UNL A   1      42.270  28.858  30.615  1.00  0.00    -0.354 N 
ATOM     46  N   UNL A   1      42.574  31.220  32.320  1.00  0.00    -0.248 NA
ATOM     47  C   UNL A   1      43.787  32.445  33.897  1.00  0.00     0.031 C 
ATOM     48  C   UNL A   1      43.907  27.355  30.594  1.00  0.00     0.029 A 
ATOM     49  C   UNL A   1      43.512  28.561  31.149  1.00  0.00     0.049 A 
ATOM     50  H   UNL A   1      41.737  29.655  30.833  1.00  0.00     0.167 HD
ATOM     51  C   UNL A   1      43.762  30.557  32.595  1.00  0.00     0.074 A 
ATOM     52  C   UNL A   1      44.484  31.371  33.553  1.00  0.00     0.031 C 
ATOM     53  C   UNL A   1      44.216  29.382  32.099  1.00  0.00     0.031 A 
BRANCH  40  54
ATOM     54  C   UNL A   1      40.350  26.672  28.119  1.00  0.00    -0.014 A 
ATOM     55  C   UNL A   1      40.851  26.604  26.809  1.00  0.00     0.009 A 
ATOM     56  C   UNL A   1      39.586  25.602  28.612  1.00  0.00     0.009 A 
ATOM     57  C   UNL A   1      40.563  25.504  25.999  1.00  0.00     0.001 A 
ATOM     58  C   UNL A   1      39.321  24.493  27.807  1.00  0.00     0.001 A 
ATOM     59  C   UNL A   1      39.803  24.449  26.499  1.00  0.00     0.000 A 
ENDBRANCH  40  54
BRANCH  41  60
ATOM     60  C   UNL A   1      41.808  34.587  34.008  1.00  0.00    -0.014 A 
ATOM     61  C   UNL A   1      42.430  35.737  33.502  1.00  0.00     0.009 A 
ATOM     62  C   UNL A   1      41.410  34.563  35.354  1.00  0.00     0.009 A 
ATOM     63  C   UNL A   1      42.672  36.834  34.331  1.00  0.00     0.001 A 
ATOM     64  C   UNL A   1      41.634  35.671  36.174  1.00  0.00     0.001 A 
ATOM     65  C   UNL A   1      42.271  36.802  35.665  1.00  0.00     0.000 A 
ENDBRANCH  41  60
BRANCH  53  66
ATOM     66  C   UNL A   1      45.570  28.922  32.556  1.00  0.00    -0.014 A 
ATOM     67  C   UNL A   1      45.715  28.089  33.676  1.00  0.00     0.009 A 
ATOM     68  C   UNL A   1      46.712  29.299  31.833  1.00  0.00     0.009 A 
ATOM     69  C   UNL A   1      46.982  27.665  34.078  1.00  0.00     0.001 A 
ATOM     70  C   UNL A   1      47.974  28.854  32.223  1.00  0.00     0.001 A 
ATOM     71  C   UNL A   1      48.110  28.044  33.350  1.00  0.00     0.000 A 
ENDBRANCH  53  66
ENDBRANCH  27  28
ENDBRANCH  19  22
ENDBRANCH  17  18
ENDBRANCH   1  17
TORSDOF 12
ENDMDL
MODEL 3
REMARK VINA RESULT:     -10.4      4.472      8.767
REMARK SMILES COc1cnc(F)c(C(=O)NCCCCNC(=O)c2ccc(-c3c4nc(c(-c5ccccc5)c5ccc([nH]5)c(-c5ccccc5)c5nc(c(-c6ccccc6)c6ccc3[nH]6)C=C5)C=C4)cc2)c1
REMARK SMILES IDX 14 1 13 2 12 3 11 4 9 5 10 6 8 8 3 9 4 10 67 11 5 12 6 13
REMARK SMILES IDX 7 14 2 15 1 16 15 17 16 18 17 19 18 21 19 22 20 23 66 24
REMARK SMILES IDX 21 25 65 26 22 27 23 28 24 29 59 30 25 31 64 32 58 33 60 34
REMARK SMILES IDX 26 35 63 36 57 37 56 38 27 40 49 41 34 42 48 43 35 44 38 45
REMARK SMILES IDX 47 46 61 47 36 48 37 49 46 51 62 52 39 53 28 54 29 55 33 56
REMARK SMILES IDX 30 57 32 58 31 59 50 60 51 61 55 62 52 63 54 64 53 65 40 66
REMARK SMILES IDX 41 67 45 68 42 69 44 70 43 71
REMARK H PARENT 11 7 16 20 60 39 38 50
REMARK Flexibility Score: inf
ROOT
ATOM      1  C   UNL A   1      32.133  28.252  27.182  1.00  0.00     0.023 C 
ENDROOT
BRANCH   1   2
ATOM      2  C   UNL A   1      31.615  27.832  25.805  1.00  0.00     0.023 C 
BRANCH   2   3
ATOM      3  C   UNL A   1      32.375  28.439  24.623  1.00  0.00     0.116 C 
BRANCH   3   4
ATOM      4  N   UNL A   1      32.111  27.690  23.409  1.00  0.00    -0.352 N 
ATOM      5  C   UNL A   1      31.034  27.645  22.565  1.00  0.00     0.256 C 
ATOM      6  O   UNL A   1      31.116  26.872  21.607  1.00  0.00    -0.269 OA
ATOM      7  H   UNL A   1      32.850  27.098  23.141  1.00  0.00     0.163 HD
BRANCH   5   8
ATOM      8  C   UNL A   1      29.821  28.487  22.672  1.00  0.00     0.098 A 
ATOM      9  C   UNL A   1      28.810  30.634  22.185  1.00  0.00     0.138 A 
ATOM     10  C   UNL A   1      27.634  30.162  22.738  1.00  0.00     0.160 A 
ATOM     11  C   UNL A   1      29.924  29.801  22.188  1.00  0.00     0.066 A 
ATOM     12  N   UNL A   1      27.483  28.901  23.195  1.00  0.00    -0.224 NA
ATOM     13  C   UNL A   1      28.568  28.089  23.117  1.00  0.00     0.225 A 
ATOM     14  F   UNL A   1      28.324  26.816  23.445  1.00  0.00    -0.184 F 
BRANCH   9  15
ATOM     15  O   UNL A   1      28.839  31.899  21.679  1.00  0.00    -0.495 OA
ATOM     16  C   UNL A   1      28.007  32.005  20.520  1.00  0.00     0.278 C 
ENDBRANCH   9  15
ENDBRANCH   5   8
ENDBRANCH   3   4
ENDBRANCH   2   3
ENDBRANCH   1   2
BRANCH   1  17
ATOM     17  C   UNL A   1      33.509  28.905  27.184  1.00  0.00     0.116 C 
BRANCH  17  18
ATOM     18  N   UNL A   1      33.498  30.270  27.686  1.00  0.00    -0.352 N 
ATOM     19  C   UNL A   1      34.500  30.958  28.328  1.00  0.00     0.251 C 
ATOM     20  H   UNL A   1      32.661  30.768  27.548  1.00  0.00     0.163 HD
ATOM     21  O   UNL A   1      34.296  32.080  28.773  1.00  0.00    -0.269 OA
BRANCH  19  22
ATOM     22  C   UNL A   1      35.817  30.314  28.518  1.00  0.00     0.039 A 
ATOM     23  C   UNL A   1      36.733  30.347  27.464  1.00  0.00     0.014 A 
ATOM     24  C   UNL A   1      36.153  29.706  29.730  1.00  0.00     0.014 A 
ATOM     25  C   UNL A   1      38.015  29.829  27.649  1.00  0.00     0.010 A 
ATOM     26  C   UNL A   1      37.450  29.246  29.933  1.00  0.00     0.010 A 
ATOM     27  C   UNL A   1      38.393  29.307  28.897  1.00  0.00    -0.014 A 
BRANCH  27  28
ATOM     28  C   UNL A   1      39.775  28.830  29.140  1.00  0.00     0.031 A 
ATOM     29  C   UNL A   1      40.789  29.740  29.773  1.00  0.00     0.074 A 
ATOM     30  C   UNL A   1      40.135  27.598  28.730  1.00  0.00     0.049 A 
ATOM     31  N   UNL A   1      42.058  29.524  30.008  1.00  0.00    -0.248 NA
ATOM     32  C   UNL A   1      40.320  31.076  30.175  1.00  0.00     0.031 C 
ATOM     33  C   UNL A   1      39.254  26.631  28.071  1.00  0.00     0.029 A 
ATOM     34  N   UNL A   1      41.342  26.950  28.806  1.00  0.00    -0.354 N 
ATOM     35  C   UNL A   1      42.541  30.699  30.567  1.00  0.00     0.074 A 
ATOM     36  C   UNL A   1      41.442  31.639  30.598  1.00  0.00     0.031 C 
ATOM     37  C   UNL A   1      39.943  25.504  27.830  1.00  0.00     0.029 A 
ATOM     38  C   UNL A   1      41.318  25.681  28.284  1.00  0.00     0.049 A 
ATOM     39  H   UNL A   1      42.149  27.357  29.198  1.00  0.00     0.167 HD
ATOM     40  C   UNL A   1      43.786  30.968  31.029  1.00  0.00     0.031 A 
ATOM     41  C   UNL A   1      42.296  24.762  28.181  1.00  0.00     0.031 A 
ATOM     42  C   UNL A   1      44.877  30.031  31.013  1.00  0.00     0.049 A 
ATOM     43  C   UNL A   1      43.669  25.086  28.695  1.00  0.00     0.074 A 
ATOM     44  C   UNL A   1      46.161  30.194  31.503  1.00  0.00     0.029 A 
ATOM     45  N   UNL A   1      44.810  28.753  30.480  1.00  0.00    -0.354 N 
ATOM     46  N   UNL A   1      44.098  26.185  29.267  1.00  0.00    -0.248 NA
ATOM     47  C   UNL A   1      44.691  24.039  28.558  1.00  0.00     0.031 C 
ATOM     48  C   UNL A   1      46.882  29.026  31.234  1.00  0.00     0.029 A 
ATOM     49  C   UNL A   1      46.034  28.122  30.616  1.00  0.00     0.049 A 
ATOM     50  H   UNL A   1      44.011  28.355  30.067  1.00  0.00     0.167 HD
ATOM     51  C   UNL A   1      45.430  25.953  29.583  1.00  0.00     0.074 A 
ATOM     52  C   UNL A   1      45.735  24.605  29.148  1.00  0.00     0.031 C 
ATOM     53  C   UNL A   1      46.319  26.780  30.179  1.00  0.00     0.031 A 
BRANCH  40  54
ATOM     54  C   UNL A   1      44.030  32.339  31.591  1.00  0.00    -0.014 A 
ATOM     55  C   UNL A   1      44.408  33.405  30.759  1.00  0.00     0.009 A 
ATOM     56  C   UNL A   1      43.850  32.576  32.963  1.00  0.00     0.009 A 
ATOM     57  C   UNL A   1      44.634  34.674  31.296  1.00  0.00     0.001 A 
ATOM     58  C   UNL A   1      44.053  33.851  33.492  1.00  0.00     0.001 A 
ATOM     59  C   UNL A   1      44.453  34.897  32.660  1.00  0.00     0.000 A 
ENDBRANCH  40  54
BRANCH  41  60
ATOM     60  C   UNL A   1      42.007  23.432  27.588  1.00  0.00    -0.014 A 
ATOM     61  C   UNL A   1      41.392  22.434  28.359  1.00  0.00     0.009 A 
ATOM     62  C   UNL A   1      42.345  23.151  26.255  1.00  0.00     0.009 A 
ATOM     63  C   UNL A   1      41.141  21.173  27.815  1.00  0.00     0.001 A 
ATOM     64  C   UNL A   1      42.072  21.896  25.708  1.00  0.00     0.001 A 
ATOM     65  C   UNL A   1      41.478  20.906  26.489  1.00  0.00     0.000 A 
ENDBRANCH  41  60
BRANCH  53  66
ATOM     66  C   UNL A   1      47.697  26.240  30.429  1.00  0.00    -0.014 A 
ATOM     67  C   UNL A   1      48.677  26.254  29.425  1.00  0.00     0.009 A 
ATOM     68  C   UNL A   1      48.029  25.744  31.700  1.00  0.00     0.009 A 
ATOM     69  C   UNL A   1      49.955  25.756  29.681  1.00  0.00     0.001 A 
ATOM     70  C   UNL A   1      49.314  25.270  31.959  1.00  0.00     0.001 A 
ATOM     71  C   UNL A   1      50.274  25.268  30.948  1.00  0.00     0.000 A 
ENDBRANCH  53  66
ENDBRANCH  27  28
ENDBRANCH  19  22
ENDBRANCH  17  18
ENDBRANCH   1  17
TORSDOF 12
ENDMDL
