MODEL 1
REMARK VINA RESULT:     -11.7      0.000      0.000
REMARK SMILES Cc1nc2nc(CNC(=O)OC(C)(C)C)nn2c(C)c1CCC(=O)NCCCCNC(=O)c1ccc(-c2c3nc(c(-c4ccccc4)c4ccc([nH]4)c(-c4ccccc4)c4nc(c(-c5ccccc5)c5ccc2[nH]5)C=C4)C=C3)cc1
REMARK SMILES IDX 23 1 24 2 25 3 22 5 21 6 20 7 1 8 2 9 3 10 4 11 18 12 5 13
REMARK SMILES IDX 17 14 19 15 6 16 16 17 7 18 8 19 9 20 10 22 11 23 12 24
REMARK SMILES IDX 13 25 14 26 15 27 26 28 27 29 28 30 29 31 30 32 31 33 32 35
REMARK SMILES IDX 33 36 34 37 80 38 35 39 79 40 36 41 37 42 38 43 73 44 39 45
REMARK SMILES IDX 78 46 72 47 74 48 40 49 77 50 71 51 70 52 41 54 63 55 48 56
REMARK SMILES IDX 62 57 49 58 52 59 61 60 75 61 50 62 51 63 60 65 76 66 53 67
REMARK SMILES IDX 42 68 43 69 47 70 44 71 46 72 45 73 64 74 65 75 69 76 66 77
REMARK SMILES IDX 68 78 67 79 54 80 55 81 59 82 56 83 58 84 57 85
REMARK H PARENT 25 4 8 21 30 34 74 53 52 64
REMARK Flexibility Score: inf
ROOT
ATOM      1  C   UNL A   1      31.603  28.928  23.212  1.00  0.00     0.220 C 
ATOM      2  O   UNL A   1      30.819  29.302  22.339  1.00  0.00    -0.275 OA
ATOM      3  N   UNL A   1      31.727  29.689  24.344  1.00  0.00    -0.356 N 
ATOM      4  H   UNL A   1      31.024  30.364  24.488  1.00  0.00     0.163 HD
ENDROOT
BRANCH   1   5
ATOM      5  C   UNL A   1      32.402  27.635  23.051  1.00  0.00     0.105 C 
BRANCH   5   6
ATOM      6  C   UNL A   1      31.674  26.536  22.236  1.00  0.00     0.049 C 
BRANCH   6   7
ATOM      7  C   UNL A   1      31.416  25.244  23.000  1.00  0.00    -0.005 A 
ATOM      8  C   UNL A   1      29.383  26.318  24.276  1.00  0.00     0.067 C 
ATOM      9  C   UNL A   1      30.445  25.239  24.173  1.00  0.00     0.046 A 
ATOM     10  N   UNL A   1      30.400  24.325  25.098  1.00  0.00    -0.216 NA
ATOM     11  C   UNL A   1      31.263  23.281  24.987  1.00  0.00     0.252 A 
ATOM     12  C   UNL A   1      32.079  24.067  22.817  1.00  0.00     0.048 A 
ATOM     13  N   UNL A   1      31.632  22.411  25.903  1.00  0.00    -0.192 NA
ATOM     14  N   UNL A   1      32.013  23.073  23.826  1.00  0.00    -0.201 N 
ATOM     15  C   UNL A   1      33.084  23.843  21.720  1.00  0.00     0.067 C 
ATOM     16  C   UNL A   1      32.525  21.589  25.262  1.00  0.00     0.172 A 
ATOM     17  N   UNL A   1      32.765  21.936  23.985  1.00  0.00    -0.148 NA
BRANCH  16  18
ATOM     18  C   UNL A   1      33.281  20.497  26.006  1.00  0.00     0.199 C 
BRANCH  18  19
ATOM     19  N   UNL A   1      34.540  20.223  25.337  1.00  0.00    -0.314 N 
ATOM     20  C   UNL A   1      35.748  20.826  25.356  1.00  0.00     0.408 C 
ATOM     21  H   UNL A   1      34.505  19.436  24.747  1.00  0.00     0.167 HD
ATOM     22  O   UNL A   1      36.699  20.304  24.791  1.00  0.00    -0.225 OA
BRANCH  20  23
ATOM     23  O   UNL A   1      35.796  22.005  26.009  1.00  0.00    -0.444 OA
BRANCH  23  24
ATOM     24  C   UNL A   1      36.113  23.188  25.220  1.00  0.00     0.106 C 
ATOM     25  C   UNL A   1      37.483  23.786  25.582  1.00  0.00     0.056 C 
ATOM     26  C   UNL A   1      36.018  22.907  23.708  1.00  0.00     0.056 C 
ATOM     27  C   UNL A   1      35.024  24.199  25.593  1.00  0.00     0.056 C 
ENDBRANCH  23  24
ENDBRANCH  20  23
ENDBRANCH  18  19
ENDBRANCH  16  18
ENDBRANCH   6   7
ENDBRANCH   5   6
ENDBRANCH   1   5
BRANCH   3  28
ATOM     28  C   UNL A   1      32.765  29.624  25.360  1.00  0.00     0.116 C 
BRANCH  28  29
ATOM     29  C   UNL A   1      32.226  30.191  26.660  1.00  0.00     0.023 C 
BRANCH  29  30
ATOM     30  C   UNL A   1      31.855  31.667  26.706  1.00  0.00     0.023 C 
BRANCH  30  31
ATOM     31  C   UNL A   1      32.786  32.521  27.543  1.00  0.00     0.116 C 
BRANCH  31  32
ATOM     32  N   UNL A   1      32.350  33.921  27.716  1.00  0.00    -0.352 N 
ATOM     33  C   UNL A   1      32.859  34.859  28.615  1.00  0.00     0.251 C 
ATOM     34  H   UNL A   1      31.619  34.227  27.132  1.00  0.00     0.163 HD
ATOM     35  O   UNL A   1      32.351  35.943  28.810  1.00  0.00    -0.269 OA
BRANCH  33  36
ATOM     36  C   UNL A   1      34.158  34.502  29.184  1.00  0.00     0.039 A 
ATOM     37  C   UNL A   1      34.311  33.783  30.373  1.00  0.00     0.014 A 
ATOM     38  C   UNL A   1      35.155  34.593  28.226  1.00  0.00     0.014 A 
ATOM     39  C   UNL A   1      35.506  33.096  30.576  1.00  0.00     0.010 A 
ATOM     40  C   UNL A   1      36.180  33.702  28.323  1.00  0.00     0.010 A 
ATOM     41  C   UNL A   1      36.437  33.055  29.534  1.00  0.00    -0.014 A 
BRANCH  41  42
ATOM     42  C   UNL A   1      37.730  32.395  29.641  1.00  0.00     0.031 A 
ATOM     43  C   UNL A   1      37.843  30.959  29.290  1.00  0.00     0.074 A 
ATOM     44  C   UNL A   1      38.831  33.133  29.905  1.00  0.00     0.049 A 
ATOM     45  N   UNL A   1      38.110  29.992  30.104  1.00  0.00    -0.248 NA
ATOM     46  C   UNL A   1      37.611  30.522  27.906  1.00  0.00     0.031 C 
ATOM     47  C   UNL A   1      38.940  34.597  30.080  1.00  0.00     0.029 A 
ATOM     48  N   UNL A   1      40.127  32.740  29.944  1.00  0.00    -0.354 N 
ATOM     49  C   UNL A   1      38.270  28.850  29.327  1.00  0.00     0.074 A 
ATOM     50  C   UNL A   1      37.819  29.204  28.002  1.00  0.00     0.031 C 
ATOM     51  C   UNL A   1      40.217  34.984  29.912  1.00  0.00     0.029 A 
ATOM     52  C   UNL A   1      41.028  33.790  29.899  1.00  0.00     0.049 A 
ATOM     53  H   UNL A   1      40.401  31.797  29.999  1.00  0.00     0.167 HD
ATOM     54  C   UNL A   1      38.968  27.773  29.788  1.00  0.00     0.031 A 
ATOM     55  C   UNL A   1      42.373  33.721  29.930  1.00  0.00     0.031 A 
ATOM     56  C   UNL A   1      39.210  27.864  31.206  1.00  0.00     0.049 A 
ATOM     57  C   UNL A   1      42.708  32.449  30.600  1.00  0.00     0.074 A 
ATOM     58  C   UNL A   1      38.413  27.924  32.331  1.00  0.00     0.029 A 
ATOM     59  N   UNL A   1      40.452  28.311  31.595  1.00  0.00    -0.354 N 
ATOM     60  N   UNL A   1      42.411  32.207  31.848  1.00  0.00    -0.248 NA
ATOM     61  C   UNL A   1      42.966  31.276  29.785  1.00  0.00     0.031 C 
ATOM     62  C   UNL A   1      39.077  28.840  33.201  1.00  0.00     0.029 A 
ATOM     63  C   UNL A   1      40.270  29.237  32.589  1.00  0.00     0.049 A 
ATOM     64  H   UNL A   1      41.315  28.018  31.226  1.00  0.00     0.167 HD
ATOM     65  C   UNL A   1      42.017  30.876  31.868  1.00  0.00     0.074 A 
ATOM     66  C   UNL A   1      42.515  30.324  30.609  1.00  0.00     0.031 C 
ATOM     67  C   UNL A   1      41.089  30.423  32.764  1.00  0.00     0.031 A 
BRANCH  54  68
ATOM     68  C   UNL A   1      39.760  26.827  28.920  1.00  0.00    -0.014 A 
ATOM     69  C   UNL A   1      40.772  27.348  28.091  1.00  0.00     0.009 A 
ATOM     70  C   UNL A   1      39.373  25.496  28.682  1.00  0.00     0.009 A 
ATOM     71  C   UNL A   1      41.323  26.595  27.044  1.00  0.00     0.001 A 
ATOM     72  C   UNL A   1      39.949  24.728  27.664  1.00  0.00     0.001 A 
ATOM     73  C   UNL A   1      40.905  25.286  26.828  1.00  0.00     0.000 A 
ENDBRANCH  54  68
BRANCH  55  74
ATOM     74  C   UNL A   1      43.322  34.635  29.279  1.00  0.00    -0.014 A 
ATOM     75  C   UNL A   1      43.505  34.626  27.894  1.00  0.00     0.009 A 
ATOM     76  C   UNL A   1      43.896  35.690  30.018  1.00  0.00     0.009 A 
ATOM     77  C   UNL A   1      44.201  35.662  27.262  1.00  0.00     0.001 A 
ATOM     78  C   UNL A   1      44.593  36.725  29.389  1.00  0.00     0.001 A 
ATOM     79  C   UNL A   1      44.728  36.718  28.006  1.00  0.00     0.000 A 
ENDBRANCH  55  74
BRANCH  67  80
ATOM     80  C   UNL A   1      40.672  31.347  33.888  1.00  0.00    -0.014 A 
ATOM     81  C   UNL A   1      39.650  32.303  33.742  1.00  0.00     0.009 A 
ATOM     82  C   UNL A   1      41.180  31.117  35.174  1.00  0.00     0.009 A 
ATOM     83  C   UNL A   1      39.160  33.010  34.846  1.00  0.00     0.001 A 
ATOM     84  C   UNL A   1      40.679  31.811  36.280  1.00  0.00     0.001 A 
ATOM     85  C   UNL A   1      39.670  32.757  36.116  1.00  0.00     0.000 A 
ENDBRANCH  67  80
ENDBRANCH  41  42
ENDBRANCH  33  36
ENDBRANCH  31  32
ENDBRANCH  30  31
ENDBRANCH  29  30
ENDBRANCH  28  29
ENDBRANCH   3  28
TORSDOF 17
ENDMDL
MODEL 2
REMARK VINA RESULT:     -11.5      2.656      6.316
REMARK SMILES Cc1nc2nc(CNC(=O)OC(C)(C)C)nn2c(C)c1CCC(=O)NCCCCNC(=O)c1ccc(-c2c3nc(c(-c4ccccc4)c4ccc([nH]4)c(-c4ccccc4)c4nc(c(-c5ccccc5)c5ccc2[nH]5)C=C4)C=C3)cc1
REMARK SMILES IDX 23 1 24 2 25 3 22 5 21 6 20 7 1 8 2 9 3 10 4 11 18 12 5 13
REMARK SMILES IDX 17 14 19 15 6 16 16 17 7 18 8 19 9 20 10 22 11 23 12 24
REMARK SMILES IDX 13 25 14 26 15 27 26 28 27 29 28 30 29 31 30 32 31 33 32 35
REMARK SMILES IDX 33 36 34 37 80 38 35 39 79 40 36 41 37 42 38 43 73 44 39 45
REMARK SMILES IDX 78 46 72 47 74 48 40 49 77 50 71 51 70 52 41 54 63 55 48 56
REMARK SMILES IDX 62 57 49 58 52 59 61 60 75 61 50 62 51 63 60 65 76 66 53 67
REMARK SMILES IDX 42 68 43 69 47 70 44 71 46 72 45 73 64 74 65 75 69 76 66 77
REMARK SMILES IDX 68 78 67 79 54 80 55 81 59 82 56 83 58 84 57 85
REMARK H PARENT 25 4 8 21 30 34 74 53 52 64
REMARK Flexibility Score: inf
ROOT
ATOM      1  C   UNL A   1      32.084  28.467  23.253  1.00  0.00     0.220 C 
ATOM      2  O   UNL A   1      31.663  29.367  22.526  1.00  0.00    -0.275 OA
ATOM      3  N   UNL A   1      31.900  28.584  24.605  1.00  0.00    -0.356 N 
ATOM      4  H   UNL A   1      31.252  29.266  24.894  1.00  0.00     0.163 HD
ENDROOT
BRANCH   1   5
ATOM      5  C   UNL A   1      32.774  27.237  22.663  1.00  0.00     0.105 C 
BRANCH   5   6
ATOM      6  C   UNL A   1      31.806  26.212  22.023  1.00  0.00     0.049 C 
BRANCH   6   7
ATOM      7  C   UNL A   1      31.611  24.932  22.825  1.00  0.00    -0.005 A 
ATOM      8  C   UNL A   1      29.556  25.960  24.105  1.00  0.00     0.067 C 
ATOM      9  C   UNL A   1      30.660  24.921  24.014  1.00  0.00     0.046 A 
ATOM     10  N   UNL A   1      30.666  24.033  24.964  1.00  0.00    -0.216 NA
ATOM     11  C   UNL A   1      31.568  23.022  24.868  1.00  0.00     0.252 A 
ATOM     12  C   UNL A   1      32.319  23.779  22.664  1.00  0.00     0.048 A 
ATOM     13  N   UNL A   1      31.986  22.193  25.801  1.00  0.00    -0.192 NA
ATOM     14  N   UNL A   1      32.308  22.811  23.701  1.00  0.00    -0.201 N 
ATOM     15  C   UNL A   1      33.315  23.564  21.557  1.00  0.00     0.067 C 
ATOM     16  C   UNL A   1      32.902  21.390  25.169  1.00  0.00     0.172 A 
ATOM     17  N   UNL A   1      33.108  21.710  23.879  1.00  0.00    -0.148 NA
BRANCH  16  18
ATOM     18  C   UNL A   1      33.713  20.350  25.929  1.00  0.00     0.199 C 
BRANCH  18  19
ATOM     19  N   UNL A   1      35.001  20.161  25.288  1.00  0.00    -0.314 N 
ATOM     20  C   UNL A   1      36.174  20.825  25.354  1.00  0.00     0.408 C 
ATOM     21  H   UNL A   1      35.023  19.388  24.678  1.00  0.00     0.167 HD
ATOM     22  O   UNL A   1      37.166  20.370  24.802  1.00  0.00    -0.225 OA
BRANCH  20  23
ATOM     23  O   UNL A   1      36.142  21.988  26.038  1.00  0.00    -0.444 OA
BRANCH  23  24
ATOM     24  C   UNL A   1      36.323  23.213  25.270  1.00  0.00     0.106 C 
ATOM     25  C   UNL A   1      36.475  22.946  23.763  1.00  0.00     0.056 C 
ATOM     26  C   UNL A   1      35.193  24.226  25.538  1.00  0.00     0.056 C 
ATOM     27  C   UNL A   1      37.636  23.802  25.797  1.00  0.00     0.056 C 
ENDBRANCH  23  24
ENDBRANCH  20  23
ENDBRANCH  18  19
ENDBRANCH  16  18
ENDBRANCH   6   7
ENDBRANCH   5   6
ENDBRANCH   1   5
BRANCH   3  28
ATOM     28  C   UNL A   1      32.541  27.825  25.667  1.00  0.00     0.116 C 
BRANCH  28  29
ATOM     29  C   UNL A   1      33.661  28.654  26.266  1.00  0.00     0.023 C 
BRANCH  29  30
ATOM     30  C   UNL A   1      33.293  29.895  27.068  1.00  0.00     0.023 C 
BRANCH  30  31
ATOM     31  C   UNL A   1      34.444  30.854  27.302  1.00  0.00     0.116 C 
BRANCH  31  32
ATOM     32  N   UNL A   1      34.339  31.653  28.539  1.00  0.00    -0.352 N 
ATOM     33  C   UNL A   1      35.193  31.619  29.642  1.00  0.00     0.251 C 
ATOM     34  H   UNL A   1      33.581  32.280  28.592  1.00  0.00     0.163 HD
ATOM     35  O   UNL A   1      34.960  32.190  30.686  1.00  0.00    -0.269 OA
BRANCH  33  36
ATOM     36  C   UNL A   1      36.482  30.978  29.382  1.00  0.00     0.039 A 
ATOM     37  C   UNL A   1      37.696  31.670  29.338  1.00  0.00     0.014 A 
ATOM     38  C   UNL A   1      36.402  29.611  29.595  1.00  0.00     0.014 A 
ATOM     39  C   UNL A   1      38.869  30.954  29.562  1.00  0.00     0.010 A 
ATOM     40  C   UNL A   1      37.519  29.002  30.079  1.00  0.00     0.010 A 
ATOM     41  C   UNL A   1      38.769  29.612  29.943  1.00  0.00    -0.014 A 
BRANCH  41  42
ATOM     42  C   UNL A   1      39.923  28.757  30.173  1.00  0.00     0.031 A 
ATOM     43  C   UNL A   1      40.467  28.626  31.547  1.00  0.00     0.074 A 
ATOM     44  C   UNL A   1      40.382  27.977  29.169  1.00  0.00     0.049 A 
ATOM     45  N   UNL A   1      41.620  29.042  31.955  1.00  0.00    -0.248 NA
ATOM     46  C   UNL A   1      39.655  28.002  32.600  1.00  0.00     0.031 C 
ATOM     47  C   UNL A   1      39.843  27.822  27.801  1.00  0.00     0.029 A 
ATOM     48  N   UNL A   1      41.364  27.044  29.200  1.00  0.00    -0.354 N 
ATOM     49  C   UNL A   1      41.774  28.576  33.256  1.00  0.00     0.074 A 
ATOM     50  C   UNL A   1      40.484  28.061  33.648  1.00  0.00     0.031 C 
ATOM     51  C   UNL A   1      40.300  26.681  27.256  1.00  0.00     0.029 A 
ATOM     52  C   UNL A   1      41.354  26.190  28.111  1.00  0.00     0.049 A 
ATOM     53  H   UNL A   1      42.023  26.981  29.928  1.00  0.00     0.167 HD
ATOM     54  C   UNL A   1      43.009  28.452  33.821  1.00  0.00     0.031 A 
ATOM     55  C   UNL A   1      42.202  25.175  27.854  1.00  0.00     0.031 A 
ATOM     56  C   UNL A   1      44.018  29.132  33.048  1.00  0.00     0.049 A 
ATOM     57  C   UNL A   1      43.452  25.486  28.575  1.00  0.00     0.074 A 
ATOM     58  C   UNL A   1      44.240  30.439  32.668  1.00  0.00     0.029 A 
ATOM     59  N   UNL A   1      44.782  28.356  32.208  1.00  0.00    -0.354 N 
ATOM     60  N   UNL A   1      44.196  26.519  28.288  1.00  0.00    -0.248 NA
ATOM     61  C   UNL A   1      43.654  24.924  29.898  1.00  0.00     0.031 C 
ATOM     62  C   UNL A   1      44.743  30.352  31.336  1.00  0.00     0.029 A 
ATOM     63  C   UNL A   1      44.860  29.000  31.000  1.00  0.00     0.049 A 
ATOM     64  H   UNL A   1      45.198  27.494  32.433  1.00  0.00     0.167 HD
ATOM     65  C   UNL A   1      44.627  26.999  29.517  1.00  0.00     0.074 A 
ATOM     66  C   UNL A   1      44.383  25.900  30.449  1.00  0.00     0.031 C 
ATOM     67  C   UNL A   1      44.876  28.329  29.713  1.00  0.00     0.031 A 
BRANCH  54  68
ATOM     68  C   UNL A   1      43.381  27.415  34.852  1.00  0.00    -0.014 A 
ATOM     69  C   UNL A   1      43.454  26.063  34.464  1.00  0.00     0.009 A 
ATOM     70  C   UNL A   1      43.397  27.676  36.234  1.00  0.00     0.009 A 
ATOM     71  C   UNL A   1      43.480  25.029  35.410  1.00  0.00     0.001 A 
ATOM     72  C   UNL A   1      43.463  26.648  37.181  1.00  0.00     0.001 A 
ATOM     73  C   UNL A   1      43.478  25.323  36.770  1.00  0.00     0.000 A 
ENDBRANCH  54  68
BRANCH  55  74
ATOM     74  C   UNL A   1      41.897  23.924  27.145  1.00  0.00    -0.014 A 
ATOM     75  C   UNL A   1      42.680  23.490  26.072  1.00  0.00     0.009 A 
ATOM     76  C   UNL A   1      40.947  23.030  27.680  1.00  0.00     0.009 A 
ATOM     77  C   UNL A   1      42.548  22.187  25.579  1.00  0.00     0.001 A 
ATOM     78  C   UNL A   1      40.814  21.729  27.187  1.00  0.00     0.001 A 
ATOM     79  C   UNL A   1      41.630  21.303  26.146  1.00  0.00     0.000 A 
ENDBRANCH  55  74
BRANCH  67  80
ATOM     80  C   UNL A   1      44.899  29.237  28.502  1.00  0.00    -0.014 A 
ATOM     81  C   UNL A   1      43.737  29.835  27.982  1.00  0.00     0.009 A 
ATOM     82  C   UNL A   1      46.138  29.654  27.996  1.00  0.00     0.009 A 
ATOM     83  C   UNL A   1      43.814  30.812  26.983  1.00  0.00     0.001 A 
ATOM     84  C   UNL A   1      46.217  30.643  27.010  1.00  0.00     0.001 A 
ATOM     85  C   UNL A   1      45.054  31.221  26.503  1.00  0.00     0.000 A 
ENDBRANCH  67  80
ENDBRANCH  41  42
ENDBRANCH  33  36
ENDBRANCH  31  32
ENDBRANCH  30  31
ENDBRANCH  29  30
ENDBRANCH  28  29
ENDBRANCH   3  28
TORSDOF 17
ENDMDL
MODEL 3
REMARK VINA RESULT:     -11.5      4.500     10.003
REMARK SMILES Cc1nc2nc(CNC(=O)OC(C)(C)C)nn2c(C)c1CCC(=O)NCCCCNC(=O)c1ccc(-c2c3nc(c(-c4ccccc4)c4ccc([nH]4)c(-c4ccccc4)c4nc(c(-c5ccccc5)c5ccc2[nH]5)C=C4)C=C3)cc1
REMARK SMILES IDX 23 1 24 2 25 3 22 5 21 6 20 7 1 8 2 9 3 10 4 11 18 12 5 13
REMARK SMILES IDX 17 14 19 15 6 16 16 17 7 18 8 19 9 20 10 22 11 23 12 24
REMARK SMILES IDX 13 25 14 26 15 27 26 28 27 29 28 30 29 31 30 32 31 33 32 35
REMARK SMILES IDX 33 36 34 37 80 38 35 39 79 40 36 41 37 42 38 43 73 44 39 45
REMARK SMILES IDX 78 46 72 47 74 48 40 49 77 50 71 51 70 52 41 54 63 55 48 56
REMARK SMILES IDX 62 57 49 58 52 59 61 60 75 61 50 62 51 63 60 65 76 66 53 67
REMARK SMILES IDX 42 68 43 69 47 70 44 71 46 72 45 73 64 74 65 75 69 76 66 77
REMARK SMILES IDX 68 78 67 79 54 80 55 81 59 82 56 83 58 84 57 85
REMARK H PARENT 25 4 8 21 30 34 74 53 52 64
REMARK Flexibility Score: inf
ROOT
ATOM      1  C   UNL A   1      38.214  20.371  25.263  1.00  0.00     0.220 C 
ATOM      2  O   UNL A   1      37.634  19.356  24.878  1.00  0.00    -0.275 OA
ATOM      3  N   UNL A   1      39.488  20.247  25.751  1.00  0.00    -0.356 N 
ATOM      4  H   UNL A   1      39.941  19.394  25.559  1.00  0.00     0.163 HD
ENDROOT
BRANCH   1   5
ATOM      5  C   UNL A   1      37.542  21.742  25.178  1.00  0.00     0.105 C 
BRANCH   5   6
ATOM      6  C   UNL A   1      36.291  21.780  24.266  1.00  0.00     0.049 C 
BRANCH   6   7
ATOM      7  C   UNL A   1      34.969  21.948  25.005  1.00  0.00    -0.005 A 
ATOM      8  C   UNL A   1      34.384  19.404  24.687  1.00  0.00     0.067 C 
ATOM      9  C   UNL A   1      33.941  20.825  24.981  1.00  0.00     0.046 A 
ATOM     10  N   UNL A   1      32.678  20.966  25.260  1.00  0.00    -0.216 NA
ATOM     11  C   UNL A   1      32.255  22.203  25.632  1.00  0.00     0.252 A 
ATOM     12  C   UNL A   1      34.537  23.090  25.609  1.00  0.00     0.048 A 
ATOM     13  N   UNL A   1      31.030  22.682  25.671  1.00  0.00    -0.192 NA
ATOM     14  N   UNL A   1      33.160  23.228  25.921  1.00  0.00    -0.201 N 
ATOM     15  C   UNL A   1      35.383  24.326  25.750  1.00  0.00     0.067 C 
ATOM     16  C   UNL A   1      31.176  23.977  26.103  1.00  0.00     0.172 A 
ATOM     17  N   UNL A   1      32.455  24.344  26.297  1.00  0.00    -0.148 NA
BRANCH  16  18
ATOM     18  C   UNL A   1      29.993  24.931  26.183  1.00  0.00     0.199 C 
BRANCH  18  19
ATOM     19  N   UNL A   1      29.812  25.602  24.909  1.00  0.00    -0.314 N 
ATOM     20  C   UNL A   1      30.293  26.754  24.394  1.00  0.00     0.408 C 
ATOM     21  H   UNL A   1      29.213  25.119  24.295  1.00  0.00     0.167 HD
ATOM     22  O   UNL A   1      30.086  27.031  23.220  1.00  0.00    -0.225 OA
BRANCH  20  23
ATOM     23  O   UNL A   1      30.972  27.535  25.258  1.00  0.00    -0.444 OA
BRANCH  23  24
ATOM     24  C   UNL A   1      32.362  27.830  24.933  1.00  0.00     0.106 C 
ATOM     25  C   UNL A   1      32.996  26.756  24.032  1.00  0.00     0.056 C 
ATOM     26  C   UNL A   1      32.516  29.231  24.309  1.00  0.00     0.056 C 
ATOM     27  C   UNL A   1      33.081  27.821  26.286  1.00  0.00     0.056 C 
ENDBRANCH  23  24
ENDBRANCH  20  23
ENDBRANCH  18  19
ENDBRANCH  16  18
ENDBRANCH   6   7
ENDBRANCH   5   6
ENDBRANCH   1   5
BRANCH   3  28
ATOM     28  C   UNL A   1      40.255  21.218  26.515  1.00  0.00     0.116 C 
BRANCH  28  29
ATOM     29  C   UNL A   1      41.183  20.484  27.464  1.00  0.00     0.023 C 
BRANCH  29  30
ATOM     30  C   UNL A   1      42.295  19.630  26.872  1.00  0.00     0.023 C 
BRANCH  30  31
ATOM     31  C   UNL A   1      42.569  19.889  25.403  1.00  0.00     0.116 C 
BRANCH  31  32
ATOM     32  N   UNL A   1      43.732  19.161  24.855  1.00  0.00    -0.352 N 
ATOM     33  C   UNL A   1      44.867  19.711  24.259  1.00  0.00     0.251 C 
ATOM     34  H   UNL A   1      43.701  18.179  24.917  1.00  0.00     0.163 HD
ATOM     35  O   UNL A   1      45.711  19.048  23.693  1.00  0.00    -0.269 OA
BRANCH  33  36
ATOM     36  C   UNL A   1      45.050  21.137  24.519  1.00  0.00     0.039 A 
ATOM     37  C   UNL A   1      44.312  22.141  23.885  1.00  0.00     0.014 A 
ATOM     38  C   UNL A   1      45.717  21.337  25.718  1.00  0.00     0.014 A 
ATOM     39  C   UNL A   1      44.211  23.379  24.514  1.00  0.00     0.010 A 
ATOM     40  C   UNL A   1      45.374  22.445  26.430  1.00  0.00     0.010 A 
ATOM     41  C   UNL A   1      44.743  23.520  25.800  1.00  0.00    -0.014 A 
BRANCH  41  42
ATOM     42  C   UNL A   1      44.724  24.772  26.542  1.00  0.00     0.031 A 
ATOM     43  C   UNL A   1      45.821  25.750  26.341  1.00  0.00     0.074 A 
ATOM     44  C   UNL A   1      43.635  25.092  27.276  1.00  0.00     0.049 A 
ATOM     45  N   UNL A   1      46.703  26.098  27.219  1.00  0.00    -0.248 NA
ATOM     46  C   UNL A   1      45.997  26.398  25.035  1.00  0.00     0.031 C 
ATOM     47  C   UNL A   1      42.372  24.340  27.427  1.00  0.00     0.029 A 
ATOM     48  N   UNL A   1      43.372  26.238  27.948  1.00  0.00    -0.354 N 
ATOM     49  C   UNL A   1      47.432  27.141  26.658  1.00  0.00     0.074 A 
ATOM     50  C   UNL A   1      47.047  27.192  25.268  1.00  0.00     0.031 C 
ATOM     51  C   UNL A   1      41.405  25.157  27.880  1.00  0.00     0.029 A 
ATOM     52  C   UNL A   1      42.042  26.381  28.304  1.00  0.00     0.049 A 
ATOM     53  H   UNL A   1      44.062  26.906  28.164  1.00  0.00     0.167 HD
ATOM     54  C   UNL A   1      48.128  28.017  27.438  1.00  0.00     0.031 A 
ATOM     55  C   UNL A   1      41.477  27.400  28.981  1.00  0.00     0.031 A 
ATOM     56  C   UNL A   1      48.251  27.541  28.793  1.00  0.00     0.049 A 
ATOM     57  C   UNL A   1      42.556  28.018  29.777  1.00  0.00     0.074 A 
ATOM     58  C   UNL A   1      48.822  26.437  29.392  1.00  0.00     0.029 A 
ATOM     59  N   UNL A   1      47.372  28.062  29.715  1.00  0.00    -0.354 N 
ATOM     60  N   UNL A   1      43.179  27.387  30.735  1.00  0.00    -0.248 NA
ATOM     61  C   UNL A   1      43.258  29.166  29.231  1.00  0.00     0.031 C 
ATOM     62  C   UNL A   1      47.921  26.081  30.439  1.00  0.00     0.029 A 
ATOM     63  C   UNL A   1      46.886  27.021  30.464  1.00  0.00     0.049 A 
ATOM     64  H   UNL A   1      47.136  29.010  29.819  1.00  0.00     0.167 HD
ATOM     65  C   UNL A   1      44.506  27.776  30.612  1.00  0.00     0.074 A 
ATOM     66  C   UNL A   1      44.465  28.971  29.771  1.00  0.00     0.031 C 
ATOM     67  C   UNL A   1      45.528  26.939  30.967  1.00  0.00     0.031 A 
BRANCH  54  68
ATOM     68  C   UNL A   1      48.373  29.465  27.094  1.00  0.00    -0.014 A 
ATOM     69  C   UNL A   1      49.686  29.970  27.163  1.00  0.00     0.009 A 
ATOM     70  C   UNL A   1      47.340  30.412  26.972  1.00  0.00     0.009 A 
ATOM     71  C   UNL A   1      49.944  31.348  27.168  1.00  0.00     0.001 A 
ATOM     72  C   UNL A   1      47.596  31.787  26.936  1.00  0.00     0.001 A 
ATOM     73  C   UNL A   1      48.896  32.256  27.061  1.00  0.00     0.000 A 
ENDBRANCH  54  68
BRANCH  55  74
ATOM     74  C   UNL A   1      40.106  27.909  28.834  1.00  0.00    -0.014 A 
ATOM     75  C   UNL A   1      39.180  27.806  29.874  1.00  0.00     0.009 A 
ATOM     76  C   UNL A   1      39.774  28.711  27.723  1.00  0.00     0.009 A 
ATOM     77  C   UNL A   1      37.977  28.519  29.826  1.00  0.00     0.001 A 
ATOM     78  C   UNL A   1      38.571  29.421  27.673  1.00  0.00     0.001 A 
ATOM     79  C   UNL A   1      37.681  29.338  28.737  1.00  0.00     0.000 A 
ENDBRANCH  55  74
BRANCH  67  80
ATOM     80  C   UNL A   1      45.182  25.669  31.715  1.00  0.00    -0.014 A 
ATOM     81  C   UNL A   1      45.178  25.595  33.120  1.00  0.00     0.009 A 
ATOM     82  C   UNL A   1      44.659  24.585  30.997  1.00  0.00     0.009 A 
ATOM     83  C   UNL A   1      44.675  24.469  33.782  1.00  0.00     0.001 A 
ATOM     84  C   UNL A   1      44.140  23.467  31.657  1.00  0.00     0.001 A 
ATOM     85  C   UNL A   1      44.148  23.409  33.050  1.00  0.00     0.000 A 
ENDBRANCH  67  80
ENDBRANCH  41  42
ENDBRANCH  33  36
ENDBRANCH  31  32
ENDBRANCH  30  31
ENDBRANCH  29  30
ENDBRANCH  28  29
ENDBRANCH   3  28
TORSDOF 17
ENDMDL
