MODEL 1
REMARK VINA RESULT:     -11.5      0.000      0.000
REMARK SMILES C[C@H](C(=O)NCCCCNC(=O)c1ccc(-c2c3nc(c(-c4ccccc4)c4ccc([nH]4)c(-c4ccccc4)c4nc(c(-c5ccccc5)c5ccc2[nH]5)C=C4)C=C3)cc1)c1ccc(C[C@H]2CCC[C@@H]2O)cc1
REMARK SMILES IDX 6 1 5 2 3 3 4 4 2 6 1 7 61 8 62 9 73 10 63 11 72 12 64 13
REMARK SMILES IDX 65 14 66 15 67 16 70 17 68 18 69 19 71 20 7 22 8 23 9 24
REMARK SMILES IDX 10 25 11 26 12 28 13 29 14 30 60 31 15 32 59 33 16 34 17 35
REMARK SMILES IDX 18 36 53 37 19 38 58 39 52 40 54 41 20 42 57 43 51 44 50 45
REMARK SMILES IDX 21 47 43 48 28 49 42 50 29 51 32 52 41 53 55 54 30 55 31 56
REMARK SMILES IDX 40 58 56 59 33 60 22 61 23 62 27 63 24 64 26 65 25 66 44 67
REMARK SMILES IDX 45 68 49 69 46 70 48 71 47 72 34 73 35 74 39 75 36 76 38 77
REMARK SMILES IDX 37 78
REMARK H PARENT 5 5 71 21 10 27 54 46 32 57
REMARK Flexibility Score: inf
ROOT
ATOM      1  C   UNL A   1      35.574  23.194  24.488  1.00  0.00     0.116 C 
ENDROOT
BRANCH   1   2
ATOM      2  N   UNL A   1      34.440  22.447  24.999  1.00  0.00    -0.356 N 
ATOM      3  C   UNL A   1      33.325  21.986  24.359  1.00  0.00     0.227 C 
ATOM      4  O   UNL A   1      32.639  21.177  24.998  1.00  0.00    -0.274 OA
ATOM      5  H   UNL A   1      34.480  22.239  25.960  1.00  0.00     0.163 HD
BRANCH   3   6
ATOM      6  C   UNL A   1      32.824  22.472  22.981  1.00  0.00     0.105 C 
ATOM      7  C   UNL A   1      32.063  21.306  22.338  1.00  0.00     0.023 C 
BRANCH   6   8
ATOM      8  C   UNL A   1      32.106  23.810  22.949  1.00  0.00    -0.036 A 
ATOM      9  C   UNL A   1      30.801  23.988  23.437  1.00  0.00     0.005 A 
ATOM     10  C   UNL A   1      32.804  24.942  22.501  1.00  0.00     0.005 A 
ATOM     11  C   UNL A   1      30.272  25.269  23.606  1.00  0.00     0.004 A 
ATOM     12  C   UNL A   1      32.286  26.223  22.702  1.00  0.00     0.004 A 
ATOM     13  C   UNL A   1      31.027  26.402  23.285  1.00  0.00    -0.048 A 
BRANCH  13  14
ATOM     14  C   UNL A   1      30.504  27.780  23.618  1.00  0.00     0.041 C 
BRANCH  14  15
ATOM     15  C   UNL A   1      29.491  28.396  22.646  1.00  0.00     0.022 C 
ATOM     16  C   UNL A   1      28.014  28.268  23.059  1.00  0.00     0.007 C 
ATOM     17  C   UNL A   1      29.716  29.889  22.364  1.00  0.00     0.117 C 
ATOM     18  C   UNL A   1      27.463  29.689  23.073  1.00  0.00     0.003 C 
ATOM     19  C   UNL A   1      28.322  30.415  22.053  1.00  0.00     0.032 C 
BRANCH  17  20
ATOM     20  O   UNL A   1      30.600  30.066  21.271  1.00  0.00    -0.393 OA
ATOM     21  H   UNL A   1      30.145  29.831  20.448  1.00  0.00     0.210 HD
ENDBRANCH  17  20
ENDBRANCH  14  15
ENDBRANCH  13  14
ENDBRANCH   6   8
ENDBRANCH   3   6
ENDBRANCH   1   2
BRANCH   1  22
ATOM     22  C   UNL A   1      36.737  22.350  23.974  1.00  0.00     0.023 C 
BRANCH  22  23
ATOM     23  C   UNL A   1      37.150  21.164  24.843  1.00  0.00     0.023 C 
BRANCH  23  24
ATOM     24  C   UNL A   1      38.455  21.325  25.616  1.00  0.00     0.116 C 
BRANCH  24  25
ATOM     25  N   UNL A   1      39.315  20.149  25.566  1.00  0.00    -0.352 N 
ATOM     26  C   UNL A   1      40.633  19.997  25.938  1.00  0.00     0.251 C 
ATOM     27  H   UNL A   1      38.889  19.337  25.210  1.00  0.00     0.163 HD
ATOM     28  O   UNL A   1      41.219  18.939  25.727  1.00  0.00    -0.269 OA
BRANCH  26  29
ATOM     29  C   UNL A   1      41.362  21.126  26.553  1.00  0.00     0.039 A 
ATOM     30  C   UNL A   1      41.947  22.091  25.727  1.00  0.00     0.014 A 
ATOM     31  C   UNL A   1      41.431  21.258  27.940  1.00  0.00     0.014 A 
ATOM     32  C   UNL A   1      42.487  23.251  26.290  1.00  0.00     0.010 A 
ATOM     33  C   UNL A   1      41.888  22.449  28.493  1.00  0.00     0.010 A 
ATOM     34  C   UNL A   1      42.401  23.467  27.674  1.00  0.00    -0.014 A 
BRANCH  34  35
ATOM     35  C   UNL A   1      42.799  24.754  28.303  1.00  0.00     0.031 A 
ATOM     36  C   UNL A   1      41.767  25.815  28.555  1.00  0.00     0.074 A 
ATOM     37  C   UNL A   1      44.103  25.025  28.509  1.00  0.00     0.049 A 
ATOM     38  N   UNL A   1      41.934  27.070  28.888  1.00  0.00    -0.248 NA
ATOM     39  C   UNL A   1      40.363  25.422  28.366  1.00  0.00     0.031 C 
ATOM     40  C   UNL A   1      45.215  24.104  28.267  1.00  0.00     0.029 A 
ATOM     41  N   UNL A   1      44.716  26.177  28.941  1.00  0.00    -0.354 N 
ATOM     42  C   UNL A   1      40.660  27.626  28.899  1.00  0.00     0.074 A 
ATOM     43  C   UNL A   1      39.739  26.581  28.510  1.00  0.00     0.031 C 
ATOM     44  C   UNL A   1      46.371  24.723  28.557  1.00  0.00     0.029 A 
ATOM     45  C   UNL A   1      46.087  26.096  28.959  1.00  0.00     0.049 A 
ATOM     46  H   UNL A   1      44.220  26.982  29.212  1.00  0.00     0.167 HD
ATOM     47  C   UNL A   1      40.291  28.892  29.209  1.00  0.00     0.031 A 
ATOM     48  C   UNL A   1      47.018  27.028  29.240  1.00  0.00     0.031 A 
ATOM     49  C   UNL A   1      41.202  29.924  29.625  1.00  0.00     0.049 A 
ATOM     50  C   UNL A   1      46.586  28.418  29.608  1.00  0.00     0.074 A 
ATOM     51  C   UNL A   1      40.915  31.214  30.035  1.00  0.00     0.029 A 
ATOM     52  N   UNL A   1      42.579  29.780  29.684  1.00  0.00    -0.354 N 
ATOM     53  N   UNL A   1      45.376  28.915  29.667  1.00  0.00    -0.248 NA
ATOM     54  C   UNL A   1      47.649  29.373  29.956  1.00  0.00     0.031 C 
ATOM     55  C   UNL A   1      42.123  31.864  30.307  1.00  0.00     0.029 A 
ATOM     56  C   UNL A   1      43.159  30.964  30.110  1.00  0.00     0.049 A 
ATOM     57  H   UNL A   1      43.073  28.959  29.459  1.00  0.00     0.167 HD
ATOM     58  C   UNL A   1      45.526  30.232  30.082  1.00  0.00     0.074 A 
ATOM     59  C   UNL A   1      46.946  30.454  30.266  1.00  0.00     0.031 C 
ATOM     60  C   UNL A   1      44.572  31.170  30.294  1.00  0.00     0.031 A 
BRANCH  47  61
ATOM     61  C   UNL A   1      38.831  29.226  29.087  1.00  0.00    -0.014 A 
ATOM     62  C   UNL A   1      37.959  29.111  30.181  1.00  0.00     0.009 A 
ATOM     63  C   UNL A   1      38.319  29.662  27.855  1.00  0.00     0.009 A 
ATOM     64  C   UNL A   1      36.596  29.374  30.031  1.00  0.00     0.001 A 
ATOM     65  C   UNL A   1      36.961  29.953  27.715  1.00  0.00     0.001 A 
ATOM     66  C   UNL A   1      36.099  29.796  28.799  1.00  0.00     0.000 A 
ENDBRANCH  47  61
BRANCH  48  67
ATOM     67  C   UNL A   1      48.458  26.665  29.190  1.00  0.00    -0.014 A 
ATOM     68  C   UNL A   1      49.187  26.831  28.004  1.00  0.00     0.009 A 
ATOM     69  C   UNL A   1      49.116  26.183  30.332  1.00  0.00     0.009 A 
ATOM     70  C   UNL A   1      50.546  26.509  27.958  1.00  0.00     0.001 A 
ATOM     71  C   UNL A   1      50.479  25.884  30.289  1.00  0.00     0.001 A 
ATOM     72  C   UNL A   1      51.191  26.041  29.102  1.00  0.00     0.000 A 
ENDBRANCH  48  67
BRANCH  60  73
ATOM     73  C   UNL A   1      45.021  32.513  30.793  1.00  0.00    -0.014 A 
ATOM     74  C   UNL A   1      45.172  32.767  32.164  1.00  0.00     0.009 A 
ATOM     75  C   UNL A   1      45.357  33.516  29.871  1.00  0.00     0.009 A 
ATOM     76  C   UNL A   1      45.636  34.010  32.602  1.00  0.00     0.001 A 
ATOM     77  C   UNL A   1      45.842  34.748  30.311  1.00  0.00     0.001 A 
ATOM     78  C   UNL A   1      45.975  34.996  31.676  1.00  0.00     0.000 A 
ENDBRANCH  60  73
ENDBRANCH  34  35
ENDBRANCH  26  29
ENDBRANCH  24  25
ENDBRANCH  23  24
ENDBRANCH  22  23
ENDBRANCH   1  22
TORSDOF 15
ENDMDL
MODEL 2
REMARK VINA RESULT:     -11.4      5.168      9.838
REMARK SMILES C[C@H](C(=O)NCCCCNC(=O)c1ccc(-c2c3nc(c(-c4ccccc4)c4ccc([nH]4)c(-c4ccccc4)c4nc(c(-c5ccccc5)c5ccc2[nH]5)C=C4)C=C3)cc1)c1ccc(C[C@H]2CCC[C@@H]2O)cc1
REMARK SMILES IDX 6 1 5 2 3 3 4 4 2 6 1 7 61 8 62 9 73 10 63 11 72 12 64 13
REMARK SMILES IDX 65 14 66 15 67 16 70 17 68 18 69 19 71 20 7 22 8 23 9 24
REMARK SMILES IDX 10 25 11 26 12 28 13 29 14 30 60 31 15 32 59 33 16 34 17 35
REMARK SMILES IDX 18 36 53 37 19 38 58 39 52 40 54 41 20 42 57 43 51 44 50 45
REMARK SMILES IDX 21 47 43 48 28 49 42 50 29 51 32 52 41 53 55 54 30 55 31 56
REMARK SMILES IDX 40 58 56 59 33 60 22 61 23 62 27 63 24 64 26 65 25 66 44 67
REMARK SMILES IDX 45 68 49 69 46 70 48 71 47 72 34 73 35 74 39 75 36 76 38 77
REMARK SMILES IDX 37 78
REMARK H PARENT 5 5 71 21 10 27 54 46 32 57
REMARK Flexibility Score: inf
ROOT
ATOM      1  C   UNL A   1      44.000  19.609  25.688  1.00  0.00     0.116 C 
ENDROOT
BRANCH   1   2
ATOM      2  N   UNL A   1      43.428  20.892  25.320  1.00  0.00    -0.356 N 
ATOM      3  C   UNL A   1      44.037  22.073  25.006  1.00  0.00     0.227 C 
ATOM      4  O   UNL A   1      43.303  22.935  24.503  1.00  0.00    -0.274 OA
ATOM      5  H   UNL A   1      42.445  20.913  25.292  1.00  0.00     0.163 HD
BRANCH   3   6
ATOM      6  C   UNL A   1      45.506  22.430  25.323  1.00  0.00     0.105 C 
ATOM      7  C   UNL A   1      46.085  23.115  24.079  1.00  0.00     0.023 C 
BRANCH   6   8
ATOM      8  C   UNL A   1      45.766  23.146  26.637  1.00  0.00    -0.036 A 
ATOM      9  C   UNL A   1      46.861  24.001  26.837  1.00  0.00     0.005 A 
ATOM     10  C   UNL A   1      44.822  23.030  27.669  1.00  0.00     0.005 A 
ATOM     11  C   UNL A   1      46.932  24.818  27.967  1.00  0.00     0.004 A 
ATOM     12  C   UNL A   1      44.877  23.870  28.782  1.00  0.00     0.004 A 
ATOM     13  C   UNL A   1      45.916  24.796  28.929  1.00  0.00    -0.048 A 
BRANCH  13  14
ATOM     14  C   UNL A   1      45.925  25.794  30.064  1.00  0.00     0.041 C 
BRANCH  14  15
ATOM     15  C   UNL A   1      44.918  26.948  29.986  1.00  0.00     0.022 C 
ATOM     16  C   UNL A   1      43.472  26.591  30.375  1.00  0.00     0.007 C 
ATOM     17  C   UNL A   1      45.290  28.168  30.841  1.00  0.00     0.117 C 
ATOM     18  C   UNL A   1      43.091  27.564  31.485  1.00  0.00     0.003 C 
ATOM     19  C   UNL A   1      43.946  28.786  31.199  1.00  0.00     0.032 C 
BRANCH  17  20
ATOM     20  O   UNL A   1      46.101  29.066  30.105  1.00  0.00    -0.393 OA
ATOM     21  H   UNL A   1      46.906  29.260  30.609  1.00  0.00     0.210 HD
ENDBRANCH  17  20
ENDBRANCH  14  15
ENDBRANCH  13  14
ENDBRANCH   6   8
ENDBRANCH   3   6
ENDBRANCH   1   2
BRANCH   1  22
ATOM     22  C   UNL A   1      42.997  18.546  26.124  1.00  0.00     0.023 C 
BRANCH  22  23
ATOM     23  C   UNL A   1      42.309  18.774  27.469  1.00  0.00     0.023 C 
BRANCH  23  24
ATOM     24  C   UNL A   1      41.460  20.037  27.581  1.00  0.00     0.116 C 
BRANCH  24  25
ATOM     25  N   UNL A   1      40.335  20.071  26.655  1.00  0.00    -0.352 N 
ATOM     26  C   UNL A   1      39.554  21.129  26.247  1.00  0.00     0.251 C 
ATOM     27  H   UNL A   1      40.095  19.202  26.260  1.00  0.00     0.163 HD
ATOM     28  O   UNL A   1      38.578  20.939  25.526  1.00  0.00    -0.269 OA
BRANCH  26  29
ATOM     29  C   UNL A   1      39.860  22.498  26.715  1.00  0.00     0.039 A 
ATOM     30  C   UNL A   1      40.904  22.689  27.626  1.00  0.00     0.014 A 
ATOM     31  C   UNL A   1      39.152  23.594  26.223  1.00  0.00     0.014 A 
ATOM     32  C   UNL A   1      41.318  23.985  27.944  1.00  0.00     0.010 A 
ATOM     33  C   UNL A   1      39.620  24.879  26.470  1.00  0.00     0.010 A 
ATOM     34  C   UNL A   1      40.721  25.089  27.316  1.00  0.00    -0.014 A 
BRANCH  34  35
ATOM     35  C   UNL A   1      41.236  26.473  27.483  1.00  0.00     0.031 A 
ATOM     36  C   UNL A   1      42.559  26.857  26.883  1.00  0.00     0.074 A 
ATOM     37  C   UNL A   1      40.592  27.337  28.293  1.00  0.00     0.049 A 
ATOM     38  N   UNL A   1      43.282  27.929  27.089  1.00  0.00    -0.248 NA
ATOM     39  C   UNL A   1      43.167  25.886  25.961  1.00  0.00     0.031 C 
ATOM     40  C   UNL A   1      39.323  27.080  28.976  1.00  0.00     0.029 A 
ATOM     41  N   UNL A   1      40.941  28.600  28.706  1.00  0.00    -0.354 N 
ATOM     42  C   UNL A   1      44.451  27.737  26.363  1.00  0.00     0.074 A 
ATOM     43  C   UNL A   1      44.351  26.436  25.738  1.00  0.00     0.031 C 
ATOM     44  C   UNL A   1      38.998  28.152  29.717  1.00  0.00     0.029 A 
ATOM     45  C   UNL A   1      40.056  29.149  29.601  1.00  0.00     0.049 A 
ATOM     46  H   UNL A   1      41.748  29.066  28.391  1.00  0.00     0.167 HD
ATOM     47  C   UNL A   1      45.509  28.570  26.224  1.00  0.00     0.031 A 
ATOM     48  C   UNL A   1      40.099  30.313  30.278  1.00  0.00     0.031 A 
ATOM     49  C   UNL A   1      45.597  29.876  26.820  1.00  0.00     0.049 A 
ATOM     50  C   UNL A   1      41.269  31.235  30.089  1.00  0.00     0.074 A 
ATOM     51  C   UNL A   1      46.593  30.826  26.675  1.00  0.00     0.029 A 
ATOM     52  N   UNL A   1      44.648  30.416  27.675  1.00  0.00    -0.354 N 
ATOM     53  N   UNL A   1      42.343  31.064  29.357  1.00  0.00    -0.248 NA
ATOM     54  C   UNL A   1      41.230  32.513  30.815  1.00  0.00     0.031 C 
ATOM     55  C   UNL A   1      46.266  31.927  27.473  1.00  0.00     0.029 A 
ATOM     56  C   UNL A   1      45.042  31.681  28.078  1.00  0.00     0.049 A 
ATOM     57  H   UNL A   1      43.817  29.968  27.953  1.00  0.00     0.167 HD
ATOM     58  C   UNL A   1      43.095  32.221  29.512  1.00  0.00     0.074 A 
ATOM     59  C   UNL A   1      42.352  33.089  30.403  1.00  0.00     0.031 C 
ATOM     60  C   UNL A   1      44.292  32.536  28.961  1.00  0.00     0.031 A 
BRANCH  47  61
ATOM     61  C   UNL A   1      46.668  28.073  25.406  1.00  0.00    -0.014 A 
ATOM     62  C   UNL A   1      46.658  28.144  24.004  1.00  0.00     0.009 A 
ATOM     63  C   UNL A   1      47.787  27.522  26.050  1.00  0.00     0.009 A 
ATOM     64  C   UNL A   1      47.721  27.625  23.262  1.00  0.00     0.001 A 
ATOM     65  C   UNL A   1      48.862  27.031  25.307  1.00  0.00     0.001 A 
ATOM     66  C   UNL A   1      48.822  27.071  23.914  1.00  0.00     0.000 A 
ENDBRANCH  47  61
BRANCH  48  67
ATOM     67  C   UNL A   1      38.986  30.671  31.194  1.00  0.00    -0.014 A 
ATOM     68  C   UNL A   1      39.095  30.421  32.569  1.00  0.00     0.009 A 
ATOM     69  C   UNL A   1      37.827  31.292  30.704  1.00  0.00     0.009 A 
ATOM     70  C   UNL A   1      38.058  30.774  33.436  1.00  0.00     0.001 A 
ATOM     71  C   UNL A   1      36.802  31.664  31.576  1.00  0.00     0.001 A 
ATOM     72  C   UNL A   1      36.915  31.400  32.940  1.00  0.00     0.000 A 
ENDBRANCH  48  67
BRANCH  60  73
ATOM     73  C   UNL A   1      44.860  33.891  29.266  1.00  0.00    -0.014 A 
ATOM     74  C   UNL A   1      44.647  34.980  28.408  1.00  0.00     0.009 A 
ATOM     75  C   UNL A   1      45.562  34.093  30.465  1.00  0.00     0.009 A 
ATOM     76  C   UNL A   1      45.146  36.243  28.737  1.00  0.00     0.001 A 
ATOM     77  C   UNL A   1      46.039  35.361  30.801  1.00  0.00     0.001 A 
ATOM     78  C   UNL A   1      45.835  36.433  29.934  1.00  0.00     0.000 A 
ENDBRANCH  60  73
ENDBRANCH  34  35
ENDBRANCH  26  29
ENDBRANCH  24  25
ENDBRANCH  23  24
ENDBRANCH  22  23
ENDBRANCH   1  22
TORSDOF 15
ENDMDL
MODEL 3
REMARK VINA RESULT:     -11.3      1.761      2.103
REMARK SMILES C[C@H](C(=O)NCCCCNC(=O)c1ccc(-c2c3nc(c(-c4ccccc4)c4ccc([nH]4)c(-c4ccccc4)c4nc(c(-c5ccccc5)c5ccc2[nH]5)C=C4)C=C3)cc1)c1ccc(C[C@H]2CCC[C@@H]2O)cc1
REMARK SMILES IDX 6 1 5 2 3 3 4 4 2 6 1 7 61 8 62 9 73 10 63 11 72 12 64 13
REMARK SMILES IDX 65 14 66 15 67 16 70 17 68 18 69 19 71 20 7 22 8 23 9 24
REMARK SMILES IDX 10 25 11 26 12 28 13 29 14 30 60 31 15 32 59 33 16 34 17 35
REMARK SMILES IDX 18 36 53 37 19 38 58 39 52 40 54 41 20 42 57 43 51 44 50 45
REMARK SMILES IDX 21 47 43 48 28 49 42 50 29 51 32 52 41 53 55 54 30 55 31 56
REMARK SMILES IDX 40 58 56 59 33 60 22 61 23 62 27 63 24 64 26 65 25 66 44 67
REMARK SMILES IDX 45 68 49 69 46 70 48 71 47 72 34 73 35 74 39 75 36 76 38 77
REMARK SMILES IDX 37 78
REMARK H PARENT 5 5 71 21 10 27 54 46 32 57
REMARK Flexibility Score: inf
ROOT
ATOM      1  C   UNL A   1      35.362  19.930  25.001  1.00  0.00     0.116 C 
ENDROOT
BRANCH   1   2
ATOM      2  N   UNL A   1      33.954  20.041  25.334  1.00  0.00    -0.356 N 
ATOM      3  C   UNL A   1      32.893  20.429  24.567  1.00  0.00     0.227 C 
ATOM      4  O   UNL A   1      31.774  20.201  25.049  1.00  0.00    -0.274 OA
ATOM      5  H   UNL A   1      33.727  19.799  26.261  1.00  0.00     0.163 HD
BRANCH   3   6
ATOM      6  C   UNL A   1      32.993  21.202  23.234  1.00  0.00     0.105 C 
ATOM      7  C   UNL A   1      31.936  20.615  22.289  1.00  0.00     0.023 C 
BRANCH   6   8
ATOM      8  C   UNL A   1      33.011  22.718  23.323  1.00  0.00    -0.036 A 
ATOM      9  C   UNL A   1      31.842  23.496  23.330  1.00  0.00     0.005 A 
ATOM     10  C   UNL A   1      34.240  23.370  23.503  1.00  0.00     0.005 A 
ATOM     11  C   UNL A   1      31.891  24.854  23.651  1.00  0.00     0.004 A 
ATOM     12  C   UNL A   1      34.284  24.720  23.855  1.00  0.00     0.004 A 
ATOM     13  C   UNL A   1      33.107  25.470  23.963  1.00  0.00    -0.048 A 
BRANCH  13  14
ATOM     14  C   UNL A   1      33.128  26.898  24.460  1.00  0.00     0.041 C 
BRANCH  14  15
ATOM     15  C   UNL A   1      32.962  27.113  25.969  1.00  0.00     0.022 C 
ATOM     16  C   UNL A   1      33.763  28.285  26.563  1.00  0.00     0.007 C 
ATOM     17  C   UNL A   1      31.510  27.334  26.418  1.00  0.00     0.117 C 
ATOM     18  C   UNL A   1      32.742  29.172  27.265  1.00  0.00     0.003 C 
ATOM     19  C   UNL A   1      31.639  28.205  27.658  1.00  0.00     0.032 C 
BRANCH  17  20
ATOM     20  O   UNL A   1      30.882  26.097  26.708  1.00  0.00    -0.393 OA
ATOM     21  H   UNL A   1      30.385  26.175  27.537  1.00  0.00     0.210 HD
ENDBRANCH  17  20
ENDBRANCH  14  15
ENDBRANCH  13  14
ENDBRANCH   6   8
ENDBRANCH   3   6
ENDBRANCH   1   2
BRANCH   1  22
ATOM     22  C   UNL A   1      36.211  21.155  25.325  1.00  0.00     0.023 C 
BRANCH  22  23
ATOM     23  C   UNL A   1      37.629  21.167  24.760  1.00  0.00     0.023 C 
BRANCH  23  24
ATOM     24  C   UNL A   1      38.758  21.212  25.784  1.00  0.00     0.116 C 
BRANCH  24  25
ATOM     25  N   UNL A   1      39.669  20.077  25.703  1.00  0.00    -0.352 N 
ATOM     26  C   UNL A   1      41.005  19.987  26.024  1.00  0.00     0.251 C 
ATOM     27  H   UNL A   1      39.267  19.244  25.366  1.00  0.00     0.163 HD
ATOM     28  O   UNL A   1      41.631  18.956  25.793  1.00  0.00    -0.269 OA
BRANCH  26  29
ATOM     29  C   UNL A   1      41.705  21.151  26.608  1.00  0.00     0.039 A 
ATOM     30  C   UNL A   1      42.212  22.139  25.758  1.00  0.00     0.014 A 
ATOM     31  C   UNL A   1      41.822  21.291  27.991  1.00  0.00     0.014 A 
ATOM     32  C   UNL A   1      42.719  23.324  26.297  1.00  0.00     0.010 A 
ATOM     33  C   UNL A   1      42.245  22.504  28.523  1.00  0.00     0.010 A 
ATOM     34  C   UNL A   1      42.678  23.542  27.683  1.00  0.00    -0.014 A 
BRANCH  34  35
ATOM     35  C   UNL A   1      43.040  24.848  28.293  1.00  0.00     0.031 A 
ATOM     36  C   UNL A   1      41.977  25.880  28.539  1.00  0.00     0.074 A 
ATOM     37  C   UNL A   1      44.337  25.161  28.487  1.00  0.00     0.049 A 
ATOM     38  N   UNL A   1      42.108  27.143  28.856  1.00  0.00    -0.248 NA
ATOM     39  C   UNL A   1      40.585  25.441  28.365  1.00  0.00     0.031 C 
ATOM     40  C   UNL A   1      45.474  24.272  28.248  1.00  0.00     0.029 A 
ATOM     41  N   UNL A   1      44.916  26.336  28.901  1.00  0.00    -0.354 N 
ATOM     42  C   UNL A   1      40.818  27.660  28.869  1.00  0.00     0.074 A 
ATOM     43  C   UNL A   1      39.926  26.582  28.499  1.00  0.00     0.031 C 
ATOM     44  C   UNL A   1      46.613  24.929  28.523  1.00  0.00     0.029 A 
ATOM     45  C   UNL A   1      46.289  26.298  28.910  1.00  0.00     0.049 A 
ATOM     46  H   UNL A   1      44.397  27.130  29.165  1.00  0.00     0.167 HD
ATOM     47  C   UNL A   1      40.411  28.917  29.166  1.00  0.00     0.031 A 
ATOM     48  C   UNL A   1      47.193  27.262  29.173  1.00  0.00     0.031 A 
ATOM     49  C   UNL A   1      41.293  29.982  29.563  1.00  0.00     0.049 A 
ATOM     50  C   UNL A   1      46.721  28.642  29.527  1.00  0.00     0.074 A 
ATOM     51  C   UNL A   1      40.969  31.268  29.959  1.00  0.00     0.029 A 
ATOM     52  N   UNL A   1      42.674  29.881  29.614  1.00  0.00    -0.354 N 
ATOM     53  N   UNL A   1      45.496  29.103  29.588  1.00  0.00    -0.248 NA
ATOM     54  C   UNL A   1      47.756  29.634  29.855  1.00  0.00     0.031 C 
ATOM     55  C   UNL A   1      42.158  31.958  30.215  1.00  0.00     0.029 A 
ATOM     56  C   UNL A   1      43.220  31.087  30.022  1.00  0.00     0.049 A 
ATOM     57  H   UNL A   1      43.192  29.073  29.396  1.00  0.00     0.167 HD
ATOM     58  C   UNL A   1      45.609  30.429  29.985  1.00  0.00     0.074 A 
ATOM     59  C   UNL A   1      47.022  30.696  30.157  1.00  0.00     0.031 C 
ATOM     60  C   UNL A   1      44.627  31.339  30.193  1.00  0.00     0.031 A 
BRANCH  47  61
ATOM     61  C   UNL A   1      38.941  29.206  29.050  1.00  0.00    -0.014 A 
ATOM     62  C   UNL A   1      38.371  29.628  27.838  1.00  0.00     0.009 A 
ATOM     63  C   UNL A   1      38.113  29.054  30.173  1.00  0.00     0.009 A 
ATOM     64  C   UNL A   1      37.014  29.945  27.767  1.00  0.00     0.001 A 
ATOM     65  C   UNL A   1      36.749  29.342  30.091  1.00  0.00     0.001 A 
ATOM     66  C   UNL A   1      36.203  29.799  28.893  1.00  0.00     0.000 A 
ENDBRANCH  47  61
BRANCH  48  67
ATOM     67  C   UNL A   1      48.643  26.943  29.117  1.00  0.00    -0.014 A 
ATOM     68  C   UNL A   1      49.367  27.149  27.934  1.00  0.00     0.009 A 
ATOM     69  C   UNL A   1      49.315  26.463  30.252  1.00  0.00     0.009 A 
ATOM     70  C   UNL A   1      50.734  26.868  27.883  1.00  0.00     0.001 A 
ATOM     71  C   UNL A   1      50.687  26.205  30.204  1.00  0.00     0.001 A 
ATOM     72  C   UNL A   1      51.393  26.402  29.020  1.00  0.00     0.000 A 
ENDBRANCH  48  67
BRANCH  60  73
ATOM     73  C   UNL A   1      45.038  32.702  30.672  1.00  0.00    -0.014 A 
ATOM     74  C   UNL A   1      45.149  32.989  32.041  1.00  0.00     0.009 A 
ATOM     75  C   UNL A   1      45.380  33.690  29.736  1.00  0.00     0.009 A 
ATOM     76  C   UNL A   1      45.577  34.251  32.461  1.00  0.00     0.001 A 
ATOM     77  C   UNL A   1      45.829  34.941  30.160  1.00  0.00     0.001 A 
ATOM     78  C   UNL A   1      45.922  35.222  31.522  1.00  0.00     0.000 A 
ENDBRANCH  60  73
ENDBRANCH  34  35
ENDBRANCH  26  29
ENDBRANCH  24  25
ENDBRANCH  23  24
ENDBRANCH  22  23
ENDBRANCH   1  22
TORSDOF 15
ENDMDL
