MODEL 1
REMARK VINA RESULT:     -10.7      0.000      0.000
REMARK SMILES CCCN1C(=O)CO[C@H](C(=O)NCCCCNC(=O)c2ccc(-c3c4nc(c(-c5ccccc5)c5ccc([nH]5)c(-c5ccccc5)c5nc(c(-c6ccccc6)c6ccc3[nH]6)C=C5)C=C4)cc2)[C@@H]1c1cncn1C1CC1
REMARK SMILES IDX 14 1 13 2 12 3 10 4 11 5 9 7 4 8 5 9 68 10 6 11 7 12 8 13
REMARK SMILES IDX 3 14 2 15 1 16 69 17 70 18 73 19 71 20 72 21 74 22 75 23
REMARK SMILES IDX 76 24 15 25 16 26 17 27 18 28 19 30 20 31 21 32 67 33 22 34
REMARK SMILES IDX 66 35 23 36 24 37 25 38 60 39 26 40 65 41 59 42 61 43 27 44
REMARK SMILES IDX 64 45 58 46 57 47 28 49 50 50 35 51 49 52 36 53 39 54 48 55
REMARK SMILES IDX 62 56 37 57 38 58 47 60 63 61 40 62 29 63 30 64 34 65 31 66
REMARK SMILES IDX 33 67 32 68 51 69 52 70 56 71 53 72 55 73 54 74 41 75 42 76
REMARK SMILES IDX 46 77 43 78 45 79 44 80
REMARK H PARENT 12 6 17 29 61 48 39 59
REMARK Flexibility Score: inf
ROOT
ATOM      1  C   UNL A   1      36.760  22.299  24.142  1.00  0.00     0.023 C 
ENDROOT
BRANCH   1   2
ATOM      2  C   UNL A   1      36.819  23.624  24.879  1.00  0.00     0.116 C 
BRANCH   2   3
ATOM      3  N   UNL A   1      35.789  23.857  25.860  1.00  0.00    -0.354 N 
ATOM      4  C   UNL A   1      34.477  24.153  25.604  1.00  0.00     0.251 C 
ATOM      5  O   UNL A   1      33.662  24.008  26.521  1.00  0.00    -0.272 OA
ATOM      6  H   UNL A   1      36.056  23.800  26.806  1.00  0.00     0.163 HD
BRANCH   4   7
ATOM      7  C   UNL A   1      34.010  24.660  24.217  1.00  0.00     0.236 C 
ATOM      8  N   UNL A   1      33.169  26.618  22.790  1.00  0.00    -0.329 N 
ATOM      9  C   UNL A   1      33.056  25.653  21.780  1.00  0.00     0.249 C 
ATOM     10  C   UNL A   1      33.732  26.189  24.096  1.00  0.00     0.172 C 
ATOM     11  O   UNL A   1      33.055  25.905  20.576  1.00  0.00    -0.272 OA
ATOM     12  C   UNL A   1      32.919  24.188  22.233  1.00  0.00     0.261 C 
ATOM     13  O   UNL A   1      32.957  23.913  23.622  1.00  0.00    -0.356 OA
BRANCH   8  14
ATOM     14  C   UNL A   1      33.247  28.056  22.458  1.00  0.00     0.120 C 
BRANCH  14  15
ATOM     15  C   UNL A   1      31.996  28.955  22.563  1.00  0.00     0.018 C 
ATOM     16  C   UNL A   1      30.640  28.272  22.466  1.00  0.00     0.006 C 
ENDBRANCH  14  15
ENDBRANCH   8  14
BRANCH  10  17
ATOM     17  C   UNL A   1      33.168  26.870  25.319  1.00  0.00     0.064 A 
ATOM     18  C   UNL A   1      33.950  27.686  26.141  1.00  0.00     0.136 A 
ATOM     19  N   UNL A   1      31.939  26.876  25.963  1.00  0.00    -0.330 N 
ATOM     20  N   UNL A   1      33.270  28.164  27.215  1.00  0.00    -0.245 NA
ATOM     21  C   UNL A   1      32.064  27.682  27.074  1.00  0.00     0.199 A 
BRANCH  19  22
ATOM     22  C   UNL A   1      30.664  26.206  25.773  1.00  0.00     0.088 C 
ATOM     23  C   UNL A   1      30.259  25.449  24.543  1.00  0.00     0.027 C 
ATOM     24  C   UNL A   1      30.422  24.713  25.817  1.00  0.00     0.027 C 
ENDBRANCH  19  22
ENDBRANCH  10  17
ENDBRANCH   4   7
ENDBRANCH   2   3
ENDBRANCH   1   2
BRANCH   1  25
ATOM     25  C   UNL A   1      37.213  21.085  24.945  1.00  0.00     0.023 C 
BRANCH  25  26
ATOM     26  C   UNL A   1      38.522  21.235  25.716  1.00  0.00     0.116 C 
BRANCH  26  27
ATOM     27  N   UNL A   1      39.398  20.075  25.622  1.00  0.00    -0.352 N 
ATOM     28  C   UNL A   1      40.717  19.930  25.994  1.00  0.00     0.251 C 
ATOM     29  H   UNL A   1      38.982  19.271  25.235  1.00  0.00     0.163 HD
ATOM     30  O   UNL A   1      41.305  18.880  25.778  1.00  0.00    -0.269 OA
BRANCH  28  31
ATOM     31  C   UNL A   1      41.436  21.073  26.602  1.00  0.00     0.039 A 
ATOM     32  C   UNL A   1      42.066  21.991  25.758  1.00  0.00     0.014 A 
ATOM     33  C   UNL A   1      41.438  21.273  27.984  1.00  0.00     0.014 A 
ATOM     34  C   UNL A   1      42.593  23.170  26.291  1.00  0.00     0.010 A 
ATOM     35  C   UNL A   1      41.895  22.483  28.504  1.00  0.00     0.010 A 
ATOM     36  C   UNL A   1      42.452  23.455  27.659  1.00  0.00    -0.014 A 
BRANCH  36  37
ATOM     37  C   UNL A   1      42.813  24.790  28.206  1.00  0.00     0.031 A 
ATOM     38  C   UNL A   1      41.767  25.851  28.403  1.00  0.00     0.074 A 
ATOM     39  C   UNL A   1      44.109  25.076  28.447  1.00  0.00     0.049 A 
ATOM     40  N   UNL A   1      41.915  27.087  28.811  1.00  0.00    -0.248 NA
ATOM     41  C   UNL A   1      40.379  25.486  28.080  1.00  0.00     0.031 C 
ATOM     42  C   UNL A   1      45.233  24.156  28.246  1.00  0.00     0.029 A 
ATOM     43  N   UNL A   1      44.704  26.228  28.900  1.00  0.00    -0.354 N 
ATOM     44  C   UNL A   1      40.646  27.650  28.779  1.00  0.00     0.074 A 
ATOM     45  C   UNL A   1      39.746  26.635  28.275  1.00  0.00     0.031 C 
ATOM     46  C   UNL A   1      46.374  24.772  28.595  1.00  0.00     0.029 A 
ATOM     47  C   UNL A   1      46.072  26.141  29.000  1.00  0.00     0.049 A 
ATOM     48  H   UNL A   1      44.198  27.040  29.133  1.00  0.00     0.167 HD
ATOM     49  C   UNL A   1      40.262  28.895  29.148  1.00  0.00     0.031 A 
ATOM     50  C   UNL A   1      46.988  27.060  29.362  1.00  0.00     0.031 A 
ATOM     51  C   UNL A   1      41.152  29.905  29.658  1.00  0.00     0.049 A 
ATOM     52  C   UNL A   1      46.534  28.439  29.752  1.00  0.00     0.074 A 
ATOM     53  C   UNL A   1      40.838  31.167  30.133  1.00  0.00     0.029 A 
ATOM     54  N   UNL A   1      42.528  29.774  29.749  1.00  0.00    -0.354 N 
ATOM     55  N   UNL A   1      45.317  28.923  29.805  1.00  0.00    -0.248 NA
ATOM     56  C   UNL A   1      47.581  29.396  30.137  1.00  0.00     0.031 C 
ATOM     57  C   UNL A   1      42.031  31.822  30.454  1.00  0.00     0.029 A 
ATOM     58  C   UNL A   1      43.081  30.947  30.236  1.00  0.00     0.049 A 
ATOM     59  H   UNL A   1      43.037  28.967  29.506  1.00  0.00     0.167 HD
ATOM     60  C   UNL A   1      45.451  30.233  30.245  1.00  0.00     0.074 A 
ATOM     61  C   UNL A   1      46.864  30.460  30.468  1.00  0.00     0.031 C 
ATOM     62  C   UNL A   1      44.488  31.166  30.444  1.00  0.00     0.031 A 
BRANCH  49  63
ATOM     63  C   UNL A   1      38.807  29.246  29.009  1.00  0.00    -0.014 A 
ATOM     64  C   UNL A   1      38.281  29.700  27.790  1.00  0.00     0.009 A 
ATOM     65  C   UNL A   1      37.939  29.059  30.097  1.00  0.00     0.009 A 
ATOM     66  C   UNL A   1      36.919  29.988  27.671  1.00  0.00     0.001 A 
ATOM     67  C   UNL A   1      36.574  29.321  29.968  1.00  0.00     0.001 A 
ATOM     68  C   UNL A   1      36.067  29.792  28.758  1.00  0.00     0.000 A 
ENDBRANCH  49  63
BRANCH  50  69
ATOM     69  C   UNL A   1      48.434  26.715  29.364  1.00  0.00    -0.014 A 
ATOM     70  C   UNL A   1      49.038  26.176  30.510  1.00  0.00     0.009 A 
ATOM     71  C   UNL A   1      49.221  26.942  28.225  1.00  0.00     0.009 A 
ATOM     72  C   UNL A   1      50.408  25.899  30.525  1.00  0.00     0.001 A 
ATOM     73  C   UNL A   1      50.584  26.635  28.232  1.00  0.00     0.001 A 
ATOM     74  C   UNL A   1      51.177  26.125  29.384  1.00  0.00     0.000 A 
ENDBRANCH  50  69
BRANCH  62  75
ATOM     75  C   UNL A   1      44.930  32.514  30.940  1.00  0.00    -0.014 A 
ATOM     76  C   UNL A   1      45.050  32.779  32.313  1.00  0.00     0.009 A 
ATOM     77  C   UNL A   1      45.264  33.521  30.021  1.00  0.00     0.009 A 
ATOM     78  C   UNL A   1      45.467  34.035  32.756  1.00  0.00     0.001 A 
ATOM     79  C   UNL A   1      45.709  34.767  30.466  1.00  0.00     0.001 A 
ATOM     80  C   UNL A   1      45.801  35.025  31.833  1.00  0.00     0.000 A 
ENDBRANCH  62  75
ENDBRANCH  36  37
ENDBRANCH  28  31
ENDBRANCH  26  27
ENDBRANCH  25  26
ENDBRANCH   1  25
TORSDOF 15
ENDMDL
MODEL 2
REMARK VINA RESULT:     -10.6      1.053      1.704
REMARK SMILES CCCN1C(=O)CO[C@H](C(=O)NCCCCNC(=O)c2ccc(-c3c4nc(c(-c5ccccc5)c5ccc([nH]5)c(-c5ccccc5)c5nc(c(-c6ccccc6)c6ccc3[nH]6)C=C5)C=C4)cc2)[C@@H]1c1cncn1C1CC1
REMARK SMILES IDX 14 1 13 2 12 3 10 4 11 5 9 7 4 8 5 9 68 10 6 11 7 12 8 13
REMARK SMILES IDX 3 14 2 15 1 16 69 17 70 18 73 19 71 20 72 21 74 22 75 23
REMARK SMILES IDX 76 24 15 25 16 26 17 27 18 28 19 30 20 31 21 32 67 33 22 34
REMARK SMILES IDX 66 35 23 36 24 37 25 38 60 39 26 40 65 41 59 42 61 43 27 44
REMARK SMILES IDX 64 45 58 46 57 47 28 49 50 50 35 51 49 52 36 53 39 54 48 55
REMARK SMILES IDX 62 56 37 57 38 58 47 60 63 61 40 62 29 63 30 64 34 65 31 66
REMARK SMILES IDX 33 67 32 68 51 69 52 70 56 71 53 72 55 73 54 74 41 75 42 76
REMARK SMILES IDX 46 77 43 78 45 79 44 80
REMARK H PARENT 12 6 17 29 61 48 39 59
REMARK Flexibility Score: inf
ROOT
ATOM      1  C   UNL A   1      36.867  22.818  24.402  1.00  0.00     0.023 C 
ENDROOT
BRANCH   1   2
ATOM      2  C   UNL A   1      36.059  23.035  23.136  1.00  0.00     0.116 C 
BRANCH   2   3
ATOM      3  N   UNL A   1      34.677  22.631  23.181  1.00  0.00    -0.354 N 
ATOM      4  C   UNL A   1      33.587  23.450  23.049  1.00  0.00     0.251 C 
ATOM      5  O   UNL A   1      32.499  22.928  22.788  1.00  0.00    -0.272 OA
ATOM      6  H   UNL A   1      34.498  21.673  23.321  1.00  0.00     0.163 HD
BRANCH   4   7
ATOM      7  C   UNL A   1      33.694  24.986  23.222  1.00  0.00     0.236 C 
ATOM      8  N   UNL A   1      33.624  27.004  24.803  1.00  0.00    -0.329 N 
ATOM      9  C   UNL A   1      33.770  27.755  23.628  1.00  0.00     0.249 C 
ATOM     10  C   UNL A   1      33.642  25.524  24.684  1.00  0.00     0.172 C 
ATOM     11  O   UNL A   1      34.219  28.898  23.587  1.00  0.00    -0.272 OA
ATOM     12  C   UNL A   1      33.326  27.081  22.316  1.00  0.00     0.261 C 
ATOM     13  O   UNL A   1      32.844  25.752  22.379  1.00  0.00    -0.356 OA
BRANCH   8  14
ATOM     14  C   UNL A   1      33.967  27.582  26.119  1.00  0.00     0.120 C 
BRANCH  14  15
ATOM     15  C   UNL A   1      32.867  28.166  27.031  1.00  0.00     0.018 C 
ATOM     16  C   UNL A   1      32.429  29.598  26.761  1.00  0.00     0.006 C 
ENDBRANCH  14  15
ENDBRANCH   8  14
BRANCH  10  17
ATOM     17  C   UNL A   1      32.761  24.768  25.649  1.00  0.00     0.064 A 
ATOM     18  C   UNL A   1      33.267  23.781  26.499  1.00  0.00     0.136 A 
ATOM     19  N   UNL A   1      31.403  24.747  25.931  1.00  0.00    -0.330 N 
ATOM     20  N   UNL A   1      32.307  23.185  27.252  1.00  0.00    -0.245 NA
ATOM     21  C   UNL A   1      31.204  23.797  26.908  1.00  0.00     0.199 A 
BRANCH  19  22
ATOM     22  C   UNL A   1      30.223  25.411  25.404  1.00  0.00     0.088 C 
ATOM     23  C   UNL A   1      30.210  26.758  24.745  1.00  0.00     0.027 C 
ATOM     24  C   UNL A   1      29.859  25.563  23.944  1.00  0.00     0.027 C 
ENDBRANCH  19  22
ENDBRANCH  10  17
ENDBRANCH   4   7
ENDBRANCH   2   3
ENDBRANCH   1   2
BRANCH   1  25
ATOM     25  C   UNL A   1      37.423  21.411  24.587  1.00  0.00     0.023 C 
BRANCH  25  26
ATOM     26  C   UNL A   1      38.371  21.210  25.767  1.00  0.00     0.116 C 
BRANCH  26  27
ATOM     27  N   UNL A   1      39.257  20.063  25.622  1.00  0.00    -0.352 N 
ATOM     28  C   UNL A   1      40.587  19.925  25.959  1.00  0.00     0.251 C 
ATOM     29  H   UNL A   1      38.842  19.264  25.224  1.00  0.00     0.163 HD
ATOM     30  O   UNL A   1      41.181  18.888  25.701  1.00  0.00    -0.269 OA
BRANCH  28  31
ATOM     31  C   UNL A   1      41.306  21.060  26.579  1.00  0.00     0.039 A 
ATOM     32  C   UNL A   1      41.939  21.986  25.746  1.00  0.00     0.014 A 
ATOM     33  C   UNL A   1      41.307  21.246  27.963  1.00  0.00     0.014 A 
ATOM     34  C   UNL A   1      42.467  23.159  26.292  1.00  0.00     0.010 A 
ATOM     35  C   UNL A   1      41.765  22.449  28.497  1.00  0.00     0.010 A 
ATOM     36  C   UNL A   1      42.325  23.429  27.663  1.00  0.00    -0.014 A 
BRANCH  36  37
ATOM     37  C   UNL A   1      42.686  24.758  28.224  1.00  0.00     0.031 A 
ATOM     38  C   UNL A   1      41.646  25.827  28.408  1.00  0.00     0.074 A 
ATOM     39  C   UNL A   1      43.981  25.032  28.490  1.00  0.00     0.049 A 
ATOM     40  N   UNL A   1      41.797  27.059  28.826  1.00  0.00    -0.248 NA
ATOM     41  C   UNL A   1      40.261  25.476  28.058  1.00  0.00     0.031 C 
ATOM     42  C   UNL A   1      45.100  24.104  28.305  1.00  0.00     0.029 A 
ATOM     43  N   UNL A   1      44.577  26.176  28.961  1.00  0.00    -0.354 N 
ATOM     44  C   UNL A   1      40.533  27.634  28.775  1.00  0.00     0.074 A 
ATOM     45  C   UNL A   1      39.634  26.629  28.249  1.00  0.00     0.031 C 
ATOM     46  C   UNL A   1      46.240  24.708  28.677  1.00  0.00     0.029 A 
ATOM     47  C   UNL A   1      45.942  26.077  29.086  1.00  0.00     0.049 A 
ATOM     48  H   UNL A   1      44.074  26.991  29.189  1.00  0.00     0.167 HD
ATOM     49  C   UNL A   1      40.153  28.879  29.144  1.00  0.00     0.031 A 
ATOM     50  C   UNL A   1      46.858  26.986  29.469  1.00  0.00     0.031 A 
ATOM     51  C   UNL A   1      41.042  29.879  29.676  1.00  0.00     0.049 A 
ATOM     52  C   UNL A   1      46.409  28.366  29.859  1.00  0.00     0.074 A 
ATOM     53  C   UNL A   1      40.730  31.141  30.152  1.00  0.00     0.029 A 
ATOM     54  N   UNL A   1      42.415  29.735  29.792  1.00  0.00    -0.354 N 
ATOM     55  N   UNL A   1      45.196  28.860  29.893  1.00  0.00    -0.248 NA
ATOM     56  C   UNL A   1      47.457  29.313  30.268  1.00  0.00     0.031 C 
ATOM     57  C   UNL A   1      41.923  31.784  30.500  1.00  0.00     0.029 A 
ATOM     58  C   UNL A   1      42.970  30.901  30.295  1.00  0.00     0.049 A 
ATOM     59  H   UNL A   1      42.921  28.926  29.553  1.00  0.00     0.167 HD
ATOM     60  C   UNL A   1      45.333  30.167  30.343  1.00  0.00     0.074 A 
ATOM     61  C   UNL A   1      46.743  30.381  30.593  1.00  0.00     0.031 C 
ATOM     62  C   UNL A   1      44.374  31.107  30.530  1.00  0.00     0.031 A 
BRANCH  49  63
ATOM     63  C   UNL A   1      38.704  29.243  28.981  1.00  0.00    -0.014 A 
ATOM     64  C   UNL A   1      38.203  29.705  27.754  1.00  0.00     0.009 A 
ATOM     65  C   UNL A   1      37.816  29.062  30.053  1.00  0.00     0.009 A 
ATOM     66  C   UNL A   1      36.846  30.004  27.612  1.00  0.00     0.001 A 
ATOM     67  C   UNL A   1      36.455  29.337  29.901  1.00  0.00     0.001 A 
ATOM     68  C   UNL A   1      35.974  29.815  28.684  1.00  0.00     0.000 A 
ENDBRANCH  49  63
BRANCH  50  69
ATOM     69  C   UNL A   1      48.301  26.628  29.496  1.00  0.00    -0.014 A 
ATOM     70  C   UNL A   1      48.875  26.054  30.640  1.00  0.00     0.009 A 
ATOM     71  C   UNL A   1      49.117  26.879  28.381  1.00  0.00     0.009 A 
ATOM     72  C   UNL A   1      50.241  25.765  30.679  1.00  0.00     0.001 A 
ATOM     73  C   UNL A   1      50.477  26.561  28.412  1.00  0.00     0.001 A 
ATOM     74  C   UNL A   1      51.039  26.015  29.563  1.00  0.00     0.000 A 
ENDBRANCH  50  69
BRANCH  62  75
ATOM     75  C   UNL A   1      44.818  32.448  31.041  1.00  0.00    -0.014 A 
ATOM     76  C   UNL A   1      44.915  32.704  32.418  1.00  0.00     0.009 A 
ATOM     77  C   UNL A   1      45.178  33.457  30.135  1.00  0.00     0.009 A 
ATOM     78  C   UNL A   1      45.335  33.954  32.876  1.00  0.00     0.001 A 
ATOM     79  C   UNL A   1      45.625  34.697  30.596  1.00  0.00     0.001 A 
ATOM     80  C   UNL A   1      45.694  34.947  31.965  1.00  0.00     0.000 A 
ENDBRANCH  62  75
ENDBRANCH  36  37
ENDBRANCH  28  31
ENDBRANCH  26  27
ENDBRANCH  25  26
ENDBRANCH   1  25
TORSDOF 15
ENDMDL
MODEL 3
REMARK VINA RESULT:     -10.6      1.177      6.149
REMARK SMILES CCCN1C(=O)CO[C@H](C(=O)NCCCCNC(=O)c2ccc(-c3c4nc(c(-c5ccccc5)c5ccc([nH]5)c(-c5ccccc5)c5nc(c(-c6ccccc6)c6ccc3[nH]6)C=C5)C=C4)cc2)[C@@H]1c1cncn1C1CC1
REMARK SMILES IDX 14 1 13 2 12 3 10 4 11 5 9 7 4 8 5 9 68 10 6 11 7 12 8 13
REMARK SMILES IDX 3 14 2 15 1 16 69 17 70 18 73 19 71 20 72 21 74 22 75 23
REMARK SMILES IDX 76 24 15 25 16 26 17 27 18 28 19 30 20 31 21 32 67 33 22 34
REMARK SMILES IDX 66 35 23 36 24 37 25 38 60 39 26 40 65 41 59 42 61 43 27 44
REMARK SMILES IDX 64 45 58 46 57 47 28 49 50 50 35 51 49 52 36 53 39 54 48 55
REMARK SMILES IDX 62 56 37 57 38 58 47 60 63 61 40 62 29 63 30 64 34 65 31 66
REMARK SMILES IDX 33 67 32 68 51 69 52 70 56 71 53 72 55 73 54 74 41 75 42 76
REMARK SMILES IDX 46 77 43 78 45 79 44 80
REMARK H PARENT 12 6 17 29 61 48 39 59
REMARK Flexibility Score: inf
ROOT
ATOM      1  C   UNL A   1      35.964  21.162  24.965  1.00  0.00     0.023 C 
ENDROOT
BRANCH   1   2
ATOM      2  C   UNL A   1      35.218  22.407  24.522  1.00  0.00     0.116 C 
BRANCH   2   3
ATOM      3  N   UNL A   1      33.874  22.211  24.040  1.00  0.00    -0.354 N 
ATOM      4  C   UNL A   1      33.077  23.157  23.452  1.00  0.00     0.251 C 
ATOM      5  O   UNL A   1      32.096  22.769  22.810  1.00  0.00    -0.272 OA
ATOM      6  H   UNL A   1      33.492  21.310  24.145  1.00  0.00     0.163 HD
BRANCH   4   7
ATOM      7  C   UNL A   1      33.377  24.672  23.579  1.00  0.00     0.236 C 
ATOM      8  N   UNL A   1      33.319  26.783  25.033  1.00  0.00    -0.329 N 
ATOM      9  C   UNL A   1      33.787  27.424  23.878  1.00  0.00     0.249 C 
ATOM     10  C   UNL A   1      33.139  25.309  24.981  1.00  0.00     0.172 C 
ATOM     11  O   UNL A   1      34.400  28.490  23.876  1.00  0.00    -0.272 OA
ATOM     12  C   UNL A   1      33.495  26.731  22.534  1.00  0.00     0.261 C 
ATOM     13  O   UNL A   1      32.819  25.488  22.558  1.00  0.00    -0.356 OA
BRANCH   8  14
ATOM     14  C   UNL A   1      33.497  27.397  26.366  1.00  0.00     0.120 C 
BRANCH  14  15
ATOM     15  C   UNL A   1      32.357  28.208  27.016  1.00  0.00     0.018 C 
ATOM     16  C   UNL A   1      32.560  29.710  27.147  1.00  0.00     0.006 C 
ENDBRANCH  14  15
ENDBRANCH   8  14
BRANCH  10  17
ATOM     17  C   UNL A   1      31.995  24.749  25.790  1.00  0.00     0.064 A 
ATOM     18  C   UNL A   1      32.183  23.752  26.751  1.00  0.00     0.136 A 
ATOM     19  N   UNL A   1      30.621  24.945  25.817  1.00  0.00    -0.330 N 
ATOM     20  N   UNL A   1      31.023  23.350  27.332  1.00  0.00    -0.245 NA
ATOM     21  C   UNL A   1      30.107  24.094  26.771  1.00  0.00     0.199 A 
BRANCH  19  22
ATOM     22  C   UNL A   1      29.671  25.740  25.060  1.00  0.00     0.088 C 
ATOM     23  C   UNL A   1      29.990  27.018  24.342  1.00  0.00     0.027 C 
ATOM     24  C   UNL A   1      29.581  25.834  23.552  1.00  0.00     0.027 C 
ENDBRANCH  19  22
ENDBRANCH  10  17
ENDBRANCH   4   7
ENDBRANCH   2   3
ENDBRANCH   1   2
BRANCH   1  25
ATOM     25  C   UNL A   1      37.431  21.102  24.558  1.00  0.00     0.023 C 
BRANCH  25  26
ATOM     26  C   UNL A   1      38.447  21.052  25.697  1.00  0.00     0.116 C 
BRANCH  26  27
ATOM     27  N   UNL A   1      39.370  19.929  25.615  1.00  0.00    -0.352 N 
ATOM     28  C   UNL A   1      40.697  19.846  25.978  1.00  0.00     0.251 C 
ATOM     29  H   UNL A   1      38.987  19.101  25.243  1.00  0.00     0.163 HD
ATOM     30  O   UNL A   1      41.327  18.819  25.775  1.00  0.00    -0.269 OA
BRANCH  28  31
ATOM     31  C   UNL A   1      41.371  21.028  26.562  1.00  0.00     0.039 A 
ATOM     32  C   UNL A   1      42.003  21.929  25.702  1.00  0.00     0.014 A 
ATOM     33  C   UNL A   1      41.329  21.279  27.935  1.00  0.00     0.014 A 
ATOM     34  C   UNL A   1      42.486  23.140  26.204  1.00  0.00     0.010 A 
ATOM     35  C   UNL A   1      41.742  22.518  28.422  1.00  0.00     0.010 A 
ATOM     36  C   UNL A   1      42.300  23.471  27.557  1.00  0.00    -0.014 A 
BRANCH  36  37
ATOM     37  C   UNL A   1      42.613  24.834  28.063  1.00  0.00     0.031 A 
ATOM     38  C   UNL A   1      44.001  25.188  28.519  1.00  0.00     0.074 A 
ATOM     39  C   UNL A   1      41.617  25.735  28.191  1.00  0.00     0.049 A 
ATOM     40  N   UNL A   1      44.435  26.307  29.043  1.00  0.00    -0.248 NA
ATOM     41  C   UNL A   1      45.030  24.144  28.391  1.00  0.00     0.031 C 
ATOM     42  C   UNL A   1      40.213  25.505  27.838  1.00  0.00     0.029 A 
ATOM     43  N   UNL A   1      41.629  27.024  28.668  1.00  0.00    -0.354 N 
ATOM     44  C   UNL A   1      45.779  26.098  29.322  1.00  0.00     0.074 A 
ATOM     45  C   UNL A   1      46.081  24.734  28.945  1.00  0.00     0.031 C 
ATOM     46  C   UNL A   1      39.507  26.619  28.090  1.00  0.00     0.029 A 
ATOM     47  C   UNL A   1      40.394  27.627  28.662  1.00  0.00     0.049 A 
ATOM     48  H   UNL A   1      42.446  27.474  28.983  1.00  0.00     0.167 HD
ATOM     49  C   UNL A   1      46.684  26.967  29.832  1.00  0.00     0.031 A 
ATOM     50  C   UNL A   1      40.009  28.846  29.083  1.00  0.00     0.031 A 
ATOM     51  C   UNL A   1      46.390  28.327  30.200  1.00  0.00     0.049 A 
ATOM     52  C   UNL A   1      41.032  29.784  29.659  1.00  0.00     0.074 A 
ATOM     53  C   UNL A   1      47.263  29.304  30.649  1.00  0.00     0.029 A 
ATOM     54  N   UNL A   1      45.129  28.900  30.172  1.00  0.00    -0.354 N 
ATOM     55  N   UNL A   1      42.318  29.600  29.827  1.00  0.00    -0.248 NA
ATOM     56  C   UNL A   1      40.549  31.101  30.101  1.00  0.00     0.031 C 
ATOM     57  C   UNL A   1      46.519  30.449  30.952  1.00  0.00     0.029 A 
ATOM     58  C   UNL A   1      45.194  30.204  30.634  1.00  0.00     0.049 A 
ATOM     59  H   UNL A   1      44.309  28.448  29.868  1.00  0.00     0.167 HD
ATOM     60  C   UNL A   1      42.801  30.782  30.375  1.00  0.00     0.074 A 
ATOM     61  C   UNL A   1      41.674  31.684  30.489  1.00  0.00     0.031 C 
ATOM     62  C   UNL A   1      44.065  31.089  30.753  1.00  0.00     0.031 A 
BRANCH  49  63
ATOM     63  C   UNL A   1      48.089  26.472  30.033  1.00  0.00    -0.014 A 
ATOM     64  C   UNL A   1      49.066  26.632  29.038  1.00  0.00     0.009 A 
ATOM     65  C   UNL A   1      48.455  25.895  31.259  1.00  0.00     0.009 A 
ATOM     66  C   UNL A   1      50.375  26.197  29.257  1.00  0.00     0.001 A 
ATOM     67  C   UNL A   1      49.771  25.486  31.486  1.00  0.00     0.001 A 
ATOM     68  C   UNL A   1      50.727  25.630  30.482  1.00  0.00     0.000 A 
ENDBRANCH  49  63
BRANCH  50  69
ATOM     69  C   UNL A   1      38.583  29.255  28.987  1.00  0.00    -0.014 A 
ATOM     70  C   UNL A   1      38.061  29.755  27.784  1.00  0.00     0.009 A 
ATOM     71  C   UNL A   1      37.740  29.165  30.106  1.00  0.00     0.009 A 
ATOM     72  C   UNL A   1      36.734  30.184  27.711  1.00  0.00     0.001 A 
ATOM     73  C   UNL A   1      36.404  29.566  30.022  1.00  0.00     0.001 A 
ATOM     74  C   UNL A   1      35.906  30.085  28.829  1.00  0.00     0.000 A 
ENDBRANCH  50  69
BRANCH  62  75
ATOM     75  C   UNL A   1      44.299  32.464  31.313  1.00  0.00    -0.014 A 
ATOM     76  C   UNL A   1      44.600  33.548  30.474  1.00  0.00     0.009 A 
ATOM     77  C   UNL A   1      44.182  32.685  32.694  1.00  0.00     0.009 A 
ATOM     78  C   UNL A   1      44.809  34.819  31.010  1.00  0.00     0.001 A 
ATOM     79  C   UNL A   1      44.363  33.963  33.225  1.00  0.00     0.001 A 
ATOM     80  C   UNL A   1      44.685  35.027  32.384  1.00  0.00     0.000 A 
ENDBRANCH  62  75
ENDBRANCH  36  37
ENDBRANCH  28  31
ENDBRANCH  26  27
ENDBRANCH  25  26
ENDBRANCH   1  25
TORSDOF 15
ENDMDL
