MODEL 1
REMARK VINA RESULT:     -12.1      0.000      0.000
REMARK SMILES O=C(NCCCCNC(=O)[C@@H]1CC=CC[C@H]1C(=O)N1CC[NH+](Cc2ccc3c(c2)OCO3)CC1)c1ccc(-c2c3nc(c(-c4ccccc4)c4ccc([nH]4)c(-c4ccccc4)c4nc(c(-c5ccccc5)c5ccc2[nH]5)C=C4)C=C3)cc1
REMARK SMILES IDX 6 1 5 2 4 3 3 4 1 5 2 6 35 8 36 9 82 10 37 11 81 12 38 13
REMARK SMILES IDX 39 14 40 15 75 16 41 17 80 18 74 19 76 20 42 21 79 22 73 23
REMARK SMILES IDX 72 24 43 26 65 27 50 28 64 29 51 30 54 31 63 32 77 33 52 34
REMARK SMILES IDX 53 35 62 37 78 38 55 39 44 40 45 41 49 42 46 43 48 44 47 45
REMARK SMILES IDX 66 46 67 47 71 48 68 49 70 50 69 51 56 52 57 53 61 54 58 55
REMARK SMILES IDX 60 56 59 57 7 58 8 59 9 60 10 62 11 63 12 64 16 65 13 66
REMARK SMILES IDX 15 67 14 68 17 69 18 70 19 71 20 72 34 73 21 74 33 75 22 76
REMARK SMILES IDX 23 78 24 79 25 80 29 81 26 82 28 83 27 84 30 85 32 86 31 87
REMARK H PARENT 3 7 76 25 54 36 8 61 22 77
REMARK Flexibility Score: inf
ROOT
ATOM      1  C   UNL A   1      38.703  22.727  26.442  1.00  0.00     0.023 C 
ENDROOT
BRANCH   1   2
ATOM      2  C   UNL A   1      39.146  21.509  25.637  1.00  0.00     0.023 C 
BRANCH   2   3
ATOM      3  C   UNL A   1      39.358  20.239  26.453  1.00  0.00     0.116 C 
BRANCH   3   4
ATOM      4  N   UNL A   1      40.486  19.442  25.992  1.00  0.00    -0.352 N 
ATOM      5  O   UNL A   1      42.627  19.022  25.408  1.00  0.00    -0.269 OA
ATOM      6  C   UNL A   1      41.817  19.776  25.938  1.00  0.00     0.251 C 
ATOM      7  H   UNL A   1      40.263  18.537  25.674  1.00  0.00     0.163 HD
BRANCH   6   8
ATOM      8  C   UNL A   1      42.260  21.069  26.495  1.00  0.00     0.039 A 
ATOM      9  C   UNL A   1      42.270  21.279  27.875  1.00  0.00     0.014 A 
ATOM     10  C   UNL A   1      42.636  22.090  25.619  1.00  0.00     0.014 A 
ATOM     11  C   UNL A   1      42.510  22.553  28.374  1.00  0.00     0.010 A 
ATOM     12  C   UNL A   1      42.957  23.349  26.128  1.00  0.00     0.010 A 
ATOM     13  C   UNL A   1      42.860  23.599  27.505  1.00  0.00    -0.014 A 
BRANCH  13  14
ATOM     14  C   UNL A   1      43.163  24.940  28.060  1.00  0.00     0.031 A 
ATOM     15  C   UNL A   1      42.069  25.938  28.316  1.00  0.00     0.074 A 
ATOM     16  C   UNL A   1      44.442  25.249  28.343  1.00  0.00     0.049 A 
ATOM     17  N   UNL A   1      42.163  27.160  28.775  1.00  0.00    -0.248 NA
ATOM     18  C   UNL A   1      40.693  25.514  28.012  1.00  0.00     0.031 C 
ATOM     19  C   UNL A   1      45.589  24.359  28.143  1.00  0.00     0.029 A 
ATOM     20  N   UNL A   1      44.991  26.389  28.868  1.00  0.00    -0.354 N 
ATOM     21  C   UNL A   1      40.867  27.660  28.792  1.00  0.00     0.074 A 
ATOM     22  C   UNL A   1      40.006  26.615  28.279  1.00  0.00     0.031 C 
ATOM     23  C   UNL A   1      46.699  24.973  28.574  1.00  0.00     0.029 A 
ATOM     24  C   UNL A   1      46.353  26.318  29.019  1.00  0.00     0.049 A 
ATOM     25  H   UNL A   1      44.460  27.180  29.114  1.00  0.00     0.167 HD
ATOM     26  C   UNL A   1      40.436  28.878  29.199  1.00  0.00     0.031 A 
ATOM     27  C   UNL A   1      47.234  27.240  29.448  1.00  0.00     0.031 A 
ATOM     28  C   UNL A   1      41.295  29.914  29.710  1.00  0.00     0.049 A 
ATOM     29  C   UNL A   1      46.735  28.591  29.857  1.00  0.00     0.074 A 
ATOM     30  C   UNL A   1      40.950  31.171  30.175  1.00  0.00     0.029 A 
ATOM     31  N   UNL A   1      42.675  29.813  29.818  1.00  0.00    -0.354 N 
ATOM     32  N   UNL A   1      45.505  29.041  29.887  1.00  0.00    -0.248 NA
ATOM     33  C   UNL A   1      47.747  29.563  30.292  1.00  0.00     0.031 C 
ATOM     34  C   UNL A   1      42.124  31.848  30.520  1.00  0.00     0.029 A 
ATOM     35  C   UNL A   1      43.196  30.994  30.320  1.00  0.00     0.049 A 
ATOM     36  H   UNL A   1      43.204  29.019  29.574  1.00  0.00     0.167 HD
ATOM     37  C   UNL A   1      45.589  30.342  30.360  1.00  0.00     0.074 A 
ATOM     38  C   UNL A   1      46.992  30.603  30.619  1.00  0.00     0.031 C 
ATOM     39  C   UNL A   1      44.595  31.239  30.564  1.00  0.00     0.031 A 
BRANCH  26  40
ATOM     40  C   UNL A   1      38.965  29.169  29.076  1.00  0.00    -0.014 A 
ATOM     41  C   UNL A   1      38.092  29.001  30.161  1.00  0.00     0.009 A 
ATOM     42  C   UNL A   1      38.454  29.653  27.860  1.00  0.00     0.009 A 
ATOM     43  C   UNL A   1      36.730  29.279  30.021  1.00  0.00     0.001 A 
ATOM     44  C   UNL A   1      37.097  29.954  27.732  1.00  0.00     0.001 A 
ATOM     45  C   UNL A   1      36.234  29.758  28.809  1.00  0.00     0.000 A 
ENDBRANCH  26  40
BRANCH  27  46
ATOM     46  C   UNL A   1      48.679  26.904  29.490  1.00  0.00    -0.014 A 
ATOM     47  C   UNL A   1      49.238  26.303  30.627  1.00  0.00     0.009 A 
ATOM     48  C   UNL A   1      49.498  27.151  28.376  1.00  0.00     0.009 A 
ATOM     49  C   UNL A   1      50.593  25.966  30.651  1.00  0.00     0.001 A 
ATOM     50  C   UNL A   1      50.846  26.788  28.394  1.00  0.00     0.001 A 
ATOM     51  C   UNL A   1      51.393  26.202  29.534  1.00  0.00     0.000 A 
ENDBRANCH  27  46
BRANCH  39  52
ATOM     52  C   UNL A   1      44.988  32.576  31.120  1.00  0.00    -0.014 A 
ATOM     53  C   UNL A   1      45.381  33.627  30.278  1.00  0.00     0.009 A 
ATOM     54  C   UNL A   1      44.934  32.795  32.506  1.00  0.00     0.009 A 
ATOM     55  C   UNL A   1      45.742  34.864  30.817  1.00  0.00     0.001 A 
ATOM     56  C   UNL A   1      45.272  34.039  33.039  1.00  0.00     0.001 A 
ATOM     57  C   UNL A   1      45.683  35.070  32.195  1.00  0.00     0.000 A 
ENDBRANCH  39  52
ENDBRANCH  13  14
ENDBRANCH   6   8
ENDBRANCH   3   4
ENDBRANCH   2   3
ENDBRANCH   1   2
BRANCH   1  58
ATOM     58  C   UNL A   1      37.571  23.522  25.808  1.00  0.00     0.116 C 
BRANCH  58  59
ATOM     59  N   UNL A   1      37.509  23.377  24.364  1.00  0.00    -0.356 N 
ATOM     60  C   UNL A   1      36.474  22.936  23.582  1.00  0.00     0.224 C 
ATOM     61  H   UNL A   1      38.326  23.630  23.878  1.00  0.00     0.163 HD
ATOM     62  O   UNL A   1      36.580  23.037  22.361  1.00  0.00    -0.275 OA
BRANCH  60  63
ATOM     63  C   UNL A   1      35.269  22.292  24.249  1.00  0.00     0.095 C 
ATOM     64  C   UNL A   1      35.695  20.860  24.616  1.00  0.00     0.041 C 
ATOM     65  C   UNL A   1      34.019  22.267  23.357  1.00  0.00     0.095 C 
ATOM     66  C   UNL A   1      34.563  20.051  25.165  1.00  0.00    -0.030 C 
ATOM     67  C   UNL A   1      32.864  21.526  24.076  1.00  0.00     0.041 C 
ATOM     68  C   UNL A   1      33.283  20.365  24.931  1.00  0.00    -0.030 C 
BRANCH  65  69
ATOM     69  C   UNL A   1      33.445  23.622  22.920  1.00  0.00     0.227 C 
ATOM     70  O   UNL A   1      33.319  23.891  21.723  1.00  0.00    -0.275 OA
ATOM     71  N   UNL A   1      32.792  24.362  23.899  1.00  0.00    -0.331 N 
ATOM     72  C   UNL A   1      31.468  24.884  23.575  1.00  0.00     0.181 C 
ATOM     73  C   UNL A   1      33.550  25.281  24.730  1.00  0.00     0.181 C 
ATOM     74  C   UNL A   1      30.690  25.318  24.839  1.00  0.00     0.284 C 
ATOM     75  C   UNL A   1      32.798  25.609  26.031  1.00  0.00     0.284 C 
ATOM     76  N   UNL A   1      31.426  26.102  25.847  1.00  0.00    -0.328 N 
ATOM     77  H   UNL A   1      30.942  25.923  26.728  1.00  0.00     0.348 HD
BRANCH  76  78
ATOM     78  C   UNL A   1      31.289  27.562  25.756  1.00  0.00     0.299 C 
BRANCH  78  79
ATOM     79  C   UNL A   1      30.858  28.114  24.417  1.00  0.00     0.010 A 
ATOM     80  C   UNL A   1      31.821  28.599  23.504  1.00  0.00     0.013 A 
ATOM     81  C   UNL A   1      29.490  28.236  24.109  1.00  0.00     0.060 A 
ATOM     82  C   UNL A   1      31.437  29.285  22.348  1.00  0.00     0.051 A 
ATOM     83  C   UNL A   1      29.142  28.934  22.973  1.00  0.00     0.166 A 
ATOM     84  C   UNL A   1      30.089  29.457  22.125  1.00  0.00     0.165 A 
ATOM     85  O   UNL A   1      27.875  29.244  22.590  1.00  0.00    -0.454 OA
ATOM     86  O   UNL A   1      29.537  30.157  21.100  1.00  0.00    -0.454 OA
ATOM     87  C   UNL A   1      28.139  30.092  21.451  1.00  0.00     0.468 C 
ENDBRANCH  78  79
ENDBRANCH  76  78
ENDBRANCH  65  69
ENDBRANCH  60  63
ENDBRANCH  58  59
ENDBRANCH   1  58
TORSDOF 14
ENDMDL
MODEL 2
REMARK VINA RESULT:     -12.1      0.188      5.672
REMARK SMILES O=C(NCCCCNC(=O)[C@@H]1CC=CC[C@H]1C(=O)N1CC[NH+](Cc2ccc3c(c2)OCO3)CC1)c1ccc(-c2c3nc(c(-c4ccccc4)c4ccc([nH]4)c(-c4ccccc4)c4nc(c(-c5ccccc5)c5ccc2[nH]5)C=C4)C=C3)cc1
REMARK SMILES IDX 6 1 5 2 4 3 3 4 1 5 2 6 35 8 36 9 82 10 37 11 81 12 38 13
REMARK SMILES IDX 39 14 40 15 75 16 41 17 80 18 74 19 76 20 42 21 79 22 73 23
REMARK SMILES IDX 72 24 43 26 65 27 50 28 64 29 51 30 54 31 63 32 77 33 52 34
REMARK SMILES IDX 53 35 62 37 78 38 55 39 44 40 45 41 49 42 46 43 48 44 47 45
REMARK SMILES IDX 66 46 67 47 71 48 68 49 70 50 69 51 56 52 57 53 61 54 58 55
REMARK SMILES IDX 60 56 59 57 7 58 8 59 9 60 10 62 11 63 12 64 16 65 13 66
REMARK SMILES IDX 15 67 14 68 17 69 18 70 19 71 20 72 34 73 21 74 33 75 22 76
REMARK SMILES IDX 23 78 24 79 25 80 29 81 26 82 28 83 27 84 30 85 32 86 31 87
REMARK H PARENT 3 7 76 25 54 36 8 61 22 77
REMARK Flexibility Score: inf
ROOT
ATOM      1  C   UNL A   1      38.714  22.704  26.469  1.00  0.00     0.023 C 
ENDROOT
BRANCH   1   2
ATOM      2  C   UNL A   1      39.181  21.499  25.658  1.00  0.00     0.023 C 
BRANCH   2   3
ATOM      3  C   UNL A   1      39.467  20.244  26.475  1.00  0.00     0.116 C 
BRANCH   3   4
ATOM      4  N   UNL A   1      40.607  19.485  25.981  1.00  0.00    -0.352 N 
ATOM      5  O   UNL A   1      42.746  19.134  25.349  1.00  0.00    -0.269 OA
ATOM      6  C   UNL A   1      41.927  19.857  25.905  1.00  0.00     0.251 C 
ATOM      7  H   UNL A   1      40.404  18.578  25.656  1.00  0.00     0.163 HD
BRANCH   6   8
ATOM      8  C   UNL A   1      42.345  21.156  26.469  1.00  0.00     0.039 A 
ATOM      9  C   UNL A   1      42.312  21.371  27.849  1.00  0.00     0.014 A 
ATOM     10  C   UNL A   1      42.739  22.176  25.601  1.00  0.00     0.014 A 
ATOM     11  C   UNL A   1      42.528  22.649  28.348  1.00  0.00     0.010 A 
ATOM     12  C   UNL A   1      43.036  23.439  26.113  1.00  0.00     0.010 A 
ATOM     13  C   UNL A   1      42.896  23.693  27.486  1.00  0.00    -0.014 A 
BRANCH  13  14
ATOM     14  C   UNL A   1      43.174  25.039  28.044  1.00  0.00     0.031 A 
ATOM     15  C   UNL A   1      44.577  25.464  28.378  1.00  0.00     0.074 A 
ATOM     16  C   UNL A   1      42.146  25.884  28.237  1.00  0.00     0.049 A 
ATOM     17  N   UNL A   1      44.992  26.595  28.892  1.00  0.00    -0.248 NA
ATOM     18  C   UNL A   1      45.651  24.496  28.107  1.00  0.00     0.031 C 
ATOM     19  C   UNL A   1      40.741  25.585  27.944  1.00  0.00     0.029 A 
ATOM     20  N   UNL A   1      42.122  27.168  28.714  1.00  0.00    -0.354 N 
ATOM     21  C   UNL A   1      46.368  26.466  29.029  1.00  0.00     0.074 A 
ATOM     22  C   UNL A   1      46.716  25.141  28.562  1.00  0.00     0.031 C 
ATOM     23  C   UNL A   1      39.998  26.667  28.214  1.00  0.00     0.029 A 
ATOM     24  C   UNL A   1      40.861  27.710  28.757  1.00  0.00     0.049 A 
ATOM     25  H   UNL A   1      42.929  27.654  28.998  1.00  0.00     0.167 HD
ATOM     26  C   UNL A   1      47.259  27.371  29.501  1.00  0.00     0.031 A 
ATOM     27  C   UNL A   1      40.439  28.906  29.204  1.00  0.00     0.031 A 
ATOM     28  C   UNL A   1      46.909  28.689  29.964  1.00  0.00     0.049 A 
ATOM     29  C   UNL A   1      41.440  29.875  29.755  1.00  0.00     0.074 A 
ATOM     30  C   UNL A   1      47.743  29.689  30.433  1.00  0.00     0.029 A 
ATOM     31  N   UNL A   1      45.616  29.188  30.020  1.00  0.00    -0.354 N 
ATOM     32  N   UNL A   1      42.740  29.746  29.858  1.00  0.00    -0.248 NA
ATOM     33  C   UNL A   1      40.915  31.154  30.251  1.00  0.00     0.031 C 
ATOM     34  C   UNL A   1      46.951  30.775  30.817  1.00  0.00     0.029 A 
ATOM     35  C   UNL A   1      45.628  30.472  30.537  1.00  0.00     0.049 A 
ATOM     36  H   UNL A   1      44.810  28.701  29.733  1.00  0.00     0.167 HD
ATOM     37  C   UNL A   1      43.193  30.933  30.415  1.00  0.00     0.074 A 
ATOM     38  C   UNL A   1      42.030  31.775  30.612  1.00  0.00     0.031 C 
ATOM     39  C   UNL A   1      44.460  31.293  30.732  1.00  0.00     0.031 A 
BRANCH  26  40
ATOM     40  C   UNL A   1      48.702  26.951  29.573  1.00  0.00    -0.014 A 
ATOM     41  C   UNL A   1      49.238  26.368  30.731  1.00  0.00     0.009 A 
ATOM     42  C   UNL A   1      49.527  27.111  28.447  1.00  0.00     0.009 A 
ATOM     43  C   UNL A   1      50.581  25.986  30.772  1.00  0.00     0.001 A 
ATOM     44  C   UNL A   1      50.862  26.704  28.483  1.00  0.00     0.001 A 
ATOM     45  C   UNL A   1      51.390  26.150  29.648  1.00  0.00     0.000 A 
ENDBRANCH  26  40
BRANCH  27  46
ATOM     46  C   UNL A   1      38.992  29.234  29.157  1.00  0.00    -0.014 A 
ATOM     47  C   UNL A   1      38.408  29.716  27.977  1.00  0.00     0.009 A 
ATOM     48  C   UNL A   1      38.181  29.028  30.285  1.00  0.00     0.009 A 
ATOM     49  C   UNL A   1      37.042  29.999  27.932  1.00  0.00     0.001 A 
ATOM     50  C   UNL A   1      36.810  29.286  30.227  1.00  0.00     0.001 A 
ATOM     51  C   UNL A   1      36.243  29.777  29.053  1.00  0.00     0.000 A 
ENDBRANCH  27  46
BRANCH  39  52
ATOM     52  C   UNL A   1      44.654  32.669  31.299  1.00  0.00    -0.014 A 
ATOM     53  C   UNL A   1      44.606  32.901  32.682  1.00  0.00     0.009 A 
ATOM     54  C   UNL A   1      44.920  33.744  30.435  1.00  0.00     0.009 A 
ATOM     55  C   UNL A   1      44.790  34.190  33.187  1.00  0.00     0.001 A 
ATOM     56  C   UNL A   1      45.128  35.026  30.945  1.00  0.00     0.001 A 
ATOM     57  C   UNL A   1      45.055  35.249  32.320  1.00  0.00     0.000 A 
ENDBRANCH  39  52
ENDBRANCH  13  14
ENDBRANCH   6   8
ENDBRANCH   3   4
ENDBRANCH   2   3
ENDBRANCH   1   2
BRANCH   1  58
ATOM     58  C   UNL A   1      37.587  23.497  25.825  1.00  0.00     0.116 C 
BRANCH  58  59
ATOM     59  N   UNL A   1      37.545  23.360  24.379  1.00  0.00    -0.356 N 
ATOM     60  C   UNL A   1      36.521  22.921  23.581  1.00  0.00     0.224 C 
ATOM     61  H   UNL A   1      38.368  23.617  23.905  1.00  0.00     0.163 HD
ATOM     62  O   UNL A   1      36.643  23.029  22.362  1.00  0.00    -0.275 OA
BRANCH  60  63
ATOM     63  C   UNL A   1      35.308  22.271  24.228  1.00  0.00     0.095 C 
ATOM     64  C   UNL A   1      35.728  20.834  24.583  1.00  0.00     0.041 C 
ATOM     65  C   UNL A   1      34.068  22.260  23.324  1.00  0.00     0.095 C 
ATOM     66  C   UNL A   1      34.590  20.021  25.111  1.00  0.00    -0.030 C 
ATOM     67  C   UNL A   1      32.905  21.512  24.022  1.00  0.00     0.041 C 
ATOM     68  C   UNL A   1      33.313  20.340  24.867  1.00  0.00    -0.030 C 
BRANCH  65  69
ATOM     69  C   UNL A   1      33.500  23.620  22.897  1.00  0.00     0.227 C 
ATOM     70  O   UNL A   1      33.383  23.902  21.702  1.00  0.00    -0.275 OA
ATOM     71  N   UNL A   1      32.842  24.352  23.879  1.00  0.00    -0.331 N 
ATOM     72  C   UNL A   1      31.522  24.881  23.551  1.00  0.00     0.181 C 
ATOM     73  C   UNL A   1      33.596  25.260  24.725  1.00  0.00     0.181 C 
ATOM     74  C   UNL A   1      30.736  25.303  24.814  1.00  0.00     0.284 C 
ATOM     75  C   UNL A   1      32.837  25.576  26.024  1.00  0.00     0.284 C 
ATOM     76  N   UNL A   1      31.468  26.075  25.836  1.00  0.00    -0.328 N 
ATOM     77  H   UNL A   1      30.977  25.888  26.711  1.00  0.00     0.348 HD
BRANCH  76  78
ATOM     78  C   UNL A   1      31.335  27.536  25.760  1.00  0.00     0.299 C 
BRANCH  78  79
ATOM     79  C   UNL A   1      30.910  28.103  24.425  1.00  0.00     0.010 A 
ATOM     80  C   UNL A   1      31.877  28.601  23.523  1.00  0.00     0.013 A 
ATOM     81  C   UNL A   1      29.544  28.226  24.110  1.00  0.00     0.060 A 
ATOM     82  C   UNL A   1      31.498  29.300  22.373  1.00  0.00     0.051 A 
ATOM     83  C   UNL A   1      29.201  28.936  22.980  1.00  0.00     0.166 A 
ATOM     84  C   UNL A   1      30.151  29.471  22.145  1.00  0.00     0.165 A 
ATOM     85  O   UNL A   1      27.935  29.247  22.594  1.00  0.00    -0.454 OA
ATOM     86  O   UNL A   1      29.603  30.182  21.124  1.00  0.00    -0.454 OA
ATOM     87  C   UNL A   1      28.203  30.109  21.467  1.00  0.00     0.468 C 
ENDBRANCH  78  79
ENDBRANCH  76  78
ENDBRANCH  65  69
ENDBRANCH  60  63
ENDBRANCH  58  59
ENDBRANCH   1  58
TORSDOF 14
ENDMDL
MODEL 3
REMARK VINA RESULT:     -12.0      4.347     10.032
REMARK SMILES O=C(NCCCCNC(=O)[C@@H]1CC=CC[C@H]1C(=O)N1CC[NH+](Cc2ccc3c(c2)OCO3)CC1)c1ccc(-c2c3nc(c(-c4ccccc4)c4ccc([nH]4)c(-c4ccccc4)c4nc(c(-c5ccccc5)c5ccc2[nH]5)C=C4)C=C3)cc1
REMARK SMILES IDX 6 1 5 2 4 3 3 4 1 5 2 6 35 8 36 9 82 10 37 11 81 12 38 13
REMARK SMILES IDX 39 14 40 15 75 16 41 17 80 18 74 19 76 20 42 21 79 22 73 23
REMARK SMILES IDX 72 24 43 26 65 27 50 28 64 29 51 30 54 31 63 32 77 33 52 34
REMARK SMILES IDX 53 35 62 37 78 38 55 39 44 40 45 41 49 42 46 43 48 44 47 45
REMARK SMILES IDX 66 46 67 47 71 48 68 49 70 50 69 51 56 52 57 53 61 54 58 55
REMARK SMILES IDX 60 56 59 57 7 58 8 59 9 60 10 62 11 63 12 64 16 65 13 66
REMARK SMILES IDX 15 67 14 68 17 69 18 70 19 71 20 72 34 73 21 74 33 75 22 76
REMARK SMILES IDX 23 78 24 79 25 80 29 81 26 82 28 83 27 84 30 85 32 86 31 87
REMARK H PARENT 3 7 76 25 54 36 8 61 22 77
REMARK Flexibility Score: inf
ROOT
ATOM      1  C   UNL A   1      31.771  30.625  26.513  1.00  0.00     0.023 C 
ENDROOT
BRANCH   1   2
ATOM      2  C   UNL A   1      31.504  32.089  26.847  1.00  0.00     0.023 C 
BRANCH   2   3
ATOM      3  C   UNL A   1      32.740  32.905  27.206  1.00  0.00     0.116 C 
BRANCH   3   4
ATOM      4  N   UNL A   1      32.430  34.266  27.619  1.00  0.00    -0.352 N 
ATOM      5  O   UNL A   1      32.558  36.126  28.894  1.00  0.00    -0.269 OA
ATOM      6  C   UNL A   1      33.024  35.031  28.592  1.00  0.00     0.251 C 
ATOM      7  H   UNL A   1      31.691  34.699  27.132  1.00  0.00     0.163 HD
BRANCH   6   8
ATOM      8  C   UNL A   1      34.209  34.509  29.300  1.00  0.00     0.039 A 
ATOM      9  C   UNL A   1      35.481  34.636  28.737  1.00  0.00     0.014 A 
ATOM     10  C   UNL A   1      34.035  33.855  30.521  1.00  0.00     0.014 A 
ATOM     11  C   UNL A   1      36.557  33.979  29.320  1.00  0.00     0.010 A 
ATOM     12  C   UNL A   1      35.134  33.266  31.148  1.00  0.00     0.010 A 
ATOM     13  C   UNL A   1      36.395  33.292  30.533  1.00  0.00    -0.014 A 
BRANCH  13  14
ATOM     14  C   UNL A   1      37.566  32.641  31.168  1.00  0.00     0.031 A 
ATOM     15  C   UNL A   1      38.247  31.469  30.519  1.00  0.00     0.074 A 
ATOM     16  C   UNL A   1      38.020  33.126  32.338  1.00  0.00     0.049 A 
ATOM     17  N   UNL A   1      39.267  30.770  30.949  1.00  0.00    -0.248 NA
ATOM     18  C   UNL A   1      37.712  31.018  29.224  1.00  0.00     0.031 C 
ATOM     19  C   UNL A   1      37.445  34.264  33.060  1.00  0.00     0.029 A 
ATOM     20  N   UNL A   1      39.075  32.732  33.119  1.00  0.00    -0.354 N 
ATOM     21  C   UNL A   1      39.481  29.784  29.995  1.00  0.00     0.074 A 
ATOM     22  C   UNL A   1      38.472  29.962  28.971  1.00  0.00     0.031 C 
ATOM     23  C   UNL A   1      38.175  34.498  34.159  1.00  0.00     0.029 A 
ATOM     24  C   UNL A   1      39.226  33.492  34.253  1.00  0.00     0.049 A 
ATOM     25  H   UNL A   1      39.665  31.980  32.891  1.00  0.00     0.167 HD
ATOM     26  C   UNL A   1      40.432  28.819  29.974  1.00  0.00     0.031 A 
ATOM     27  C   UNL A   1      40.100  33.381  35.269  1.00  0.00     0.031 A 
ATOM     28  C   UNL A   1      41.433  28.645  30.993  1.00  0.00     0.049 A 
ATOM     29  C   UNL A   1      41.118  32.283  35.239  1.00  0.00     0.074 A 
ATOM     30  C   UNL A   1      42.458  27.715  31.047  1.00  0.00     0.029 A 
ATOM     31  N   UNL A   1      41.533  29.417  32.141  1.00  0.00    -0.354 N 
ATOM     32  N   UNL A   1      41.320  31.372  34.320  1.00  0.00    -0.248 NA
ATOM     33  C   UNL A   1      42.028  32.197  36.389  1.00  0.00     0.031 C 
ATOM     34  C   UNL A   1      43.148  27.894  32.251  1.00  0.00     0.029 A 
ATOM     35  C   UNL A   1      42.587  28.970  32.921  1.00  0.00     0.049 A 
ATOM     36  H   UNL A   1      40.943  30.172  32.367  1.00  0.00     0.167 HD
ATOM     37  C   UNL A   1      42.392  30.614  34.768  1.00  0.00     0.074 A 
ATOM     38  C   UNL A   1      42.806  31.183  36.035  1.00  0.00     0.031 C 
ATOM     39  C   UNL A   1      42.981  29.544  34.182  1.00  0.00     0.031 A 
BRANCH  26  40
ATOM     40  C   UNL A   1      40.411  27.850  28.823  1.00  0.00    -0.014 A 
ATOM     41  C   UNL A   1      41.131  28.099  27.645  1.00  0.00     0.009 A 
ATOM     42  C   UNL A   1      39.685  26.653  28.936  1.00  0.00     0.009 A 
ATOM     43  C   UNL A   1      41.097  27.183  26.590  1.00  0.00     0.001 A 
ATOM     44  C   UNL A   1      39.673  25.729  27.891  1.00  0.00     0.001 A 
ATOM     45  C   UNL A   1      40.371  25.999  26.715  1.00  0.00     0.000 A 
ENDBRANCH  26  40
BRANCH  27  46
ATOM     46  C   UNL A   1      40.027  34.337  36.402  1.00  0.00    -0.014 A 
ATOM     47  C   UNL A   1      40.751  35.538  36.369  1.00  0.00     0.009 A 
ATOM     48  C   UNL A   1      39.202  34.067  37.506  1.00  0.00     0.009 A 
ATOM     49  C   UNL A   1      40.658  36.444  37.427  1.00  0.00     0.001 A 
ATOM     50  C   UNL A   1      39.091  34.989  38.548  1.00  0.00     0.001 A 
ATOM     51  C   UNL A   1      39.824  36.173  38.511  1.00  0.00     0.000 A 
ENDBRANCH  27  46
BRANCH  39  52
ATOM     52  C   UNL A   1      44.155  28.938  34.894  1.00  0.00    -0.014 A 
ATOM     53  C   UNL A   1      45.451  29.449  34.726  1.00  0.00     0.009 A 
ATOM     54  C   UNL A   1      43.954  27.860  35.771  1.00  0.00     0.009 A 
ATOM     55  C   UNL A   1      46.528  28.870  35.400  1.00  0.00     0.001 A 
ATOM     56  C   UNL A   1      45.029  27.300  36.461  1.00  0.00     0.001 A 
ATOM     57  C   UNL A   1      46.317  27.800  36.269  1.00  0.00     0.000 A 
ENDBRANCH  39  52
ENDBRANCH  13  14
ENDBRANCH   6   8
ENDBRANCH   3   4
ENDBRANCH   2   3
ENDBRANCH   1   2
BRANCH   1  58
ATOM     58  C   UNL A   1      31.264  30.187  25.147  1.00  0.00     0.116 C 
BRANCH  58  59
ATOM     59  N   UNL A   1      32.320  29.704  24.274  1.00  0.00    -0.356 N 
ATOM     60  C   UNL A   1      32.318  28.628  23.426  1.00  0.00     0.224 C 
ATOM     61  H   UNL A   1      33.156  30.223  24.294  1.00  0.00     0.163 HD
ATOM     62  O   UNL A   1      33.268  28.486  22.658  1.00  0.00    -0.275 OA
BRANCH  60  63
ATOM     63  C   UNL A   1      31.175  27.628  23.508  1.00  0.00     0.095 C 
ATOM     64  C   UNL A   1      29.918  28.369  23.019  1.00  0.00     0.041 C 
ATOM     65  C   UNL A   1      30.953  27.070  24.921  1.00  0.00     0.095 C 
ATOM     66  C   UNL A   1      28.678  27.547  23.169  1.00  0.00    -0.030 C 
ATOM     67  C   UNL A   1      29.727  26.124  24.936  1.00  0.00     0.041 C 
ATOM     68  C   UNL A   1      28.600  26.523  24.027  1.00  0.00    -0.030 C 
BRANCH  65  69
ATOM     69  C   UNL A   1      32.107  26.276  25.549  1.00  0.00     0.227 C 
ATOM     70  O   UNL A   1      32.733  26.734  26.507  1.00  0.00    -0.275 OA
ATOM     71  N   UNL A   1      32.188  24.930  25.211  1.00  0.00    -0.331 N 
ATOM     72  C   UNL A   1      32.329  23.971  26.302  1.00  0.00     0.181 C 
ATOM     73  C   UNL A   1      32.938  24.528  24.034  1.00  0.00     0.181 C 
ATOM     74  C   UNL A   1      31.998  22.528  25.854  1.00  0.00     0.284 C 
ATOM     75  C   UNL A   1      32.510  23.133  23.546  1.00  0.00     0.284 C 
ATOM     76  N   UNL A   1      32.560  22.077  24.567  1.00  0.00    -0.328 N 
ATOM     77  H   UNL A   1      31.928  21.344  24.244  1.00  0.00     0.348 HD
BRANCH  76  78
ATOM     78  C   UNL A   1      33.823  21.331  24.640  1.00  0.00     0.299 C 
BRANCH  78  79
ATOM     79  C   UNL A   1      33.739  19.843  24.394  1.00  0.00     0.010 A 
ATOM     80  C   UNL A   1      32.541  19.267  23.913  1.00  0.00     0.013 A 
ATOM     81  C   UNL A   1      34.820  19.007  24.732  1.00  0.00     0.060 A 
ATOM     82  C   UNL A   1      32.379  17.880  23.861  1.00  0.00     0.051 A 
ATOM     83  C   UNL A   1      34.623  17.644  24.689  1.00  0.00     0.166 A 
ATOM     84  C   UNL A   1      33.431  17.097  24.279  1.00  0.00     0.165 A 
ATOM     85  O   UNL A   1      35.517  16.701  25.090  1.00  0.00    -0.454 OA
ATOM     86  O   UNL A   1      33.426  15.740  24.367  1.00  0.00    -0.454 OA
ATOM     87  C   UNL A   1      34.717  15.505  24.965  1.00  0.00     0.468 C 
ENDBRANCH  78  79
ENDBRANCH  76  78
ENDBRANCH  65  69
ENDBRANCH  60  63
ENDBRANCH  58  59
ENDBRANCH   1  58
TORSDOF 14
ENDMDL
