MODEL 1
REMARK VINA RESULT:     -13.2      0.000      0.000
REMARK SMILES O=C(NCCCCNC(=O)[C@H]1[C@H]2CC[C@H](C2)[C@@H]1C(=O)Nc1sc2c(c1C(=O)NC1CCCCC1)CCCC2)c1ccc(-c2c3nc(c(-c4ccccc4)c4ccc([nH]4)c(-c4ccccc4)c4nc(c(-c5ccccc5)c5ccc2[nH]5)C=C4)C=C3)cc1
REMARK SMILES IDX 6 1 5 2 4 3 3 4 1 5 2 6 39 8 40 9 86 10 41 11 85 12 42 13
REMARK SMILES IDX 43 14 44 15 79 16 45 17 84 18 78 19 80 20 46 21 83 22 77 23
REMARK SMILES IDX 76 24 47 26 69 27 54 28 68 29 55 30 58 31 67 32 81 33 56 34
REMARK SMILES IDX 57 35 66 37 82 38 59 39 48 40 49 41 53 42 50 43 52 44 51 45
REMARK SMILES IDX 70 46 71 47 75 48 72 49 74 50 73 51 60 52 61 53 65 54 62 55
REMARK SMILES IDX 64 56 63 57 7 58 8 59 9 60 10 62 11 63 12 64 17 65 13 66
REMARK SMILES IDX 16 67 15 68 14 69 18 70 19 71 20 72 21 74 22 75 25 76 23 77
REMARK SMILES IDX 24 78 38 79 35 80 37 81 36 82 26 83 27 84 28 85 29 87 30 88
REMARK SMILES IDX 34 89 31 90 33 91 32 92
REMARK H PARENT 3 7 80 25 58 36 8 61 20 73 28 86
REMARK Flexibility Score: inf
ROOT
ATOM      1  C   UNL A   1      32.167  29.993  25.559  1.00  0.00     0.023 C 
ENDROOT
BRANCH   1   2
ATOM      2  C   UNL A   1      32.103  30.548  26.959  1.00  0.00     0.023 C 
BRANCH   2   3
ATOM      3  C   UNL A   1      33.132  31.607  27.252  1.00  0.00     0.116 C 
BRANCH   3   4
ATOM      4  N   UNL A   1      32.570  32.928  27.512  1.00  0.00    -0.352 N 
ATOM      5  O   UNL A   1      32.515  34.968  28.525  1.00  0.00    -0.269 OA
ATOM      6  C   UNL A   1      33.109  33.919  28.303  1.00  0.00     0.251 C 
ATOM      7  H   UNL A   1      31.712  33.134  27.075  1.00  0.00     0.163 HD
BRANCH   6   8
ATOM      8  C   UNL A   1      34.419  33.639  28.915  1.00  0.00     0.039 A 
ATOM      9  C   UNL A   1      35.567  33.952  28.185  1.00  0.00     0.014 A 
ATOM     10  C   UNL A   1      34.486  32.875  30.080  1.00  0.00     0.014 A 
ATOM     11  C   UNL A   1      36.745  33.300  28.492  1.00  0.00     0.010 A 
ATOM     12  C   UNL A   1      35.718  32.355  30.478  1.00  0.00     0.010 A 
ATOM     13  C   UNL A   1      36.849  32.530  29.664  1.00  0.00    -0.014 A 
BRANCH  13  14
ATOM     14  C   UNL A   1      38.183  32.017  30.050  1.00  0.00     0.031 A 
ATOM     15  C   UNL A   1      39.072  32.743  31.019  1.00  0.00     0.074 A 
ATOM     16  C   UNL A   1      38.563  30.835  29.524  1.00  0.00     0.049 A 
ATOM     17  N   UNL A   1      40.273  32.417  31.426  1.00  0.00    -0.248 NA
ATOM     18  C   UNL A   1      38.562  33.995  31.601  1.00  0.00     0.031 C 
ATOM     19  C   UNL A   1      37.771  30.044  28.574  1.00  0.00     0.029 A 
ATOM     20  N   UNL A   1      39.679  30.073  29.734  1.00  0.00    -0.354 N 
ATOM     21  C   UNL A   1      40.681  33.440  32.274  1.00  0.00     0.074 A 
ATOM     22  C   UNL A   1      39.600  34.400  32.324  1.00  0.00     0.031 C 
ATOM     23  C   UNL A   1      38.382  28.874  28.354  1.00  0.00     0.029 A 
ATOM     24  C   UNL A   1      39.659  28.883  29.051  1.00  0.00     0.049 A 
ATOM     25  H   UNL A   1      40.422  30.351  30.316  1.00  0.00     0.167 HD
ATOM     26  C   UNL A   1      41.856  33.561  32.938  1.00  0.00     0.031 A 
ATOM     27  C   UNL A   1      40.581  27.912  28.955  1.00  0.00     0.031 A 
ATOM     28  C   UNL A   1      42.917  32.587  32.885  1.00  0.00     0.049 A 
ATOM     29  C   UNL A   1      41.875  28.089  29.681  1.00  0.00     0.074 A 
ATOM     30  C   UNL A   1      44.140  32.606  33.535  1.00  0.00     0.029 A 
ATOM     31  N   UNL A   1      42.879  31.417  32.140  1.00  0.00    -0.354 N 
ATOM     32  N   UNL A   1      42.248  29.067  30.468  1.00  0.00    -0.248 NA
ATOM     33  C   UNL A   1      42.880  27.038  29.493  1.00  0.00     0.031 C 
ATOM     34  C   UNL A   1      44.859  31.471  33.146  1.00  0.00     0.029 A 
ATOM     35  C   UNL A   1      44.065  30.717  32.297  1.00  0.00     0.049 A 
ATOM     36  H   UNL A   1      42.121  31.126  31.583  1.00  0.00     0.167 HD
ATOM     37  C   UNL A   1      43.533  28.751  30.877  1.00  0.00     0.074 A 
ATOM     38  C   UNL A   1      43.861  27.474  30.271  1.00  0.00     0.031 C 
ATOM     39  C   UNL A   1      44.370  29.454  31.676  1.00  0.00     0.031 A 
BRANCH  26  40
ATOM     40  C   UNL A   1      42.080  34.809  33.749  1.00  0.00    -0.014 A 
ATOM     41  C   UNL A   1      41.733  34.876  35.107  1.00  0.00     0.009 A 
ATOM     42  C   UNL A   1      42.706  35.917  33.155  1.00  0.00     0.009 A 
ATOM     43  C   UNL A   1      41.986  36.037  35.845  1.00  0.00     0.001 A 
ATOM     44  C   UNL A   1      42.980  37.066  33.900  1.00  0.00     0.001 A 
ATOM     45  C   UNL A   1      42.613  37.127  35.243  1.00  0.00     0.000 A 
ENDBRANCH  26  40
BRANCH  27  46
ATOM     46  C   UNL A   1      40.313  26.726  28.104  1.00  0.00    -0.014 A 
ATOM     47  C   UNL A   1      40.802  26.665  26.792  1.00  0.00     0.009 A 
ATOM     48  C   UNL A   1      39.608  25.626  28.620  1.00  0.00     0.009 A 
ATOM     49  C   UNL A   1      40.578  25.529  26.010  1.00  0.00     0.001 A 
ATOM     50  C   UNL A   1      39.417  24.481  27.849  1.00  0.00     0.001 A 
ATOM     51  C   UNL A   1      39.893  24.436  26.541  1.00  0.00     0.000 A 
ENDBRANCH  27  46
BRANCH  39  52
ATOM     52  C   UNL A   1      45.707  28.834  31.954  1.00  0.00    -0.014 A 
ATOM     53  C   UNL A   1      46.813  29.098  31.132  1.00  0.00     0.009 A 
ATOM     54  C   UNL A   1      45.859  27.980  33.056  1.00  0.00     0.009 A 
ATOM     55  C   UNL A   1      48.041  28.487  31.391  1.00  0.00     0.001 A 
ATOM     56  C   UNL A   1      47.094  27.393  33.327  1.00  0.00     0.001 A 
ATOM     57  C   UNL A   1      48.180  27.638  32.488  1.00  0.00     0.000 A 
ENDBRANCH  39  52
ENDBRANCH  13  14
ENDBRANCH   6   8
ENDBRANCH   3   4
ENDBRANCH   2   3
ENDBRANCH   1   2
BRANCH   1  58
ATOM     58  C   UNL A   1      31.244  28.811  25.258  1.00  0.00     0.116 C 
BRANCH  58  59
ATOM     59  N   UNL A   1      30.627  28.908  23.958  1.00  0.00    -0.356 N 
ATOM     60  C   UNL A   1      30.631  28.107  22.869  1.00  0.00     0.224 C 
ATOM     61  H   UNL A   1      30.093  29.727  23.840  1.00  0.00     0.163 HD
ATOM     62  O   UNL A   1      29.936  28.508  21.924  1.00  0.00    -0.275 OA
BRANCH  60  63
ATOM     63  C   UNL A   1      31.479  26.855  22.664  1.00  0.00     0.094 C 
ATOM     64  C   UNL A   1      32.897  27.154  22.103  1.00  0.00     0.002 C 
ATOM     65  C   UNL A   1      31.722  25.795  23.770  1.00  0.00     0.094 C 
ATOM     66  C   UNL A   1      33.890  27.788  23.068  1.00  0.00     0.005 C 
ATOM     67  C   UNL A   1      33.476  25.760  22.132  1.00  0.00     0.009 C 
ATOM     68  C   UNL A   1      33.235  25.563  23.634  1.00  0.00     0.002 C 
ATOM     69  C   UNL A   1      34.035  26.756  24.185  1.00  0.00     0.005 C 
BRANCH  65  70
ATOM     70  C   UNL A   1      30.743  24.594  23.657  1.00  0.00     0.229 C 
ATOM     71  O   UNL A   1      29.681  24.815  23.047  1.00  0.00    -0.274 OA
ATOM     72  N   UNL A   1      30.943  23.297  24.038  1.00  0.00    -0.317 N 
ATOM     73  H   UNL A   1      30.185  22.689  23.877  1.00  0.00     0.170 HD
BRANCH  72  74
ATOM     74  C   UNL A   1      32.050  22.719  24.616  1.00  0.00     0.108 A 
ATOM     75  S   UNL A   1      32.373  23.129  26.234  1.00  0.00    -0.122 S 
ATOM     76  C   UNL A   1      32.821  21.619  24.194  1.00  0.00     0.078 A 
ATOM     77  C   UNL A   1      33.979  22.648  25.988  1.00  0.00     0.011 A 
ATOM     78  C   UNL A   1      34.087  21.721  24.951  1.00  0.00    -0.019 A 
ATOM     79  C   UNL A   1      35.100  23.254  26.778  1.00  0.00     0.047 C 
ATOM     80  C   UNL A   1      35.440  21.145  24.667  1.00  0.00     0.037 C 
ATOM     81  C   UNL A   1      36.418  23.100  26.011  1.00  0.00     0.006 C 
ATOM     82  C   UNL A   1      36.592  21.660  25.554  1.00  0.00     0.005 C 
BRANCH  76  83
ATOM     83  C   UNL A   1      32.258  20.831  23.071  1.00  0.00     0.254 C 
ATOM     84  O   UNL A   1      31.793  21.443  22.094  1.00  0.00    -0.269 OA
ATOM     85  N   UNL A   1      32.104  19.492  22.893  1.00  0.00    -0.349 N 
ATOM     86  H   UNL A   1      31.591  19.349  22.065  1.00  0.00     0.164 HD
BRANCH  85  87
ATOM     87  C   UNL A   1      32.414  18.188  23.465  1.00  0.00     0.082 C 
ATOM     88  C   UNL A   1      33.639  17.557  22.808  1.00  0.00     0.025 C 
ATOM     89  C   UNL A   1      32.258  18.106  24.979  1.00  0.00     0.025 C 
ATOM     90  C   UNL A   1      34.034  16.259  23.492  1.00  0.00     0.002 C 
ATOM     91  C   UNL A   1      33.085  17.028  25.692  1.00  0.00     0.002 C 
ATOM     92  C   UNL A   1      34.325  16.523  24.957  1.00  0.00     0.000 C 
ENDBRANCH  85  87
ENDBRANCH  76  83
ENDBRANCH  72  74
ENDBRANCH  65  70
ENDBRANCH  60  63
ENDBRANCH  58  59
ENDBRANCH   1  58
TORSDOF 15
ENDMDL
MODEL 2
REMARK VINA RESULT:     -13.2      2.843      9.011
REMARK SMILES O=C(NCCCCNC(=O)[C@H]1[C@H]2CC[C@H](C2)[C@@H]1C(=O)Nc1sc2c(c1C(=O)NC1CCCCC1)CCCC2)c1ccc(-c2c3nc(c(-c4ccccc4)c4ccc([nH]4)c(-c4ccccc4)c4nc(c(-c5ccccc5)c5ccc2[nH]5)C=C4)C=C3)cc1
REMARK SMILES IDX 6 1 5 2 4 3 3 4 1 5 2 6 39 8 40 9 86 10 41 11 85 12 42 13
REMARK SMILES IDX 43 14 44 15 79 16 45 17 84 18 78 19 80 20 46 21 83 22 77 23
REMARK SMILES IDX 76 24 47 26 69 27 54 28 68 29 55 30 58 31 67 32 81 33 56 34
REMARK SMILES IDX 57 35 66 37 82 38 59 39 48 40 49 41 53 42 50 43 52 44 51 45
REMARK SMILES IDX 70 46 71 47 75 48 72 49 74 50 73 51 60 52 61 53 65 54 62 55
REMARK SMILES IDX 64 56 63 57 7 58 8 59 9 60 10 62 11 63 12 64 17 65 13 66
REMARK SMILES IDX 16 67 15 68 14 69 18 70 19 71 20 72 21 74 22 75 25 76 23 77
REMARK SMILES IDX 24 78 38 79 35 80 37 81 36 82 26 83 27 84 28 85 29 87 30 88
REMARK SMILES IDX 34 89 31 90 33 91 32 92
REMARK H PARENT 3 7 80 25 58 36 8 61 20 73 28 86
REMARK Flexibility Score: inf
ROOT
ATOM      1  C   UNL A   1      36.122  21.636  25.317  1.00  0.00     0.023 C 
ENDROOT
BRANCH   1   2
ATOM      2  C   UNL A   1      37.474  21.329  24.723  1.00  0.00     0.023 C 
BRANCH   2   3
ATOM      3  C   UNL A   1      38.587  21.242  25.734  1.00  0.00     0.116 C 
BRANCH   3   4
ATOM      4  N   UNL A   1      39.373  20.015  25.650  1.00  0.00    -0.352 N 
ATOM      5  O   UNL A   1      41.291  18.797  25.809  1.00  0.00    -0.269 OA
ATOM      6  C   UNL A   1      40.697  19.852  25.994  1.00  0.00     0.251 C 
ATOM      7  H   UNL A   1      38.906  19.217  25.311  1.00  0.00     0.163 HD
BRANCH   6   8
ATOM      8  C   UNL A   1      41.385  21.027  26.555  1.00  0.00     0.039 A 
ATOM      9  C   UNL A   1      41.281  21.259  27.927  1.00  0.00     0.014 A 
ATOM     10  C   UNL A   1      41.919  21.988  25.696  1.00  0.00     0.014 A 
ATOM     11  C   UNL A   1      41.490  22.540  28.401  1.00  0.00     0.010 A 
ATOM     12  C   UNL A   1      42.286  23.230  26.214  1.00  0.00     0.010 A 
ATOM     13  C   UNL A   1      42.036  23.528  27.563  1.00  0.00    -0.014 A 
BRANCH  13  14
ATOM     14  C   UNL A   1      42.425  24.824  28.168  1.00  0.00     0.031 A 
ATOM     15  C   UNL A   1      43.844  25.138  28.544  1.00  0.00     0.074 A 
ATOM     16  C   UNL A   1      41.451  25.741  28.334  1.00  0.00     0.049 A 
ATOM     17  N   UNL A   1      44.318  26.223  29.102  1.00  0.00    -0.248 NA
ATOM     18  C   UNL A   1      44.863  24.111  28.273  1.00  0.00     0.031 C 
ATOM     19  C   UNL A   1      40.036  25.537  27.997  1.00  0.00     0.029 A 
ATOM     20  N   UNL A   1      41.497  27.030  28.787  1.00  0.00    -0.354 N 
ATOM     21  C   UNL A   1      45.676  25.996  29.290  1.00  0.00     0.074 A 
ATOM     22  C   UNL A   1      45.953  24.668  28.787  1.00  0.00     0.031 C 
ATOM     23  C   UNL A   1      39.370  26.684  28.169  1.00  0.00     0.029 A 
ATOM     24  C   UNL A   1      40.281  27.665  28.739  1.00  0.00     0.049 A 
ATOM     25  H   UNL A   1      42.319  27.460  29.115  1.00  0.00     0.167 HD
ATOM     26  C   UNL A   1      46.598  26.823  29.841  1.00  0.00     0.031 A 
ATOM     27  C   UNL A   1      39.917  28.892  29.145  1.00  0.00     0.031 A 
ATOM     28  C   UNL A   1      46.305  28.148  30.326  1.00  0.00     0.049 A 
ATOM     29  C   UNL A   1      40.952  29.769  29.771  1.00  0.00     0.074 A 
ATOM     30  C   UNL A   1      47.170  29.074  30.885  1.00  0.00     0.029 A 
ATOM     31  N   UNL A   1      45.049  28.737  30.306  1.00  0.00    -0.354 N 
ATOM     32  N   UNL A   1      42.228  29.533  29.951  1.00  0.00    -0.248 NA
ATOM     33  C   UNL A   1      40.496  31.072  30.263  1.00  0.00     0.031 C 
ATOM     34  C   UNL A   1      46.428  30.203  31.246  1.00  0.00     0.029 A 
ATOM     35  C   UNL A   1      45.111  30.004  30.863  1.00  0.00     0.049 A 
ATOM     36  H   UNL A   1      44.233  28.317  29.949  1.00  0.00     0.167 HD
ATOM     37  C   UNL A   1      42.734  30.661  30.574  1.00  0.00     0.074 A 
ATOM     38  C   UNL A   1      41.629  31.592  30.714  1.00  0.00     0.031 C 
ATOM     39  C   UNL A   1      43.997  30.906  30.999  1.00  0.00     0.031 A 
BRANCH  26  40
ATOM     40  C   UNL A   1      48.004  26.309  29.991  1.00  0.00    -0.014 A 
ATOM     41  C   UNL A   1      48.956  26.463  28.972  1.00  0.00     0.009 A 
ATOM     42  C   UNL A   1      48.398  25.712  31.200  1.00  0.00     0.009 A 
ATOM     43  C   UNL A   1      50.266  26.008  29.152  1.00  0.00     0.001 A 
ATOM     44  C   UNL A   1      49.713  25.280  31.387  1.00  0.00     0.001 A 
ATOM     45  C   UNL A   1      50.644  25.422  30.359  1.00  0.00     0.000 A 
ENDBRANCH  26  40
BRANCH  27  46
ATOM     46  C   UNL A   1      38.503  29.321  29.008  1.00  0.00    -0.014 A 
ATOM     47  C   UNL A   1      37.620  29.226  30.092  1.00  0.00     0.009 A 
ATOM     48  C   UNL A   1      38.043  29.877  27.801  1.00  0.00     0.009 A 
ATOM     49  C   UNL A   1      36.300  29.667  29.965  1.00  0.00     0.001 A 
ATOM     50  C   UNL A   1      36.736  30.348  27.690  1.00  0.00     0.001 A 
ATOM     51  C   UNL A   1      35.862  30.234  28.768  1.00  0.00     0.000 A 
ENDBRANCH  27  46
BRANCH  39  52
ATOM     52  C   UNL A   1      44.241  32.245  31.629  1.00  0.00    -0.014 A 
ATOM     53  C   UNL A   1      44.629  33.350  30.856  1.00  0.00     0.009 A 
ATOM     54  C   UNL A   1      44.074  32.400  33.012  1.00  0.00     0.009 A 
ATOM     55  C   UNL A   1      44.880  34.579  31.466  1.00  0.00     0.001 A 
ATOM     56  C   UNL A   1      44.300  33.637  33.615  1.00  0.00     0.001 A 
ATOM     57  C   UNL A   1      44.713  34.722  32.843  1.00  0.00     0.000 A 
ENDBRANCH  39  52
ENDBRANCH  13  14
ENDBRANCH   6   8
ENDBRANCH   3   4
ENDBRANCH   2   3
ENDBRANCH   1   2
BRANCH   1  58
ATOM     58  C   UNL A   1      34.972  21.806  24.324  1.00  0.00     0.116 C 
BRANCH  58  59
ATOM     59  N   UNL A   1      33.890  20.885  24.567  1.00  0.00    -0.356 N 
ATOM     60  C   UNL A   1      32.586  21.049  24.882  1.00  0.00     0.224 C 
ATOM     61  H   UNL A   1      34.156  19.940  24.486  1.00  0.00     0.163 HD
ATOM     62  O   UNL A   1      31.934  19.999  24.977  1.00  0.00    -0.275 OA
BRANCH  60  63
ATOM     63  C   UNL A   1      31.895  22.364  25.234  1.00  0.00     0.094 C 
ATOM     64  C   UNL A   1      32.005  22.735  26.740  1.00  0.00     0.002 C 
ATOM     65  C   UNL A   1      32.163  23.699  24.492  1.00  0.00     0.094 C 
ATOM     66  C   UNL A   1      33.369  23.208  27.226  1.00  0.00     0.005 C 
ATOM     67  C   UNL A   1      31.339  24.090  26.712  1.00  0.00     0.009 C 
ATOM     68  C   UNL A   1      32.303  24.674  25.671  1.00  0.00     0.002 C 
ATOM     69  C   UNL A   1      33.637  24.471  26.408  1.00  0.00     0.005 C 
BRANCH  65  70
ATOM     70  C   UNL A   1      31.111  23.973  23.382  1.00  0.00     0.229 C 
ATOM     71  O   UNL A   1      30.474  22.983  22.981  1.00  0.00    -0.274 OA
ATOM     72  N   UNL A   1      30.714  25.176  22.869  1.00  0.00    -0.317 N 
ATOM     73  H   UNL A   1      30.028  25.127  22.163  1.00  0.00     0.170 HD
BRANCH  72  74
ATOM     74  C   UNL A   1      31.134  26.445  23.195  1.00  0.00     0.108 A 
ATOM     75  S   UNL A   1      32.700  26.885  22.703  1.00  0.00    -0.122 S 
ATOM     76  C   UNL A   1      30.391  27.561  23.628  1.00  0.00     0.078 A 
ATOM     77  C   UNL A   1      32.686  28.092  23.892  1.00  0.00     0.011 A 
ATOM     78  C   UNL A   1      31.387  28.482  24.217  1.00  0.00    -0.019 A 
ATOM     79  C   UNL A   1      33.957  28.569  24.528  1.00  0.00     0.047 C 
ATOM     80  C   UNL A   1      31.218  29.598  25.201  1.00  0.00     0.037 C 
ATOM     81  C   UNL A   1      33.654  29.188  25.897  1.00  0.00     0.006 C 
ATOM     82  C   UNL A   1      32.520  30.194  25.775  1.00  0.00     0.005 C 
BRANCH  76  83
ATOM     83  C   UNL A   1      28.917  27.428  23.537  1.00  0.00     0.254 C 
ATOM     84  O   UNL A   1      28.399  26.347  23.863  1.00  0.00    -0.269 OA
ATOM     85  N   UNL A   1      27.957  28.290  23.109  1.00  0.00    -0.349 N 
ATOM     86  H   UNL A   1      27.098  27.810  23.093  1.00  0.00     0.164 HD
BRANCH  85  87
ATOM     87  C   UNL A   1      27.720  29.658  22.665  1.00  0.00     0.082 C 
ATOM     88  C   UNL A   1      27.846  30.657  23.813  1.00  0.00     0.025 C 
ATOM     89  C   UNL A   1      28.329  30.001  21.311  1.00  0.00     0.025 C 
ATOM     90  C   UNL A   1      27.725  32.090  23.323  1.00  0.00     0.002 C 
ATOM     91  C   UNL A   1      28.631  31.483  21.055  1.00  0.00     0.002 C 
ATOM     92  C   UNL A   1      28.798  32.368  22.288  1.00  0.00     0.000 C 
ENDBRANCH  85  87
ENDBRANCH  76  83
ENDBRANCH  72  74
ENDBRANCH  65  70
ENDBRANCH  60  63
ENDBRANCH  58  59
ENDBRANCH   1  58
TORSDOF 15
ENDMDL
MODEL 3
REMARK VINA RESULT:     -13.1      0.244      5.506
REMARK SMILES O=C(NCCCCNC(=O)[C@H]1[C@H]2CC[C@H](C2)[C@@H]1C(=O)Nc1sc2c(c1C(=O)NC1CCCCC1)CCCC2)c1ccc(-c2c3nc(c(-c4ccccc4)c4ccc([nH]4)c(-c4ccccc4)c4nc(c(-c5ccccc5)c5ccc2[nH]5)C=C4)C=C3)cc1
REMARK SMILES IDX 6 1 5 2 4 3 3 4 1 5 2 6 39 8 40 9 86 10 41 11 85 12 42 13
REMARK SMILES IDX 43 14 44 15 79 16 45 17 84 18 78 19 80 20 46 21 83 22 77 23
REMARK SMILES IDX 76 24 47 26 69 27 54 28 68 29 55 30 58 31 67 32 81 33 56 34
REMARK SMILES IDX 57 35 66 37 82 38 59 39 48 40 49 41 53 42 50 43 52 44 51 45
REMARK SMILES IDX 70 46 71 47 75 48 72 49 74 50 73 51 60 52 61 53 65 54 62 55
REMARK SMILES IDX 64 56 63 57 7 58 8 59 9 60 10 62 11 63 12 64 17 65 13 66
REMARK SMILES IDX 16 67 15 68 14 69 18 70 19 71 20 72 21 74 22 75 25 76 23 77
REMARK SMILES IDX 24 78 38 79 35 80 37 81 36 82 26 83 27 84 28 85 29 87 30 88
REMARK SMILES IDX 34 89 31 90 33 91 32 92
REMARK H PARENT 3 7 80 25 58 36 8 61 20 73 28 86
REMARK Flexibility Score: inf
ROOT
ATOM      1  C   UNL A   1      32.267  29.957  25.583  1.00  0.00     0.023 C 
ENDROOT
BRANCH   1   2
ATOM      2  C   UNL A   1      32.087  30.651  26.910  1.00  0.00     0.023 C 
BRANCH   2   3
ATOM      3  C   UNL A   1      33.135  31.689  27.211  1.00  0.00     0.116 C 
BRANCH   3   4
ATOM      4  N   UNL A   1      32.594  33.007  27.528  1.00  0.00    -0.352 N 
ATOM      5  O   UNL A   1      32.574  35.003  28.625  1.00  0.00    -0.269 OA
ATOM      6  C   UNL A   1      33.150  33.955  28.358  1.00  0.00     0.251 C 
ATOM      7  H   UNL A   1      31.738  33.244  27.103  1.00  0.00     0.163 HD
BRANCH   6   8
ATOM      8  C   UNL A   1      34.457  33.630  28.953  1.00  0.00     0.039 A 
ATOM      9  C   UNL A   1      35.605  33.890  28.204  1.00  0.00     0.014 A 
ATOM     10  C   UNL A   1      34.512  32.875  30.125  1.00  0.00     0.014 A 
ATOM     11  C   UNL A   1      36.762  33.195  28.500  1.00  0.00     0.010 A 
ATOM     12  C   UNL A   1      35.728  32.310  30.510  1.00  0.00     0.010 A 
ATOM     13  C   UNL A   1      36.852  32.433  29.678  1.00  0.00    -0.014 A 
BRANCH  13  14
ATOM     14  C   UNL A   1      38.172  31.870  30.050  1.00  0.00     0.031 A 
ATOM     15  C   UNL A   1      38.682  30.579  29.477  1.00  0.00     0.074 A 
ATOM     16  C   UNL A   1      38.928  32.590  30.904  1.00  0.00     0.049 A 
ATOM     17  N   UNL A   1      39.808  29.962  29.735  1.00  0.00    -0.248 NA
ATOM     18  C   UNL A   1      37.827  29.883  28.503  1.00  0.00     0.031 C 
ATOM     19  C   UNL A   1      38.526  33.862  31.517  1.00  0.00     0.029 A 
ATOM     20  N   UNL A   1      40.195  32.384  31.375  1.00  0.00    -0.354 N 
ATOM     21  C   UNL A   1      39.779  28.788  28.992  1.00  0.00     0.074 A 
ATOM     22  C   UNL A   1      38.523  28.776  28.273  1.00  0.00     0.031 C 
ATOM     23  C   UNL A   1      39.555  34.365  32.207  1.00  0.00     0.029 A 
ATOM     24  C   UNL A   1      40.643  33.399  32.184  1.00  0.00     0.049 A 
ATOM     25  H   UNL A   1      40.732  31.589  31.157  1.00  0.00     0.167 HD
ATOM     26  C   UNL A   1      40.717  27.811  28.929  1.00  0.00     0.031 A 
ATOM     27  C   UNL A   1      41.788  33.530  32.872  1.00  0.00     0.031 A 
ATOM     28  C   UNL A   1      41.967  27.846  29.645  1.00  0.00     0.049 A 
ATOM     29  C   UNL A   1      42.789  32.423  32.800  1.00  0.00     0.074 A 
ATOM     30  C   UNL A   1      42.994  26.916  29.636  1.00  0.00     0.029 A 
ATOM     31  N   UNL A   1      42.363  28.869  30.495  1.00  0.00    -0.354 N 
ATOM     32  N   UNL A   1      42.740  31.316  32.102  1.00  0.00    -0.248 NA
ATOM     33  C   UNL A   1      43.994  32.576  33.621  1.00  0.00     0.031 C 
ATOM     34  C   UNL A   1      43.988  27.354  30.517  1.00  0.00     0.029 A 
ATOM     35  C   UNL A   1      43.607  28.582  31.033  1.00  0.00     0.049 A 
ATOM     36  H   UNL A   1      41.837  29.679  30.687  1.00  0.00     0.167 HD
ATOM     37  C   UNL A   1      43.912  30.637  32.394  1.00  0.00     0.074 A 
ATOM     38  C   UNL A   1      44.662  31.474  33.311  1.00  0.00     0.031 C 
ATOM     39  C   UNL A   1      44.328  29.427  31.950  1.00  0.00     0.031 A 
BRANCH  26  40
ATOM     40  C   UNL A   1      40.413  26.597  28.092  1.00  0.00    -0.014 A 
ATOM     41  C   UNL A   1      39.600  25.559  28.571  1.00  0.00     0.009 A 
ATOM     42  C   UNL A   1      40.903  26.522  26.778  1.00  0.00     0.009 A 
ATOM     43  C   UNL A   1      39.304  24.460  27.759  1.00  0.00     0.001 A 
ATOM     44  C   UNL A   1      40.587  25.435  25.960  1.00  0.00     0.001 A 
ATOM     45  C   UNL A   1      39.794  24.401  26.454  1.00  0.00     0.000 A 
ENDBRANCH  26  40
BRANCH  27  46
ATOM     46  C   UNL A   1      42.005  34.733  33.713  1.00  0.00    -0.014 A 
ATOM     47  C   UNL A   1      42.689  35.846  33.204  1.00  0.00     0.009 A 
ATOM     48  C   UNL A   1      41.482  34.792  35.016  1.00  0.00     0.009 A 
ATOM     49  C   UNL A   1      42.856  36.989  33.990  1.00  0.00     0.001 A 
ATOM     50  C   UNL A   1      41.621  35.947  35.784  1.00  0.00     0.001 A 
ATOM     51  C   UNL A   1      42.315  37.042  35.275  1.00  0.00     0.000 A 
ENDBRANCH  27  46
BRANCH  39  52
ATOM     52  C   UNL A   1      45.668  28.962  32.437  1.00  0.00    -0.014 A 
ATOM     53  C   UNL A   1      46.844  29.285  31.744  1.00  0.00     0.009 A 
ATOM     54  C   UNL A   1      45.751  28.196  33.609  1.00  0.00     0.009 A 
ATOM     55  C   UNL A   1      48.078  28.818  32.198  1.00  0.00     0.001 A 
ATOM     56  C   UNL A   1      46.988  27.753  34.075  1.00  0.00     0.001 A 
ATOM     57  C   UNL A   1      48.149  28.055  33.364  1.00  0.00     0.000 A 
ENDBRANCH  39  52
ENDBRANCH  13  14
ENDBRANCH   6   8
ENDBRANCH   3   4
ENDBRANCH   2   3
ENDBRANCH   1   2
BRANCH   1  58
ATOM     58  C   UNL A   1      31.323  28.789  25.299  1.00  0.00     0.116 C 
BRANCH  58  59
ATOM     59  N   UNL A   1      30.655  28.913  24.027  1.00  0.00    -0.356 N 
ATOM     60  C   UNL A   1      30.613  28.135  22.923  1.00  0.00     0.224 C 
ATOM     61  H   UNL A   1      30.119  29.736  23.946  1.00  0.00     0.163 HD
ATOM     62  O   UNL A   1      29.882  28.556  22.014  1.00  0.00    -0.275 OA
BRANCH  60  63
ATOM     63  C   UNL A   1      31.447  26.884  22.659  1.00  0.00     0.094 C 
ATOM     64  C   UNL A   1      32.844  27.191  22.049  1.00  0.00     0.002 C 
ATOM     65  C   UNL A   1      31.729  25.801  23.732  1.00  0.00     0.094 C 
ATOM     66  C   UNL A   1      33.876  27.802  22.988  1.00  0.00     0.005 C 
ATOM     67  C   UNL A   1      33.418  25.795  22.027  1.00  0.00     0.009 C 
ATOM     68  C   UNL A   1      33.234  25.567  23.533  1.00  0.00     0.002 C 
ATOM     69  C   UNL A   1      34.060  26.746  24.077  1.00  0.00     0.005 C 
BRANCH  65  70
ATOM     70  C   UNL A   1      30.742  24.606  23.632  1.00  0.00     0.229 C 
ATOM     71  O   UNL A   1      29.679  24.828  23.025  1.00  0.00    -0.274 OA
ATOM     72  N   UNL A   1      30.934  23.311  24.024  1.00  0.00    -0.317 N 
ATOM     73  H   UNL A   1      30.172  22.706  23.870  1.00  0.00     0.170 HD
BRANCH  72  74
ATOM     74  C   UNL A   1      32.040  22.730  24.602  1.00  0.00     0.108 A 
ATOM     75  S   UNL A   1      32.360  23.135  26.221  1.00  0.00    -0.122 S 
ATOM     76  C   UNL A   1      32.810  21.630  24.179  1.00  0.00     0.078 A 
ATOM     77  C   UNL A   1      33.966  22.653  25.978  1.00  0.00     0.011 A 
ATOM     78  C   UNL A   1      34.075  21.730  24.938  1.00  0.00    -0.019 A 
ATOM     79  C   UNL A   1      35.086  23.256  26.771  1.00  0.00     0.047 C 
ATOM     80  C   UNL A   1      35.428  21.152  24.655  1.00  0.00     0.037 C 
ATOM     81  C   UNL A   1      36.405  23.103  26.007  1.00  0.00     0.006 C 
ATOM     82  C   UNL A   1      36.579  21.665  25.546  1.00  0.00     0.005 C 
BRANCH  76  83
ATOM     83  C   UNL A   1      32.249  20.846  23.052  1.00  0.00     0.254 C 
ATOM     84  O   UNL A   1      31.780  21.461  22.079  1.00  0.00    -0.269 OA
ATOM     85  N   UNL A   1      32.101  19.507  22.867  1.00  0.00    -0.349 N 
ATOM     86  H   UNL A   1      31.587  19.367  22.039  1.00  0.00     0.164 HD
BRANCH  85  87
ATOM     87  C   UNL A   1      32.418  18.202  23.432  1.00  0.00     0.082 C 
ATOM     88  C   UNL A   1      33.648  17.582  22.774  1.00  0.00     0.025 C 
ATOM     89  C   UNL A   1      32.258  18.108  24.944  1.00  0.00     0.025 C 
ATOM     90  C   UNL A   1      34.050  16.283  23.450  1.00  0.00     0.002 C 
ATOM     91  C   UNL A   1      33.090  17.032  25.652  1.00  0.00     0.002 C 
ATOM     92  C   UNL A   1      34.335  16.539  24.918  1.00  0.00     0.000 C 
ENDBRANCH  85  87
ENDBRANCH  76  83
ENDBRANCH  72  74
ENDBRANCH  65  70
ENDBRANCH  60  63
ENDBRANCH  58  59
ENDBRANCH   1  58
TORSDOF 15
ENDMDL
