MODEL 1
REMARK VINA RESULT:     -12.6      0.000      0.000
REMARK SMILES O=C(NCCCCNC(=O)[C@H]1CCCCN1c1cc(-c2ccccc2)nc(-c2cccc(Cl)c2)n1)c1ccc(-c2c3nc(c(-c4ccccc4)c4ccc([nH]4)c(-c4ccccc4)c4nc(c(-c5ccccc5)c5ccc2[nH]5)C=C4)C=C3)cc1
REMARK SMILES IDX 5 1 4 2 3 3 1 4 2 5 36 7 37 8 83 9 38 10 82 11 39 12 40 13
REMARK SMILES IDX 41 14 76 15 42 16 81 17 75 18 77 19 43 20 80 21 74 22 73 23
REMARK SMILES IDX 44 25 66 26 51 27 65 28 52 29 55 30 64 31 78 32 53 33 54 34
REMARK SMILES IDX 63 36 79 37 56 38 45 39 46 40 50 41 47 42 49 43 48 44 67 45
REMARK SMILES IDX 68 46 72 47 69 48 71 49 70 50 57 51 58 52 62 53 59 54 61 55
REMARK SMILES IDX 60 56 6 57 7 58 8 59 9 60 10 62 11 63 12 64 16 65 13 66
REMARK SMILES IDX 15 67 14 68 17 69 18 70 35 71 19 72 27 73 26 74 20 75 21 76
REMARK SMILES IDX 25 77 22 78 24 79 23 80 28 81 29 82 34 83 30 84 32 85 31 86
REMARK SMILES IDX 33 87
REMARK H PARENT 3 6 77 24 55 35 8 61
REMARK Flexibility Score: inf
ROOT
ATOM      1  C   UNL A   1      32.161  28.795  27.140  1.00  0.00     0.023 C 
ENDROOT
BRANCH   1   2
ATOM      2  C   UNL A   1      33.355  29.684  26.823  1.00  0.00     0.116 C 
BRANCH   2   3
ATOM      3  N   UNL A   1      33.100  31.110  26.979  1.00  0.00    -0.352 N 
ATOM      4  O   UNL A   1      33.533  33.197  27.755  1.00  0.00    -0.269 OA
ATOM      5  C   UNL A   1      33.884  32.032  27.634  1.00  0.00     0.251 C 
ATOM      6  H   UNL A   1      32.273  31.453  26.568  1.00  0.00     0.163 HD
BRANCH   5   7
ATOM      7  C   UNL A   1      35.141  31.556  28.238  1.00  0.00     0.039 A 
ATOM      8  C   UNL A   1      35.200  30.278  28.797  1.00  0.00     0.014 A 
ATOM      9  C   UNL A   1      36.218  32.438  28.345  1.00  0.00     0.014 A 
ATOM     10  C   UNL A   1      36.276  29.940  29.604  1.00  0.00     0.010 A 
ATOM     11  C   UNL A   1      37.337  32.062  29.086  1.00  0.00     0.010 A 
ATOM     12  C   UNL A   1      37.355  30.826  29.754  1.00  0.00    -0.014 A 
BRANCH  12  13
ATOM     13  C   UNL A   1      38.512  30.418  30.581  1.00  0.00     0.031 A 
ATOM     14  C   UNL A   1      38.658  30.889  32.000  1.00  0.00     0.074 A 
ATOM     15  C   UNL A   1      39.416  29.580  30.043  1.00  0.00     0.049 A 
ATOM     16  N   UNL A   1      39.612  30.625  32.857  1.00  0.00    -0.248 NA
ATOM     17  C   UNL A   1      37.605  31.770  32.528  1.00  0.00     0.031 C 
ATOM     18  C   UNL A   1      39.366  29.051  28.677  1.00  0.00     0.029 A 
ATOM     19  N   UNL A   1      40.535  29.005  30.584  1.00  0.00    -0.354 N 
ATOM     20  C   UNL A   1      39.294  31.330  34.010  1.00  0.00     0.074 A 
ATOM     21  C   UNL A   1      38.061  32.040  33.744  1.00  0.00     0.031 C 
ATOM     22  C   UNL A   1      40.377  28.188  28.505  1.00  0.00     0.029 A 
ATOM     23  C   UNL A   1      41.180  28.155  29.720  1.00  0.00     0.049 A 
ATOM     24  H   UNL A   1      40.846  29.183  31.500  1.00  0.00     0.167 HD
ATOM     25  C   UNL A   1      39.972  31.381  35.182  1.00  0.00     0.031 A 
ATOM     26  C   UNL A   1      42.307  27.440  29.880  1.00  0.00     0.031 A 
ATOM     27  C   UNL A   1      41.193  30.663  35.444  1.00  0.00     0.049 A 
ATOM     28  C   UNL A   1      43.045  27.529  31.179  1.00  0.00     0.074 A 
ATOM     29  C   UNL A   1      41.945  30.634  36.606  1.00  0.00     0.029 A 
ATOM     30  N   UNL A   1      41.838  29.846  34.529  1.00  0.00    -0.354 N 
ATOM     31  N   UNL A   1      42.731  28.204  32.259  1.00  0.00    -0.248 NA
ATOM     32  C   UNL A   1      44.295  26.768  31.280  1.00  0.00     0.031 C 
ATOM     33  C   UNL A   1      43.066  29.827  36.380  1.00  0.00     0.029 A 
ATOM     34  C   UNL A   1      42.989  29.322  35.093  1.00  0.00     0.049 A 
ATOM     35  H   UNL A   1      41.524  29.664  33.614  1.00  0.00     0.167 HD
ATOM     36  C   UNL A   1      43.744  27.948  33.169  1.00  0.00     0.074 A 
ATOM     37  C   UNL A   1      44.669  27.036  32.524  1.00  0.00     0.031 C 
ATOM     38  C   UNL A   1      43.900  28.429  34.426  1.00  0.00     0.031 A 
BRANCH  25  39
ATOM     39  C   UNL A   1      39.428  32.273  36.262  1.00  0.00    -0.014 A 
ATOM     40  C   UNL A   1      39.865  33.598  36.406  1.00  0.00     0.009 A 
ATOM     41  C   UNL A   1      38.427  31.789  37.121  1.00  0.00     0.009 A 
ATOM     42  C   UNL A   1      39.327  34.414  37.405  1.00  0.00     0.001 A 
ATOM     43  C   UNL A   1      37.878  32.614  38.104  1.00  0.00     0.001 A 
ATOM     44  C   UNL A   1      38.332  33.923  38.249  1.00  0.00     0.000 A 
ENDBRANCH  25  39
BRANCH  26  45
ATOM     45  C   UNL A   1      42.802  26.600  28.762  1.00  0.00    -0.014 A 
ATOM     46  C   UNL A   1      42.567  25.219  28.752  1.00  0.00     0.009 A 
ATOM     47  C   UNL A   1      43.470  27.188  27.676  1.00  0.00     0.009 A 
ATOM     48  C   UNL A   1      43.000  24.439  27.678  1.00  0.00     0.001 A 
ATOM     49  C   UNL A   1      43.877  26.411  26.592  1.00  0.00     0.001 A 
ATOM     50  C   UNL A   1      43.647  25.036  26.596  1.00  0.00     0.000 A 
ENDBRANCH  26  45
BRANCH  38  51
ATOM     51  C   UNL A   1      45.111  27.965  35.178  1.00  0.00    -0.014 A 
ATOM     52  C   UNL A   1      45.066  26.806  35.969  1.00  0.00     0.009 A 
ATOM     53  C   UNL A   1      46.310  28.686  35.084  1.00  0.00     0.009 A 
ATOM     54  C   UNL A   1      46.196  26.396  36.678  1.00  0.00     0.001 A 
ATOM     55  C   UNL A   1      47.444  28.261  35.777  1.00  0.00     0.001 A 
ATOM     56  C   UNL A   1      47.383  27.121  36.580  1.00  0.00     0.000 A 
ENDBRANCH  38  51
ENDBRANCH  12  13
ENDBRANCH   5   7
ENDBRANCH   2   3
ENDBRANCH   1   2
BRANCH   1  57
ATOM     57  C   UNL A   1      31.806  27.809  26.035  1.00  0.00     0.023 C 
BRANCH  57  58
ATOM     58  C   UNL A   1      32.435  26.427  26.179  1.00  0.00     0.116 C 
BRANCH  58  59
ATOM     59  N   UNL A   1      31.517  25.465  26.742  1.00  0.00    -0.354 N 
ATOM     60  C   UNL A   1      31.160  24.211  26.361  1.00  0.00     0.242 C 
ATOM     61  H   UNL A   1      31.064  25.778  27.557  1.00  0.00     0.163 HD
ATOM     62  O   UNL A   1      30.333  23.666  27.110  1.00  0.00    -0.273 OA
BRANCH  60  63
ATOM     63  C   UNL A   1      31.664  23.445  25.109  1.00  0.00     0.173 C 
ATOM     64  C   UNL A   1      30.638  23.578  23.977  1.00  0.00     0.035 C 
ATOM     65  N   UNL A   1      33.043  23.716  24.659  1.00  0.00    -0.344 N 
ATOM     66  C   UNL A   1      30.856  24.838  23.161  1.00  0.00     0.004 C 
ATOM     67  C   UNL A   1      33.360  24.563  23.507  1.00  0.00     0.119 C 
ATOM     68  C   UNL A   1      32.227  24.772  22.514  1.00  0.00     0.022 C 
BRANCH  65  69
ATOM     69  C   UNL A   1      33.919  22.639  24.810  1.00  0.00     0.133 A 
ATOM     70  C   UNL A   1      33.460  21.352  24.619  1.00  0.00     0.076 A 
ATOM     71  N   UNL A   1      35.179  22.887  25.186  1.00  0.00    -0.211 NA
ATOM     72  C   UNL A   1      34.351  20.320  24.834  1.00  0.00     0.076 A 
ATOM     73  C   UNL A   1      35.988  21.825  25.348  1.00  0.00     0.162 A 
ATOM     74  N   UNL A   1      35.629  20.539  25.193  1.00  0.00    -0.228 NA
BRANCH  72  75
ATOM     75  C   UNL A   1      33.924  18.919  24.741  1.00  0.00     0.000 A 
ATOM     76  C   UNL A   1      34.585  18.031  23.876  1.00  0.00     0.010 A 
ATOM     77  C   UNL A   1      32.887  18.415  25.544  1.00  0.00     0.010 A 
ATOM     78  C   UNL A   1      34.235  16.678  23.829  1.00  0.00     0.001 A 
ATOM     79  C   UNL A   1      32.529  17.065  25.490  1.00  0.00     0.001 A 
ATOM     80  C   UNL A   1      33.208  16.197  24.637  1.00  0.00     0.000 A 
ENDBRANCH  72  75
BRANCH  73  81
ATOM     81  C   UNL A   1      37.374  22.103  25.729  1.00  0.00     0.021 A 
ATOM     82  C   UNL A   1      38.338  21.077  25.747  1.00  0.00     0.012 A 
ATOM     83  C   UNL A   1      37.774  23.396  26.106  1.00  0.00     0.032 A 
ATOM     84  C   UNL A   1      39.657  21.332  26.126  1.00  0.00     0.002 A 
ATOM     85  C   UNL A   1      39.088  23.643  26.502  1.00  0.00     0.041 A 
ATOM     86  C   UNL A   1      40.031  22.618  26.510  1.00  0.00     0.020 A 
ATOM     87  Cl  UNL A   1      39.546  25.225  27.000  1.00  0.00    -0.084 Cl
ENDBRANCH  73  81
ENDBRANCH  65  69
ENDBRANCH  60  63
ENDBRANCH  58  59
ENDBRANCH  57  58
ENDBRANCH   1  57
TORSDOF 14
ENDMDL
MODEL 2
REMARK VINA RESULT:     -12.6      6.375     10.244
REMARK SMILES O=C(NCCCCNC(=O)[C@H]1CCCCN1c1cc(-c2ccccc2)nc(-c2cccc(Cl)c2)n1)c1ccc(-c2c3nc(c(-c4ccccc4)c4ccc([nH]4)c(-c4ccccc4)c4nc(c(-c5ccccc5)c5ccc2[nH]5)C=C4)C=C3)cc1
REMARK SMILES IDX 5 1 4 2 3 3 1 4 2 5 36 7 37 8 83 9 38 10 82 11 39 12 40 13
REMARK SMILES IDX 41 14 76 15 42 16 81 17 75 18 77 19 43 20 80 21 74 22 73 23
REMARK SMILES IDX 44 25 66 26 51 27 65 28 52 29 55 30 64 31 78 32 53 33 54 34
REMARK SMILES IDX 63 36 79 37 56 38 45 39 46 40 50 41 47 42 49 43 48 44 67 45
REMARK SMILES IDX 68 46 72 47 69 48 71 49 70 50 57 51 58 52 62 53 59 54 61 55
REMARK SMILES IDX 60 56 6 57 7 58 8 59 9 60 10 62 11 63 12 64 16 65 13 66
REMARK SMILES IDX 15 67 14 68 17 69 18 70 35 71 19 72 27 73 26 74 20 75 21 76
REMARK SMILES IDX 25 77 22 78 24 79 23 80 28 81 29 82 34 83 30 84 32 85 31 86
REMARK SMILES IDX 33 87
REMARK H PARENT 3 6 77 24 55 35 8 61
REMARK Flexibility Score: inf
ROOT
ATOM      1  C   UNL A   1      38.496  24.507  26.871  1.00  0.00     0.023 C 
ENDROOT
BRANCH   1   2
ATOM      2  C   UNL A   1      39.990  24.724  26.678  1.00  0.00     0.116 C 
BRANCH   2   3
ATOM      3  N   UNL A   1      40.743  23.508  26.402  1.00  0.00    -0.352 N 
ATOM      4  O   UNL A   1      42.614  22.323  25.908  1.00  0.00    -0.269 OA
ATOM      5  C   UNL A   1      42.099  23.394  26.197  1.00  0.00     0.251 C 
ATOM      6  H   UNL A   1      40.223  22.673  26.358  1.00  0.00     0.163 HD
BRANCH   5   7
ATOM      7  C   UNL A   1      42.910  24.622  26.282  1.00  0.00     0.039 A 
ATOM      8  C   UNL A   1      43.131  25.386  25.135  1.00  0.00     0.014 A 
ATOM      9  C   UNL A   1      43.541  24.935  27.487  1.00  0.00     0.014 A 
ATOM     10  C   UNL A   1      44.110  26.369  25.152  1.00  0.00     0.010 A 
ATOM     11  C   UNL A   1      44.462  25.981  27.523  1.00  0.00     0.010 A 
ATOM     12  C   UNL A   1      44.782  26.678  26.346  1.00  0.00    -0.014 A 
BRANCH  12  13
ATOM     13  C   UNL A   1      45.786  27.764  26.346  1.00  0.00     0.031 A 
ATOM     14  C   UNL A   1      45.387  29.193  26.582  1.00  0.00     0.074 A 
ATOM     15  C   UNL A   1      47.079  27.437  26.167  1.00  0.00     0.049 A 
ATOM     16  N   UNL A   1      46.144  30.261  26.611  1.00  0.00    -0.248 NA
ATOM     17  C   UNL A   1      43.959  29.463  26.811  1.00  0.00     0.031 C 
ATOM     18  C   UNL A   1      47.580  26.078  25.941  1.00  0.00     0.029 A 
ATOM     19  N   UNL A   1      48.207  28.213  26.174  1.00  0.00    -0.354 N 
ATOM     20  C   UNL A   1      45.285  31.331  26.827  1.00  0.00     0.074 A 
ATOM     21  C   UNL A   1      43.946  30.785  26.916  1.00  0.00     0.031 C 
ATOM     22  C   UNL A   1      48.919  26.109  25.885  1.00  0.00     0.029 A 
ATOM     23  C   UNL A   1      49.363  27.492  26.002  1.00  0.00     0.049 A 
ATOM     24  H   UNL A   1      48.191  29.189  26.290  1.00  0.00     0.167 HD
ATOM     25  C   UNL A   1      45.587  32.646  26.938  1.00  0.00     0.031 A 
ATOM     26  C   UNL A   1      50.641  27.900  25.928  1.00  0.00     0.031 A 
ATOM     27  C   UNL A   1      46.922  33.180  26.859  1.00  0.00     0.049 A 
ATOM     28  C   UNL A   1      50.944  29.362  26.037  1.00  0.00     0.074 A 
ATOM     29  C   UNL A   1      47.333  34.497  26.979  1.00  0.00     0.029 A 
ATOM     30  N   UNL A   1      48.062  32.423  26.642  1.00  0.00    -0.354 N 
ATOM     31  N   UNL A   1      50.118  30.360  26.239  1.00  0.00    -0.248 NA
ATOM     32  C   UNL A   1      52.351  29.754  25.898  1.00  0.00     0.031 C 
ATOM     33  C   UNL A   1      48.720  34.539  26.797  1.00  0.00     0.029 A 
ATOM     34  C   UNL A   1      49.175  33.245  26.606  1.00  0.00     0.049 A 
ATOM     35  H   UNL A   1      48.078  31.445  26.531  1.00  0.00     0.167 HD
ATOM     36  C   UNL A   1      50.905  31.501  26.253  1.00  0.00     0.074 A 
ATOM     37  C   UNL A   1      52.276  31.068  26.065  1.00  0.00     0.031 C 
ATOM     38  C   UNL A   1      50.527  32.793  26.402  1.00  0.00     0.031 A 
BRANCH  25  39
ATOM     39  C   UNL A   1      44.447  33.608  27.122  1.00  0.00    -0.014 A 
ATOM     40  C   UNL A   1      43.945  33.912  28.395  1.00  0.00     0.009 A 
ATOM     41  C   UNL A   1      43.899  34.255  26.002  1.00  0.00     0.009 A 
ATOM     42  C   UNL A   1      42.899  34.827  28.543  1.00  0.00     0.001 A 
ATOM     43  C   UNL A   1      42.868  35.184  26.155  1.00  0.00     0.001 A 
ATOM     44  C   UNL A   1      42.365  35.465  27.423  1.00  0.00     0.000 A 
ENDBRANCH  25  39
BRANCH  26  45
ATOM     45  C   UNL A   1      51.715  26.898  25.720  1.00  0.00    -0.014 A 
ATOM     46  C   UNL A   1      52.258  26.201  26.808  1.00  0.00     0.009 A 
ATOM     47  C   UNL A   1      52.165  26.601  24.425  1.00  0.00     0.009 A 
ATOM     48  C   UNL A   1      53.240  25.230  26.602  1.00  0.00     0.001 A 
ATOM     49  C   UNL A   1      53.127  25.612  24.219  1.00  0.00     0.001 A 
ATOM     50  C   UNL A   1      53.668  24.931  25.308  1.00  0.00     0.000 A 
ENDBRANCH  26  45
BRANCH  38  51
ATOM     51  C   UNL A   1      51.619  33.820  26.376  1.00  0.00    -0.014 A 
ATOM     52  C   UNL A   1      52.279  34.198  27.555  1.00  0.00     0.009 A 
ATOM     53  C   UNL A   1      51.998  34.405  25.159  1.00  0.00     0.009 A 
ATOM     54  C   UNL A   1      53.281  35.169  27.519  1.00  0.00     0.001 A 
ATOM     55  C   UNL A   1      53.015  35.359  25.124  1.00  0.00     0.001 A 
ATOM     56  C   UNL A   1      53.650  35.747  26.304  1.00  0.00     0.000 A 
ENDBRANCH  38  51
ENDBRANCH  12  13
ENDBRANCH   5   7
ENDBRANCH   2   3
ENDBRANCH   1   2
BRANCH   1  57
ATOM     57  C   UNL A   1      37.880  23.505  25.904  1.00  0.00     0.023 C 
BRANCH  57  58
ATOM     58  C   UNL A   1      36.563  23.946  25.273  1.00  0.00     0.116 C 
BRANCH  58  59
ATOM     59  N   UNL A   1      35.425  23.616  26.096  1.00  0.00    -0.354 N 
ATOM     60  C   UNL A   1      34.096  23.859  25.958  1.00  0.00     0.242 C 
ATOM     61  H   UNL A   1      35.656  23.121  26.914  1.00  0.00     0.163 HD
ATOM     62  O   UNL A   1      33.395  23.406  26.877  1.00  0.00    -0.273 OA
BRANCH  60  63
ATOM     63  C   UNL A   1      33.413  24.641  24.804  1.00  0.00     0.173 C 
ATOM     64  C   UNL A   1      33.467  23.810  23.516  1.00  0.00     0.035 C 
ATOM     65  N   UNL A   1      32.072  25.198  25.064  1.00  0.00    -0.344 N 
ATOM     66  C   UNL A   1      32.297  22.851  23.413  1.00  0.00     0.004 C 
ATOM     67  C   UNL A   1      30.840  24.593  24.556  1.00  0.00     0.119 C 
ATOM     68  C   UNL A   1      31.009  23.651  23.373  1.00  0.00     0.022 C 
BRANCH  65  69
ATOM     69  C   UNL A   1      32.026  26.593  25.103  1.00  0.00     0.133 A 
ATOM     70  C   UNL A   1      32.967  27.289  25.834  1.00  0.00     0.076 A 
ATOM     71  N   UNL A   1      31.032  27.218  24.463  1.00  0.00    -0.211 NA
ATOM     72  C   UNL A   1      32.845  28.663  25.886  1.00  0.00     0.076 A 
ATOM     73  C   UNL A   1      31.003  28.560  24.543  1.00  0.00     0.162 A 
ATOM     74  N   UNL A   1      31.868  29.321  25.236  1.00  0.00    -0.228 NA
BRANCH  72  75
ATOM     75  C   UNL A   1      33.748  29.473  26.712  1.00  0.00     0.000 A 
ATOM     76  C   UNL A   1      33.373  30.765  27.115  1.00  0.00     0.010 A 
ATOM     77  C   UNL A   1      34.978  28.967  27.163  1.00  0.00     0.010 A 
ATOM     78  C   UNL A   1      34.192  31.521  27.960  1.00  0.00     0.001 A 
ATOM     79  C   UNL A   1      35.803  29.726  27.999  1.00  0.00     0.001 A 
ATOM     80  C   UNL A   1      35.406  31.000  28.401  1.00  0.00     0.000 A 
ENDBRANCH  72  75
BRANCH  73  81
ATOM     81  C   UNL A   1      29.931  29.242  23.815  1.00  0.00     0.021 A 
ATOM     82  C   UNL A   1      28.990  28.513  23.064  1.00  0.00     0.012 A 
ATOM     83  C   UNL A   1      29.826  30.644  23.830  1.00  0.00     0.032 A 
ATOM     84  C   UNL A   1      27.976  29.158  22.354  1.00  0.00     0.002 A 
ATOM     85  C   UNL A   1      28.823  31.286  23.103  1.00  0.00     0.041 A 
ATOM     86  C   UNL A   1      27.896  30.549  22.369  1.00  0.00     0.020 A 
ATOM     87  Cl  UNL A   1      28.739  33.004  23.101  1.00  0.00    -0.084 Cl
ENDBRANCH  73  81
ENDBRANCH  65  69
ENDBRANCH  60  63
ENDBRANCH  58  59
ENDBRANCH  57  58
ENDBRANCH   1  57
TORSDOF 14
ENDMDL
MODEL 3
REMARK VINA RESULT:     -12.5      1.655      6.534
REMARK SMILES O=C(NCCCCNC(=O)[C@H]1CCCCN1c1cc(-c2ccccc2)nc(-c2cccc(Cl)c2)n1)c1ccc(-c2c3nc(c(-c4ccccc4)c4ccc([nH]4)c(-c4ccccc4)c4nc(c(-c5ccccc5)c5ccc2[nH]5)C=C4)C=C3)cc1
REMARK SMILES IDX 5 1 4 2 3 3 1 4 2 5 36 7 37 8 83 9 38 10 82 11 39 12 40 13
REMARK SMILES IDX 41 14 76 15 42 16 81 17 75 18 77 19 43 20 80 21 74 22 73 23
REMARK SMILES IDX 44 25 66 26 51 27 65 28 52 29 55 30 64 31 78 32 53 33 54 34
REMARK SMILES IDX 63 36 79 37 56 38 45 39 46 40 50 41 47 42 49 43 48 44 67 45
REMARK SMILES IDX 68 46 72 47 69 48 71 49 70 50 57 51 58 52 62 53 59 54 61 55
REMARK SMILES IDX 60 56 6 57 7 58 8 59 9 60 10 62 11 63 12 64 16 65 13 66
REMARK SMILES IDX 15 67 14 68 17 69 18 70 35 71 19 72 27 73 26 74 20 75 21 76
REMARK SMILES IDX 25 77 22 78 24 79 23 80 28 81 29 82 34 83 30 84 32 85 31 86
REMARK SMILES IDX 33 87
REMARK H PARENT 3 6 77 24 55 35 8 61
REMARK Flexibility Score: inf
ROOT
ATOM      1  C   UNL A   1      31.643  29.669  25.408  1.00  0.00     0.023 C 
ENDROOT
BRANCH   1   2
ATOM      2  C   UNL A   1      32.130  30.269  26.719  1.00  0.00     0.116 C 
BRANCH   2   3
ATOM      3  N   UNL A   1      31.915  31.705  26.839  1.00  0.00    -0.352 N 
ATOM      4  O   UNL A   1      32.457  33.812  27.483  1.00  0.00    -0.269 OA
ATOM      5  C   UNL A   1      32.774  32.636  27.376  1.00  0.00     0.251 C 
ATOM      6  H   UNL A   1      31.058  32.049  26.496  1.00  0.00     0.163 HD
BRANCH   5   7
ATOM      7  C   UNL A   1      34.077  32.159  27.876  1.00  0.00     0.039 A 
ATOM      8  C   UNL A   1      34.257  30.802  28.153  1.00  0.00     0.014 A 
ATOM      9  C   UNL A   1      35.071  33.092  28.173  1.00  0.00     0.014 A 
ATOM     10  C   UNL A   1      35.368  30.400  28.878  1.00  0.00     0.010 A 
ATOM     11  C   UNL A   1      36.229  32.670  28.826  1.00  0.00     0.010 A 
ATOM     12  C   UNL A   1      36.365  31.328  29.218  1.00  0.00    -0.014 A 
BRANCH  12  13
ATOM     13  C   UNL A   1      37.564  30.861  29.949  1.00  0.00     0.031 A 
ATOM     14  C   UNL A   1      38.650  30.093  29.252  1.00  0.00     0.074 A 
ATOM     15  C   UNL A   1      37.678  31.175  31.253  1.00  0.00     0.049 A 
ATOM     16  N   UNL A   1      39.762  29.611  29.750  1.00  0.00    -0.248 NA
ATOM     17  C   UNL A   1      38.470  29.826  27.817  1.00  0.00     0.031 C 
ATOM     18  C   UNL A   1      36.687  31.927  32.028  1.00  0.00     0.029 A 
ATOM     19  N   UNL A   1      38.684  30.926  32.148  1.00  0.00    -0.354 N 
ATOM     20  C   UNL A   1      40.396  28.958  28.701  1.00  0.00     0.074 A 
ATOM     21  C   UNL A   1      39.544  29.099  27.539  1.00  0.00     0.031 C 
ATOM     22  C   UNL A   1      37.159  32.126  33.266  1.00  0.00     0.029 A 
ATOM     23  C   UNL A   1      38.448  31.459  33.392  1.00  0.00     0.049 A 
ATOM     24  H   UNL A   1      39.495  30.417  31.923  1.00  0.00     0.167 HD
ATOM     25  C   UNL A   1      41.580  28.299  28.711  1.00  0.00     0.031 A 
ATOM     26  C   UNL A   1      39.181  31.402  34.517  1.00  0.00     0.031 A 
ATOM     27  C   UNL A   1      42.428  28.173  29.868  1.00  0.00     0.049 A 
ATOM     28  C   UNL A   1      40.477  30.653  34.502  1.00  0.00     0.074 A 
ATOM     29  C   UNL A   1      43.655  27.542  29.973  1.00  0.00     0.029 A 
ATOM     30  N   UNL A   1      42.135  28.690  31.120  1.00  0.00    -0.354 N 
ATOM     31  N   UNL A   1      41.060  30.039  33.502  1.00  0.00    -0.248 NA
ATOM     32  C   UNL A   1      41.209  30.581  35.772  1.00  0.00     0.031 C 
ATOM     33  C   UNL A   1      44.088  27.646  31.301  1.00  0.00     0.029 A 
ATOM     34  C   UNL A   1      43.149  28.378  32.009  1.00  0.00     0.049 A 
ATOM     35  H   UNL A   1      41.326  29.204  31.344  1.00  0.00     0.167 HD
ATOM     36  C   UNL A   1      42.231  29.507  34.019  1.00  0.00     0.074 A 
ATOM     37  C   UNL A   1      42.286  29.893  35.416  1.00  0.00     0.031 C 
ATOM     38  C   UNL A   1      43.174  28.760  33.397  1.00  0.00     0.031 A 
BRANCH  25  39
ATOM     39  C   UNL A   1      42.014  27.632  27.436  1.00  0.00    -0.014 A 
ATOM     40  C   UNL A   1      41.814  26.260  27.224  1.00  0.00     0.009 A 
ATOM     41  C   UNL A   1      42.593  28.402  26.414  1.00  0.00     0.009 A 
ATOM     42  C   UNL A   1      42.207  25.667  26.021  1.00  0.00     0.001 A 
ATOM     43  C   UNL A   1      42.965  27.809  25.206  1.00  0.00     0.001 A 
ATOM     44  C   UNL A   1      42.778  26.442  25.013  1.00  0.00     0.000 A 
ENDBRANCH  25  39
BRANCH  26  45
ATOM     45  C   UNL A   1      38.679  32.062  35.747  1.00  0.00    -0.014 A 
ATOM     46  C   UNL A   1      37.985  31.327  36.716  1.00  0.00     0.009 A 
ATOM     47  C   UNL A   1      38.937  33.423  35.976  1.00  0.00     0.009 A 
ATOM     48  C   UNL A   1      37.550  31.944  37.891  1.00  0.00     0.001 A 
ATOM     49  C   UNL A   1      38.526  34.031  37.162  1.00  0.00     0.001 A 
ATOM     50  C   UNL A   1      37.828  33.293  38.116  1.00  0.00     0.000 A 
ENDBRANCH  26  45
BRANCH  38  51
ATOM     51  C   UNL A   1      44.344  28.326  34.228  1.00  0.00    -0.014 A 
ATOM     52  C   UNL A   1      44.374  27.054  34.820  1.00  0.00     0.009 A 
ATOM     53  C   UNL A   1      45.432  29.193  34.408  1.00  0.00     0.009 A 
ATOM     54  C   UNL A   1      45.462  26.671  35.605  1.00  0.00     0.001 A 
ATOM     55  C   UNL A   1      46.527  28.798  35.176  1.00  0.00     0.001 A 
ATOM     56  C   UNL A   1      46.538  27.540  35.781  1.00  0.00     0.000 A 
ENDBRANCH  38  51
ENDBRANCH  12  13
ENDBRANCH   5   7
ENDBRANCH   2   3
ENDBRANCH   1   2
BRANCH   1  57
ATOM     57  C   UNL A   1      32.729  28.976  24.596  1.00  0.00     0.023 C 
BRANCH  57  58
ATOM     58  C   UNL A   1      33.252  27.676  25.199  1.00  0.00     0.116 C 
BRANCH  58  59
ATOM     59  N   UNL A   1      32.249  26.992  25.979  1.00  0.00    -0.354 N 
ATOM     60  C   UNL A   1      31.702  25.753  25.882  1.00  0.00     0.242 C 
ATOM     61  H   UNL A   1      31.893  27.527  26.724  1.00  0.00     0.163 HD
ATOM     62  O   UNL A   1      30.856  25.497  26.754  1.00  0.00    -0.273 OA
BRANCH  60  63
ATOM     63  C   UNL A   1      32.019  24.684  24.802  1.00  0.00     0.173 C 
ATOM     64  C   UNL A   1      30.916  24.685  23.737  1.00  0.00     0.035 C 
ATOM     65  N   UNL A   1      33.374  24.695  24.216  1.00  0.00    -0.344 N 
ATOM     66  C   UNL A   1      31.181  25.707  22.648  1.00  0.00     0.004 C 
ATOM     67  C   UNL A   1      33.668  25.233  22.886  1.00  0.00     0.119 C 
ATOM     68  C   UNL A   1      32.477  25.350  21.945  1.00  0.00     0.022 C 
BRANCH  65  69
ATOM     69  C   UNL A   1      34.152  23.584  24.546  1.00  0.00     0.133 A 
ATOM     70  C   UNL A   1      35.402  23.765  25.103  1.00  0.00     0.076 A 
ATOM     71  N   UNL A   1      33.678  22.365  24.266  1.00  0.00    -0.211 NA
ATOM     72  C   UNL A   1      36.154  22.637  25.359  1.00  0.00     0.076 A 
ATOM     73  C   UNL A   1      34.466  21.319  24.573  1.00  0.00     0.162 A 
ATOM     74  N   UNL A   1      35.697  21.398  25.108  1.00  0.00    -0.228 NA
BRANCH  72  75
ATOM     75  C   UNL A   1      37.527  22.742  25.866  1.00  0.00     0.000 A 
ATOM     76  C   UNL A   1      37.954  23.905  26.529  1.00  0.00     0.010 A 
ATOM     77  C   UNL A   1      38.433  21.674  25.752  1.00  0.00     0.010 A 
ATOM     78  C   UNL A   1      39.236  23.990  27.079  1.00  0.00     0.001 A 
ATOM     79  C   UNL A   1      39.719  21.762  26.292  1.00  0.00     0.001 A 
ATOM     80  C   UNL A   1      40.117  22.918  26.960  1.00  0.00     0.000 A 
ENDBRANCH  72  75
BRANCH  73  81
ATOM     81  C   UNL A   1      33.930  19.985  24.294  1.00  0.00     0.021 A 
ATOM     82  C   UNL A   1      32.691  19.825  23.645  1.00  0.00     0.012 A 
ATOM     83  C   UNL A   1      34.628  18.830  24.685  1.00  0.00     0.032 A 
ATOM     84  C   UNL A   1      32.167  18.556  23.392  1.00  0.00     0.002 A 
ATOM     85  C   UNL A   1      34.092  17.565  24.448  1.00  0.00     0.041 A 
ATOM     86  C   UNL A   1      32.867  17.423  23.799  1.00  0.00     0.020 A 
ATOM     87  Cl  UNL A   1      34.944  16.165  24.973  1.00  0.00    -0.084 Cl
ENDBRANCH  73  81
ENDBRANCH  65  69
ENDBRANCH  60  63
ENDBRANCH  58  59
ENDBRANCH  57  58
ENDBRANCH   1  57
TORSDOF 14
ENDMDL
