MODEL 1
REMARK VINA RESULT:     -10.7      0.000      0.000
REMARK SMILES CCc1ccc(C(=O)NCCCCNC(=O)c2ccc(-c3c4nc(c(-c5ccccc5)c5ccc([nH]5)c(-c5ccccc5)c5nc(c(-c6ccccc6)c6ccc3[nH]6)C=C5)C=C4)cc2)cc1S(=O)(=O)C(CC)CC
REMARK SMILES IDX 11 1 10 2 9 3 7 4 8 5 6 7 3 8 4 9 66 10 5 11 65 12 2 13 1 14
REMARK SMILES IDX 67 15 68 16 69 17 70 18 71 19 72 20 73 21 74 22 12 23 13 24
REMARK SMILES IDX 14 25 15 26 16 28 17 29 18 30 64 31 19 32 63 33 20 34 21 35
REMARK SMILES IDX 22 36 57 37 23 38 62 39 56 40 58 41 24 42 61 43 55 44 54 45
REMARK SMILES IDX 25 47 47 48 32 49 46 50 33 51 36 52 45 53 59 54 34 55 35 56
REMARK SMILES IDX 44 58 60 59 37 60 26 61 27 62 31 63 28 64 30 65 29 66 48 67
REMARK SMILES IDX 49 68 53 69 50 70 52 71 51 72 38 73 39 74 43 75 40 76 42 77
REMARK SMILES IDX 41 78
REMARK H PARENT 9 6 14 27 58 46 36 57
REMARK Flexibility Score: inf
ROOT
ATOM      1  C   UNL A   1      36.479  20.237  24.895  1.00  0.00     0.023 C 
ENDROOT
BRANCH   1   2
ATOM      2  C   UNL A   1      35.303  20.810  25.691  1.00  0.00     0.116 C 
BRANCH   2   3
ATOM      3  N   UNL A   1      34.130  19.968  25.544  1.00  0.00    -0.352 N 
ATOM      4  C   UNL A   1      32.850  20.201  25.110  1.00  0.00     0.251 C 
ATOM      5  O   UNL A   1      32.072  19.245  25.134  1.00  0.00    -0.269 OA
ATOM      6  H   UNL A   1      34.285  19.034  25.814  1.00  0.00     0.163 HD
BRANCH   4   7
ATOM      7  C   UNL A   1      32.364  21.506  24.572  1.00  0.00     0.041 A 
ATOM      8  C   UNL A   1      31.550  23.993  23.404  1.00  0.00    -0.030 A 
ATOM      9  C   UNL A   1      32.040  22.913  22.629  1.00  0.00     0.006 A 
ATOM     10  C   UNL A   1      31.498  23.816  24.792  1.00  0.00     0.071 A 
ATOM     11  C   UNL A   1      32.460  21.708  23.198  1.00  0.00     0.014 A 
ATOM     12  C   UNL A   1      31.829  22.542  25.330  1.00  0.00     0.034 A 
BRANCH   8  13
ATOM     13  C   UNL A   1      31.098  25.175  22.599  1.00  0.00     0.033 C 
ATOM     14  C   UNL A   1      32.212  26.197  22.392  1.00  0.00     0.009 C 
ENDBRANCH   8  13
BRANCH  10  15
ATOM     15  S   UNL A   1      31.197  24.971  26.134  1.00  0.00     0.181 S 
ATOM     16  O   UNL A   1      29.900  25.547  25.814  1.00  0.00    -0.223 OA
ATOM     17  O   UNL A   1      31.289  24.135  27.324  1.00  0.00    -0.223 OA
BRANCH  15  18
ATOM     18  C   UNL A   1      32.294  26.323  26.420  1.00  0.00     0.113 C 
BRANCH  18  19
ATOM     19  C   UNL A   1      33.620  26.306  25.619  1.00  0.00     0.017 C 
ATOM     20  C   UNL A   1      34.501  25.069  25.613  1.00  0.00     0.005 C 
ENDBRANCH  18  19
BRANCH  18  21
ATOM     21  C   UNL A   1      31.657  27.697  26.682  1.00  0.00     0.017 C 
ATOM     22  C   UNL A   1      31.508  28.562  25.431  1.00  0.00     0.005 C 
ENDBRANCH  18  21
ENDBRANCH  15  18
ENDBRANCH  10  15
ENDBRANCH   4   7
ENDBRANCH   2   3
ENDBRANCH   1   2
BRANCH   1  23
ATOM     23  C   UNL A   1      37.623  21.234  24.677  1.00  0.00     0.023 C 
BRANCH  23  24
ATOM     24  C   UNL A   1      38.710  21.211  25.748  1.00  0.00     0.116 C 
BRANCH  24  25
ATOM     25  N   UNL A   1      39.585  20.051  25.655  1.00  0.00    -0.352 N 
ATOM     26  C   UNL A   1      40.915  19.959  25.989  1.00  0.00     0.251 C 
ATOM     27  H   UNL A   1      39.171  19.228  25.309  1.00  0.00     0.163 HD
ATOM     28  O   UNL A   1      41.554  18.940  25.762  1.00  0.00    -0.269 OA
BRANCH  26  29
ATOM     29  C   UNL A   1      41.582  21.134  26.584  1.00  0.00     0.039 A 
ATOM     30  C   UNL A   1      42.149  22.086  25.735  1.00  0.00     0.014 A 
ATOM     31  C   UNL A   1      41.582  21.323  27.969  1.00  0.00     0.014 A 
ATOM     32  C   UNL A   1      42.638  23.278  26.269  1.00  0.00     0.010 A 
ATOM     33  C   UNL A   1      42.021  22.535  28.495  1.00  0.00     0.010 A 
ATOM     34  C   UNL A   1      42.530  23.531  27.646  1.00  0.00    -0.014 A 
BRANCH  34  35
ATOM     35  C   UNL A   1      42.879  24.856  28.213  1.00  0.00     0.031 A 
ATOM     36  C   UNL A   1      41.820  25.900  28.417  1.00  0.00     0.074 A 
ATOM     37  C   UNL A   1      44.172  25.143  28.462  1.00  0.00     0.049 A 
ATOM     38  N   UNL A   1      41.954  27.141  28.814  1.00  0.00    -0.248 NA
ATOM     39  C   UNL A   1      40.434  25.506  28.121  1.00  0.00     0.031 C 
ATOM     40  C   UNL A   1      45.297  24.224  28.270  1.00  0.00     0.029 A 
ATOM     41  N   UNL A   1      44.759  26.297  28.916  1.00  0.00    -0.354 N 
ATOM     42  C   UNL A   1      40.674  27.678  28.806  1.00  0.00     0.074 A 
ATOM     43  C   UNL A   1      39.783  26.642  28.327  1.00  0.00     0.031 C 
ATOM     44  C   UNL A   1      46.436  24.845  28.620  1.00  0.00     0.029 A 
ATOM     45  C   UNL A   1      46.128  26.215  29.016  1.00  0.00     0.049 A 
ATOM     46  H   UNL A   1      44.250  27.107  29.147  1.00  0.00     0.167 HD
ATOM     47  C   UNL A   1      40.276  28.917  29.177  1.00  0.00     0.031 A 
ATOM     48  C   UNL A   1      47.035  27.143  29.370  1.00  0.00     0.031 A 
ATOM     49  C   UNL A   1      41.162  29.946  29.652  1.00  0.00     0.049 A 
ATOM     50  C   UNL A   1      46.568  28.524  29.733  1.00  0.00     0.074 A 
ATOM     51  C   UNL A   1      40.844  31.215  30.105  1.00  0.00     0.029 A 
ATOM     52  N   UNL A   1      42.540  29.827  29.729  1.00  0.00    -0.354 N 
ATOM     53  N   UNL A   1      45.347  28.996  29.785  1.00  0.00    -0.248 NA
ATOM     54  C   UNL A   1      47.609  29.501  30.088  1.00  0.00     0.031 C 
ATOM     55  C   UNL A   1      42.036  31.883  30.407  1.00  0.00     0.029 A 
ATOM     56  C   UNL A   1      43.092  31.011  30.190  1.00  0.00     0.049 A 
ATOM     57  H   UNL A   1      43.053  29.021  29.491  1.00  0.00     0.167 HD
ATOM     58  C   UNL A   1      45.470  30.318  30.193  1.00  0.00     0.074 A 
ATOM     59  C   UNL A   1      46.881  30.566  30.396  1.00  0.00     0.031 C 
ATOM     60  C   UNL A   1      44.499  31.244  30.377  1.00  0.00     0.031 A 
BRANCH  47  61
ATOM     61  C   UNL A   1      38.810  29.233  29.079  1.00  0.00    -0.014 A 
ATOM     62  C   UNL A   1      37.955  29.047  30.176  1.00  0.00     0.009 A 
ATOM     63  C   UNL A   1      38.288  29.770  27.892  1.00  0.00     0.009 A 
ATOM     64  C   UNL A   1      36.599  29.366  30.078  1.00  0.00     0.001 A 
ATOM     65  C   UNL A   1      36.937  30.111  27.806  1.00  0.00     0.001 A 
ATOM     66  C   UNL A   1      36.094  29.903  28.895  1.00  0.00     0.000 A 
ENDBRANCH  47  61
BRANCH  48  67
ATOM     67  C   UNL A   1      48.482  26.807  29.388  1.00  0.00    -0.014 A 
ATOM     68  C   UNL A   1      49.074  26.277  30.544  1.00  0.00     0.009 A 
ATOM     69  C   UNL A   1      49.282  27.030  28.256  1.00  0.00     0.009 A 
ATOM     70  C   UNL A   1      50.443  26.003  30.575  1.00  0.00     0.001 A 
ATOM     71  C   UNL A   1      50.646  26.728  28.281  1.00  0.00     0.001 A 
ATOM     72  C   UNL A   1      51.227  26.225  29.443  1.00  0.00     0.000 A 
ENDBRANCH  48  67
BRANCH  60  73
ATOM     73  C   UNL A   1      44.933  32.607  30.835  1.00  0.00    -0.014 A 
ATOM     74  C   UNL A   1      45.068  32.902  32.200  1.00  0.00     0.009 A 
ATOM     75  C   UNL A   1      45.246  33.595  29.889  1.00  0.00     0.009 A 
ATOM     76  C   UNL A   1      45.481  34.171  32.610  1.00  0.00     0.001 A 
ATOM     77  C   UNL A   1      45.683  34.854  30.301  1.00  0.00     0.001 A 
ATOM     78  C   UNL A   1      45.793  35.144  31.660  1.00  0.00     0.000 A 
ENDBRANCH  60  73
ENDBRANCH  34  35
ENDBRANCH  26  29
ENDBRANCH  24  25
ENDBRANCH  23  24
ENDBRANCH   1  23
TORSDOF 16
ENDMDL
MODEL 2
REMARK VINA RESULT:     -10.4      2.351      7.403
REMARK SMILES CCc1ccc(C(=O)NCCCCNC(=O)c2ccc(-c3c4nc(c(-c5ccccc5)c5ccc([nH]5)c(-c5ccccc5)c5nc(c(-c6ccccc6)c6ccc3[nH]6)C=C5)C=C4)cc2)cc1S(=O)(=O)C(CC)CC
REMARK SMILES IDX 11 1 10 2 9 3 7 4 8 5 6 7 3 8 4 9 66 10 5 11 65 12 2 13 1 14
REMARK SMILES IDX 67 15 68 16 69 17 70 18 71 19 72 20 73 21 74 22 12 23 13 24
REMARK SMILES IDX 14 25 15 26 16 28 17 29 18 30 64 31 19 32 63 33 20 34 21 35
REMARK SMILES IDX 22 36 57 37 23 38 62 39 56 40 58 41 24 42 61 43 55 44 54 45
REMARK SMILES IDX 25 47 47 48 32 49 46 50 33 51 36 52 45 53 59 54 34 55 35 56
REMARK SMILES IDX 44 58 60 59 37 60 26 61 27 62 31 63 28 64 30 65 29 66 48 67
REMARK SMILES IDX 49 68 53 69 50 70 52 71 51 72 38 73 39 74 43 75 40 76 42 77
REMARK SMILES IDX 41 78
REMARK H PARENT 9 6 14 27 58 46 36 57
REMARK Flexibility Score: inf
ROOT
ATOM      1  C   UNL A   1      33.183  29.578  24.995  1.00  0.00     0.023 C 
ENDROOT
BRANCH   1   2
ATOM      2  C   UNL A   1      31.653  29.585  25.068  1.00  0.00     0.116 C 
BRANCH   2   3
ATOM      3  N   UNL A   1      31.079  29.219  23.787  1.00  0.00    -0.352 N 
ATOM      4  C   UNL A   1      30.749  28.020  23.209  1.00  0.00     0.251 C 
ATOM      5  O   UNL A   1      30.289  28.060  22.066  1.00  0.00    -0.269 OA
ATOM      6  H   UNL A   1      30.886  29.994  23.210  1.00  0.00     0.163 HD
BRANCH   4   7
ATOM      7  C   UNL A   1      30.865  26.695  23.887  1.00  0.00     0.041 A 
ATOM      8  C   UNL A   1      31.011  24.226  25.335  1.00  0.00    -0.030 A 
ATOM      9  C   UNL A   1      29.991  25.182  25.563  1.00  0.00     0.006 A 
ATOM     10  C   UNL A   1      31.983  24.539  24.378  1.00  0.00     0.071 A 
ATOM     11  C   UNL A   1      29.932  26.397  24.876  1.00  0.00     0.014 A 
ATOM     12  C   UNL A   1      31.833  25.733  23.619  1.00  0.00     0.034 A 
BRANCH   8  13
ATOM     13  C   UNL A   1      30.864  22.964  26.132  1.00  0.00     0.033 C 
ATOM     14  C   UNL A   1      29.705  23.035  27.122  1.00  0.00     0.009 C 
ENDBRANCH   8  13
BRANCH  10  15
ATOM     15  S   UNL A   1      33.548  23.761  23.962  1.00  0.00     0.181 S 
ATOM     16  O   UNL A   1      33.759  24.124  22.569  1.00  0.00    -0.223 OA
ATOM     17  O   UNL A   1      34.469  24.308  24.950  1.00  0.00    -0.223 OA
BRANCH  15  18
ATOM     18  C   UNL A   1      33.734  22.009  24.061  1.00  0.00     0.113 C 
BRANCH  18  19
ATOM     19  C   UNL A   1      34.688  21.486  25.164  1.00  0.00     0.017 C 
ATOM     20  C   UNL A   1      36.010  20.836  24.795  1.00  0.00     0.005 C 
ENDBRANCH  18  19
BRANCH  18  21
ATOM     21  C   UNL A   1      32.495  21.155  23.751  1.00  0.00     0.017 C 
ATOM     22  C   UNL A   1      32.126  21.110  22.268  1.00  0.00     0.005 C 
ENDBRANCH  18  21
ENDBRANCH  15  18
ENDBRANCH  10  15
ENDBRANCH   4   7
ENDBRANCH   2   3
ENDBRANCH   1   2
BRANCH   1  23
ATOM     23  C   UNL A   1      33.843  28.582  25.955  1.00  0.00     0.023 C 
BRANCH  23  24
ATOM     24  C   UNL A   1      33.528  28.806  27.431  1.00  0.00     0.116 C 
BRANCH  24  25
ATOM     25  N   UNL A   1      33.627  30.200  27.836  1.00  0.00    -0.352 N 
ATOM     26  C   UNL A   1      34.712  30.860  28.364  1.00  0.00     0.251 C 
ATOM     27  H   UNL A   1      32.813  30.740  27.716  1.00  0.00     0.163 HD
ATOM     28  O   UNL A   1      34.619  32.015  28.754  1.00  0.00    -0.269 OA
BRANCH  26  29
ATOM     29  C   UNL A   1      35.988  30.130  28.502  1.00  0.00     0.039 A 
ATOM     30  C   UNL A   1      36.889  30.147  27.435  1.00  0.00     0.014 A 
ATOM     31  C   UNL A   1      36.315  29.493  29.702  1.00  0.00     0.014 A 
ATOM     32  C   UNL A   1      38.162  29.603  27.603  1.00  0.00     0.010 A 
ATOM     33  C   UNL A   1      37.603  29.000  29.886  1.00  0.00     0.010 A 
ATOM     34  C   UNL A   1      38.544  29.073  28.846  1.00  0.00    -0.014 A 
BRANCH  34  35
ATOM     35  C   UNL A   1      39.942  28.650  29.104  1.00  0.00     0.031 A 
ATOM     36  C   UNL A   1      40.935  29.616  29.681  1.00  0.00     0.074 A 
ATOM     37  C   UNL A   1      40.333  27.415  28.733  1.00  0.00     0.049 A 
ATOM     38  N   UNL A   1      42.218  29.451  29.888  1.00  0.00    -0.248 NA
ATOM     39  C   UNL A   1      40.428  30.944  30.059  1.00  0.00     0.031 C 
ATOM     40  C   UNL A   1      39.470  26.397  28.129  1.00  0.00     0.029 A 
ATOM     41  N   UNL A   1      41.563  26.811  28.797  1.00  0.00    -0.354 N 
ATOM     42  C   UNL A   1      42.672  30.655  30.410  1.00  0.00     0.074 A 
ATOM     43  C   UNL A   1      41.537  31.553  30.450  1.00  0.00     0.031 C 
ATOM     44  C   UNL A   1      40.193  25.290  27.893  1.00  0.00     0.029 A 
ATOM     45  C   UNL A   1      41.577  25.535  28.286  1.00  0.00     0.049 A 
ATOM     46  H   UNL A   1      42.361  27.250  29.171  1.00  0.00     0.167 HD
ATOM     47  C   UNL A   1      43.917  30.978  30.830  1.00  0.00     0.031 A 
ATOM     48  C   UNL A   1      42.592  24.665  28.134  1.00  0.00     0.031 A 
ATOM     49  C   UNL A   1      45.044  30.085  30.788  1.00  0.00     0.049 A 
ATOM     50  C   UNL A   1      43.973  25.067  28.567  1.00  0.00     0.074 A 
ATOM     51  C   UNL A   1      46.334  30.303  31.243  1.00  0.00     0.029 A 
ATOM     52  N   UNL A   1      45.019  28.806  30.255  1.00  0.00    -0.354 N 
ATOM     53  N   UNL A   1      44.372  26.185  29.120  1.00  0.00    -0.248 NA
ATOM     54  C   UNL A   1      45.044  24.083  28.353  1.00  0.00     0.031 C 
ATOM     55  C   UNL A   1      47.102  29.174  30.938  1.00  0.00     0.029 A 
ATOM     56  C   UNL A   1      46.278  28.234  30.338  1.00  0.00     0.049 A 
ATOM     57  H   UNL A   1      44.225  28.368  29.873  1.00  0.00     0.167 HD
ATOM     58  C   UNL A   1      45.736  26.035  29.336  1.00  0.00     0.074 A 
ATOM     59  C   UNL A   1      46.091  24.709  28.875  1.00  0.00     0.031 C 
ATOM     60  C   UNL A   1      46.615  26.918  29.865  1.00  0.00     0.031 A 
BRANCH  47  61
ATOM     61  C   UNL A   1      44.131  32.364  31.368  1.00  0.00    -0.014 A 
ATOM     62  C   UNL A   1      43.973  32.640  32.736  1.00  0.00     0.009 A 
ATOM     63  C   UNL A   1      44.542  33.393  30.508  1.00  0.00     0.009 A 
ATOM     64  C   UNL A   1      44.197  33.928  33.227  1.00  0.00     0.001 A 
ATOM     65  C   UNL A   1      44.789  34.674  31.007  1.00  0.00     0.001 A 
ATOM     66  C   UNL A   1      44.610  34.942  32.362  1.00  0.00     0.000 A 
ENDBRANCH  47  61
BRANCH  48  67
ATOM     67  C   UNL A   1      42.349  23.328  27.533  1.00  0.00    -0.014 A 
ATOM     68  C   UNL A   1      41.908  22.261  28.329  1.00  0.00     0.009 A 
ATOM     69  C   UNL A   1      42.573  23.109  26.164  1.00  0.00     0.009 A 
ATOM     70  C   UNL A   1      41.722  20.993  27.772  1.00  0.00     0.001 A 
ATOM     71  C   UNL A   1      42.359  21.847  25.605  1.00  0.00     0.001 A 
ATOM     72  C   UNL A   1      41.945  20.788  26.411  1.00  0.00     0.000 A 
ENDBRANCH  48  67
BRANCH  60  73
ATOM     73  C   UNL A   1      48.044  26.471  29.985  1.00  0.00    -0.014 A 
ATOM     74  C   UNL A   1      48.951  26.656  28.931  1.00  0.00     0.009 A 
ATOM     75  C   UNL A   1      48.497  25.891  31.181  1.00  0.00     0.009 A 
ATOM     76  C   UNL A   1      50.278  26.242  29.061  1.00  0.00     0.001 A 
ATOM     77  C   UNL A   1      49.830  25.503  31.317  1.00  0.00     0.001 A 
ATOM     78  C   UNL A   1      50.717  25.671  30.254  1.00  0.00     0.000 A 
ENDBRANCH  60  73
ENDBRANCH  34  35
ENDBRANCH  26  29
ENDBRANCH  24  25
ENDBRANCH  23  24
ENDBRANCH   1  23
TORSDOF 16
ENDMDL
MODEL 3
REMARK VINA RESULT:     -10.4      4.863      9.578
REMARK SMILES CCc1ccc(C(=O)NCCCCNC(=O)c2ccc(-c3c4nc(c(-c5ccccc5)c5ccc([nH]5)c(-c5ccccc5)c5nc(c(-c6ccccc6)c6ccc3[nH]6)C=C5)C=C4)cc2)cc1S(=O)(=O)C(CC)CC
REMARK SMILES IDX 11 1 10 2 9 3 7 4 8 5 6 7 3 8 4 9 66 10 5 11 65 12 2 13 1 14
REMARK SMILES IDX 67 15 68 16 69 17 70 18 71 19 72 20 73 21 74 22 12 23 13 24
REMARK SMILES IDX 14 25 15 26 16 28 17 29 18 30 64 31 19 32 63 33 20 34 21 35
REMARK SMILES IDX 22 36 57 37 23 38 62 39 56 40 58 41 24 42 61 43 55 44 54 45
REMARK SMILES IDX 25 47 47 48 32 49 46 50 33 51 36 52 45 53 59 54 34 55 35 56
REMARK SMILES IDX 44 58 60 59 37 60 26 61 27 62 31 63 28 64 30 65 29 66 48 67
REMARK SMILES IDX 49 68 53 69 50 70 52 71 51 72 38 73 39 74 43 75 40 76 42 77
REMARK SMILES IDX 41 78
REMARK H PARENT 9 6 14 27 58 46 36 57
REMARK Flexibility Score: inf
ROOT
ATOM      1  C   UNL A   1      32.136  30.160  26.740  1.00  0.00     0.023 C 
ENDROOT
BRANCH   1   2
ATOM      2  C   UNL A   1      32.813  29.693  25.448  1.00  0.00     0.116 C 
BRANCH   2   3
ATOM      3  N   UNL A   1      31.871  29.707  24.344  1.00  0.00    -0.352 N 
ATOM      4  C   UNL A   1      31.191  28.725  23.672  1.00  0.00     0.251 C 
ATOM      5  O   UNL A   1      30.467  29.085  22.742  1.00  0.00    -0.269 OA
ATOM      6  H   UNL A   1      31.681  30.613  24.006  1.00  0.00     0.163 HD
BRANCH   4   7
ATOM      7  C   UNL A   1      31.234  27.275  24.024  1.00  0.00     0.041 A 
ATOM      8  C   UNL A   1      31.274  24.537  24.870  1.00  0.00    -0.030 A 
ATOM      9  C   UNL A   1      30.435  25.506  25.472  1.00  0.00     0.006 A 
ATOM     10  C   UNL A   1      32.121  24.969  23.842  1.00  0.00     0.071 A 
ATOM     11  C   UNL A   1      30.432  26.847  25.078  1.00  0.00     0.014 A 
ATOM     12  C   UNL A   1      32.015  26.314  23.391  1.00  0.00     0.034 A 
BRANCH   8  13
ATOM     13  C   UNL A   1      31.086  23.146  25.397  1.00  0.00     0.033 C 
ATOM     14  C   UNL A   1      31.446  23.032  26.876  1.00  0.00     0.009 C 
ENDBRANCH   8  13
BRANCH  10  15
ATOM     15  S   UNL A   1      33.487  24.163  23.000  1.00  0.00     0.181 S 
ATOM     16  O   UNL A   1      32.868  23.018  22.348  1.00  0.00    -0.223 OA
ATOM     17  O   UNL A   1      34.025  25.216  22.149  1.00  0.00    -0.223 OA
BRANCH  15  18
ATOM     18  C   UNL A   1      34.864  23.541  23.911  1.00  0.00     0.113 C 
BRANCH  18  19
ATOM     19  C   UNL A   1      35.221  24.303  25.212  1.00  0.00     0.017 C 
ATOM     20  C   UNL A   1      36.495  23.975  25.972  1.00  0.00     0.005 C 
ENDBRANCH  18  19
BRANCH  18  21
ATOM     21  C   UNL A   1      35.066  22.018  23.921  1.00  0.00     0.017 C 
ATOM     22  C   UNL A   1      34.346  21.302  25.064  1.00  0.00     0.005 C 
ENDBRANCH  18  21
ENDBRANCH  15  18
ENDBRANCH  10  15
ENDBRANCH   4   7
ENDBRANCH   2   3
ENDBRANCH   1   2
BRANCH   1  23
ATOM     23  C   UNL A   1      31.821  31.660  26.765  1.00  0.00     0.023 C 
BRANCH  23  24
ATOM     24  C   UNL A   1      32.881  32.529  27.436  1.00  0.00     0.116 C 
BRANCH  24  25
ATOM     25  N   UNL A   1      32.454  33.906  27.639  1.00  0.00    -0.352 N 
ATOM     26  C   UNL A   1      32.988  34.848  28.485  1.00  0.00     0.251 C 
ATOM     27  H   UNL A   1      31.683  34.199  27.101  1.00  0.00     0.163 HD
ATOM     28  O   UNL A   1      32.459  35.942  28.626  1.00  0.00    -0.269 OA
BRANCH  26  29
ATOM     29  C   UNL A   1      34.191  34.500  29.267  1.00  0.00     0.039 A 
ATOM     30  C   UNL A   1      34.031  34.033  30.574  1.00  0.00     0.014 A 
ATOM     31  C   UNL A   1      35.460  34.571  28.685  1.00  0.00     0.014 A 
ATOM     32  C   UNL A   1      35.138  33.547  31.269  1.00  0.00     0.010 A 
ATOM     33  C   UNL A   1      36.554  34.037  29.360  1.00  0.00     0.010 A 
ATOM     34  C   UNL A   1      36.396  33.499  30.648  1.00  0.00    -0.014 A 
BRANCH  34  35
ATOM     35  C   UNL A   1      37.548  32.828  31.298  1.00  0.00     0.031 A 
ATOM     36  C   UNL A   1      38.171  31.612  30.678  1.00  0.00     0.074 A 
ATOM     37  C   UNL A   1      37.974  33.272  32.497  1.00  0.00     0.049 A 
ATOM     38  N   UNL A   1      39.122  30.844  31.148  1.00  0.00    -0.248 NA
ATOM     39  C   UNL A   1      37.648  31.193  29.368  1.00  0.00     0.031 C 
ATOM     40  C   UNL A   1      37.426  34.423  33.220  1.00  0.00     0.029 A 
ATOM     41  N   UNL A   1      38.958  32.797  33.327  1.00  0.00    -0.354 N 
ATOM     42  C   UNL A   1      39.304  29.848  30.199  1.00  0.00     0.074 A 
ATOM     43  C   UNL A   1      38.339  30.085  29.146  1.00  0.00     0.031 C 
ATOM     44  C   UNL A   1      38.093  34.574  34.377  1.00  0.00     0.029 A 
ATOM     45  C   UNL A   1      39.080  33.507  34.498  1.00  0.00     0.049 A 
ATOM     46  H   UNL A   1      39.522  32.021  33.107  1.00  0.00     0.167 HD
ATOM     47  C   UNL A   1      40.202  28.836  30.198  1.00  0.00     0.031 A 
ATOM     48  C   UNL A   1      39.886  33.312  35.558  1.00  0.00     0.031 A 
ATOM     49  C   UNL A   1      41.161  28.601  31.245  1.00  0.00     0.049 A 
ATOM     50  C   UNL A   1      40.842  32.154  35.550  1.00  0.00     0.074 A 
ATOM     51  C   UNL A   1      42.149  27.634  31.307  1.00  0.00     0.029 A 
ATOM     52  N   UNL A   1      41.246  29.335  32.417  1.00  0.00    -0.354 N 
ATOM     53  N   UNL A   1      41.047  31.260  34.614  1.00  0.00    -0.248 NA
ATOM     54  C   UNL A   1      41.678  31.979  36.746  1.00  0.00     0.031 C 
ATOM     55  C   UNL A   1      42.800  27.751  32.540  1.00  0.00     0.029 A 
ATOM     56  C   UNL A   1      42.248  28.823  33.224  1.00  0.00     0.049 A 
ATOM     57  H   UNL A   1      40.678  30.107  32.643  1.00  0.00     0.167 HD
ATOM     58  C   UNL A   1      42.046  30.426  35.101  1.00  0.00     0.074 A 
ATOM     59  C   UNL A   1      42.420  30.935  36.404  1.00  0.00     0.031 C 
ATOM     60  C   UNL A   1      42.600  29.335  34.521  1.00  0.00     0.031 A 
BRANCH  47  61
ATOM     61  C   UNL A   1      40.189  27.897  29.025  1.00  0.00    -0.014 A 
ATOM     62  C   UNL A   1      40.918  28.184  27.860  1.00  0.00     0.009 A 
ATOM     63  C   UNL A   1      39.480  26.688  29.105  1.00  0.00     0.009 A 
ATOM     64  C   UNL A   1      40.914  27.291  26.786  1.00  0.00     0.001 A 
ATOM     65  C   UNL A   1      39.500  25.787  28.039  1.00  0.00     0.001 A 
ATOM     66  C   UNL A   1      40.210  26.091  26.880  1.00  0.00     0.000 A 
ENDBRANCH  47  61
BRANCH  48  67
ATOM     67  C   UNL A   1      39.818  34.226  36.727  1.00  0.00    -0.014 A 
ATOM     68  C   UNL A   1      38.990  33.924  37.819  1.00  0.00     0.009 A 
ATOM     69  C   UNL A   1      40.568  35.413  36.751  1.00  0.00     0.009 A 
ATOM     70  C   UNL A   1      38.893  34.806  38.897  1.00  0.00     0.001 A 
ATOM     71  C   UNL A   1      40.490  36.279  37.844  1.00  0.00     0.001 A 
ATOM     72  C   UNL A   1      39.645  35.980  38.911  1.00  0.00     0.000 A 
ENDBRANCH  48  67
BRANCH  60  73
ATOM     73  C   UNL A   1      43.679  28.627  35.289  1.00  0.00    -0.014 A 
ATOM     74  C   UNL A   1      45.025  28.998  35.153  1.00  0.00     0.009 A 
ATOM     75  C   UNL A   1      43.341  27.602  36.186  1.00  0.00     0.009 A 
ATOM     76  C   UNL A   1      46.017  28.335  35.880  1.00  0.00     0.001 A 
ATOM     77  C   UNL A   1      44.331  26.960  36.931  1.00  0.00     0.001 A 
ATOM     78  C   UNL A   1      45.668  27.322  36.772  1.00  0.00     0.000 A 
ENDBRANCH  60  73
ENDBRANCH  34  35
ENDBRANCH  26  29
ENDBRANCH  24  25
ENDBRANCH  23  24
ENDBRANCH   1  23
TORSDOF 16
ENDMDL
