MODEL 1
REMARK VINA RESULT:     -11.1      0.000      0.000
REMARK SMILES C[C@@H]1CCCN(C(=O)NC2(CC(=O)NCCCCNC(=O)c3ccc(-c4c5nc(c(-c6ccccc6)c6ccc([nH]6)c(-c6ccccc6)c6nc(c(-c7ccccc7)c7ccc4[nH]7)C=C6)C=C5)cc3)CCC2)[C@@H]1C
REMARK SMILES IDX 16 1 15 2 14 3 12 4 13 5 11 7 10 8 70 9 72 10 71 11 9 12
REMARK SMILES IDX 7 13 8 14 6 16 1 17 2 18 3 19 73 20 4 21 74 22 5 23 17 24
REMARK SMILES IDX 18 25 19 26 20 27 21 29 22 30 23 31 69 32 24 33 68 34 25 35
REMARK SMILES IDX 26 36 27 37 62 38 28 39 67 40 61 41 63 42 29 43 66 44 60 45
REMARK SMILES IDX 59 46 30 48 52 49 37 50 51 51 38 52 41 53 50 54 64 55 39 56
REMARK SMILES IDX 40 57 49 59 65 60 42 61 31 62 32 63 36 64 33 65 35 66 34 67
REMARK SMILES IDX 53 68 54 69 58 70 55 71 57 72 56 73 43 74 44 75 48 76 45 77
REMARK SMILES IDX 47 78 46 79
REMARK H PARENT 14 6 9 15 19 28 63 47 41 58
REMARK Flexibility Score: inf
ROOT
ATOM      1  C   UNL A   1      36.371  20.048  24.983  1.00  0.00     0.023 C 
ENDROOT
BRANCH   1   2
ATOM      2  C   UNL A   1      34.907  20.498  24.964  1.00  0.00     0.116 C 
BRANCH   2   3
ATOM      3  N   UNL A   1      34.465  20.793  26.308  1.00  0.00    -0.356 N 
ATOM      4  C   UNL A   1      33.710  21.839  26.734  1.00  0.00     0.222 C 
ATOM      5  O   UNL A   1      33.702  22.101  27.937  1.00  0.00    -0.275 OA
ATOM      6  H   UNL A   1      34.749  20.155  27.003  1.00  0.00     0.163 HD
BRANCH   4   7
ATOM      7  C   UNL A   1      32.880  22.657  25.766  1.00  0.00     0.128 C 
BRANCH   7   8
ATOM      8  C   UNL A   1      33.411  24.058  25.355  1.00  0.00     0.051 C 
ATOM      9  C   UNL A   1      33.563  24.091  23.817  1.00  0.00     0.029 C 
ATOM     10  C   UNL A   1      34.947  24.180  25.487  1.00  0.00     0.029 C 
ATOM     11  C   UNL A   1      35.089  24.009  23.966  1.00  0.00     0.005 C 
BRANCH   8  12
ATOM     12  N   UNL A   1      32.560  25.118  25.946  1.00  0.00    -0.332 N 
ATOM     13  C   UNL A   1      31.672  26.095  25.668  1.00  0.00     0.318 C 
ATOM     14  O   UNL A   1      31.122  26.499  26.699  1.00  0.00    -0.249 OA
ATOM     15  H   UNL A   1      32.696  25.104  26.921  1.00  0.00     0.165 HD
BRANCH  13  16
ATOM     16  N   UNL A   1      31.375  26.622  24.445  1.00  0.00    -0.322 N 
ATOM     17  C   UNL A   1      31.239  29.638  24.961  1.00  0.00     0.010 C 
ATOM     18  C   UNL A   1      31.538  28.963  23.617  1.00  0.00     0.008 C 
ATOM     19  C   UNL A   1      30.249  28.752  22.801  1.00  0.00     0.007 C 
ATOM     20  C   UNL A   1      32.275  27.607  23.777  1.00  0.00     0.086 C 
ATOM     21  C   UNL A   1      29.390  27.622  23.358  1.00  0.00     0.022 C 
ATOM     22  C   UNL A   1      33.710  27.796  24.280  1.00  0.00     0.031 C 
ATOM     23  C   UNL A   1      30.213  26.359  23.613  1.00  0.00     0.121 C 
ENDBRANCH  13  16
ENDBRANCH   8  12
ENDBRANCH   7   8
ENDBRANCH   4   7
ENDBRANCH   2   3
ENDBRANCH   1   2
BRANCH   1  24
ATOM     24  C   UNL A   1      37.377  21.162  24.715  1.00  0.00     0.023 C 
BRANCH  24  25
ATOM     25  C   UNL A   1      38.551  21.177  25.683  1.00  0.00     0.116 C 
BRANCH  25  26
ATOM     26  N   UNL A   1      39.401  19.999  25.592  1.00  0.00    -0.352 N 
ATOM     27  C   UNL A   1      40.722  19.886  25.966  1.00  0.00     0.251 C 
ATOM     28  H   UNL A   1      38.984  19.188  25.220  1.00  0.00     0.163 HD
ATOM     29  O   UNL A   1      41.353  18.861  25.768  1.00  0.00    -0.269 OA
BRANCH  27  30
ATOM     30  C   UNL A   1      41.370  21.068  26.565  1.00  0.00     0.039 A 
ATOM     31  C   UNL A   1      41.935  22.025  25.721  1.00  0.00     0.014 A 
ATOM     32  C   UNL A   1      41.316  21.271  27.945  1.00  0.00     0.014 A 
ATOM     33  C   UNL A   1      42.382  23.231  26.260  1.00  0.00     0.010 A 
ATOM     34  C   UNL A   1      41.684  22.503  28.466  1.00  0.00     0.010 A 
ATOM     35  C   UNL A   1      42.221  23.493  27.629  1.00  0.00    -0.014 A 
BRANCH  35  36
ATOM     36  C   UNL A   1      42.621  24.792  28.221  1.00  0.00     0.031 A 
ATOM     37  C   UNL A   1      41.586  25.861  28.426  1.00  0.00     0.074 A 
ATOM     38  C   UNL A   1      43.917  25.036  28.494  1.00  0.00     0.049 A 
ATOM     39  N   UNL A   1      41.742  27.096  28.828  1.00  0.00    -0.248 NA
ATOM     40  C   UNL A   1      40.193  25.504  28.104  1.00  0.00     0.031 C 
ATOM     41  C   UNL A   1      45.023  24.096  28.296  1.00  0.00     0.029 A 
ATOM     42  N   UNL A   1      44.524  26.162  28.990  1.00  0.00    -0.354 N 
ATOM     43  C   UNL A   1      40.478  27.668  28.779  1.00  0.00     0.074 A 
ATOM     44  C   UNL A   1      39.575  26.665  28.263  1.00  0.00     0.031 C 
ATOM     45  C   UNL A   1      46.168  24.675  28.693  1.00  0.00     0.029 A 
ATOM     46  C   UNL A   1      45.885  26.036  29.136  1.00  0.00     0.049 A 
ATOM     47  H   UNL A   1      44.032  26.983  29.220  1.00  0.00     0.167 HD
ATOM     48  C   UNL A   1      40.097  28.912  29.152  1.00  0.00     0.031 A 
ATOM     49  C   UNL A   1      46.799  26.921  29.575  1.00  0.00     0.031 A 
ATOM     50  C   UNL A   1      40.989  29.898  29.695  1.00  0.00     0.049 A 
ATOM     51  C   UNL A   1      46.347  28.291  29.998  1.00  0.00     0.074 A 
ATOM     52  C   UNL A   1      40.692  31.168  30.157  1.00  0.00     0.029 A 
ATOM     53  N   UNL A   1      42.353  29.718  29.858  1.00  0.00    -0.354 N 
ATOM     54  N   UNL A   1      45.138  28.799  29.998  1.00  0.00    -0.248 NA
ATOM     55  C   UNL A   1      47.386  29.206  30.492  1.00  0.00     0.031 C 
ATOM     56  C   UNL A   1      41.885  31.771  30.571  1.00  0.00     0.029 A 
ATOM     57  C   UNL A   1      42.915  30.858  30.405  1.00  0.00     0.049 A 
ATOM     58  H   UNL A   1      42.849  28.902  29.620  1.00  0.00     0.167 HD
ATOM     59  C   UNL A   1      45.266  30.079  30.521  1.00  0.00     0.074 A 
ATOM     60  C   UNL A   1      46.668  30.266  30.836  1.00  0.00     0.031 C 
ATOM     61  C   UNL A   1      44.309  31.016  30.723  1.00  0.00     0.031 A 
BRANCH  48  62
ATOM     62  C   UNL A   1      38.647  29.266  28.989  1.00  0.00    -0.014 A 
ATOM     63  C   UNL A   1      38.144  29.714  27.756  1.00  0.00     0.009 A 
ATOM     64  C   UNL A   1      37.767  29.130  30.074  1.00  0.00     0.009 A 
ATOM     65  C   UNL A   1      36.796  30.054  27.624  1.00  0.00     0.001 A 
ATOM     66  C   UNL A   1      36.415  29.444  29.931  1.00  0.00     0.001 A 
ATOM     67  C   UNL A   1      35.933  29.915  28.709  1.00  0.00     0.000 A 
ENDBRANCH  48  62
BRANCH  49  68
ATOM     68  C   UNL A   1      48.231  26.538  29.662  1.00  0.00    -0.014 A 
ATOM     69  C   UNL A   1      49.105  26.820  28.600  1.00  0.00     0.009 A 
ATOM     70  C   UNL A   1      48.729  25.876  30.793  1.00  0.00     0.009 A 
ATOM     71  C   UNL A   1      50.442  26.419  28.656  1.00  0.00     0.001 A 
ATOM     72  C   UNL A   1      50.074  25.500  30.858  1.00  0.00     0.001 A 
ATOM     73  C   UNL A   1      50.925  25.762  29.786  1.00  0.00     0.000 A 
ENDBRANCH  49  68
BRANCH  61  74
ATOM     74  C   UNL A   1      44.737  32.308  31.356  1.00  0.00    -0.014 A 
ATOM     75  C   UNL A   1      45.134  33.404  30.576  1.00  0.00     0.009 A 
ATOM     76  C   UNL A   1      44.691  32.443  32.753  1.00  0.00     0.009 A 
ATOM     77  C   UNL A   1      45.505  34.604  31.186  1.00  0.00     0.001 A 
ATOM     78  C   UNL A   1      45.037  33.651  33.357  1.00  0.00     0.001 A 
ATOM     79  C   UNL A   1      45.451  34.728  32.575  1.00  0.00     0.000 A 
ENDBRANCH  61  74
ENDBRANCH  35  36
ENDBRANCH  27  30
ENDBRANCH  25  26
ENDBRANCH  24  25
ENDBRANCH   1  24
TORSDOF 14
ENDMDL
MODEL 2
REMARK VINA RESULT:     -11.1      1.103      6.126
REMARK SMILES C[C@@H]1CCCN(C(=O)NC2(CC(=O)NCCCCNC(=O)c3ccc(-c4c5nc(c(-c6ccccc6)c6ccc([nH]6)c(-c6ccccc6)c6nc(c(-c7ccccc7)c7ccc4[nH]7)C=C6)C=C5)cc3)CCC2)[C@@H]1C
REMARK SMILES IDX 16 1 15 2 14 3 12 4 13 5 11 7 10 8 70 9 72 10 71 11 9 12
REMARK SMILES IDX 7 13 8 14 6 16 1 17 2 18 3 19 73 20 4 21 74 22 5 23 17 24
REMARK SMILES IDX 18 25 19 26 20 27 21 29 22 30 23 31 69 32 24 33 68 34 25 35
REMARK SMILES IDX 26 36 27 37 62 38 28 39 67 40 61 41 63 42 29 43 66 44 60 45
REMARK SMILES IDX 59 46 30 48 52 49 37 50 51 51 38 52 41 53 50 54 64 55 39 56
REMARK SMILES IDX 40 57 49 59 65 60 42 61 31 62 32 63 36 64 33 65 35 66 34 67
REMARK SMILES IDX 53 68 54 69 58 70 55 71 57 72 56 73 43 74 44 75 48 76 45 77
REMARK SMILES IDX 47 78 46 79
REMARK H PARENT 14 6 9 15 19 28 63 47 41 58
REMARK Flexibility Score: inf
ROOT
ATOM      1  C   UNL A   1      38.469  22.746  25.880  1.00  0.00     0.023 C 
ENDROOT
BRANCH   1   2
ATOM      2  C   UNL A   1      37.012  23.196  25.743  1.00  0.00     0.116 C 
BRANCH   2   3
ATOM      3  N   UNL A   1      36.166  22.388  26.591  1.00  0.00    -0.356 N 
ATOM      4  C   UNL A   1      34.929  21.894  26.319  1.00  0.00     0.222 C 
ATOM      5  O   UNL A   1      34.236  21.508  27.261  1.00  0.00    -0.275 OA
ATOM      6  H   UNL A   1      36.531  22.169  27.479  1.00  0.00     0.163 HD
BRANCH   4   7
ATOM      7  C   UNL A   1      34.414  21.798  24.899  1.00  0.00     0.128 C 
BRANCH   7   8
ATOM      8  C   UNL A   1      32.877  21.850  24.676  1.00  0.00     0.051 C 
ATOM      9  C   UNL A   1      32.344  20.401  24.597  1.00  0.00     0.029 C 
ATOM     10  C   UNL A   1      32.491  22.049  23.193  1.00  0.00     0.029 C 
ATOM     11  C   UNL A   1      32.156  20.553  23.081  1.00  0.00     0.005 C 
BRANCH   8  12
ATOM     12  N   UNL A   1      32.244  22.719  25.698  1.00  0.00    -0.332 N 
ATOM     13  C   UNL A   1      31.606  23.890  25.900  1.00  0.00     0.318 C 
ATOM     14  O   UNL A   1      31.099  23.929  27.028  1.00  0.00    -0.249 OA
ATOM     15  H   UNL A   1      32.319  22.263  26.568  1.00  0.00     0.165 HD
BRANCH  13  16
ATOM     16  N   UNL A   1      31.498  24.936  25.031  1.00  0.00    -0.322 N 
ATOM     17  C   UNL A   1      31.484  27.400  26.851  1.00  0.00     0.010 C 
ATOM     18  C   UNL A   1      31.909  27.366  25.378  1.00  0.00     0.008 C 
ATOM     19  C   UNL A   1      30.723  27.687  24.448  1.00  0.00     0.007 C 
ATOM     20  C   UNL A   1      32.535  26.008  24.964  1.00  0.00     0.086 C 
ATOM     21  C   UNL A   1      29.733  26.531  24.355  1.00  0.00     0.022 C 
ATOM     22  C   UNL A   1      33.904  25.790  25.617  1.00  0.00     0.031 C 
ATOM     23  C   UNL A   1      30.437  25.204  24.075  1.00  0.00     0.121 C 
ENDBRANCH  13  16
ENDBRANCH   8  12
ENDBRANCH   7   8
ENDBRANCH   4   7
ENDBRANCH   2   3
ENDBRANCH   1   2
BRANCH   1  24
ATOM     24  C   UNL A   1      38.744  21.333  25.375  1.00  0.00     0.023 C 
BRANCH  24  25
ATOM     25  C   UNL A   1      39.270  20.390  26.446  1.00  0.00     0.116 C 
BRANCH  25  26
ATOM     26  N   UNL A   1      40.310  19.488  25.972  1.00  0.00    -0.352 N 
ATOM     27  C   UNL A   1      41.668  19.716  25.938  1.00  0.00     0.251 C 
ATOM     28  H   UNL A   1      40.009  18.612  25.638  1.00  0.00     0.163 HD
ATOM     29  O   UNL A   1      42.436  18.907  25.444  1.00  0.00    -0.269 OA
BRANCH  27  30
ATOM     30  C   UNL A   1      42.163  21.001  26.468  1.00  0.00     0.039 A 
ATOM     31  C   UNL A   1      42.487  22.018  25.569  1.00  0.00     0.014 A 
ATOM     32  C   UNL A   1      42.195  21.223  27.846  1.00  0.00     0.014 A 
ATOM     33  C   UNL A   1      42.775  23.293  26.057  1.00  0.00     0.010 A 
ATOM     34  C   UNL A   1      42.399  22.510  28.323  1.00  0.00     0.010 A 
ATOM     35  C   UNL A   1      42.692  23.555  27.434  1.00  0.00    -0.014 A 
BRANCH  35  36
ATOM     36  C   UNL A   1      42.923  24.915  27.978  1.00  0.00     0.031 A 
ATOM     37  C   UNL A   1      44.301  25.307  28.427  1.00  0.00     0.074 A 
ATOM     38  C   UNL A   1      41.886  25.758  28.143  1.00  0.00     0.049 A 
ATOM     39  N   UNL A   1      44.695  26.402  29.025  1.00  0.00    -0.248 NA
ATOM     40  C   UNL A   1      45.375  24.323  28.204  1.00  0.00     0.031 C 
ATOM     41  C   UNL A   1      40.492  25.477  27.790  1.00  0.00     0.029 A 
ATOM     42  N   UNL A   1      41.846  27.026  28.665  1.00  0.00    -0.354 N 
ATOM     43  C   UNL A   1      46.050  26.226  29.274  1.00  0.00     0.074 A 
ATOM     44  C   UNL A   1      46.401  24.903  28.809  1.00  0.00     0.031 C 
ATOM     45  C   UNL A   1      39.740  26.552  28.078  1.00  0.00     0.029 A 
ATOM     46  C   UNL A   1      40.588  27.580  28.671  1.00  0.00     0.049 A 
ATOM     47  H   UNL A   1      42.642  27.496  29.002  1.00  0.00     0.167 HD
ATOM     48  C   UNL A   1      46.929  27.096  29.820  1.00  0.00     0.031 A 
ATOM     49  C   UNL A   1      40.169  28.782  29.110  1.00  0.00     0.031 A 
ATOM     50  C   UNL A   1      46.587  28.423  30.253  1.00  0.00     0.049 A 
ATOM     51  C   UNL A   1      41.170  29.736  29.699  1.00  0.00     0.074 A 
ATOM     52  C   UNL A   1      47.417  29.403  30.768  1.00  0.00     0.029 A 
ATOM     53  N   UNL A   1      45.309  28.957  30.211  1.00  0.00    -0.354 N 
ATOM     54  N   UNL A   1      42.459  29.576  29.876  1.00  0.00    -0.248 NA
ATOM     55  C   UNL A   1      40.657  31.043  30.138  1.00  0.00     0.031 C 
ATOM     56  C   UNL A   1      46.633  30.522  31.068  1.00  0.00     0.029 A 
ATOM     57  C   UNL A   1      45.324  30.251  30.699  1.00  0.00     0.049 A 
ATOM     58  H   UNL A   1      44.509  28.486  29.883  1.00  0.00     0.167 HD
ATOM     59  C   UNL A   1      42.917  30.771  30.417  1.00  0.00     0.074 A 
ATOM     60  C   UNL A   1      41.770  31.649  30.527  1.00  0.00     0.031 C 
ATOM     61  C   UNL A   1      44.174  31.111  30.787  1.00  0.00     0.031 A 
BRANCH  48  62
ATOM     62  C   UNL A   1      48.351  26.635  29.971  1.00  0.00    -0.014 A 
ATOM     63  C   UNL A   1      49.327  26.970  29.018  1.00  0.00     0.009 A 
ATOM     64  C   UNL A   1      48.724  25.875  31.089  1.00  0.00     0.009 A 
ATOM     65  C   UNL A   1      50.641  26.521  29.165  1.00  0.00     0.001 A 
ATOM     66  C   UNL A   1      50.045  25.451  31.247  1.00  0.00     0.001 A 
ATOM     67  C   UNL A   1      50.999  25.766  30.280  1.00  0.00     0.000 A 
ENDBRANCH  48  62
BRANCH  49  68
ATOM     68  C   UNL A   1      38.739  29.165  28.989  1.00  0.00    -0.014 A 
ATOM     69  C   UNL A   1      37.880  29.052  30.094  1.00  0.00     0.009 A 
ATOM     70  C   UNL A   1      38.220  29.629  27.772  1.00  0.00     0.009 A 
ATOM     71  C   UNL A   1      36.524  29.365  29.974  1.00  0.00     0.001 A 
ATOM     72  C   UNL A   1      36.869  29.969  27.661  1.00  0.00     0.001 A 
ATOM     73  C   UNL A   1      36.021  29.826  28.759  1.00  0.00     0.000 A 
ENDBRANCH  49  68
BRANCH  61  74
ATOM     74  C   UNL A   1      44.385  32.505  31.301  1.00  0.00    -0.014 A 
ATOM     75  C   UNL A   1      44.668  33.567  30.429  1.00  0.00     0.009 A 
ATOM     76  C   UNL A   1      44.248  32.765  32.674  1.00  0.00     0.009 A 
ATOM     77  C   UNL A   1      44.837  34.860  30.928  1.00  0.00     0.001 A 
ATOM     78  C   UNL A   1      44.391  34.062  33.165  1.00  0.00     0.001 A 
ATOM     79  C   UNL A   1      44.693  35.107  32.294  1.00  0.00     0.000 A 
ENDBRANCH  61  74
ENDBRANCH  35  36
ENDBRANCH  27  30
ENDBRANCH  25  26
ENDBRANCH  24  25
ENDBRANCH   1  24
TORSDOF 14
ENDMDL
MODEL 3
REMARK VINA RESULT:     -11.0      4.007      9.028
REMARK SMILES C[C@@H]1CCCN(C(=O)NC2(CC(=O)NCCCCNC(=O)c3ccc(-c4c5nc(c(-c6ccccc6)c6ccc([nH]6)c(-c6ccccc6)c6nc(c(-c7ccccc7)c7ccc4[nH]7)C=C6)C=C5)cc3)CCC2)[C@@H]1C
REMARK SMILES IDX 16 1 15 2 14 3 12 4 13 5 11 7 10 8 70 9 72 10 71 11 9 12
REMARK SMILES IDX 7 13 8 14 6 16 1 17 2 18 3 19 73 20 4 21 74 22 5 23 17 24
REMARK SMILES IDX 18 25 19 26 20 27 21 29 22 30 23 31 69 32 24 33 68 34 25 35
REMARK SMILES IDX 26 36 27 37 62 38 28 39 67 40 61 41 63 42 29 43 66 44 60 45
REMARK SMILES IDX 59 46 30 48 52 49 37 50 51 51 38 52 41 53 50 54 64 55 39 56
REMARK SMILES IDX 40 57 49 59 65 60 42 61 31 62 32 63 36 64 33 65 35 66 34 67
REMARK SMILES IDX 53 68 54 69 58 70 55 71 57 72 56 73 43 74 44 75 48 76 45 77
REMARK SMILES IDX 47 78 46 79
REMARK H PARENT 14 6 9 15 19 28 63 47 41 58
REMARK Flexibility Score: inf
ROOT
ATOM      1  C   UNL A   1      31.997  30.680  26.249  1.00  0.00     0.023 C 
ENDROOT
BRANCH   1   2
ATOM      2  C   UNL A   1      32.824  29.907  27.280  1.00  0.00     0.116 C 
BRANCH   2   3
ATOM      3  N   UNL A   1      32.140  28.687  27.645  1.00  0.00    -0.356 N 
ATOM      4  C   UNL A   1      32.066  27.524  26.946  1.00  0.00     0.222 C 
ATOM      5  O   UNL A   1      31.189  26.715  27.253  1.00  0.00    -0.275 OA
ATOM      6  H   UNL A   1      31.667  28.701  28.509  1.00  0.00     0.163 HD
BRANCH   4   7
ATOM      7  C   UNL A   1      33.041  27.211  25.831  1.00  0.00     0.128 C 
BRANCH   7   8
ATOM      8  C   UNL A   1      32.461  26.805  24.448  1.00  0.00     0.051 C 
ATOM      9  C   UNL A   1      33.578  26.945  23.388  1.00  0.00     0.029 C 
ATOM     10  C   UNL A   1      31.693  27.955  23.759  1.00  0.00     0.029 C 
ATOM     11  C   UNL A   1      32.901  28.210  22.843  1.00  0.00     0.005 C 
BRANCH   8  12
ATOM     12  N   UNL A   1      31.816  25.473  24.539  1.00  0.00    -0.332 N 
ATOM     13  C   UNL A   1      32.000  24.186  24.902  1.00  0.00     0.318 C 
ATOM     14  O   UNL A   1      30.923  23.580  24.942  1.00  0.00    -0.249 OA
ATOM     15  H   UNL A   1      30.894  25.562  24.204  1.00  0.00     0.165 HD
BRANCH  13  16
ATOM     16  N   UNL A   1      33.180  23.568  25.191  1.00  0.00    -0.322 N 
ATOM     17  C   UNL A   1      32.714  20.664  24.333  1.00  0.00     0.010 C 
ATOM     18  C   UNL A   1      34.072  21.368  24.442  1.00  0.00     0.008 C 
ATOM     19  C   UNL A   1      34.698  21.160  25.834  1.00  0.00     0.007 C 
ATOM     20  C   UNL A   1      33.987  22.887  24.136  1.00  0.00     0.086 C 
ATOM     21  C   UNL A   1      34.004  21.989  26.909  1.00  0.00     0.022 C 
ATOM     22  C   UNL A   1      33.692  23.154  22.656  1.00  0.00     0.031 C 
ATOM     23  C   UNL A   1      33.838  23.447  26.481  1.00  0.00     0.121 C 
ENDBRANCH  13  16
ENDBRANCH   8  12
ENDBRANCH   7   8
ENDBRANCH   4   7
ENDBRANCH   2   3
ENDBRANCH   1   2
BRANCH   1  24
ATOM     24  C   UNL A   1      31.583  32.079  26.694  1.00  0.00     0.023 C 
BRANCH  24  25
ATOM     25  C   UNL A   1      32.678  32.841  27.427  1.00  0.00     0.116 C 
BRANCH  25  26
ATOM     26  N   UNL A   1      32.342  34.231  27.701  1.00  0.00    -0.352 N 
ATOM     27  C   UNL A   1      32.973  35.091  28.571  1.00  0.00     0.251 C 
ATOM     28  H   UNL A   1      31.575  34.599  27.206  1.00  0.00     0.163 HD
ATOM     29  O   UNL A   1      32.548  36.217  28.772  1.00  0.00    -0.269 OA
BRANCH  27  30
ATOM     30  C   UNL A   1      34.152  34.587  29.302  1.00  0.00     0.039 A 
ATOM     31  C   UNL A   1      33.962  33.951  30.529  1.00  0.00     0.014 A 
ATOM     32  C   UNL A   1      35.418  34.652  28.715  1.00  0.00     0.014 A 
ATOM     33  C   UNL A   1      35.039  33.307  31.137  1.00  0.00     0.010 A 
ATOM     34  C   UNL A   1      36.466  33.940  29.281  1.00  0.00     0.010 A 
ATOM     35  C   UNL A   1      36.287  33.263  30.496  1.00  0.00    -0.014 A 
BRANCH  35  36
ATOM     36  C   UNL A   1      37.433  32.528  31.083  1.00  0.00     0.031 A 
ATOM     37  C   UNL A   1      38.029  33.001  32.378  1.00  0.00     0.074 A 
ATOM     38  C   UNL A   1      37.983  31.497  30.415  1.00  0.00     0.049 A 
ATOM     39  N   UNL A   1      39.093  32.568  33.004  1.00  0.00    -0.248 NA
ATOM     40  C   UNL A   1      37.360  34.134  33.041  1.00  0.00     0.031 C 
ATOM     41  C   UNL A   1      37.524  30.972  29.126  1.00  0.00     0.029 A 
ATOM     42  N   UNL A   1      39.061  30.709  30.727  1.00  0.00    -0.354 N 
ATOM     43  C   UNL A   1      39.236  33.391  34.113  1.00  0.00     0.074 A 
ATOM     44  C   UNL A   1      38.182  34.378  34.050  1.00  0.00     0.031 C 
ATOM     45  C   UNL A   1      38.298  29.932  28.774  1.00  0.00     0.029 A 
ATOM     46  C   UNL A   1      39.329  29.742  29.788  1.00  0.00     0.049 A 
ATOM     47  H   UNL A   1      39.594  30.824  31.547  1.00  0.00     0.167 HD
ATOM     48  C   UNL A   1      40.149  33.318  35.109  1.00  0.00     0.031 A 
ATOM     49  C   UNL A   1      40.300  28.809  29.751  1.00  0.00     0.031 A 
ATOM     50  C   UNL A   1      41.176  32.317  35.188  1.00  0.00     0.049 A 
ATOM     51  C   UNL A   1      41.292  28.740  30.878  1.00  0.00     0.074 A 
ATOM     52  C   UNL A   1      42.115  32.122  36.185  1.00  0.00     0.029 A 
ATOM     53  N   UNL A   1      41.391  31.335  34.234  1.00  0.00    -0.354 N 
ATOM     54  N   UNL A   1      41.379  29.491  31.949  1.00  0.00    -0.248 NA
ATOM     55  C   UNL A   1      42.313  27.686  30.794  1.00  0.00     0.031 C 
ATOM     56  C   UNL A   1      42.921  31.039  35.818  1.00  0.00     0.029 A 
ATOM     57  C   UNL A   1      42.454  30.536  34.613  1.00  0.00     0.049 A 
ATOM     58  H   UNL A   1      40.866  31.223  33.409  1.00  0.00     0.167 HD
ATOM     59  C   UNL A   1      42.443  28.981  32.683  1.00  0.00     0.074 A 
ATOM     60  C   UNL A   1      42.961  27.851  31.939  1.00  0.00     0.031 C 
ATOM     61  C   UNL A   1      42.944  29.409  33.865  1.00  0.00     0.031 A 
BRANCH  48  62
ATOM     62  C   UNL A   1      40.066  34.351  36.196  1.00  0.00    -0.014 A 
ATOM     63  C   UNL A   1      40.775  35.560  36.103  1.00  0.00     0.009 A 
ATOM     64  C   UNL A   1      39.253  34.122  37.317  1.00  0.00     0.009 A 
ATOM     65  C   UNL A   1      40.699  36.504  37.129  1.00  0.00     0.001 A 
ATOM     66  C   UNL A   1      39.159  35.080  38.328  1.00  0.00     0.001 A 
ATOM     67  C   UNL A   1      39.889  36.265  38.237  1.00  0.00     0.000 A 
ENDBRANCH  48  62
BRANCH  49  68
ATOM     68  C   UNL A   1      40.371  27.848  28.621  1.00  0.00    -0.014 A 
ATOM     69  C   UNL A   1      41.092  28.171  27.461  1.00  0.00     0.009 A 
ATOM     70  C   UNL A   1      39.708  26.614  28.686  1.00  0.00     0.009 A 
ATOM     71  C   UNL A   1      41.123  27.291  26.377  1.00  0.00     0.001 A 
ATOM     72  C   UNL A   1      39.763  25.723  27.611  1.00  0.00     0.001 A 
ATOM     73  C   UNL A   1      40.461  26.067  26.454  1.00  0.00     0.000 A 
ENDBRANCH  49  68
BRANCH  61  74
ATOM     74  C   UNL A   1      44.081  28.625  34.453  1.00  0.00    -0.014 A 
ATOM     75  C   UNL A   1      45.415  28.975  34.197  1.00  0.00     0.009 A 
ATOM     76  C   UNL A   1      43.809  27.551  35.316  1.00  0.00     0.009 A 
ATOM     77  C   UNL A   1      46.456  28.245  34.773  1.00  0.00     0.001 A 
ATOM     78  C   UNL A   1      44.851  26.841  35.911  1.00  0.00     0.001 A 
ATOM     79  C   UNL A   1      46.174  27.183  35.633  1.00  0.00     0.000 A 
ENDBRANCH  61  74
ENDBRANCH  35  36
ENDBRANCH  27  30
ENDBRANCH  25  26
ENDBRANCH  24  25
ENDBRANCH   1  24
TORSDOF 14
ENDMDL
