MODEL 1
REMARK VINA RESULT:     -11.1      0.000      0.000
REMARK SMILES C[C@@H]1[C@@H](C(=O)NCCCCNC(=O)c2ccc(-c3c4nc(c(-c5ccccc5)c5ccc([nH]5)c(-c5ccccc5)c5nc(c(-c6ccccc6)c6ccc3[nH]6)C=C5)C=C4)cc2)CCN1C(=O)N1CC[N@H+]2CCCC[C@@H]2C1
REMARK SMILES IDX 8 1 7 2 6 3 4 4 5 5 3 7 1 8 2 9 64 10 62 11 63 12 65 13
REMARK SMILES IDX 66 14 67 15 68 16 76 17 69 18 75 19 70 20 74 21 71 22 73 24
REMARK SMILES IDX 72 25 9 26 10 27 11 28 12 29 13 31 14 32 15 33 61 34 16 35
REMARK SMILES IDX 60 36 17 37 18 38 19 39 54 40 20 41 59 42 53 43 55 44 21 45
REMARK SMILES IDX 58 46 52 47 51 48 22 50 44 51 29 52 43 53 30 54 33 55 42 56
REMARK SMILES IDX 56 57 31 58 32 59 41 61 57 62 34 63 23 64 24 65 28 66 25 67
REMARK SMILES IDX 27 68 26 69 45 70 46 71 50 72 47 73 49 74 48 75 35 76 36 77
REMARK SMILES IDX 40 78 37 79 39 80 38 81
REMARK H PARENT 6 6 70 23 11 30 55 49 33 60
REMARK Flexibility Score: inf
ROOT
ATOM      1  C   UNL A   1      35.413  21.615  25.672  1.00  0.00     0.023 C 
ENDROOT
BRANCH   1   2
ATOM      2  C   UNL A   1      34.014  21.820  26.238  1.00  0.00     0.116 C 
BRANCH   2   3
ATOM      3  N   UNL A   1      33.698  23.204  26.534  1.00  0.00    -0.356 N 
ATOM      4  C   UNL A   1      32.781  24.022  25.931  1.00  0.00     0.225 C 
ATOM      5  O   UNL A   1      32.647  25.160  26.377  1.00  0.00    -0.275 OA
ATOM      6  H   UNL A   1      34.212  23.611  27.269  1.00  0.00     0.163 HD
BRANCH   4   7
ATOM      7  C   UNL A   1      32.061  23.526  24.683  1.00  0.00     0.102 C 
ATOM      8  C   UNL A   1      32.583  22.663  22.417  1.00  0.00     0.032 C 
ATOM      9  C   UNL A   1      32.836  23.837  23.375  1.00  0.00     0.096 C 
ATOM     10  N   UNL A   1      32.265  25.126  22.917  1.00  0.00    -0.321 N 
ATOM     11  C   UNL A   1      30.701  24.179  24.419  1.00  0.00     0.037 C 
ATOM     12  C   UNL A   1      31.053  25.433  23.651  1.00  0.00     0.122 C 
BRANCH  10  13
ATOM     13  C   UNL A   1      32.930  26.218  22.380  1.00  0.00     0.320 C 
ATOM     14  O   UNL A   1      33.484  26.149  21.280  1.00  0.00    -0.248 OA
BRANCH  13  15
ATOM     15  N   UNL A   1      32.887  27.403  23.058  1.00  0.00    -0.313 N 
ATOM     16  C   UNL A   1      32.014  28.476  22.602  1.00  0.00     0.183 C 
ATOM     17  C   UNL A   1      33.946  27.876  23.928  1.00  0.00     0.186 C 
ATOM     18  C   UNL A   1      31.460  29.284  23.800  1.00  0.00     0.284 C 
ATOM     19  C   UNL A   1      33.313  28.477  25.193  1.00  0.00     0.203 C 
ATOM     20  N   UNL A   1      32.457  29.642  24.844  1.00  0.00    -0.330 N 
ATOM     21  C   UNL A   1      34.393  28.893  26.197  1.00  0.00     0.067 C 
ATOM     22  C   UNL A   1      31.775  30.155  26.042  1.00  0.00     0.262 C 
ATOM     23  H   UNL A   1      33.062  30.373  24.468  1.00  0.00     0.348 HD
ATOM     24  C   UNL A   1      33.752  29.455  27.463  1.00  0.00     0.012 C 
ATOM     25  C   UNL A   1      32.775  30.575  27.121  1.00  0.00     0.062 C 
ENDBRANCH  13  15
ENDBRANCH  10  13
ENDBRANCH   4   7
ENDBRANCH   2   3
ENDBRANCH   1   2
BRANCH   1  26
ATOM     26  C   UNL A   1      35.856  22.634  24.624  1.00  0.00     0.023 C 
BRANCH  26  27
ATOM     27  C   UNL A   1      37.205  23.295  24.880  1.00  0.00     0.116 C 
BRANCH  27  28
ATOM     28  N   UNL A   1      38.209  22.370  25.386  1.00  0.00    -0.352 N 
ATOM     29  C   UNL A   1      39.307  22.608  26.180  1.00  0.00     0.251 C 
ATOM     30  H   UNL A   1      38.082  21.430  25.119  1.00  0.00     0.163 HD
ATOM     31  O   UNL A   1      40.119  21.715  26.388  1.00  0.00    -0.269 OA
BRANCH  29  32
ATOM     32  C   UNL A   1      39.524  23.953  26.758  1.00  0.00     0.039 A 
ATOM     33  C   UNL A   1      39.112  24.200  28.070  1.00  0.00     0.014 A 
ATOM     34  C   UNL A   1      40.139  24.962  26.016  1.00  0.00     0.014 A 
ATOM     35  C   UNL A   1      39.388  25.435  28.661  1.00  0.00     0.010 A 
ATOM     36  C   UNL A   1      40.499  26.155  26.635  1.00  0.00     0.010 A 
ATOM     37  C   UNL A   1      40.122  26.409  27.963  1.00  0.00    -0.014 A 
BRANCH  37  38
ATOM     38  C   UNL A   1      40.492  27.703  28.593  1.00  0.00     0.031 A 
ATOM     39  C   UNL A   1      41.870  27.896  29.165  1.00  0.00     0.074 A 
ATOM     40  C   UNL A   1      39.571  28.680  28.711  1.00  0.00     0.049 A 
ATOM     41  N   UNL A   1      42.360  28.926  29.810  1.00  0.00    -0.248 NA
ATOM     42  C   UNL A   1      42.814  26.776  29.018  1.00  0.00     0.031 C 
ATOM     43  C   UNL A   1      38.189  28.609  28.233  1.00  0.00     0.029 A 
ATOM     44  N   UNL A   1      39.662  29.928  29.277  1.00  0.00    -0.354 N 
ATOM     45  C   UNL A   1      43.657  28.568  30.159  1.00  0.00     0.074 A 
ATOM     46  C   UNL A   1      43.856  27.208  29.709  1.00  0.00     0.031 C 
ATOM     47  C   UNL A   1      37.573  29.773  28.497  1.00  0.00     0.029 A 
ATOM     48  C   UNL A   1      38.498  30.655  29.201  1.00  0.00     0.049 A 
ATOM     49  H   UNL A   1      40.484  30.270  29.698  1.00  0.00     0.167 HD
ATOM     50  C   UNL A   1      44.606  29.309  30.778  1.00  0.00     0.031 A 
ATOM     51  C   UNL A   1      38.206  31.889  29.652  1.00  0.00     0.031 A 
ATOM     52  C   UNL A   1      44.412  30.664  31.222  1.00  0.00     0.049 A 
ATOM     53  C   UNL A   1      39.269  32.684  30.359  1.00  0.00     0.074 A 
ATOM     54  C   UNL A   1      45.327  31.516  31.816  1.00  0.00     0.029 A 
ATOM     55  N   UNL A   1      43.219  31.362  31.124  1.00  0.00    -0.354 N 
ATOM     56  N   UNL A   1      40.510  32.355  30.624  1.00  0.00    -0.248 NA
ATOM     57  C   UNL A   1      38.892  34.030  30.817  1.00  0.00     0.031 C 
ATOM     58  C   UNL A   1      44.670  32.711  32.128  1.00  0.00     0.029 A 
ATOM     59  C   UNL A   1      43.367  32.627  31.666  1.00  0.00     0.049 A 
ATOM     60  H   UNL A   1      42.389  31.011  30.727  1.00  0.00     0.167 HD
ATOM     61  C   UNL A   1      41.072  33.464  31.245  1.00  0.00     0.074 A 
ATOM     62  C   UNL A   1      40.040  34.478  31.305  1.00  0.00     0.031 C 
ATOM     63  C   UNL A   1      42.332  33.629  31.717  1.00  0.00     0.031 A 
BRANCH  50  64
ATOM     64  C   UNL A   1      45.941  28.658  31.021  1.00  0.00    -0.014 A 
ATOM     65  C   UNL A   1      46.200  27.941  32.201  1.00  0.00     0.009 A 
ATOM     66  C   UNL A   1      46.949  28.745  30.047  1.00  0.00     0.009 A 
ATOM     67  C   UNL A   1      47.454  27.366  32.420  1.00  0.00     0.001 A 
ATOM     68  C   UNL A   1      48.190  28.139  30.255  1.00  0.00     0.001 A 
ATOM     69  C   UNL A   1      48.445  27.461  31.445  1.00  0.00     0.000 A 
ENDBRANCH  50  64
BRANCH  51  70
ATOM     70  C   UNL A   1      36.852  32.464  29.432  1.00  0.00    -0.014 A 
ATOM     71  C   UNL A   1      36.565  33.178  28.257  1.00  0.00     0.009 A 
ATOM     72  C   UNL A   1      35.843  32.312  30.395  1.00  0.00     0.009 A 
ATOM     73  C   UNL A   1      35.306  33.753  28.068  1.00  0.00     0.001 A 
ATOM     74  C   UNL A   1      34.575  32.861  30.188  1.00  0.00     0.001 A 
ATOM     75  C   UNL A   1      34.312  33.590  29.029  1.00  0.00     0.000 A 
ENDBRANCH  51  70
BRANCH  63  76
ATOM     76  C   UNL A   1      42.683  34.973  32.293  1.00  0.00    -0.014 A 
ATOM     77  C   UNL A   1      42.333  35.326  33.606  1.00  0.00     0.009 A 
ATOM     78  C   UNL A   1      43.414  35.887  31.517  1.00  0.00     0.009 A 
ATOM     79  C   UNL A   1      42.675  36.581  34.114  1.00  0.00     0.001 A 
ATOM     80  C   UNL A   1      43.784  37.126  32.038  1.00  0.00     0.001 A 
ATOM     81  C   UNL A   1      43.404  37.477  33.333  1.00  0.00     0.000 A 
ENDBRANCH  63  76
ENDBRANCH  37  38
ENDBRANCH  29  32
ENDBRANCH  27  28
ENDBRANCH  26  27
ENDBRANCH   1  26
TORSDOF 13
ENDMDL
MODEL 2
REMARK VINA RESULT:     -11.1      2.038      6.605
REMARK SMILES C[C@@H]1[C@@H](C(=O)NCCCCNC(=O)c2ccc(-c3c4nc(c(-c5ccccc5)c5ccc([nH]5)c(-c5ccccc5)c5nc(c(-c6ccccc6)c6ccc3[nH]6)C=C5)C=C4)cc2)CCN1C(=O)N1CC[N@H+]2CCCC[C@@H]2C1
REMARK SMILES IDX 8 1 7 2 6 3 4 4 5 5 3 7 1 8 2 9 64 10 62 11 63 12 65 13
REMARK SMILES IDX 66 14 67 15 68 16 76 17 69 18 75 19 70 20 74 21 71 22 73 24
REMARK SMILES IDX 72 25 9 26 10 27 11 28 12 29 13 31 14 32 15 33 61 34 16 35
REMARK SMILES IDX 60 36 17 37 18 38 19 39 54 40 20 41 59 42 53 43 55 44 21 45
REMARK SMILES IDX 58 46 52 47 51 48 22 50 44 51 29 52 43 53 30 54 33 55 42 56
REMARK SMILES IDX 56 57 31 58 32 59 41 61 57 62 34 63 23 64 24 65 28 66 25 67
REMARK SMILES IDX 27 68 26 69 45 70 46 71 50 72 47 73 49 74 48 75 35 76 36 77
REMARK SMILES IDX 40 78 37 79 39 80 38 81
REMARK H PARENT 6 6 70 23 11 30 55 49 33 60
REMARK Flexibility Score: inf
ROOT
ATOM      1  C   UNL A   1      36.058  21.480  24.790  1.00  0.00     0.023 C 
ENDROOT
BRANCH   1   2
ATOM      2  C   UNL A   1      35.014  21.603  25.892  1.00  0.00     0.116 C 
BRANCH   2   3
ATOM      3  N   UNL A   1      34.677  22.972  26.231  1.00  0.00    -0.356 N 
ATOM      4  C   UNL A   1      33.601  23.715  25.828  1.00  0.00     0.225 C 
ATOM      5  O   UNL A   1      33.490  24.854  26.278  1.00  0.00    -0.275 OA
ATOM      6  H   UNL A   1      35.309  23.429  26.832  1.00  0.00     0.163 HD
BRANCH   4   7
ATOM      7  C   UNL A   1      32.664  23.142  24.771  1.00  0.00     0.102 C 
ATOM      8  C   UNL A   1      32.751  22.215  22.472  1.00  0.00     0.032 C 
ATOM      9  C   UNL A   1      33.138  23.435  23.323  1.00  0.00     0.096 C 
ATOM     10  N   UNL A   1      32.422  24.680  22.956  1.00  0.00    -0.321 N 
ATOM     11  C   UNL A   1      31.249  23.727  24.776  1.00  0.00     0.037 C 
ATOM     12  C   UNL A   1      31.374  24.964  23.916  1.00  0.00     0.122 C 
BRANCH  10  13
ATOM     13  C   UNL A   1      32.909  25.778  22.262  1.00  0.00     0.320 C 
ATOM     14  O   UNL A   1      33.336  25.665  21.110  1.00  0.00    -0.248 OA
BRANCH  13  15
ATOM     15  N   UNL A   1      32.828  27.008  22.851  1.00  0.00    -0.313 N 
ATOM     16  C   UNL A   1      32.101  28.087  22.194  1.00  0.00     0.183 C 
ATOM     17  C   UNL A   1      33.761  27.490  23.850  1.00  0.00     0.186 C 
ATOM     18  C   UNL A   1      31.411  29.001  23.235  1.00  0.00     0.284 C 
ATOM     19  C   UNL A   1      32.971  28.206  24.956  1.00  0.00     0.203 C 
ATOM     20  N   UNL A   1      32.250  29.384  24.403  1.00  0.00    -0.330 N 
ATOM     21  C   UNL A   1      33.901  28.640  26.095  1.00  0.00     0.067 C 
ATOM     22  C   UNL A   1      31.418  30.009  25.441  1.00  0.00     0.262 C 
ATOM     23  H   UNL A   1      32.948  30.057  24.086  1.00  0.00     0.348 HD
ATOM     24  C   UNL A   1      33.101  29.318  27.203  1.00  0.00     0.012 C 
ATOM     25  C   UNL A   1      32.257  30.456  26.640  1.00  0.00     0.062 C 
ENDBRANCH  13  15
ENDBRANCH  10  13
ENDBRANCH   4   7
ENDBRANCH   2   3
ENDBRANCH   1   2
BRANCH   1  26
ATOM     26  C   UNL A   1      37.092  20.373  24.981  1.00  0.00     0.023 C 
BRANCH  26  27
ATOM     27  C   UNL A   1      38.452  20.826  25.499  1.00  0.00     0.116 C 
BRANCH  27  28
ATOM     28  N   UNL A   1      39.427  19.747  25.566  1.00  0.00    -0.352 N 
ATOM     29  C   UNL A   1      40.743  19.771  25.966  1.00  0.00     0.251 C 
ATOM     30  H   UNL A   1      39.093  18.865  25.280  1.00  0.00     0.163 HD
ATOM     31  O   UNL A   1      41.447  18.780  25.819  1.00  0.00    -0.269 OA
BRANCH  29  32
ATOM     32  C   UNL A   1      41.317  21.005  26.547  1.00  0.00     0.039 A 
ATOM     33  C   UNL A   1      41.914  21.939  25.695  1.00  0.00     0.014 A 
ATOM     34  C   UNL A   1      41.260  21.248  27.920  1.00  0.00     0.014 A 
ATOM     35  C   UNL A   1      42.383  23.148  26.213  1.00  0.00     0.010 A 
ATOM     36  C   UNL A   1      41.639  22.490  28.420  1.00  0.00     0.010 A 
ATOM     37  C   UNL A   1      42.211  23.453  27.574  1.00  0.00    -0.014 A 
BRANCH  37  38
ATOM     38  C   UNL A   1      42.635  24.760  28.137  1.00  0.00     0.031 A 
ATOM     39  C   UNL A   1      41.619  25.847  28.367  1.00  0.00     0.074 A 
ATOM     40  C   UNL A   1      43.939  24.997  28.380  1.00  0.00     0.049 A 
ATOM     41  N   UNL A   1      41.802  27.074  28.789  1.00  0.00    -0.248 NA
ATOM     42  C   UNL A   1      40.217  25.522  28.059  1.00  0.00     0.031 C 
ATOM     43  C   UNL A   1      45.031  24.045  28.166  1.00  0.00     0.029 A 
ATOM     44  N   UNL A   1      44.569  26.120  28.857  1.00  0.00    -0.354 N 
ATOM     45  C   UNL A   1      40.546  27.667  28.776  1.00  0.00     0.074 A 
ATOM     46  C   UNL A   1      39.621  26.688  28.249  1.00  0.00     0.031 C 
ATOM     47  C   UNL A   1      46.188  24.612  28.541  1.00  0.00     0.029 A 
ATOM     48  C   UNL A   1      45.930  25.980  28.978  1.00  0.00     0.049 A 
ATOM     49  H   UNL A   1      44.090  26.948  29.091  1.00  0.00     0.167 HD
ATOM     50  C   UNL A   1      40.187  28.907  29.185  1.00  0.00     0.031 A 
ATOM     51  C   UNL A   1      46.867  26.855  29.389  1.00  0.00     0.031 A 
ATOM     52  C   UNL A   1      41.103  29.881  29.714  1.00  0.00     0.049 A 
ATOM     53  C   UNL A   1      46.448  28.235  29.816  1.00  0.00     0.074 A 
ATOM     54  C   UNL A   1      40.831  31.147  30.201  1.00  0.00     0.029 A 
ATOM     55  N   UNL A   1      42.474  29.697  29.821  1.00  0.00    -0.354 N 
ATOM     56  N   UNL A   1      45.247  28.759  29.858  1.00  0.00    -0.248 NA
ATOM     57  C   UNL A   1      47.515  29.140  30.265  1.00  0.00     0.031 C 
ATOM     58  C   UNL A   1      42.043  31.750  30.551  1.00  0.00     0.029 A 
ATOM     59  C   UNL A   1      43.062  30.835  30.346  1.00  0.00     0.049 A 
ATOM     60  H   UNL A   1      42.956  28.878  29.563  1.00  0.00     0.167 HD
ATOM     61  C   UNL A   1      45.409  30.039  30.372  1.00  0.00     0.074 A 
ATOM     62  C   UNL A   1      46.823  30.207  30.638  1.00  0.00     0.031 C 
ATOM     63  C   UNL A   1      44.470  30.988  30.609  1.00  0.00     0.031 A 
BRANCH  50  64
ATOM     64  C   UNL A   1      38.734  29.280  29.063  1.00  0.00    -0.014 A 
ATOM     65  C   UNL A   1      38.212  29.802  27.868  1.00  0.00     0.009 A 
ATOM     66  C   UNL A   1      37.869  29.090  30.152  1.00  0.00     0.009 A 
ATOM     67  C   UNL A   1      36.867  30.168  27.781  1.00  0.00     0.001 A 
ATOM     68  C   UNL A   1      36.517  29.423  30.051  1.00  0.00     0.001 A 
ATOM     69  C   UNL A   1      36.020  29.973  28.871  1.00  0.00     0.000 A 
ENDBRANCH  50  64
BRANCH  51  70
ATOM     70  C   UNL A   1      48.297  26.450  29.439  1.00  0.00    -0.014 A 
ATOM     71  C   UNL A   1      48.837  25.888  30.608  1.00  0.00     0.009 A 
ATOM     72  C   UNL A   1      49.134  26.630  28.327  1.00  0.00     0.009 A 
ATOM     73  C   UNL A   1      50.190  25.545  30.670  1.00  0.00     0.001 A 
ATOM     74  C   UNL A   1      50.479  26.256  28.381  1.00  0.00     0.001 A 
ATOM     75  C   UNL A   1      51.007  25.723  29.556  1.00  0.00     0.000 A 
ENDBRANCH  51  70
BRANCH  63  76
ATOM     76  C   UNL A   1      44.933  32.276  31.234  1.00  0.00    -0.014 A 
ATOM     77  C   UNL A   1      45.007  32.432  32.627  1.00  0.00     0.009 A 
ATOM     78  C   UNL A   1      45.340  33.336  30.409  1.00  0.00     0.009 A 
ATOM     79  C   UNL A   1      45.443  33.639  33.179  1.00  0.00     0.001 A 
ATOM     80  C   UNL A   1      45.807  34.528  30.962  1.00  0.00     0.001 A 
ATOM     81  C   UNL A   1      45.848  34.683  32.347  1.00  0.00     0.000 A 
ENDBRANCH  63  76
ENDBRANCH  37  38
ENDBRANCH  29  32
ENDBRANCH  27  28
ENDBRANCH  26  27
ENDBRANCH   1  26
TORSDOF 13
ENDMDL
MODEL 3
REMARK VINA RESULT:     -11.0      1.768      7.370
REMARK SMILES C[C@@H]1[C@@H](C(=O)NCCCCNC(=O)c2ccc(-c3c4nc(c(-c5ccccc5)c5ccc([nH]5)c(-c5ccccc5)c5nc(c(-c6ccccc6)c6ccc3[nH]6)C=C5)C=C4)cc2)CCN1C(=O)N1CC[N@H+]2CCCC[C@@H]2C1
REMARK SMILES IDX 8 1 7 2 6 3 4 4 5 5 3 7 1 8 2 9 64 10 62 11 63 12 65 13
REMARK SMILES IDX 66 14 67 15 68 16 76 17 69 18 75 19 70 20 74 21 71 22 73 24
REMARK SMILES IDX 72 25 9 26 10 27 11 28 12 29 13 31 14 32 15 33 61 34 16 35
REMARK SMILES IDX 60 36 17 37 18 38 19 39 54 40 20 41 59 42 53 43 55 44 21 45
REMARK SMILES IDX 58 46 52 47 51 48 22 50 44 51 29 52 43 53 30 54 33 55 42 56
REMARK SMILES IDX 56 57 31 58 32 59 41 61 57 62 34 63 23 64 24 65 28 66 25 67
REMARK SMILES IDX 27 68 26 69 45 70 46 71 50 72 47 73 49 74 48 75 35 76 36 77
REMARK SMILES IDX 40 78 37 79 39 80 38 81
REMARK H PARENT 6 6 70 23 11 30 55 49 33 60
REMARK Flexibility Score: inf
ROOT
ATOM      1  C   UNL A   1      31.778  29.371  25.766  1.00  0.00     0.023 C 
ENDROOT
BRANCH   1   2
ATOM      2  C   UNL A   1      32.178  29.121  24.317  1.00  0.00     0.116 C 
BRANCH   2   3
ATOM      3  N   UNL A   1      33.179  28.084  24.156  1.00  0.00    -0.356 N 
ATOM      4  C   UNL A   1      33.014  26.790  23.741  1.00  0.00     0.225 C 
ATOM      5  O   UNL A   1      34.018  26.090  23.634  1.00  0.00    -0.275 OA
ATOM      6  H   UNL A   1      34.103  28.346  24.373  1.00  0.00     0.163 HD
BRANCH   4   7
ATOM      7  C   UNL A   1      31.600  26.256  23.541  1.00  0.00     0.102 C 
ATOM      8  C   UNL A   1      29.379  26.328  24.643  1.00  0.00     0.032 C 
ATOM      9  C   UNL A   1      30.860  25.992  24.879  1.00  0.00     0.096 C 
ATOM     10  N   UNL A   1      31.119  24.559  25.155  1.00  0.00    -0.321 N 
ATOM     11  C   UNL A   1      31.517  24.893  22.847  1.00  0.00     0.037 C 
ATOM     12  C   UNL A   1      31.670  23.907  23.983  1.00  0.00     0.122 C 
BRANCH  10  13
ATOM     13  C   UNL A   1      31.422  23.959  26.369  1.00  0.00     0.320 C 
ATOM     14  O   UNL A   1      30.572  23.853  27.257  1.00  0.00    -0.248 OA
BRANCH  13  15
ATOM     15  N   UNL A   1      32.662  23.409  26.531  1.00  0.00    -0.313 N 
ATOM     16  C   UNL A   1      32.833  22.220  27.356  1.00  0.00     0.183 C 
ATOM     17  C   UNL A   1      33.901  24.135  26.333  1.00  0.00     0.186 C 
ATOM     18  C   UNL A   1      33.950  21.312  26.789  1.00  0.00     0.284 C 
ATOM     19  C   UNL A   1      34.886  23.230  25.576  1.00  0.00     0.203 C 
ATOM     20  N   UNL A   1      35.195  22.014  26.375  1.00  0.00    -0.330 N 
ATOM     21  C   UNL A   1      36.176  23.988  25.243  1.00  0.00     0.067 C 
ATOM     22  C   UNL A   1      36.060  21.104  25.609  1.00  0.00     0.262 C 
ATOM     23  H   UNL A   1      35.689  22.310  27.217  1.00  0.00     0.348 HD
ATOM     24  C   UNL A   1      37.131  23.091  24.462  1.00  0.00     0.012 C 
ATOM     25  C   UNL A   1      37.370  21.781  25.205  1.00  0.00     0.062 C 
ENDBRANCH  13  15
ENDBRANCH  10  13
ENDBRANCH   4   7
ENDBRANCH   2   3
ENDBRANCH   1   2
BRANCH   1  26
ATOM     26  C   UNL A   1      31.515  30.829  26.134  1.00  0.00     0.023 C 
BRANCH  26  27
ATOM     27  C   UNL A   1      32.619  31.515  26.930  1.00  0.00     0.116 C 
BRANCH  27  28
ATOM     28  N   UNL A   1      32.299  32.890  27.284  1.00  0.00    -0.352 N 
ATOM     29  C   UNL A   1      32.979  33.776  28.088  1.00  0.00     0.251 C 
ATOM     30  H   UNL A   1      31.468  33.240  26.887  1.00  0.00     0.163 HD
ATOM     31  O   UNL A   1      32.475  34.852  28.380  1.00  0.00    -0.269 OA
BRANCH  29  32
ATOM     32  C   UNL A   1      34.309  33.413  28.628  1.00  0.00     0.039 A 
ATOM     33  C   UNL A   1      34.381  32.733  29.847  1.00  0.00     0.014 A 
ATOM     34  C   UNL A   1      35.478  33.732  27.935  1.00  0.00     0.014 A 
ATOM     35  C   UNL A   1      35.621  32.307  30.328  1.00  0.00     0.010 A 
ATOM     36  C   UNL A   1      36.698  33.224  28.366  1.00  0.00     0.010 A 
ATOM     37  C   UNL A   1      36.786  32.510  29.571  1.00  0.00    -0.014 A 
BRANCH  37  38
ATOM     38  C   UNL A   1      38.107  32.003  30.026  1.00  0.00     0.031 A 
ATOM     39  C   UNL A   1      38.624  30.686  29.516  1.00  0.00     0.074 A 
ATOM     40  C   UNL A   1      38.812  32.693  30.944  1.00  0.00     0.049 A 
ATOM     41  N   UNL A   1      39.721  30.046  29.842  1.00  0.00    -0.248 NA
ATOM     42  C   UNL A   1      37.789  29.980  28.531  1.00  0.00     0.031 C 
ATOM     43  C   UNL A   1      38.408  33.964  31.548  1.00  0.00     0.029 A 
ATOM     44  N   UNL A   1      40.019  32.414  31.537  1.00  0.00    -0.354 N 
ATOM     45  C   UNL A   1      39.692  28.860  29.119  1.00  0.00     0.074 A 
ATOM     46  C   UNL A   1      38.446  28.840  28.385  1.00  0.00     0.031 C 
ATOM     47  C   UNL A   1      39.365  34.371  32.398  1.00  0.00     0.029 A 
ATOM     48  C   UNL A   1      40.427  33.370  32.436  1.00  0.00     0.049 A 
ATOM     49  H   UNL A   1      40.544  31.605  31.336  1.00  0.00     0.167 HD
ATOM     50  C   UNL A   1      40.627  27.882  29.052  1.00  0.00     0.031 A 
ATOM     51  C   UNL A   1      41.528  33.432  33.208  1.00  0.00     0.031 A 
ATOM     52  C   UNL A   1      41.870  27.901  29.777  1.00  0.00     0.049 A 
ATOM     53  C   UNL A   1      42.541  32.323  33.135  1.00  0.00     0.074 A 
ATOM     54  C   UNL A   1      42.904  26.982  29.740  1.00  0.00     0.029 A 
ATOM     55  N   UNL A   1      42.244  28.889  30.675  1.00  0.00    -0.354 N 
ATOM     56  N   UNL A   1      42.530  31.239  32.398  1.00  0.00    -0.248 NA
ATOM     57  C   UNL A   1      43.727  32.454  33.994  1.00  0.00     0.031 C 
ATOM     58  C   UNL A   1      43.879  27.386  30.657  1.00  0.00     0.029 A 
ATOM     59  C   UNL A   1      43.483  28.591  31.215  1.00  0.00     0.049 A 
ATOM     60  H   UNL A   1      41.707  29.685  30.896  1.00  0.00     0.167 HD
ATOM     61  C   UNL A   1      43.721  30.580  32.674  1.00  0.00     0.074 A 
ATOM     62  C   UNL A   1      44.435  31.392  33.638  1.00  0.00     0.031 C 
ATOM     63  C   UNL A   1      44.184  29.409  32.171  1.00  0.00     0.031 A 
BRANCH  50  64
ATOM     64  C   UNL A   1      40.330  26.702  28.167  1.00  0.00    -0.014 A 
ATOM     65  C   UNL A   1      39.550  25.626  28.622  1.00  0.00     0.009 A 
ATOM     66  C   UNL A   1      40.820  26.673  26.852  1.00  0.00     0.009 A 
ATOM     67  C   UNL A   1      39.306  24.527  27.795  1.00  0.00     0.001 A 
ATOM     68  C   UNL A   1      40.546  25.589  26.016  1.00  0.00     0.001 A 
ATOM     69  C   UNL A   1      39.800  24.512  26.492  1.00  0.00     0.000 A 
ENDBRANCH  50  64
BRANCH  51  70
ATOM     70  C   UNL A   1      41.745  34.598  34.106  1.00  0.00    -0.014 A 
ATOM     71  C   UNL A   1      41.296  34.567  35.436  1.00  0.00     0.009 A 
ATOM     72  C   UNL A   1      42.393  35.752  33.637  1.00  0.00     0.009 A 
ATOM     73  C   UNL A   1      41.463  35.677  36.267  1.00  0.00     0.001 A 
ATOM     74  C   UNL A   1      42.587  36.848  34.481  1.00  0.00     0.001 A 
ATOM     75  C   UNL A   1      42.113  36.813  35.791  1.00  0.00     0.000 A 
ENDBRANCH  51  70
BRANCH  63  76
ATOM     76  C   UNL A   1      45.551  28.961  32.611  1.00  0.00    -0.014 A 
ATOM     77  C   UNL A   1      46.707  29.315  31.898  1.00  0.00     0.009 A 
ATOM     78  C   UNL A   1      45.683  28.204  33.787  1.00  0.00     0.009 A 
ATOM     79  C   UNL A   1      47.963  28.886  32.334  1.00  0.00     0.001 A 
ATOM     80  C   UNL A   1      46.941  27.807  34.238  1.00  0.00     0.001 A 
ATOM     81  C   UNL A   1      48.080  28.138  33.505  1.00  0.00     0.000 A 
ENDBRANCH  63  76
ENDBRANCH  37  38
ENDBRANCH  29  32
ENDBRANCH  27  28
ENDBRANCH  26  27
ENDBRANCH   1  26
TORSDOF 13
ENDMDL
