MODEL 1
REMARK VINA RESULT:     -12.0      0.000      0.000
REMARK SMILES Cc1c(C)c2c(c(C)c1O)CC[C@@](C)(C(=O)NCCCCNC(=O)c1ccc(-c3c4nc(c(-c5ccccc5)c5ccc([nH]5)c(-c5ccccc5)c5nc(c(-c6ccccc6)c6ccc3[nH]6)C=C5)C=C4)cc1)O2
REMARK SMILES IDX 20 1 19 2 18 3 17 4 15 5 16 6 13 8 1 9 2 10 3 11 9 12 4 13
REMARK SMILES IDX 5 14 7 15 6 16 73 17 8 18 11 19 12 20 14 21 10 22 21 24
REMARK SMILES IDX 22 25 23 26 24 28 25 29 26 30 72 31 27 32 71 33 28 34 29 35
REMARK SMILES IDX 30 36 65 37 31 38 70 39 64 40 66 41 32 42 69 43 63 44 62 45
REMARK SMILES IDX 33 47 55 48 40 49 54 50 41 51 44 52 53 53 67 54 42 55 43 56
REMARK SMILES IDX 52 58 68 59 45 60 34 61 35 62 39 63 36 64 38 65 37 66 56 67
REMARK SMILES IDX 57 68 61 69 58 70 60 71 59 72 46 73 47 74 51 75 48 76 50 77
REMARK SMILES IDX 49 78
REMARK H PARENT 17 7 10 23 22 27 66 46 44 57
REMARK Flexibility Score: inf
ROOT
ATOM      1  C   UNL A   1      33.997  28.553  25.798  1.00  0.00     0.023 C 
ENDROOT
BRANCH   1   2
ATOM      2  C   UNL A   1      33.036  29.142  24.772  1.00  0.00     0.023 C 
BRANCH   2   3
ATOM      3  C   UNL A   1      32.110  28.124  24.110  1.00  0.00     0.116 C 
BRANCH   3   4
ATOM      4  N   UNL A   1      32.718  27.502  22.945  1.00  0.00    -0.353 N 
ATOM      5  C   UNL A   1      33.139  26.215  22.721  1.00  0.00     0.263 C 
ATOM      6  O   UNL A   1      33.624  25.987  21.608  1.00  0.00    -0.270 OA
ATOM      7  H   UNL A   1      32.851  28.112  22.183  1.00  0.00     0.163 HD
BRANCH   5   8
ATOM      8  C   UNL A   1      32.991  25.115  23.813  1.00  0.00     0.184 C 
ATOM      9  C   UNL A   1      32.210  19.012  23.888  1.00  0.00     0.049 C 
ATOM     10  C   UNL A   1      32.691  20.355  24.377  1.00  0.00    -0.002 A 
ATOM     11  C   UNL A   1      32.692  21.484  23.522  1.00  0.00    -0.002 A 
ATOM     12  C   UNL A   1      33.172  20.498  25.696  1.00  0.00     0.122 A 
ATOM     13  C   UNL A   1      32.203  21.373  22.098  1.00  0.00     0.049 C 
ATOM     14  C   UNL A   1      33.114  22.728  24.028  1.00  0.00     0.127 A 
ATOM     15  C   UNL A   1      33.604  21.731  26.199  1.00  0.00    -0.002 A 
ATOM     16  C   UNL A   1      33.600  22.850  25.343  1.00  0.00     0.001 A 
ATOM     17  O   UNL A   1      33.015  23.814  23.178  1.00  0.00    -0.477 OA
ATOM     18  C   UNL A   1      34.080  21.868  27.625  1.00  0.00     0.049 C 
ATOM     19  C   UNL A   1      34.083  24.177  25.854  1.00  0.00     0.044 C 
ATOM     20  C   UNL A   1      34.214  25.175  24.729  1.00  0.00     0.063 C 
ATOM     21  C   UNL A   1      31.590  25.270  24.443  1.00  0.00     0.067 C 
BRANCH  12  22
ATOM     22  O   UNL A   1      33.236  19.426  26.548  1.00  0.00    -0.507 OA
ATOM     23  H   UNL A   1      32.702  18.672  26.394  1.00  0.00     0.293 HD
ENDBRANCH  12  22
ENDBRANCH   5   8
ENDBRANCH   3   4
ENDBRANCH   2   3
ENDBRANCH   1   2
BRANCH   1  24
ATOM     24  C   UNL A   1      33.580  28.739  27.251  1.00  0.00     0.116 C 
BRANCH  24  25
ATOM     25  N   UNL A   1      33.585  30.132  27.677  1.00  0.00    -0.352 N 
ATOM     26  C   UNL A   1      34.597  30.842  28.274  1.00  0.00     0.251 C 
ATOM     27  H   UNL A   1      32.752  30.631  27.513  1.00  0.00     0.163 HD
ATOM     28  O   UNL A   1      34.405  31.985  28.677  1.00  0.00    -0.269 OA
BRANCH  26  29
ATOM     29  C   UNL A   1      35.912  30.200  28.460  1.00  0.00     0.039 A 
ATOM     30  C   UNL A   1      36.843  30.256  27.422  1.00  0.00     0.014 A 
ATOM     31  C   UNL A   1      36.233  29.587  29.675  1.00  0.00     0.014 A 
ATOM     32  C   UNL A   1      38.130  29.756  27.628  1.00  0.00     0.010 A 
ATOM     33  C   UNL A   1      37.534  29.155  29.901  1.00  0.00     0.010 A 
ATOM     34  C   UNL A   1      38.492  29.235  28.880  1.00  0.00    -0.014 A 
BRANCH  34  35
ATOM     35  C   UNL A   1      39.867  28.747  29.142  1.00  0.00     0.031 A 
ATOM     36  C   UNL A   1      40.861  29.651  29.814  1.00  0.00     0.074 A 
ATOM     37  C   UNL A   1      40.237  27.521  28.726  1.00  0.00     0.049 A 
ATOM     38  N   UNL A   1      42.131  29.448  30.052  1.00  0.00    -0.248 NA
ATOM     39  C   UNL A   1      40.367  30.966  30.256  1.00  0.00     0.031 C 
ATOM     40  C   UNL A   1      39.369  26.557  28.047  1.00  0.00     0.029 A 
ATOM     41  N   UNL A   1      41.446  26.878  28.813  1.00  0.00    -0.354 N 
ATOM     42  C   UNL A   1      42.589  30.610  30.659  1.00  0.00     0.074 A 
ATOM     43  C   UNL A   1      41.475  31.533  30.707  1.00  0.00     0.031 C 
ATOM     44  C   UNL A   1      40.066  25.434  27.808  1.00  0.00     0.029 A 
ATOM     45  C   UNL A   1      41.437  25.615  28.276  1.00  0.00     0.049 A 
ATOM     46  H   UNL A   1      42.244  27.285  29.221  1.00  0.00     0.167 HD
ATOM     47  C   UNL A   1      43.820  30.878  31.151  1.00  0.00     0.031 A 
ATOM     48  C   UNL A   1      42.424  24.705  28.170  1.00  0.00     0.031 A 
ATOM     49  C   UNL A   1      44.924  29.960  31.113  1.00  0.00     0.049 A 
ATOM     50  C   UNL A   1      43.792  25.041  28.694  1.00  0.00     0.074 A 
ATOM     51  C   UNL A   1      46.202  30.128  31.614  1.00  0.00     0.029 A 
ATOM     52  N   UNL A   1      44.877  28.696  30.547  1.00  0.00    -0.354 N 
ATOM     53  N   UNL A   1      44.203  26.135  29.289  1.00  0.00    -0.248 NA
ATOM     54  C   UNL A   1      44.832  24.014  28.534  1.00  0.00     0.031 C 
ATOM     55  C   UNL A   1      46.942  28.981  31.314  1.00  0.00     0.029 A 
ATOM     56  C   UNL A   1      46.110  28.080  30.670  1.00  0.00     0.049 A 
ATOM     57  H   UNL A   1      44.085  28.296  30.119  1.00  0.00     0.167 HD
ATOM     58  C   UNL A   1      45.540  25.921  29.592  1.00  0.00     0.074 A 
ATOM     59  C   UNL A   1      45.868  24.588  29.130  1.00  0.00     0.031 C 
ATOM     60  C   UNL A   1      46.419  26.755  30.200  1.00  0.00     0.031 A 
BRANCH  47  61
ATOM     61  C   UNL A   1      44.033  32.226  31.779  1.00  0.00    -0.014 A 
ATOM     62  C   UNL A   1      43.816  32.424  33.152  1.00  0.00     0.009 A 
ATOM     63  C   UNL A   1      44.488  33.299  30.999  1.00  0.00     0.009 A 
ATOM     64  C   UNL A   1      44.025  33.679  33.727  1.00  0.00     0.001 A 
ATOM     65  C   UNL A   1      44.723  34.547  31.582  1.00  0.00     0.001 A 
ATOM     66  C   UNL A   1      44.483  34.737  32.942  1.00  0.00     0.000 A 
ENDBRANCH  47  61
BRANCH  48  67
ATOM     67  C   UNL A   1      42.148  23.379  27.562  1.00  0.00    -0.014 A 
ATOM     68  C   UNL A   1      42.491  23.132  26.223  1.00  0.00     0.009 A 
ATOM     69  C   UNL A   1      41.551  22.353  28.310  1.00  0.00     0.009 A 
ATOM     70  C   UNL A   1      42.227  21.889  25.643  1.00  0.00     0.001 A 
ATOM     71  C   UNL A   1      41.311  21.104  27.734  1.00  0.00     0.001 A 
ATOM     72  C   UNL A   1      41.642  20.876  26.399  1.00  0.00     0.000 A 
ENDBRANCH  48  67
BRANCH  60  73
ATOM     73  C   UNL A   1      47.814  26.245  30.419  1.00  0.00    -0.014 A 
ATOM     74  C   UNL A   1      48.779  26.316  29.404  1.00  0.00     0.009 A 
ATOM     75  C   UNL A   1      48.182  25.743  31.677  1.00  0.00     0.009 A 
ATOM     76  C   UNL A   1      50.082  25.873  29.639  1.00  0.00     0.001 A 
ATOM     77  C   UNL A   1      49.491  25.325  31.916  1.00  0.00     0.001 A 
ATOM     78  C   UNL A   1      50.438  25.383  30.894  1.00  0.00     0.000 A 
ENDBRANCH  60  73
ENDBRANCH  34  35
ENDBRANCH  26  29
ENDBRANCH  24  25
ENDBRANCH   1  24
TORSDOF 12
ENDMDL
MODEL 2
REMARK VINA RESULT:     -11.9      1.211      2.057
REMARK SMILES Cc1c(C)c2c(c(C)c1O)CC[C@@](C)(C(=O)NCCCCNC(=O)c1ccc(-c3c4nc(c(-c5ccccc5)c5ccc([nH]5)c(-c5ccccc5)c5nc(c(-c6ccccc6)c6ccc3[nH]6)C=C5)C=C4)cc1)O2
REMARK SMILES IDX 20 1 19 2 18 3 17 4 15 5 16 6 13 8 1 9 2 10 3 11 9 12 4 13
REMARK SMILES IDX 5 14 7 15 6 16 73 17 8 18 11 19 12 20 14 21 10 22 21 24
REMARK SMILES IDX 22 25 23 26 24 28 25 29 26 30 72 31 27 32 71 33 28 34 29 35
REMARK SMILES IDX 30 36 65 37 31 38 70 39 64 40 66 41 32 42 69 43 63 44 62 45
REMARK SMILES IDX 33 47 55 48 40 49 54 50 41 51 44 52 53 53 67 54 42 55 43 56
REMARK SMILES IDX 52 58 68 59 45 60 34 61 35 62 39 63 36 64 38 65 37 66 56 67
REMARK SMILES IDX 57 68 61 69 58 70 60 71 59 72 46 73 47 74 51 75 48 76 50 77
REMARK SMILES IDX 49 78
REMARK H PARENT 17 7 10 23 22 27 66 46 44 57
REMARK Flexibility Score: inf
ROOT
ATOM      1  C   UNL A   1      33.681  28.562  25.842  1.00  0.00     0.023 C 
ENDROOT
BRANCH   1   2
ATOM      2  C   UNL A   1      34.030  27.147  25.396  1.00  0.00     0.023 C 
BRANCH   2   3
ATOM      3  C   UNL A   1      33.098  26.566  24.335  1.00  0.00     0.116 C 
BRANCH   3   4
ATOM      4  N   UNL A   1      31.837  26.111  24.899  1.00  0.00    -0.353 N 
ATOM      5  C   UNL A   1      31.337  24.848  25.097  1.00  0.00     0.263 C 
ATOM      6  O   UNL A   1      30.214  24.782  25.608  1.00  0.00    -0.270 OA
ATOM      7  H   UNL A   1      31.238  26.837  25.190  1.00  0.00     0.163 HD
BRANCH   5   8
ATOM      8  C   UNL A   1      32.158  23.584  24.710  1.00  0.00     0.184 C 
ATOM      9  C   UNL A   1      37.970  21.683  25.402  1.00  0.00     0.049 C 
ATOM     10  C   UNL A   1      36.473  21.551  25.277  1.00  0.00    -0.002 A 
ATOM     11  C   UNL A   1      35.628  22.678  25.421  1.00  0.00    -0.002 A 
ATOM     12  C   UNL A   1      35.891  20.288  25.039  1.00  0.00     0.122 A 
ATOM     13  C   UNL A   1      36.206  24.045  25.695  1.00  0.00     0.049 C 
ATOM     14  C   UNL A   1      34.238  22.520  25.260  1.00  0.00     0.127 A 
ATOM     15  C   UNL A   1      34.508  20.124  24.889  1.00  0.00    -0.002 A 
ATOM     16  C   UNL A   1      33.674  21.250  25.031  1.00  0.00     0.001 A 
ATOM     17  O   UNL A   1      33.467  23.665  25.325  1.00  0.00    -0.477 OA
ATOM     18  C   UNL A   1      33.911  18.769  24.597  1.00  0.00     0.049 C 
ATOM     19  C   UNL A   1      32.186  21.093  24.902  1.00  0.00     0.044 C 
ATOM     20  C   UNL A   1      31.471  22.358  25.312  1.00  0.00     0.063 C 
ATOM     21  C   UNL A   1      32.387  23.625  23.184  1.00  0.00     0.067 C 
BRANCH  12  22
ATOM     22  O   UNL A   1      36.661  19.158  24.939  1.00  0.00    -0.507 OA
ATOM     23  H   UNL A   1      36.268  18.344  24.694  1.00  0.00     0.293 HD
ENDBRANCH  12  22
ENDBRANCH   5   8
ENDBRANCH   3   4
ENDBRANCH   2   3
ENDBRANCH   1   2
BRANCH   1  24
ATOM     24  C   UNL A   1      33.498  28.736  27.344  1.00  0.00     0.116 C 
BRANCH  24  25
ATOM     25  N   UNL A   1      33.507  30.130  27.766  1.00  0.00    -0.352 N 
ATOM     26  C   UNL A   1      34.530  30.846  28.338  1.00  0.00     0.251 C 
ATOM     27  H   UNL A   1      32.669  30.626  27.620  1.00  0.00     0.163 HD
ATOM     28  O   UNL A   1      34.343  31.989  28.743  1.00  0.00    -0.269 OA
BRANCH  26  29
ATOM     29  C   UNL A   1      35.851  30.210  28.495  1.00  0.00     0.039 A 
ATOM     30  C   UNL A   1      36.743  30.230  27.420  1.00  0.00     0.014 A 
ATOM     31  C   UNL A   1      36.220  29.638  29.716  1.00  0.00     0.014 A 
ATOM     32  C   UNL A   1      38.037  29.738  27.594  1.00  0.00     0.010 A 
ATOM     33  C   UNL A   1      37.529  29.213  29.907  1.00  0.00     0.010 A 
ATOM     34  C   UNL A   1      38.447  29.258  28.848  1.00  0.00    -0.014 A 
BRANCH  34  35
ATOM     35  C   UNL A   1      39.831  28.779  29.074  1.00  0.00     0.031 A 
ATOM     36  C   UNL A   1      40.847  29.702  29.683  1.00  0.00     0.074 A 
ATOM     37  C   UNL A   1      40.187  27.542  28.679  1.00  0.00     0.049 A 
ATOM     38  N   UNL A   1      42.125  29.507  29.881  1.00  0.00    -0.248 NA
ATOM     39  C   UNL A   1      40.367  31.029  30.107  1.00  0.00     0.031 C 
ATOM     40  C   UNL A   1      39.297  26.558  28.058  1.00  0.00     0.029 A 
ATOM     41  N   UNL A   1      41.400  26.903  28.739  1.00  0.00    -0.354 N 
ATOM     42  C   UNL A   1      42.603  30.685  30.438  1.00  0.00     0.074 A 
ATOM     43  C   UNL A   1      41.490  31.608  30.502  1.00  0.00     0.031 C 
ATOM     44  C   UNL A   1      39.988  25.430  27.825  1.00  0.00     0.029 A 
ATOM     45  C   UNL A   1      41.373  25.625  28.238  1.00  0.00     0.049 A 
ATOM     46  H   UNL A   1      42.212  27.321  29.107  1.00  0.00     0.167 HD
ATOM     47  C   UNL A   1      43.850  30.968  30.878  1.00  0.00     0.031 A 
ATOM     48  C   UNL A   1      42.358  24.713  28.122  1.00  0.00     0.031 A 
ATOM     49  C   UNL A   1      44.954  30.049  30.826  1.00  0.00     0.049 A 
ATOM     50  C   UNL A   1      43.743  25.064  28.587  1.00  0.00     0.074 A 
ATOM     51  C   UNL A   1      46.249  30.232  31.275  1.00  0.00     0.029 A 
ATOM     52  N   UNL A   1      44.889  28.770  30.297  1.00  0.00    -0.354 N 
ATOM     53  N   UNL A   1      44.173  26.175  29.135  1.00  0.00    -0.248 NA
ATOM     54  C   UNL A   1      44.778  24.034  28.417  1.00  0.00     0.031 C 
ATOM     55  C   UNL A   1      46.980  29.078  30.980  1.00  0.00     0.029 A 
ATOM     56  C   UNL A   1      46.126  28.158  30.392  1.00  0.00     0.049 A 
ATOM     57  H   UNL A   1      44.082  28.358  29.909  1.00  0.00     0.167 HD
ATOM     58  C   UNL A   1      45.522  25.970  29.396  1.00  0.00     0.074 A 
ATOM     59  C   UNL A   1      45.835  24.625  28.960  1.00  0.00     0.031 C 
ATOM     60  C   UNL A   1      46.421  26.821  29.948  1.00  0.00     0.031 A 
BRANCH  47  61
ATOM     61  C   UNL A   1      44.084  32.333  31.461  1.00  0.00    -0.014 A 
ATOM     62  C   UNL A   1      44.472  33.408  30.645  1.00  0.00     0.009 A 
ATOM     63  C   UNL A   1      43.880  32.555  32.830  1.00  0.00     0.009 A 
ATOM     64  C   UNL A   1      44.678  34.674  31.196  1.00  0.00     0.001 A 
ATOM     65  C   UNL A   1      44.061  33.828  33.375  1.00  0.00     0.001 A 
ATOM     66  C   UNL A   1      44.467  34.883  32.559  1.00  0.00     0.000 A 
ENDBRANCH  47  61
BRANCH  48  67
ATOM     67  C   UNL A   1      42.062  23.370  27.561  1.00  0.00    -0.014 A 
ATOM     68  C   UNL A   1      42.351  23.089  26.217  1.00  0.00     0.009 A 
ATOM     69  C   UNL A   1      41.501  22.363  28.360  1.00  0.00     0.009 A 
ATOM     70  C   UNL A   1      42.068  21.830  25.680  1.00  0.00     0.001 A 
ATOM     71  C   UNL A   1      41.242  21.098  27.828  1.00  0.00     0.001 A 
ATOM     72  C   UNL A   1      41.519  20.836  26.487  1.00  0.00     0.000 A 
ENDBRANCH  48  67
BRANCH  60  73
ATOM     73  C   UNL A   1      47.823  26.318  30.130  1.00  0.00    -0.014 A 
ATOM     74  C   UNL A   1      48.250  25.789  31.357  1.00  0.00     0.009 A 
ATOM     75  C   UNL A   1      48.709  26.317  29.041  1.00  0.00     0.009 A 
ATOM     76  C   UNL A   1      49.546  25.290  31.497  1.00  0.00     0.001 A 
ATOM     77  C   UNL A   1      49.995  25.794  29.177  1.00  0.00     0.001 A 
ATOM     78  C   UNL A   1      50.414  25.288  30.406  1.00  0.00     0.000 A 
ENDBRANCH  60  73
ENDBRANCH  34  35
ENDBRANCH  26  29
ENDBRANCH  24  25
ENDBRANCH   1  24
TORSDOF 12
ENDMDL
MODEL 3
REMARK VINA RESULT:     -11.9      2.615      7.897
REMARK SMILES Cc1c(C)c2c(c(C)c1O)CC[C@@](C)(C(=O)NCCCCNC(=O)c1ccc(-c3c4nc(c(-c5ccccc5)c5ccc([nH]5)c(-c5ccccc5)c5nc(c(-c6ccccc6)c6ccc3[nH]6)C=C5)C=C4)cc1)O2
REMARK SMILES IDX 20 1 19 2 18 3 17 4 15 5 16 6 13 8 1 9 2 10 3 11 9 12 4 13
REMARK SMILES IDX 5 14 7 15 6 16 73 17 8 18 11 19 12 20 14 21 10 22 21 24
REMARK SMILES IDX 22 25 23 26 24 28 25 29 26 30 72 31 27 32 71 33 28 34 29 35
REMARK SMILES IDX 30 36 65 37 31 38 70 39 64 40 66 41 32 42 69 43 63 44 62 45
REMARK SMILES IDX 33 47 55 48 40 49 54 50 41 51 44 52 53 53 67 54 42 55 43 56
REMARK SMILES IDX 52 58 68 59 45 60 34 61 35 62 39 63 36 64 38 65 37 66 56 67
REMARK SMILES IDX 57 68 61 69 58 70 60 71 59 72 46 73 47 74 51 75 48 76 50 77
REMARK SMILES IDX 49 78
REMARK H PARENT 17 7 10 23 22 27 66 46 44 57
REMARK Flexibility Score: inf
ROOT
ATOM      1  C   UNL A   1      35.956  23.536  26.126  1.00  0.00     0.023 C 
ENDROOT
BRANCH   1   2
ATOM      2  C   UNL A   1      35.255  22.192  26.287  1.00  0.00     0.023 C 
BRANCH   2   3
ATOM      3  C   UNL A   1      33.907  22.089  25.577  1.00  0.00     0.116 C 
BRANCH   3   4
ATOM      4  N   UNL A   1      32.806  22.533  26.418  1.00  0.00    -0.353 N 
ATOM      5  C   UNL A   1      32.023  23.658  26.364  1.00  0.00     0.263 C 
ATOM      6  O   UNL A   1      31.151  23.756  27.234  1.00  0.00    -0.270 OA
ATOM      7  H   UNL A   1      32.585  21.917  27.154  1.00  0.00     0.163 HD
BRANCH   5   8
ATOM      8  C   UNL A   1      32.225  24.731  25.255  1.00  0.00     0.184 C 
ATOM      9  C   UNL A   1      28.686  28.862  22.377  1.00  0.00     0.049 C 
ATOM     10  C   UNL A   1      29.950  28.291  22.970  1.00  0.00    -0.002 A 
ATOM     11  C   UNL A   1      29.905  27.183  23.850  1.00  0.00    -0.002 A 
ATOM     12  C   UNL A   1      31.198  28.875  22.670  1.00  0.00     0.122 A 
ATOM     13  C   UNL A   1      28.589  26.539  24.213  1.00  0.00     0.049 C 
ATOM     14  C   UNL A   1      31.111  26.655  24.352  1.00  0.00     0.127 A 
ATOM     15  C   UNL A   1      32.399  28.361  23.176  1.00  0.00    -0.002 A 
ATOM     16  C   UNL A   1      32.347  27.257  24.050  1.00  0.00     0.001 A 
ATOM     17  O   UNL A   1      31.018  25.523  25.138  1.00  0.00    -0.477 OA
ATOM     18  C   UNL A   1      33.727  28.979  22.812  1.00  0.00     0.049 C 
ATOM     19  C   UNL A   1      33.620  26.706  24.626  1.00  0.00     0.044 C 
ATOM     20  C   UNL A   1      33.330  25.688  25.703  1.00  0.00     0.063 C 
ATOM     21  C   UNL A   1      32.393  23.988  23.912  1.00  0.00     0.067 C 
BRANCH  12  22
ATOM     22  O   UNL A   1      31.291  29.977  21.861  1.00  0.00    -0.507 OA
ATOM     23  H   UNL A   1      30.818  30.007  21.053  1.00  0.00     0.293 HD
ENDBRANCH  12  22
ENDBRANCH   5   8
ENDBRANCH   3   4
ENDBRANCH   2   3
ENDBRANCH   1   2
BRANCH   1  24
ATOM     24  C   UNL A   1      37.085  23.553  25.104  1.00  0.00     0.116 C 
BRANCH  24  25
ATOM     25  N   UNL A   1      38.168  22.634  25.426  1.00  0.00    -0.352 N 
ATOM     26  C   UNL A   1      39.322  22.881  26.129  1.00  0.00     0.251 C 
ATOM     27  H   UNL A   1      38.057  21.712  25.099  1.00  0.00     0.163 HD
ATOM     28  O   UNL A   1      40.194  22.024  26.220  1.00  0.00    -0.269 OA
BRANCH  26  29
ATOM     29  C   UNL A   1      39.517  24.208  26.744  1.00  0.00     0.039 A 
ATOM     30  C   UNL A   1      39.068  24.420  28.049  1.00  0.00     0.014 A 
ATOM     31  C   UNL A   1      40.184  25.219  26.045  1.00  0.00     0.014 A 
ATOM     32  C   UNL A   1      39.352  25.630  28.683  1.00  0.00     0.010 A 
ATOM     33  C   UNL A   1      40.526  26.395  26.702  1.00  0.00     0.010 A 
ATOM     34  C   UNL A   1      40.112  26.610  28.025  1.00  0.00    -0.014 A 
BRANCH  34  35
ATOM     35  C   UNL A   1      40.473  27.882  28.694  1.00  0.00     0.031 A 
ATOM     36  C   UNL A   1      41.846  28.051  29.278  1.00  0.00     0.074 A 
ATOM     37  C   UNL A   1      39.554  28.857  28.827  1.00  0.00     0.049 A 
ATOM     38  N   UNL A   1      42.329  29.045  29.978  1.00  0.00    -0.248 NA
ATOM     39  C   UNL A   1      42.796  26.945  29.067  1.00  0.00     0.031 C 
ATOM     40  C   UNL A   1      38.181  28.806  28.319  1.00  0.00     0.029 A 
ATOM     41  N   UNL A   1      39.638  30.083  29.438  1.00  0.00    -0.354 N 
ATOM     42  C   UNL A   1      43.630  28.681  30.300  1.00  0.00     0.074 A 
ATOM     43  C   UNL A   1      43.846  27.355  29.764  1.00  0.00     0.031 C 
ATOM     44  C   UNL A   1      37.564  29.963  28.611  1.00  0.00     0.029 A 
ATOM     45  C   UNL A   1      38.479  30.816  29.362  1.00  0.00     0.049 A 
ATOM     46  H   UNL A   1      40.453  30.407  29.887  1.00  0.00     0.167 HD
ATOM     47  C   UNL A   1      44.568  29.395  30.963  1.00  0.00     0.031 A 
ATOM     48  C   UNL A   1      38.186  32.037  29.847  1.00  0.00     0.031 A 
ATOM     49  C   UNL A   1      44.358  30.716  31.488  1.00  0.00     0.049 A 
ATOM     50  C   UNL A   1      39.236  32.795  30.611  1.00  0.00     0.074 A 
ATOM     51  C   UNL A   1      45.257  31.533  32.149  1.00  0.00     0.029 A 
ATOM     52  N   UNL A   1      43.165  31.416  31.404  1.00  0.00    -0.354 N 
ATOM     53  N   UNL A   1      40.470  32.447  30.885  1.00  0.00    -0.248 NA
ATOM     54  C   UNL A   1      38.851  34.115  31.131  1.00  0.00     0.031 C 
ATOM     55  C   UNL A   1      44.596  32.713  32.502  1.00  0.00     0.029 A 
ATOM     56  C   UNL A   1      43.300  32.649  32.016  1.00  0.00     0.049 A 
ATOM     57  H   UNL A   1      42.343  31.085  30.973  1.00  0.00     0.167 HD
ATOM     58  C   UNL A   1      41.015  33.513  31.590  1.00  0.00     0.074 A 
ATOM     59  C   UNL A   1      39.983  34.524  31.687  1.00  0.00     0.031 C 
ATOM     60  C   UNL A   1      42.261  33.641  32.109  1.00  0.00     0.031 A 
BRANCH  47  61
ATOM     61  C   UNL A   1      45.913  28.755  31.155  1.00  0.00    -0.014 A 
ATOM     62  C   UNL A   1      46.959  28.989  30.249  1.00  0.00     0.009 A 
ATOM     63  C   UNL A   1      46.149  27.939  32.272  1.00  0.00     0.009 A 
ATOM     64  C   UNL A   1      48.208  28.395  30.441  1.00  0.00     0.001 A 
ATOM     65  C   UNL A   1      47.407  27.368  32.477  1.00  0.00     0.001 A 
ATOM     66  C   UNL A   1      48.431  27.590  31.558  1.00  0.00     0.000 A 
ENDBRANCH  47  61
BRANCH  48  67
ATOM     67  C   UNL A   1      36.847  32.630  29.605  1.00  0.00    -0.014 A 
ATOM     68  C   UNL A   1      36.567  33.264  28.385  1.00  0.00     0.009 A 
ATOM     69  C   UNL A   1      35.841  32.560  30.580  1.00  0.00     0.009 A 
ATOM     70  C   UNL A   1      35.311  33.831  28.154  1.00  0.00     0.001 A 
ATOM     71  C   UNL A   1      34.579  33.106  30.337  1.00  0.00     0.001 A 
ATOM     72  C   UNL A   1      34.318  33.747  29.128  1.00  0.00     0.000 A 
ENDBRANCH  48  67
BRANCH  60  73
ATOM     73  C   UNL A   1      42.584  34.927  32.812  1.00  0.00    -0.014 A 
ATOM     74  C   UNL A   1      43.302  35.945  32.168  1.00  0.00     0.009 A 
ATOM     75  C   UNL A   1      42.109  35.146  34.115  1.00  0.00     0.009 A 
ATOM     76  C   UNL A   1      43.560  37.150  32.824  1.00  0.00     0.001 A 
ATOM     77  C   UNL A   1      42.347  36.361  34.759  1.00  0.00     0.001 A 
ATOM     78  C   UNL A   1      43.077  37.358  34.115  1.00  0.00     0.000 A 
ENDBRANCH  60  73
ENDBRANCH  34  35
ENDBRANCH  26  29
ENDBRANCH  24  25
ENDBRANCH   1  24
TORSDOF 12
ENDMDL
