MODEL 1
REMARK VINA RESULT:     -11.6      0.000      0.000
REMARK SMILES O=C(C[N@H+]1CCCC[C@H]1C(=O)NCCCCNC(=O)c1ccc(-c2c3nc(c(-c4ccccc4)c4ccc([nH]4)c(-c4ccccc4)c4nc(c(-c5ccccc5)c5ccc2[nH]5)C=C4)C=C3)cc1)NC1CCCCC1
REMARK SMILES IDX 14 1 13 2 12 3 10 4 11 5 9 7 4 8 5 9 6 11 8 12 7 13 3 14
REMARK SMILES IDX 2 15 1 16 68 17 69 19 70 20 74 21 71 22 73 23 72 24 15 25
REMARK SMILES IDX 16 26 17 27 18 28 19 30 20 31 21 32 67 33 22 34 66 35 23 36
REMARK SMILES IDX 24 37 25 38 60 39 26 40 65 41 59 42 61 43 27 44 64 45 58 46
REMARK SMILES IDX 57 47 28 49 50 50 35 51 49 52 36 53 39 54 48 55 62 56 37 57
REMARK SMILES IDX 38 58 47 60 63 61 40 62 29 63 30 64 34 65 31 66 33 67 32 68
REMARK SMILES IDX 51 69 52 70 56 71 53 72 55 73 54 74 41 75 42 76 46 77 43 78
REMARK SMILES IDX 45 79 44 80
REMARK H PARENT 12 6 4 10 68 18 17 29 61 48 39 59
REMARK Flexibility Score: inf
ROOT
ATOM      1  C   UNL A   1      36.518  20.665  25.008  1.00  0.00     0.023 C 
ENDROOT
BRANCH   1   2
ATOM      2  C   UNL A   1      36.650  22.010  25.723  1.00  0.00     0.116 C 
BRANCH   2   3
ATOM      3  N   UNL A   1      35.653  22.136  26.767  1.00  0.00    -0.351 N 
ATOM      4  C   UNL A   1      34.430  22.741  26.739  1.00  0.00     0.278 C 
ATOM      5  O   UNL A   1      33.810  22.778  27.809  1.00  0.00    -0.268 OA
ATOM      6  H   UNL A   1      35.895  21.722  27.628  1.00  0.00     0.163 HD
BRANCH   4   7
ATOM      7  C   UNL A   1      33.842  23.245  25.385  1.00  0.00     0.274 C 
ATOM      8  N   UNL A   1      32.364  23.379  25.427  1.00  0.00    -0.317 N 
ATOM      9  C   UNL A   1      31.897  24.532  26.205  1.00  0.00     0.263 C 
ATOM     10  H   UNL A   1      32.056  23.623  24.486  1.00  0.00     0.349 HD
ATOM     11  C   UNL A   1      32.526  25.849  25.755  1.00  0.00     0.062 C 
ATOM     12  C   UNL A   1      34.461  24.563  24.892  1.00  0.00     0.076 C 
ATOM     13  C   UNL A   1      34.042  25.752  25.744  1.00  0.00     0.012 C 
BRANCH   8  14
ATOM     14  C   UNL A   1      31.688  22.082  25.695  1.00  0.00     0.364 C 
BRANCH  14  15
ATOM     15  C   UNL A   1      32.128  20.933  24.781  1.00  0.00     0.275 C 
ATOM     16  O   UNL A   1      32.087  21.040  23.559  1.00  0.00    -0.268 OA
ATOM     17  N   UNL A   1      32.538  19.804  25.468  1.00  0.00    -0.348 N 
ATOM     18  H   UNL A   1      32.721  19.915  26.429  1.00  0.00     0.163 HD
BRANCH  17  19
ATOM     19  C   UNL A   1      32.728  18.462  24.914  1.00  0.00     0.082 C 
ATOM     20  C   UNL A   1      34.086  18.380  24.197  1.00  0.00     0.025 C 
ATOM     21  C   UNL A   1      32.568  17.304  25.907  1.00  0.00     0.025 C 
ATOM     22  C   UNL A   1      34.327  17.013  23.559  1.00  0.00     0.002 C 
ATOM     23  C   UNL A   1      32.793  15.947  25.245  1.00  0.00     0.002 C 
ATOM     24  C   UNL A   1      34.161  15.886  24.571  1.00  0.00     0.000 C 
ENDBRANCH  17  19
ENDBRANCH  14  15
ENDBRANCH   8  14
ENDBRANCH   4   7
ENDBRANCH   2   3
ENDBRANCH   1   2
BRANCH   1  25
ATOM     25  C   UNL A   1      37.844  19.932  24.791  1.00  0.00     0.023 C 
BRANCH  25  26
ATOM     26  C   UNL A   1      38.951  20.309  25.766  1.00  0.00     0.116 C 
BRANCH  26  27
ATOM     27  N   UNL A   1      40.043  19.350  25.767  1.00  0.00    -0.352 N 
ATOM     28  C   UNL A   1      41.367  19.550  26.069  1.00  0.00     0.251 C 
ATOM     29  H   UNL A   1      39.801  18.429  25.517  1.00  0.00     0.163 HD
ATOM     30  O   UNL A   1      42.189  18.660  25.868  1.00  0.00    -0.269 OA
BRANCH  28  31
ATOM     31  C   UNL A   1      41.804  20.855  26.607  1.00  0.00     0.039 A 
ATOM     32  C   UNL A   1      42.265  21.829  25.718  1.00  0.00     0.014 A 
ATOM     33  C   UNL A   1      41.744  21.124  27.977  1.00  0.00     0.014 A 
ATOM     34  C   UNL A   1      42.608  23.093  26.197  1.00  0.00     0.010 A 
ATOM     35  C   UNL A   1      42.009  22.409  28.442  1.00  0.00     0.010 A 
ATOM     36  C   UNL A   1      42.448  23.405  27.558  1.00  0.00    -0.014 A 
BRANCH  36  37
ATOM     37  C   UNL A   1      42.734  24.770  28.067  1.00  0.00     0.031 A 
ATOM     38  C   UNL A   1      44.136  25.160  28.448  1.00  0.00     0.074 A 
ATOM     39  C   UNL A   1      41.722  25.644  28.232  1.00  0.00     0.049 A 
ATOM     40  N   UNL A   1      44.573  26.297  28.929  1.00  0.00    -0.248 NA
ATOM     41  C   UNL A   1      45.179  24.135  28.291  1.00  0.00     0.031 C 
ATOM     42  C   UNL A   1      40.312  25.375  27.939  1.00  0.00     0.029 A 
ATOM     43  N   UNL A   1      41.725  26.940  28.685  1.00  0.00    -0.354 N 
ATOM     44  C   UNL A   1      45.934  26.119  29.141  1.00  0.00     0.074 A 
ATOM     45  C   UNL A   1      46.241  24.749  28.792  1.00  0.00     0.031 C 
ATOM     46  C   UNL A   1      39.593  26.481  28.187  1.00  0.00     0.029 A 
ATOM     47  C   UNL A   1      40.481  27.522  28.694  1.00  0.00     0.049 A 
ATOM     48  H   UNL A   1      42.541  27.406  28.976  1.00  0.00     0.167 HD
ATOM     49  C   UNL A   1      46.852  27.019  29.566  1.00  0.00     0.031 A 
ATOM     50  C   UNL A   1      40.096  28.756  29.072  1.00  0.00     0.031 A 
ATOM     51  C   UNL A   1      46.549  28.382  29.910  1.00  0.00     0.049 A 
ATOM     52  C   UNL A   1      41.131  29.729  29.566  1.00  0.00     0.074 A 
ATOM     53  C   UNL A   1      47.418  29.386  30.300  1.00  0.00     0.029 A 
ATOM     54  N   UNL A   1      45.275  28.931  29.914  1.00  0.00    -0.354 N 
ATOM     55  N   UNL A   1      42.427  29.567  29.686  1.00  0.00    -0.248 NA
ATOM     56  C   UNL A   1      40.650  31.059  29.964  1.00  0.00     0.031 C 
ATOM     57  C   UNL A   1      46.663  30.526  30.598  1.00  0.00     0.029 A 
ATOM     58  C   UNL A   1      45.332  30.251  30.329  1.00  0.00     0.049 A 
ATOM     59  H   UNL A   1      44.454  28.454  29.659  1.00  0.00     0.167 HD
ATOM     60  C   UNL A   1      42.919  30.782  30.146  1.00  0.00     0.074 A 
ATOM     61  C   UNL A   1      41.785  31.676  30.263  1.00  0.00     0.031 C 
ATOM     62  C   UNL A   1      44.195  31.127  30.446  1.00  0.00     0.031 A 
BRANCH  49  63
ATOM     63  C   UNL A   1      48.277  26.550  29.691  1.00  0.00    -0.014 A 
ATOM     64  C   UNL A   1      48.742  25.935  30.865  1.00  0.00     0.009 A 
ATOM     65  C   UNL A   1      49.157  26.693  28.607  1.00  0.00     0.009 A 
ATOM     66  C   UNL A   1      50.068  25.510  30.964  1.00  0.00     0.001 A 
ATOM     67  C   UNL A   1      50.473  26.237  28.697  1.00  0.00     0.001 A 
ATOM     68  C   UNL A   1      50.931  25.656  29.879  1.00  0.00     0.000 A 
ENDBRANCH  49  63
BRANCH  50  69
ATOM     69  C   UNL A   1      38.665  29.150  28.989  1.00  0.00    -0.014 A 
ATOM     70  C   UNL A   1      38.138  29.679  27.801  1.00  0.00     0.009 A 
ATOM     71  C   UNL A   1      37.819  29.013  30.101  1.00  0.00     0.009 A 
ATOM     72  C   UNL A   1      36.804  30.092  27.738  1.00  0.00     0.001 A 
ATOM     73  C   UNL A   1      36.478  29.394  30.027  1.00  0.00     0.001 A 
ATOM     74  C   UNL A   1      35.975  29.944  28.849  1.00  0.00     0.000 A 
ENDBRANCH  50  69
BRANCH  62  75
ATOM     75  C   UNL A   1      44.437  32.541  30.897  1.00  0.00    -0.014 A 
ATOM     76  C   UNL A   1      44.425  32.888  32.256  1.00  0.00     0.009 A 
ATOM     77  C   UNL A   1      44.719  33.534  29.945  1.00  0.00     0.009 A 
ATOM     78  C   UNL A   1      44.652  34.209  32.650  1.00  0.00     0.001 A 
ATOM     79  C   UNL A   1      44.979  34.846  30.343  1.00  0.00     0.001 A 
ATOM     80  C   UNL A   1      44.934  35.184  31.694  1.00  0.00     0.000 A 
ENDBRANCH  62  75
ENDBRANCH  36  37
ENDBRANCH  28  31
ENDBRANCH  26  27
ENDBRANCH  25  26
ENDBRANCH   1  25
TORSDOF 14
ENDMDL
MODEL 2
REMARK VINA RESULT:     -11.5      1.293      6.054
REMARK SMILES O=C(C[N@H+]1CCCC[C@H]1C(=O)NCCCCNC(=O)c1ccc(-c2c3nc(c(-c4ccccc4)c4ccc([nH]4)c(-c4ccccc4)c4nc(c(-c5ccccc5)c5ccc2[nH]5)C=C4)C=C3)cc1)NC1CCCCC1
REMARK SMILES IDX 14 1 13 2 12 3 10 4 11 5 9 7 4 8 5 9 6 11 8 12 7 13 3 14
REMARK SMILES IDX 2 15 1 16 68 17 69 19 70 20 74 21 71 22 73 23 72 24 15 25
REMARK SMILES IDX 16 26 17 27 18 28 19 30 20 31 21 32 67 33 22 34 66 35 23 36
REMARK SMILES IDX 24 37 25 38 60 39 26 40 65 41 59 42 61 43 27 44 64 45 58 46
REMARK SMILES IDX 57 47 28 49 50 50 35 51 49 52 36 53 39 54 48 55 62 56 37 57
REMARK SMILES IDX 38 58 47 60 63 61 40 62 29 63 30 64 34 65 31 66 33 67 32 68
REMARK SMILES IDX 51 69 52 70 56 71 53 72 55 73 54 74 41 75 42 76 46 77 43 78
REMARK SMILES IDX 45 79 44 80
REMARK H PARENT 12 6 4 10 68 18 17 29 61 48 39 59
REMARK Flexibility Score: inf
ROOT
ATOM      1  C   UNL A   1      36.524  20.616  25.010  1.00  0.00     0.023 C 
ENDROOT
BRANCH   1   2
ATOM      2  C   UNL A   1      36.622  21.982  25.692  1.00  0.00     0.116 C 
BRANCH   2   3
ATOM      3  N   UNL A   1      35.631  22.104  26.741  1.00  0.00    -0.351 N 
ATOM      4  C   UNL A   1      34.408  22.709  26.722  1.00  0.00     0.278 C 
ATOM      5  O   UNL A   1      33.795  22.743  27.796  1.00  0.00    -0.268 OA
ATOM      6  H   UNL A   1      35.878  21.687  27.599  1.00  0.00     0.163 HD
BRANCH   4   7
ATOM      7  C   UNL A   1      33.813  23.218  25.374  1.00  0.00     0.274 C 
ATOM      8  N   UNL A   1      32.333  23.331  25.418  1.00  0.00    -0.317 N 
ATOM      9  C   UNL A   1      31.851  24.471  26.206  1.00  0.00     0.263 C 
ATOM     10  H   UNL A   1      32.021  23.579  24.478  1.00  0.00     0.349 HD
ATOM     11  C   UNL A   1      32.462  25.800  25.768  1.00  0.00     0.062 C 
ATOM     12  C   UNL A   1      34.413  24.549  24.892  1.00  0.00     0.076 C 
ATOM     13  C   UNL A   1      33.979  25.724  25.755  1.00  0.00     0.012 C 
BRANCH   8  14
ATOM     14  C   UNL A   1      31.675  22.023  25.674  1.00  0.00     0.364 C 
BRANCH  14  15
ATOM     15  C   UNL A   1      32.150  20.882  24.767  1.00  0.00     0.275 C 
ATOM     16  O   UNL A   1      32.156  21.000  23.545  1.00  0.00    -0.268 OA
ATOM     17  N   UNL A   1      32.533  19.746  25.459  1.00  0.00    -0.348 N 
ATOM     18  H   UNL A   1      32.678  19.848  26.427  1.00  0.00     0.163 HD
BRANCH  17  19
ATOM     19  C   UNL A   1      32.744  18.410  24.900  1.00  0.00     0.082 C 
ATOM     20  C   UNL A   1      34.135  18.328  24.251  1.00  0.00     0.025 C 
ATOM     21  C   UNL A   1      32.528  17.242  25.872  1.00  0.00     0.025 C 
ATOM     22  C   UNL A   1      34.401  16.967  23.611  1.00  0.00     0.002 C 
ATOM     23  C   UNL A   1      32.780  15.890  25.207  1.00  0.00     0.002 C 
ATOM     24  C   UNL A   1      34.179  15.830  24.601  1.00  0.00     0.000 C 
ENDBRANCH  17  19
ENDBRANCH  14  15
ENDBRANCH   8  14
ENDBRANCH   4   7
ENDBRANCH   2   3
ENDBRANCH   1   2
BRANCH   1  25
ATOM     25  C   UNL A   1      37.874  19.957  24.720  1.00  0.00     0.023 C 
BRANCH  25  26
ATOM     26  C   UNL A   1      38.957  20.231  25.753  1.00  0.00     0.116 C 
BRANCH  26  27
ATOM     27  N   UNL A   1      39.927  19.152  25.845  1.00  0.00    -0.352 N 
ATOM     28  C   UNL A   1      41.279  19.225  26.071  1.00  0.00     0.251 C 
ATOM     29  H   UNL A   1      39.565  18.244  25.729  1.00  0.00     0.163 HD
ATOM     30  O   UNL A   1      41.978  18.221  25.962  1.00  0.00    -0.269 OA
BRANCH  28  31
ATOM     31  C   UNL A   1      41.894  20.524  26.412  1.00  0.00     0.039 A 
ATOM     32  C   UNL A   1      42.295  21.371  25.377  1.00  0.00     0.014 A 
ATOM     33  C   UNL A   1      42.060  20.911  27.745  1.00  0.00     0.014 A 
ATOM     34  C   UNL A   1      42.806  22.634  25.679  1.00  0.00     0.010 A 
ATOM     35  C   UNL A   1      42.492  22.201  28.041  1.00  0.00     0.010 A 
ATOM     36  C   UNL A   1      42.874  23.074  27.011  1.00  0.00    -0.014 A 
BRANCH  36  37
ATOM     37  C   UNL A   1      43.342  24.443  27.340  1.00  0.00     0.031 A 
ATOM     38  C   UNL A   1      42.361  25.501  27.765  1.00  0.00     0.074 A 
ATOM     39  C   UNL A   1      44.648  24.749  27.210  1.00  0.00     0.049 A 
ATOM     40  N   UNL A   1      42.581  26.755  28.072  1.00  0.00    -0.248 NA
ATOM     41  C   UNL A   1      40.945  25.106  27.832  1.00  0.00     0.031 C 
ATOM     42  C   UNL A   1      45.695  23.826  26.766  1.00  0.00     0.029 A 
ATOM     43  N   UNL A   1      45.319  25.924  27.441  1.00  0.00    -0.354 N 
ATOM     44  C   UNL A   1      41.335  27.298  28.356  1.00  0.00     0.074 A 
ATOM     45  C   UNL A   1      40.357  26.256  28.129  1.00  0.00     0.031 C 
ATOM     46  C   UNL A   1      46.879  24.459  26.792  1.00  0.00     0.029 A 
ATOM     47  C   UNL A   1      46.670  25.841  27.211  1.00  0.00     0.049 A 
ATOM     48  H   UNL A   1      44.873  26.748  27.742  1.00  0.00     0.167 HD
ATOM     49  C   UNL A   1      41.031  28.545  28.789  1.00  0.00     0.031 A 
ATOM     50  C   UNL A   1      47.635  26.774  27.321  1.00  0.00     0.031 A 
ATOM     51  C   UNL A   1      42.002  29.581  29.017  1.00  0.00     0.049 A 
ATOM     52  C   UNL A   1      47.268  28.159  27.778  1.00  0.00     0.074 A 
ATOM     53  C   UNL A   1      41.800  30.859  29.506  1.00  0.00     0.029 A 
ATOM     54  N   UNL A   1      43.360  29.458  28.764  1.00  0.00    -0.354 N 
ATOM     55  N   UNL A   1      46.094  28.634  28.117  1.00  0.00    -0.248 NA
ATOM     56  C   UNL A   1      48.363  29.133  27.878  1.00  0.00     0.031 C 
ATOM     57  C   UNL A   1      43.027  31.531  29.491  1.00  0.00     0.029 A 
ATOM     58  C   UNL A   1      44.003  30.650  29.057  1.00  0.00     0.049 A 
ATOM     59  H   UNL A   1      43.802  28.647  28.427  1.00  0.00     0.167 HD
ATOM     60  C   UNL A   1      46.313  29.951  28.497  1.00  0.00     0.074 A 
ATOM     61  C   UNL A   1      47.735  30.193  28.367  1.00  0.00     0.031 C 
ATOM     62  C   UNL A   1      45.418  30.878  28.917  1.00  0.00     0.031 A 
BRANCH  49  63
ATOM     63  C   UNL A   1      39.580  28.859  29.034  1.00  0.00    -0.014 A 
ATOM     64  C   UNL A   1      38.993  28.661  30.295  1.00  0.00     0.009 A 
ATOM     65  C   UNL A   1      38.795  29.392  27.999  1.00  0.00     0.009 A 
ATOM     66  C   UNL A   1      37.645  28.954  30.503  1.00  0.00     0.001 A 
ATOM     67  C   UNL A   1      37.456  29.715  28.219  1.00  0.00     0.001 A 
ATOM     68  C   UNL A   1      36.878  29.486  29.467  1.00  0.00     0.000 A 
ENDBRANCH  49  63
BRANCH  50  69
ATOM     69  C   UNL A   1      49.047  26.430  27.005  1.00  0.00    -0.014 A 
ATOM     70  C   UNL A   1      49.914  25.978  28.012  1.00  0.00     0.009 A 
ATOM     71  C   UNL A   1      49.540  26.564  25.697  1.00  0.00     0.009 A 
ATOM     72  C   UNL A   1      51.252  25.698  27.722  1.00  0.00     0.001 A 
ATOM     73  C   UNL A   1      50.869  26.252  25.403  1.00  0.00     0.001 A 
ATOM     74  C   UNL A   1      51.727  25.831  26.418  1.00  0.00     0.000 A 
ENDBRANCH  50  69
BRANCH  62  75
ATOM     75  C   UNL A   1      45.956  32.230  29.298  1.00  0.00    -0.014 A 
ATOM     76  C   UNL A   1      46.054  33.270  28.361  1.00  0.00     0.009 A 
ATOM     77  C   UNL A   1      46.335  32.477  30.628  1.00  0.00     0.009 A 
ATOM     78  C   UNL A   1      46.557  34.517  28.739  1.00  0.00     0.001 A 
ATOM     79  C   UNL A   1      46.806  33.734  31.010  1.00  0.00     0.001 A 
ATOM     80  C   UNL A   1      46.926  34.748  30.063  1.00  0.00     0.000 A 
ENDBRANCH  62  75
ENDBRANCH  36  37
ENDBRANCH  28  31
ENDBRANCH  26  27
ENDBRANCH  25  26
ENDBRANCH   1  25
TORSDOF 14
ENDMDL
MODEL 3
REMARK VINA RESULT:     -11.0      4.238      9.250
REMARK SMILES O=C(C[N@H+]1CCCC[C@H]1C(=O)NCCCCNC(=O)c1ccc(-c2c3nc(c(-c4ccccc4)c4ccc([nH]4)c(-c4ccccc4)c4nc(c(-c5ccccc5)c5ccc2[nH]5)C=C4)C=C3)cc1)NC1CCCCC1
REMARK SMILES IDX 14 1 13 2 12 3 10 4 11 5 9 7 4 8 5 9 6 11 8 12 7 13 3 14
REMARK SMILES IDX 2 15 1 16 68 17 69 19 70 20 74 21 71 22 73 23 72 24 15 25
REMARK SMILES IDX 16 26 17 27 18 28 19 30 20 31 21 32 67 33 22 34 66 35 23 36
REMARK SMILES IDX 24 37 25 38 60 39 26 40 65 41 59 42 61 43 27 44 64 45 58 46
REMARK SMILES IDX 57 47 28 49 50 50 35 51 49 52 36 53 39 54 48 55 62 56 37 57
REMARK SMILES IDX 38 58 47 60 63 61 40 62 29 63 30 64 34 65 31 66 33 67 32 68
REMARK SMILES IDX 51 69 52 70 56 71 53 72 55 73 54 74 41 75 42 76 46 77 43 78
REMARK SMILES IDX 45 79 44 80
REMARK H PARENT 12 6 4 10 68 18 17 29 61 48 39 59
REMARK Flexibility Score: inf
ROOT
ATOM      1  C   UNL A   1      31.498  30.820  25.956  1.00  0.00     0.023 C 
ENDROOT
BRANCH   1   2
ATOM      2  C   UNL A   1      32.549  29.844  26.488  1.00  0.00     0.116 C 
BRANCH   2   3
ATOM      3  N   UNL A   1      31.928  28.615  26.936  1.00  0.00    -0.351 N 
ATOM      4  C   UNL A   1      31.392  27.591  26.210  1.00  0.00     0.278 C 
ATOM      5  O   UNL A   1      30.841  26.690  26.854  1.00  0.00    -0.268 OA
ATOM      6  H   UNL A   1      31.887  28.500  27.914  1.00  0.00     0.163 HD
BRANCH   4   7
ATOM      7  C   UNL A   1      31.583  27.551  24.663  1.00  0.00     0.274 C 
ATOM      8  N   UNL A   1      32.342  26.355  24.219  1.00  0.00    -0.317 N 
ATOM      9  C   UNL A   1      31.571  25.108  24.283  1.00  0.00     0.263 C 
ATOM     10  H   UNL A   1      32.500  26.452  23.216  1.00  0.00     0.349 HD
ATOM     11  C   UNL A   1      30.243  25.191  23.532  1.00  0.00     0.062 C 
ATOM     12  C   UNL A   1      30.268  27.645  23.872  1.00  0.00     0.076 C 
ATOM     13  C   UNL A   1      29.427  26.384  23.999  1.00  0.00     0.012 C 
BRANCH   8  14
ATOM     14  C   UNL A   1      33.714  26.314  24.790  1.00  0.00     0.364 C 
BRANCH  14  15
ATOM     15  C   UNL A   1      34.094  24.979  25.442  1.00  0.00     0.275 C 
ATOM     16  O   UNL A   1      33.572  24.611  26.490  1.00  0.00    -0.268 OA
ATOM     17  N   UNL A   1      35.067  24.281  24.749  1.00  0.00    -0.348 N 
ATOM     18  H   UNL A   1      35.251  24.577  23.828  1.00  0.00     0.163 HD
BRANCH  17  19
ATOM     19  C   UNL A   1      35.852  23.148  25.243  1.00  0.00     0.082 C 
ATOM     20  C   UNL A   1      35.441  21.865  24.503  1.00  0.00     0.025 C 
ATOM     21  C   UNL A   1      37.375  23.330  25.211  1.00  0.00     0.025 C 
ATOM     22  C   UNL A   1      36.196  20.635  25.004  1.00  0.00     0.002 C 
ATOM     23  C   UNL A   1      38.110  22.098  25.734  1.00  0.00     0.002 C 
ATOM     24  C   UNL A   1      37.705  20.848  24.958  1.00  0.00     0.000 C 
ENDBRANCH  17  19
ENDBRANCH  14  15
ENDBRANCH   8  14
ENDBRANCH   4   7
ENDBRANCH   2   3
ENDBRANCH   1   2
BRANCH   1  25
ATOM     25  C   UNL A   1      31.309  32.074  26.813  1.00  0.00     0.023 C 
BRANCH  25  26
ATOM     26  C   UNL A   1      32.596  32.791  27.192  1.00  0.00     0.116 C 
BRANCH  26  27
ATOM     27  N   UNL A   1      32.368  34.164  27.609  1.00  0.00    -0.352 N 
ATOM     28  C   UNL A   1      33.039  34.903  28.551  1.00  0.00     0.251 C 
ATOM     29  H   UNL A   1      31.629  34.630  27.154  1.00  0.00     0.163 HD
ATOM     30  O   UNL A   1      32.614  36.003  28.892  1.00  0.00    -0.269 OA
BRANCH  28  31
ATOM     31  C   UNL A   1      34.259  34.352  29.178  1.00  0.00     0.039 A 
ATOM     32  C   UNL A   1      34.135  33.615  30.358  1.00  0.00     0.014 A 
ATOM     33  C   UNL A   1      35.515  34.547  28.597  1.00  0.00     0.014 A 
ATOM     34  C   UNL A   1      35.265  33.022  30.921  1.00  0.00     0.010 A 
ATOM     35  C   UNL A   1      36.626  33.888  29.115  1.00  0.00     0.010 A 
ATOM     36  C   UNL A   1      36.513  33.122  30.285  1.00  0.00    -0.014 A 
BRANCH  36  37
ATOM     37  C   UNL A   1      37.707  32.430  30.832  1.00  0.00     0.031 A 
ATOM     38  C   UNL A   1      38.396  32.958  32.060  1.00  0.00     0.074 A 
ATOM     39  C   UNL A   1      38.201  31.351  30.193  1.00  0.00     0.049 A 
ATOM     40  N   UNL A   1      39.460  32.500  32.670  1.00  0.00    -0.248 NA
ATOM     41  C   UNL A   1      37.831  34.172  32.670  1.00  0.00     0.031 C 
ATOM     42  C   UNL A   1      37.650  30.764  28.969  1.00  0.00     0.029 A 
ATOM     43  N   UNL A   1      39.278  30.553  30.488  1.00  0.00    -0.354 N 
ATOM     44  C   UNL A   1      39.697  33.373  33.724  1.00  0.00     0.074 A 
ATOM     45  C   UNL A   1      38.701  34.419  33.638  1.00  0.00     0.031 C 
ATOM     46  C   UNL A   1      38.371  29.680  28.639  1.00  0.00     0.029 A 
ATOM     47  C   UNL A   1      39.458  29.521  29.600  1.00  0.00     0.049 A 
ATOM     48  H   UNL A   1      39.866  30.707  31.262  1.00  0.00     0.167 HD
ATOM     49  C   UNL A   1      40.641  33.300  34.691  1.00  0.00     0.031 A 
ATOM     50  C   UNL A   1      40.395  28.555  29.560  1.00  0.00     0.031 A 
ATOM     51  C   UNL A   1      41.630  32.258  34.779  1.00  0.00     0.049 A 
ATOM     52  C   UNL A   1      41.450  28.511  30.631  1.00  0.00     0.074 A 
ATOM     53  C   UNL A   1      42.596  32.067  35.752  1.00  0.00     0.029 A 
ATOM     54  N   UNL A   1      41.783  31.236  33.855  1.00  0.00    -0.354 N 
ATOM     55  N   UNL A   1      41.611  29.300  31.665  1.00  0.00    -0.248 NA
ATOM     56  C   UNL A   1      42.445  27.434  30.534  1.00  0.00     0.031 C 
ATOM     57  C   UNL A   1      43.373  30.964  35.383  1.00  0.00     0.029 A 
ATOM     58  C   UNL A   1      42.849  30.429  34.218  1.00  0.00     0.049 A 
ATOM     59  H   UNL A   1      41.219  31.103  33.060  1.00  0.00     0.167 HD
ATOM     60  C   UNL A   1      42.706  28.799  32.357  1.00  0.00     0.074 A 
ATOM     61  C   UNL A   1      43.157  27.627  31.635  1.00  0.00     0.031 C 
ATOM     62  C   UNL A   1      43.289  29.268  33.488  1.00  0.00     0.031 A 
BRANCH  49  63
ATOM     63  C   UNL A   1      40.655  34.389  35.730  1.00  0.00    -0.014 A 
ATOM     64  C   UNL A   1      41.413  35.557  35.552  1.00  0.00     0.009 A 
ATOM     65  C   UNL A   1      39.873  34.259  36.889  1.00  0.00     0.009 A 
ATOM     66  C   UNL A   1      41.417  36.555  36.528  1.00  0.00     0.001 A 
ATOM     67  C   UNL A   1      39.853  35.273  37.848  1.00  0.00     0.001 A 
ATOM     68  C   UNL A   1      40.634  36.415  37.673  1.00  0.00     0.000 A 
ENDBRANCH  49  63
BRANCH  50  69
ATOM     69  C   UNL A   1      40.374  27.538  28.475  1.00  0.00    -0.014 A 
ATOM     70  C   UNL A   1      41.020  27.784  27.254  1.00  0.00     0.009 A 
ATOM     71  C   UNL A   1      39.697  26.321  28.649  1.00  0.00     0.009 A 
ATOM     72  C   UNL A   1      40.962  26.847  26.219  1.00  0.00     0.001 A 
ATOM     73  C   UNL A   1      39.668  25.371  27.626  1.00  0.00     0.001 A 
ATOM     74  C   UNL A   1      40.290  25.640  26.408  1.00  0.00     0.000 A 
ENDBRANCH  50  69
BRANCH  62  75
ATOM     75  C   UNL A   1      44.456  28.492  34.033  1.00  0.00    -0.014 A 
ATOM     76  C   UNL A   1      45.774  28.790  33.656  1.00  0.00     0.009 A 
ATOM     77  C   UNL A   1      44.231  27.469  34.969  1.00  0.00     0.009 A 
ATOM     78  C   UNL A   1      46.841  28.054  34.177  1.00  0.00     0.001 A 
ATOM     79  C   UNL A   1      45.302  26.758  35.513  1.00  0.00     0.001 A 
ATOM     80  C   UNL A   1      46.604  27.044  35.108  1.00  0.00     0.000 A 
ENDBRANCH  62  75
ENDBRANCH  36  37
ENDBRANCH  28  31
ENDBRANCH  26  27
ENDBRANCH  25  26
ENDBRANCH   1  25
TORSDOF 14
ENDMDL
