MODEL 1
REMARK VINA RESULT:     -12.3      0.000      0.000
REMARK SMILES O=C(CCN1C(=O)S/C(=C\c2ccc(F)cc2)C1=O)Nc1ccc(O)cc1C(=O)NCCCCNC(=O)c1ccc(-c2c3nc(c(-c4ccccc4)c4ccc([nH]4)c(-c4ccccc4)c4nc(c(-c5ccccc5)c5ccc2[nH]5)C=C4)C=C3)cc1
REMARK SMILES IDX 31 1 30 2 28 3 29 4 27 6 21 7 22 8 23 9 26 10 24 11 20 12
REMARK SMILES IDX 1 13 2 14 3 16 4 17 5 18 6 19 18 20 7 21 8 22 9 23 19 24
REMARK SMILES IDX 10 25 11 26 12 27 17 28 13 29 16 30 14 31 15 32 25 33 32 35
REMARK SMILES IDX 33 36 34 37 35 38 36 39 37 41 38 42 39 43 85 44 40 45 84 46
REMARK SMILES IDX 41 47 42 48 43 49 78 50 44 51 83 52 77 53 79 54 45 55 82 56
REMARK SMILES IDX 76 57 75 58 46 60 68 61 53 62 67 63 54 64 57 65 66 66 80 67
REMARK SMILES IDX 55 68 56 69 65 71 81 72 58 73 47 74 48 75 52 76 49 77 51 78
REMARK SMILES IDX 50 79 69 80 70 81 74 82 71 83 73 84 72 85 59 86 60 87 64 88
REMARK SMILES IDX 61 89 63 90 62 91
REMARK H PARENT 30 5 20 15 25 34 35 40 79 59 57 70
REMARK Flexibility Score: inf
ROOT
ATOM      1  C   UNL A   1      35.501  22.567  25.272  1.00  0.00     0.116 C 
ENDROOT
BRANCH   1   2
ATOM      2  N   UNL A   1      34.200  22.598  25.963  1.00  0.00    -0.352 N 
ATOM      3  C   UNL A   1      32.975  21.996  25.742  1.00  0.00     0.253 C 
ATOM      4  O   UNL A   1      32.063  22.226  26.541  1.00  0.00    -0.269 OA
ATOM      5  H   UNL A   1      34.205  23.175  26.760  1.00  0.00     0.163 HD
BRANCH   3   6
ATOM      6  C   UNL A   1      32.676  21.059  24.622  1.00  0.00     0.067 A 
ATOM      7  C   UNL A   1      32.284  21.470  23.340  1.00  0.00     0.054 A 
ATOM      8  C   UNL A   1      32.035  20.509  22.342  1.00  0.00     0.031 A 
ATOM      9  C   UNL A   1      32.259  19.153  22.579  1.00  0.00     0.048 A 
ATOM     10  C   UNL A   1      32.927  19.691  24.842  1.00  0.00     0.062 A 
ATOM     11  C   UNL A   1      32.727  18.758  23.824  1.00  0.00     0.116 A 
BRANCH   7  12
ATOM     12  N   UNL A   1      32.303  22.833  22.994  1.00  0.00    -0.325 N 
ATOM     13  O   UNL A   1      34.466  22.983  22.212  1.00  0.00    -0.275 OA
ATOM     14  C   UNL A   1      33.410  23.515  22.547  1.00  0.00     0.226 C 
ATOM     15  H   UNL A   1      31.461  23.336  23.079  1.00  0.00     0.169 HD
BRANCH  14  16
ATOM     16  C   UNL A   1      33.259  25.018  22.502  1.00  0.00     0.122 C 
BRANCH  16  17
ATOM     17  C   UNL A   1      32.813  25.674  23.802  1.00  0.00     0.140 C 
BRANCH  17  18
ATOM     18  N   UNL A   1      31.901  26.816  23.742  1.00  0.00    -0.268 N 
ATOM     19  C   UNL A   1      32.368  28.101  23.733  1.00  0.00     0.293 C 
ATOM     20  C   UNL A   1      30.531  26.712  23.795  1.00  0.00     0.268 C 
ATOM     21  O   UNL A   1      33.474  28.486  23.409  1.00  0.00    -0.261 OA
ATOM     22  S   UNL A   1      31.122  29.241  24.110  1.00  0.00    -0.022 SA
ATOM     23  C   UNL A   1      29.946  28.074  23.674  1.00  0.00     0.083 C 
ATOM     24  O   UNL A   1      29.877  25.686  23.856  1.00  0.00    -0.268 OA
ATOM     25  C   UNL A   1      28.789  28.323  23.053  1.00  0.00     0.029 C 
BRANCH  25  26
ATOM     26  C   UNL A   1      28.436  29.684  22.641  1.00  0.00    -0.024 A 
ATOM     27  C   UNL A   1      28.764  30.113  21.343  1.00  0.00     0.011 A 
ATOM     28  C   UNL A   1      27.916  30.596  23.565  1.00  0.00     0.011 A 
ATOM     29  C   UNL A   1      28.550  31.440  20.970  1.00  0.00     0.040 A 
ATOM     30  C   UNL A   1      27.703  31.922  23.187  1.00  0.00     0.040 A 
ATOM     31  C   UNL A   1      28.015  32.330  21.894  1.00  0.00     0.123 A 
ATOM     32  F   UNL A   1      27.812  33.605  21.539  1.00  0.00    -0.207 F 
ENDBRANCH  25  26
ENDBRANCH  17  18
ENDBRANCH  16  17
ENDBRANCH  14  16
ENDBRANCH   7  12
BRANCH  11  33
ATOM     33  O   UNL A   1      33.021  17.451  24.075  1.00  0.00    -0.508 OA
ATOM     34  H   UNL A   1      32.681  16.778  23.518  1.00  0.00     0.293 HD
ENDBRANCH  11  33
ENDBRANCH   3   6
ENDBRANCH   1   2
BRANCH   1  35
ATOM     35  C   UNL A   1      36.177  21.168  25.192  1.00  0.00     0.023 C 
BRANCH  35  36
ATOM     36  C   UNL A   1      37.692  20.754  25.012  1.00  0.00     0.023 C 
BRANCH  36  37
ATOM     37  C   UNL A   1      38.961  21.016  25.862  1.00  0.00     0.116 C 
BRANCH  37  38
ATOM     38  N   UNL A   1      39.967  19.956  25.737  1.00  0.00    -0.352 N 
ATOM     39  C   UNL A   1      41.311  19.943  26.027  1.00  0.00     0.251 C 
ATOM     40  H   UNL A   1      39.619  19.105  25.383  1.00  0.00     0.163 HD
ATOM     41  O   UNL A   1      41.989  18.945  25.803  1.00  0.00    -0.269 OA
BRANCH  39  42
ATOM     42  C   UNL A   1      41.949  21.145  26.578  1.00  0.00     0.039 A 
ATOM     43  C   UNL A   1      42.676  21.987  25.728  1.00  0.00     0.014 A 
ATOM     44  C   UNL A   1      41.801  21.443  27.930  1.00  0.00     0.014 A 
ATOM     45  C   UNL A   1      43.159  23.201  26.219  1.00  0.00     0.010 A 
ATOM     46  C   UNL A   1      42.250  22.668  28.409  1.00  0.00     0.010 A 
ATOM     47  C   UNL A   1      42.893  23.571  27.548  1.00  0.00    -0.014 A 
BRANCH  47  48
ATOM     48  C   UNL A   1      43.164  24.944  28.027  1.00  0.00     0.031 A 
ATOM     49  C   UNL A   1      44.549  25.360  28.416  1.00  0.00     0.074 A 
ATOM     50  C   UNL A   1      42.116  25.771  28.212  1.00  0.00     0.049 A 
ATOM     51  N   UNL A   1      44.959  26.503  28.902  1.00  0.00    -0.248 NA
ATOM     52  C   UNL A   1      45.608  24.350  28.268  1.00  0.00     0.031 C 
ATOM     53  C   UNL A   1      40.715  25.435  27.931  1.00  0.00     0.029 A 
ATOM     54  N   UNL A   1      42.058  27.055  28.686  1.00  0.00    -0.354 N 
ATOM     55  C   UNL A   1      46.321  26.348  29.124  1.00  0.00     0.074 A 
ATOM     56  C   UNL A   1      46.656  24.985  28.772  1.00  0.00     0.031 C 
ATOM     57  C   UNL A   1      39.944  26.499  28.203  1.00  0.00     0.029 A 
ATOM     58  C   UNL A   1      40.786  27.574  28.711  1.00  0.00     0.049 A 
ATOM     59  H   UNL A   1      42.851  27.557  28.981  1.00  0.00     0.167 HD
ATOM     60  C   UNL A   1      47.211  27.268  29.563  1.00  0.00     0.031 A 
ATOM     61  C   UNL A   1      40.350  28.787  29.098  1.00  0.00     0.031 A 
ATOM     62  C   UNL A   1      46.855  28.616  29.922  1.00  0.00     0.049 A 
ATOM     63  C   UNL A   1      41.359  29.789  29.584  1.00  0.00     0.074 A 
ATOM     64  C   UNL A   1      47.680  29.648  30.333  1.00  0.00     0.029 A 
ATOM     65  N   UNL A   1      45.560  29.113  29.918  1.00  0.00    -0.354 N 
ATOM     66  N   UNL A   1      42.658  29.659  29.702  1.00  0.00    -0.248 NA
ATOM     67  C   UNL A   1      40.843  31.107  29.971  1.00  0.00     0.031 C 
ATOM     68  C   UNL A   1      46.875  30.756  30.624  1.00  0.00     0.029 A 
ATOM     69  C   UNL A   1      45.558  30.431  30.339  1.00  0.00     0.049 A 
ATOM     70  H   UNL A   1      44.760  28.603  29.656  1.00  0.00     0.167 HD
ATOM     71  C   UNL A   1      43.121  30.887  30.152  1.00  0.00     0.074 A 
ATOM     72  C   UNL A   1      41.963  31.753  30.266  1.00  0.00     0.031 C 
ATOM     73  C   UNL A   1      44.389  31.267  30.444  1.00  0.00     0.031 A 
BRANCH  60  74
ATOM     74  C   UNL A   1      48.647  26.836  29.679  1.00  0.00    -0.014 A 
ATOM     75  C   UNL A   1      49.507  26.870  28.568  1.00  0.00     0.009 A 
ATOM     76  C   UNL A   1      49.155  26.403  30.914  1.00  0.00     0.009 A 
ATOM     77  C   UNL A   1      50.828  26.434  28.679  1.00  0.00     0.001 A 
ATOM     78  C   UNL A   1      50.486  25.997  31.029  1.00  0.00     0.001 A 
ATOM     79  C   UNL A   1      51.318  26.001  29.910  1.00  0.00     0.000 A 
ENDBRANCH  60  74
BRANCH  61  80
ATOM     80  C   UNL A   1      38.907  29.131  28.998  1.00  0.00    -0.014 A 
ATOM     81  C   UNL A   1      38.380  29.638  27.801  1.00  0.00     0.009 A 
ATOM     82  C   UNL A   1      38.047  28.948  30.093  1.00  0.00     0.009 A 
ATOM     83  C   UNL A   1      37.029  29.981  27.710  1.00  0.00     0.001 A 
ATOM     84  C   UNL A   1      36.690  29.264  29.989  1.00  0.00     0.001 A 
ATOM     85  C   UNL A   1      36.184  29.789  28.801  1.00  0.00     0.000 A 
ENDBRANCH  61  80
BRANCH  73  86
ATOM     86  C   UNL A   1      44.588  32.691  30.879  1.00  0.00    -0.014 A 
ATOM     87  C   UNL A   1      44.672  33.034  32.237  1.00  0.00     0.009 A 
ATOM     88  C   UNL A   1      44.735  33.696  29.910  1.00  0.00     0.009 A 
ATOM     89  C   UNL A   1      44.865  34.363  32.616  1.00  0.00     0.001 A 
ATOM     90  C   UNL A   1      44.960  35.018  30.291  1.00  0.00     0.001 A 
ATOM     91  C   UNL A   1      45.016  35.352  31.644  1.00  0.00     0.000 A 
ENDBRANCH  73  86
ENDBRANCH  47  48
ENDBRANCH  39  42
ENDBRANCH  37  38
ENDBRANCH  36  37
ENDBRANCH  35  36
ENDBRANCH   1  35
TORSDOF 17
ENDMDL
MODEL 2
REMARK VINA RESULT:     -12.2      0.974      5.617
REMARK SMILES O=C(CCN1C(=O)S/C(=C\c2ccc(F)cc2)C1=O)Nc1ccc(O)cc1C(=O)NCCCCNC(=O)c1ccc(-c2c3nc(c(-c4ccccc4)c4ccc([nH]4)c(-c4ccccc4)c4nc(c(-c5ccccc5)c5ccc2[nH]5)C=C4)C=C3)cc1
REMARK SMILES IDX 31 1 30 2 28 3 29 4 27 6 21 7 22 8 23 9 26 10 24 11 20 12
REMARK SMILES IDX 1 13 2 14 3 16 4 17 5 18 6 19 18 20 7 21 8 22 9 23 19 24
REMARK SMILES IDX 10 25 11 26 12 27 17 28 13 29 16 30 14 31 15 32 25 33 32 35
REMARK SMILES IDX 33 36 34 37 35 38 36 39 37 41 38 42 39 43 85 44 40 45 84 46
REMARK SMILES IDX 41 47 42 48 43 49 78 50 44 51 83 52 77 53 79 54 45 55 82 56
REMARK SMILES IDX 76 57 75 58 46 60 68 61 53 62 67 63 54 64 57 65 66 66 80 67
REMARK SMILES IDX 55 68 56 69 65 71 81 72 58 73 47 74 48 75 52 76 49 77 51 78
REMARK SMILES IDX 50 79 69 80 70 81 74 82 71 83 73 84 72 85 59 86 60 87 64 88
REMARK SMILES IDX 61 89 63 90 62 91
REMARK H PARENT 30 5 20 15 25 34 35 40 79 59 57 70
REMARK Flexibility Score: inf
ROOT
ATOM      1  C   UNL A   1      35.475  22.729  25.425  1.00  0.00     0.116 C 
ENDROOT
BRANCH   1   2
ATOM      2  N   UNL A   1      34.180  22.773  26.124  1.00  0.00    -0.352 N 
ATOM      3  C   UNL A   1      32.961  22.146  25.940  1.00  0.00     0.253 C 
ATOM      4  O   UNL A   1      32.052  22.399  26.735  1.00  0.00    -0.269 OA
ATOM      5  H   UNL A   1      34.182  23.386  26.894  1.00  0.00     0.163 HD
BRANCH   3   6
ATOM      6  C   UNL A   1      32.667  21.155  24.865  1.00  0.00     0.067 A 
ATOM      7  C   UNL A   1      32.272  21.503  23.566  1.00  0.00     0.054 A 
ATOM      8  C   UNL A   1      32.028  20.495  22.614  1.00  0.00     0.031 A 
ATOM      9  C   UNL A   1      32.259  19.153  22.915  1.00  0.00     0.048 A 
ATOM     10  C   UNL A   1      32.926  19.800  25.150  1.00  0.00     0.062 A 
ATOM     11  C   UNL A   1      32.730  18.820  24.176  1.00  0.00     0.116 A 
BRANCH   7  12
ATOM     12  N   UNL A   1      32.283  22.849  23.156  1.00  0.00    -0.325 N 
ATOM     13  O   UNL A   1      34.410  22.945  22.272  1.00  0.00    -0.275 OA
ATOM     14  C   UNL A   1      33.373  23.501  22.629  1.00  0.00     0.226 C 
ATOM     15  H   UNL A   1      31.449  23.362  23.255  1.00  0.00     0.169 HD
BRANCH  14  16
ATOM     16  C   UNL A   1      33.229  25.001  22.520  1.00  0.00     0.122 C 
BRANCH  16  17
ATOM     17  C   UNL A   1      32.843  25.720  23.806  1.00  0.00     0.140 C 
BRANCH  17  18
ATOM     18  N   UNL A   1      31.922  26.853  23.733  1.00  0.00    -0.268 N 
ATOM     19  C   UNL A   1      32.380  28.139  23.662  1.00  0.00     0.293 C 
ATOM     20  C   UNL A   1      30.555  26.744  23.835  1.00  0.00     0.268 C 
ATOM     21  O   UNL A   1      33.472  28.519  23.289  1.00  0.00    -0.261 OA
ATOM     22  S   UNL A   1      31.138  29.286  24.037  1.00  0.00    -0.022 SA
ATOM     23  C   UNL A   1      29.957  28.097  23.682  1.00  0.00     0.083 C 
ATOM     24  O   UNL A   1      29.910  25.716  23.954  1.00  0.00    -0.268 OA
ATOM     25  C   UNL A   1      28.779  28.316  23.090  1.00  0.00     0.029 C 
BRANCH  25  26
ATOM     26  C   UNL A   1      28.404  29.659  22.640  1.00  0.00    -0.024 A 
ATOM     27  C   UNL A   1      28.612  30.014  21.295  1.00  0.00     0.011 A 
ATOM     28  C   UNL A   1      27.984  30.627  23.558  1.00  0.00     0.011 A 
ATOM     29  C   UNL A   1      28.378  31.322  20.873  1.00  0.00     0.040 A 
ATOM     30  C   UNL A   1      27.750  31.934  23.130  1.00  0.00     0.040 A 
ATOM     31  C   UNL A   1      27.943  32.268  21.793  1.00  0.00     0.123 A 
ATOM     32  F   UNL A   1      27.722  33.526  21.390  1.00  0.00    -0.207 F 
ENDBRANCH  25  26
ENDBRANCH  17  18
ENDBRANCH  16  17
ENDBRANCH  14  16
ENDBRANCH   7  12
BRANCH  11  33
ATOM     33  O   UNL A   1      33.031  17.527  24.488  1.00  0.00    -0.508 OA
ATOM     34  H   UNL A   1      32.904  17.213  25.362  1.00  0.00     0.293 HD
ENDBRANCH  11  33
ENDBRANCH   3   6
ENDBRANCH   1   2
BRANCH   1  35
ATOM     35  C   UNL A   1      36.247  21.383  25.541  1.00  0.00     0.023 C 
BRANCH  35  36
ATOM     36  C   UNL A   1      37.760  21.023  25.255  1.00  0.00     0.023 C 
BRANCH  36  37
ATOM     37  C   UNL A   1      39.046  21.133  26.112  1.00  0.00     0.116 C 
BRANCH  37  38
ATOM     38  N   UNL A   1      39.959  19.999  25.927  1.00  0.00    -0.352 N 
ATOM     39  C   UNL A   1      41.324  19.903  26.068  1.00  0.00     0.251 C 
ATOM     40  H   UNL A   1      39.518  19.162  25.656  1.00  0.00     0.163 HD
ATOM     41  O   UNL A   1      41.904  18.851  25.819  1.00  0.00    -0.269 OA
BRANCH  39  42
ATOM     42  C   UNL A   1      42.098  21.079  26.487  1.00  0.00     0.039 A 
ATOM     43  C   UNL A   1      42.663  21.910  25.513  1.00  0.00     0.014 A 
ATOM     44  C   UNL A   1      42.238  21.361  27.843  1.00  0.00     0.014 A 
ATOM     45  C   UNL A   1      43.274  23.102  25.905  1.00  0.00     0.010 A 
ATOM     46  C   UNL A   1      42.813  22.565  28.229  1.00  0.00     0.010 A 
ATOM     47  C   UNL A   1      43.295  23.461  27.262  1.00  0.00    -0.014 A 
BRANCH  47  48
ATOM     48  C   UNL A   1      43.702  24.820  27.687  1.00  0.00     0.031 A 
ATOM     49  C   UNL A   1      42.675  25.850  28.039  1.00  0.00     0.074 A 
ATOM     50  C   UNL A   1      45.011  25.136  27.637  1.00  0.00     0.049 A 
ATOM     51  N   UNL A   1      42.848  27.101  28.383  1.00  0.00    -0.248 NA
ATOM     52  C   UNL A   1      41.266  25.432  27.968  1.00  0.00     0.031 C 
ATOM     53  C   UNL A   1      46.086  24.221  27.236  1.00  0.00     0.029 A 
ATOM     54  N   UNL A   1      45.662  26.309  27.913  1.00  0.00    -0.354 N 
ATOM     55  C   UNL A   1      41.572  27.620  28.562  1.00  0.00     0.074 A 
ATOM     56  C   UNL A   1      40.636  26.566  28.236  1.00  0.00     0.031 C 
ATOM     57  C   UNL A   1      47.264  24.857  27.329  1.00  0.00     0.029 A 
ATOM     58  C   UNL A   1      47.025  26.230  27.757  1.00  0.00     0.049 A 
ATOM     59  H   UNL A   1      45.198  27.129  28.196  1.00  0.00     0.167 HD
ATOM     60  C   UNL A   1      41.220  28.858  28.979  1.00  0.00     0.031 A 
ATOM     61  C   UNL A   1      47.976  27.162  27.945  1.00  0.00     0.031 A 
ATOM     62  C   UNL A   1      42.167  29.898  29.284  1.00  0.00     0.049 A 
ATOM     63  C   UNL A   1      47.558  28.529  28.406  1.00  0.00     0.074 A 
ATOM     64  C   UNL A   1      41.927  31.174  29.762  1.00  0.00     0.029 A 
ATOM     65  N   UNL A   1      43.541  29.777  29.133  1.00  0.00    -0.354 N 
ATOM     66  N   UNL A   1      46.353  28.980  28.660  1.00  0.00    -0.248 NA
ATOM     67  C   UNL A   1      48.630  29.508  28.622  1.00  0.00     0.031 C 
ATOM     68  C   UNL A   1      43.154  31.841  29.852  1.00  0.00     0.029 A 
ATOM     69  C   UNL A   1      44.162  30.962  29.487  1.00  0.00     0.049 A 
ATOM     70  H   UNL A   1      44.005  28.969  28.818  1.00  0.00     0.167 HD
ATOM     71  C   UNL A   1      46.522  30.287  29.094  1.00  0.00     0.074 A 
ATOM     72  C   UNL A   1      47.949  30.548  29.084  1.00  0.00     0.031 C 
ATOM     73  C   UNL A   1      45.584  31.192  29.467  1.00  0.00     0.031 A 
BRANCH  60  74
ATOM     74  C   UNL A   1      39.750  29.144  29.122  1.00  0.00    -0.014 A 
ATOM     75  C   UNL A   1      39.110  29.050  30.369  1.00  0.00     0.009 A 
ATOM     76  C   UNL A   1      38.995  29.525  28.002  1.00  0.00     0.009 A 
ATOM     77  C   UNL A   1      37.739  29.284  30.484  1.00  0.00     0.001 A 
ATOM     78  C   UNL A   1      37.629  29.789  28.125  1.00  0.00     0.001 A 
ATOM     79  C   UNL A   1      37.000  29.657  29.362  1.00  0.00     0.000 A 
ENDBRANCH  60  74
BRANCH  61  80
ATOM     80  C   UNL A   1      49.409  26.822  27.741  1.00  0.00    -0.014 A 
ATOM     81  C   UNL A   1      50.028  27.070  26.507  1.00  0.00     0.009 A 
ATOM     82  C   UNL A   1      50.169  26.258  28.778  1.00  0.00     0.009 A 
ATOM     83  C   UNL A   1      51.369  26.734  26.305  1.00  0.00     0.001 A 
ATOM     84  C   UNL A   1      51.518  25.950  28.582  1.00  0.00     0.001 A 
ATOM     85  C   UNL A   1      52.114  26.179  27.344  1.00  0.00     0.000 A 
ENDBRANCH  61  80
BRANCH  73  86
ATOM     86  C   UNL A   1      46.080  32.533  29.929  1.00  0.00    -0.014 A 
ATOM     87  C   UNL A   1      46.410  32.764  31.273  1.00  0.00     0.009 A 
ATOM     88  C   UNL A   1      46.256  33.565  28.995  1.00  0.00     0.009 A 
ATOM     89  C   UNL A   1      46.876  34.016  31.677  1.00  0.00     0.001 A 
ATOM     90  C   UNL A   1      46.752  34.805  29.396  1.00  0.00     0.001 A 
ATOM     91  C   UNL A   1      47.052  35.032  30.738  1.00  0.00     0.000 A 
ENDBRANCH  73  86
ENDBRANCH  47  48
ENDBRANCH  39  42
ENDBRANCH  37  38
ENDBRANCH  36  37
ENDBRANCH  35  36
ENDBRANCH   1  35
TORSDOF 17
ENDMDL
MODEL 3
REMARK VINA RESULT:     -12.1      2.497      3.412
REMARK SMILES O=C(CCN1C(=O)S/C(=C\c2ccc(F)cc2)C1=O)Nc1ccc(O)cc1C(=O)NCCCCNC(=O)c1ccc(-c2c3nc(c(-c4ccccc4)c4ccc([nH]4)c(-c4ccccc4)c4nc(c(-c5ccccc5)c5ccc2[nH]5)C=C4)C=C3)cc1
REMARK SMILES IDX 31 1 30 2 28 3 29 4 27 6 21 7 22 8 23 9 26 10 24 11 20 12
REMARK SMILES IDX 1 13 2 14 3 16 4 17 5 18 6 19 18 20 7 21 8 22 9 23 19 24
REMARK SMILES IDX 10 25 11 26 12 27 17 28 13 29 16 30 14 31 15 32 25 33 32 35
REMARK SMILES IDX 33 36 34 37 35 38 36 39 37 41 38 42 39 43 85 44 40 45 84 46
REMARK SMILES IDX 41 47 42 48 43 49 78 50 44 51 83 52 77 53 79 54 45 55 82 56
REMARK SMILES IDX 76 57 75 58 46 60 68 61 53 62 67 63 54 64 57 65 66 66 80 67
REMARK SMILES IDX 55 68 56 69 65 71 81 72 58 73 47 74 48 75 52 76 49 77 51 78
REMARK SMILES IDX 50 79 69 80 70 81 74 82 71 83 73 84 72 85 59 86 60 87 64 88
REMARK SMILES IDX 61 89 63 90 62 91
REMARK H PARENT 30 5 20 15 25 34 35 40 79 59 57 70
REMARK Flexibility Score: inf
ROOT
ATOM      1  C   UNL A   1      37.635  23.659  26.172  1.00  0.00     0.116 C 
ENDROOT
BRANCH   1   2
ATOM      2  N   UNL A   1      37.386  23.680  24.721  1.00  0.00    -0.352 N 
ATOM      3  C   UNL A   1      36.573  22.953  23.870  1.00  0.00     0.253 C 
ATOM      4  O   UNL A   1      36.589  23.238  22.669  1.00  0.00    -0.269 OA
ATOM      5  H   UNL A   1      37.917  24.364  24.253  1.00  0.00     0.163 HD
BRANCH   3   6
ATOM      6  C   UNL A   1      35.648  21.865  24.298  1.00  0.00     0.067 A 
ATOM      7  C   UNL A   1      34.254  22.004  24.365  1.00  0.00     0.054 A 
ATOM      8  C   UNL A   1      33.461  20.914  24.770  1.00  0.00     0.031 A 
ATOM      9  C   UNL A   1      34.030  19.667  25.022  1.00  0.00     0.048 A 
ATOM     10  C   UNL A   1      36.210  20.594  24.526  1.00  0.00     0.062 A 
ATOM     11  C   UNL A   1      35.401  19.512  24.874  1.00  0.00     0.116 A 
BRANCH   7  12
ATOM     12  N   UNL A   1      33.631  23.164  23.869  1.00  0.00    -0.325 N 
ATOM     13  O   UNL A   1      32.766  22.305  21.913  1.00  0.00    -0.275 OA
ATOM     14  C   UNL A   1      33.016  23.261  22.643  1.00  0.00     0.226 C 
ATOM     15  H   UNL A   1      33.635  23.964  24.442  1.00  0.00     0.169 HD
BRANCH  14  16
ATOM     16  C   UNL A   1      32.663  24.667  22.216  1.00  0.00     0.122 C 
BRANCH  16  17
ATOM     17  C   UNL A   1      31.770  25.442  23.176  1.00  0.00     0.140 C 
BRANCH  17  18
ATOM     18  N   UNL A   1      32.325  26.593  23.886  1.00  0.00    -0.268 N 
ATOM     19  C   UNL A   1      32.228  27.858  23.378  1.00  0.00     0.293 C 
ATOM     20  C   UNL A   1      33.067  26.502  25.041  1.00  0.00     0.268 C 
ATOM     21  O   UNL A   1      31.427  28.271  22.563  1.00  0.00    -0.261 OA
ATOM     22  S   UNL A   1      33.327  28.949  24.152  1.00  0.00    -0.022 SA
ATOM     23  C   UNL A   1      33.427  27.875  25.484  1.00  0.00     0.083 C 
ATOM     24  O   UNL A   1      33.336  25.487  25.660  1.00  0.00    -0.268 OA
ATOM     25  C   UNL A   1      33.529  28.229  26.768  1.00  0.00     0.029 C 
BRANCH  25  26
ATOM     26  C   UNL A   1      33.523  29.641  27.161  1.00  0.00    -0.024 A 
ATOM     27  C   UNL A   1      32.335  30.382  27.035  1.00  0.00     0.011 A 
ATOM     28  C   UNL A   1      34.711  30.286  27.515  1.00  0.00     0.011 A 
ATOM     29  C   UNL A   1      32.336  31.753  27.285  1.00  0.00     0.040 A 
ATOM     30  C   UNL A   1      34.707  31.659  27.765  1.00  0.00     0.040 A 
ATOM     31  C   UNL A   1      33.521  32.378  27.654  1.00  0.00     0.123 A 
ATOM     32  F   UNL A   1      33.525  33.696  27.891  1.00  0.00    -0.207 F 
ENDBRANCH  25  26
ENDBRANCH  17  18
ENDBRANCH  16  17
ENDBRANCH  14  16
ENDBRANCH   7  12
BRANCH  11  33
ATOM     33  O   UNL A   1      35.987  18.293  25.046  1.00  0.00    -0.508 OA
ATOM     34  H   UNL A   1      35.902  17.634  24.385  1.00  0.00     0.293 HD
ENDBRANCH  11  33
ENDBRANCH   3   6
ENDBRANCH   1   2
BRANCH   1  35
ATOM     35  C   UNL A   1      39.024  23.102  26.600  1.00  0.00     0.023 C 
BRANCH  35  36
ATOM     36  C   UNL A   1      39.599  21.630  26.603  1.00  0.00     0.023 C 
BRANCH  36  37
ATOM     37  C   UNL A   1      39.634  20.514  25.528  1.00  0.00     0.116 C 
BRANCH  37  38
ATOM     38  N   UNL A   1      40.485  19.379  25.905  1.00  0.00    -0.352 N 
ATOM     39  C   UNL A   1      41.770  19.334  26.393  1.00  0.00     0.251 C 
ATOM     40  H   UNL A   1      40.063  18.498  25.787  1.00  0.00     0.163 HD
ATOM     41  O   UNL A   1      42.320  18.258  26.606  1.00  0.00    -0.269 OA
BRANCH  39  42
ATOM     42  C   UNL A   1      42.504  20.584  26.630  1.00  0.00     0.039 A 
ATOM     43  C   UNL A   1      43.089  21.252  25.548  1.00  0.00     0.014 A 
ATOM     44  C   UNL A   1      42.587  21.098  27.922  1.00  0.00     0.014 A 
ATOM     45  C   UNL A   1      43.661  22.509  25.750  1.00  0.00     0.010 A 
ATOM     46  C   UNL A   1      43.123  22.364  28.115  1.00  0.00     0.010 A 
ATOM     47  C   UNL A   1      43.623  23.095  27.026  1.00  0.00    -0.014 A 
BRANCH  47  48
ATOM     48  C   UNL A   1      43.986  24.515  27.224  1.00  0.00     0.031 A 
ATOM     49  C   UNL A   1      45.401  24.975  27.056  1.00  0.00     0.074 A 
ATOM     50  C   UNL A   1      43.033  25.357  27.672  1.00  0.00     0.049 A 
ATOM     51  N   UNL A   1      45.906  26.168  27.238  1.00  0.00    -0.248 NA
ATOM     52  C   UNL A   1      46.385  23.956  26.659  1.00  0.00     0.031 C 
ATOM     53  C   UNL A   1      41.638  24.990  27.937  1.00  0.00     0.029 A 
ATOM     54  N   UNL A   1      43.090  26.688  27.991  1.00  0.00    -0.354 N 
ATOM     55  C   UNL A   1      47.265  26.041  26.985  1.00  0.00     0.074 A 
ATOM     56  C   UNL A   1      47.514  24.647  26.692  1.00  0.00     0.031 C 
ATOM     57  C   UNL A   1      40.964  26.077  28.343  1.00  0.00     0.029 A 
ATOM     58  C   UNL A   1      41.885  27.206  28.402  1.00  0.00     0.049 A 
ATOM     59  H   UNL A   1      43.914  27.223  27.932  1.00  0.00     0.167 HD
ATOM     60  C   UNL A   1      48.213  27.008  26.981  1.00  0.00     0.031 A 
ATOM     61  C   UNL A   1      41.560  28.456  28.780  1.00  0.00     0.031 A 
ATOM     62  C   UNL A   1      47.948  28.388  27.290  1.00  0.00     0.049 A 
ATOM     63  C   UNL A   1      42.631  29.509  28.768  1.00  0.00     0.074 A 
ATOM     64  C   UNL A   1      48.819  29.462  27.269  1.00  0.00     0.029 A 
ATOM     65  N   UNL A   1      46.712  28.880  27.684  1.00  0.00    -0.354 N 
ATOM     66  N   UNL A   1      43.895  29.394  28.438  1.00  0.00    -0.248 NA
ATOM     67  C   UNL A   1      42.227  30.863  29.163  1.00  0.00     0.031 C 
ATOM     68  C   UNL A   1      48.120  30.596  27.699  1.00  0.00     0.029 A 
ATOM     69  C   UNL A   1      46.801  30.239  27.930  1.00  0.00     0.049 A 
ATOM     70  H   UNL A   1      45.893  28.342  27.776  1.00  0.00     0.167 HD
ATOM     71  C   UNL A   1      44.433  30.668  28.558  1.00  0.00     0.074 A 
ATOM     72  C   UNL A   1      43.352  31.540  28.974  1.00  0.00     0.031 C 
ATOM     73  C   UNL A   1      45.706  31.081  28.344  1.00  0.00     0.031 A 
BRANCH  60  74
ATOM     74  C   UNL A   1      49.617  26.594  26.633  1.00  0.00    -0.014 A 
ATOM     75  C   UNL A   1      50.498  26.118  27.619  1.00  0.00     0.009 A 
ATOM     76  C   UNL A   1      50.064  26.667  25.305  1.00  0.00     0.009 A 
ATOM     77  C   UNL A   1      51.809  25.770  27.292  1.00  0.00     0.001 A 
ATOM     78  C   UNL A   1      51.367  26.288  24.975  1.00  0.00     0.001 A 
ATOM     79  C   UNL A   1      52.242  25.851  25.969  1.00  0.00     0.000 A 
ENDBRANCH  60  74
BRANCH  61  80
ATOM     80  C   UNL A   1      40.159  28.784  29.154  1.00  0.00    -0.014 A 
ATOM     81  C   UNL A   1      39.707  28.568  30.464  1.00  0.00     0.009 A 
ATOM     82  C   UNL A   1      39.270  29.323  28.211  1.00  0.00     0.009 A 
ATOM     83  C   UNL A   1      38.385  28.857  30.816  1.00  0.00     0.001 A 
ATOM     84  C   UNL A   1      37.958  29.639  28.573  1.00  0.00     0.001 A 
ATOM     85  C   UNL A   1      37.514  29.397  29.872  1.00  0.00     0.000 A 
ENDBRANCH  61  80
BRANCH  73  86
ATOM     86  C   UNL A   1      45.984  32.547  28.522  1.00  0.00    -0.014 A 
ATOM     87  C   UNL A   1      45.819  33.453  27.464  1.00  0.00     0.009 A 
ATOM     88  C   UNL A   1      46.377  33.029  29.779  1.00  0.00     0.009 A 
ATOM     89  C   UNL A   1      46.075  34.812  27.655  1.00  0.00     0.001 A 
ATOM     90  C   UNL A   1      46.601  34.391  29.977  1.00  0.00     0.001 A 
ATOM     91  C   UNL A   1      46.459  35.279  28.912  1.00  0.00     0.000 A 
ENDBRANCH  73  86
ENDBRANCH  47  48
ENDBRANCH  39  42
ENDBRANCH  37  38
ENDBRANCH  36  37
ENDBRANCH  35  36
ENDBRANCH   1  35
TORSDOF 17
ENDMDL
