MODEL 1
REMARK VINA RESULT:     -13.9      0.000      0.000
REMARK SMILES CC(C)[C@H](NC(=O)[C@H](Cc1ccccc1)n1c(=O)[nH]c2ccccc2c1=O)C(=O)NCCCCNC(=O)c1ccc(-c2c3nc(c(-c4ccccc4)c4ccc([nH]4)c(-c4ccccc4)c4nc(c(-c5ccccc5)c5ccc2[nH]5)C=C4)C=C3)cc1
REMARK SMILES IDX 31 1 30 2 28 3 29 4 4 6 2 7 1 8 3 9 5 10 6 11 7 13 8 14
REMARK SMILES IDX 16 15 17 16 26 17 18 18 19 19 25 20 27 21 20 22 24 24 21 25
REMARK SMILES IDX 23 26 22 27 9 28 10 29 11 30 15 31 12 32 14 33 13 34 32 35
REMARK SMILES IDX 33 36 34 37 35 38 36 39 37 41 38 42 39 43 85 44 40 45 84 46
REMARK SMILES IDX 41 47 42 48 43 49 78 50 44 51 83 52 77 53 79 54 45 55 82 56
REMARK SMILES IDX 76 57 75 58 46 60 68 61 53 62 67 63 54 64 57 65 66 66 80 67
REMARK SMILES IDX 55 68 56 69 65 71 81 72 58 73 47 74 48 75 52 76 49 77 51 78
REMARK SMILES IDX 50 79 69 80 70 81 74 82 71 83 73 84 72 85 59 86 60 87 64 88
REMARK SMILES IDX 61 89 63 90 62 91
REMARK H PARENT 30 5 5 12 19 23 35 40 79 59 57 70
REMARK Flexibility Score: inf
ROOT
ATOM      1  C   UNL A   1      34.823  22.553  27.063  1.00  0.00     0.116 C 
ENDROOT
BRANCH   1   2
ATOM      2  N   UNL A   1      33.373  23.176  26.903  1.00  0.00    -0.354 N 
ATOM      3  C   UNL A   1      32.927  24.338  26.392  1.00  0.00     0.242 C 
ATOM      4  O   UNL A   1      31.698  24.476  26.317  1.00  0.00    -0.273 OA
ATOM      5  H   UNL A   1      32.656  22.596  27.246  1.00  0.00     0.163 HD
BRANCH   3   6
ATOM      6  C   UNL A   1      33.856  25.312  25.664  1.00  0.00     0.173 C 
BRANCH   6   7
ATOM      7  C   UNL A   1      33.078  26.683  25.537  1.00  0.00     0.015 C 
ATOM      8  C   UNL A   1      32.459  27.235  26.827  1.00  0.00     0.010 C 
ATOM      9  C   UNL A   1      33.891  27.826  24.884  1.00  0.00     0.010 C 
ENDBRANCH   6   7
BRANCH   6  10
ATOM     10  N   UNL A   1      34.509  24.872  24.420  1.00  0.00    -0.342 N 
ATOM     11  C   UNL A   1      34.115  24.082  23.379  1.00  0.00     0.244 C 
ATOM     12  H   UNL A   1      35.424  25.222  24.317  1.00  0.00     0.164 HD
ATOM     13  O   UNL A   1      35.025  23.716  22.622  1.00  0.00    -0.273 OA
BRANCH  11  14
ATOM     14  C   UNL A   1      32.652  23.755  23.017  1.00  0.00     0.189 C 
BRANCH  14  15
ATOM     15  N   UNL A   1      32.033  25.032  22.563  1.00  0.00    -0.247 N 
ATOM     16  C   UNL A   1      32.581  25.803  21.572  1.00  0.00     0.329 A 
ATOM     17  C   UNL A   1      30.834  25.442  23.159  1.00  0.00     0.264 A 
ATOM     18  O   UNL A   1      33.132  25.354  20.574  1.00  0.00    -0.248 OA
ATOM     19  N   UNL A   1      32.467  27.160  21.749  1.00  0.00    -0.307 N 
ATOM     20  C   UNL A   1      30.448  26.866  22.979  1.00  0.00     0.064 A 
ATOM     21  O   UNL A   1      30.108  24.714  23.832  1.00  0.00    -0.268 OA
ATOM     22  C   UNL A   1      31.401  27.724  22.442  1.00  0.00     0.055 A 
ATOM     23  H   UNL A   1      33.160  27.752  21.375  1.00  0.00     0.171 HD
ATOM     24  C   UNL A   1      29.191  27.366  23.329  1.00  0.00     0.016 A 
ATOM     25  C   UNL A   1      31.194  29.103  22.421  1.00  0.00     0.027 A 
ATOM     26  C   UNL A   1      28.929  28.734  23.185  1.00  0.00     0.001 A 
ATOM     27  C   UNL A   1      29.944  29.606  22.782  1.00  0.00     0.002 A 
ENDBRANCH  14  15
BRANCH  14  28
ATOM     28  C   UNL A   1      32.470  22.386  22.245  1.00  0.00     0.071 C 
BRANCH  28  29
ATOM     29  C   UNL A   1      32.333  21.043  22.979  1.00  0.00    -0.045 A 
ATOM     30  C   UNL A   1      32.586  20.894  24.764  1.00  0.00     0.004 A 
ATOM     31  C   UNL A   1      32.168  19.540  21.977  1.00  0.00     0.004 A 
ATOM     32  C   UNL A   1      32.808  19.278  25.521  1.00  0.00     0.000 A 
ATOM     33  C   UNL A   1      32.431  17.912  22.747  1.00  0.00     0.000 A 
ATOM     34  C   UNL A   1      32.713  17.779  24.528  1.00  0.00     0.000 A 
ENDBRANCH  28  29
ENDBRANCH  14  28
ENDBRANCH  11  14
ENDBRANCH   6  10
ENDBRANCH   3   6
ENDBRANCH   1   2
BRANCH   1  35
ATOM     35  C   UNL A   1      36.180  21.652  25.606  1.00  0.00     0.023 C 
BRANCH  35  36
ATOM     36  C   UNL A   1      37.823  21.777  25.164  1.00  0.00     0.023 C 
BRANCH  36  37
ATOM     37  C   UNL A   1      38.969  21.376  26.080  1.00  0.00     0.116 C 
BRANCH  37  38
ATOM     38  N   UNL A   1      39.714  20.181  25.691  1.00  0.00    -0.352 N 
ATOM     39  C   UNL A   1      41.021  19.889  25.996  1.00  0.00     0.251 C 
ATOM     40  H   UNL A   1      39.227  19.515  25.153  1.00  0.00     0.163 HD
ATOM     41  O   UNL A   1      41.547  18.818  25.732  1.00  0.00    -0.269 OA
BRANCH  39  42
ATOM     42  C   UNL A   1      41.783  21.000  26.575  1.00  0.00     0.039 A 
ATOM     43  C   UNL A   1      42.158  22.023  25.701  1.00  0.00     0.014 A 
ATOM     44  C   UNL A   1      41.742  21.179  27.957  1.00  0.00     0.014 A 
ATOM     45  C   UNL A   1      42.429  23.279  26.223  1.00  0.00     0.010 A 
ATOM     46  C   UNL A   1      41.891  22.462  28.454  1.00  0.00     0.010 A 
ATOM     47  C   UNL A   1      42.251  23.515  27.595  1.00  0.00    -0.014 A 
BRANCH  47  48
ATOM     48  C   UNL A   1      42.513  24.852  28.165  1.00  0.00     0.031 A 
ATOM     49  C   UNL A   1      43.923  25.194  28.544  1.00  0.00     0.074 A 
ATOM     50  C   UNL A   1      41.506  25.727  28.348  1.00  0.00     0.049 A 
ATOM     51  N   UNL A   1      44.392  26.291  29.076  1.00  0.00    -0.248 NA
ATOM     52  C   UNL A   1      44.940  24.147  28.331  1.00  0.00     0.031 C 
ATOM     53  C   UNL A   1      40.094  25.482  28.041  1.00  0.00     0.029 A 
ATOM     54  N   UNL A   1      41.522  27.012  28.824  1.00  0.00    -0.354 N 
ATOM     55  C   UNL A   1      45.744  26.053  29.274  1.00  0.00     0.074 A 
ATOM     56  C   UNL A   1      46.005  24.685  28.897  1.00  0.00     0.031 C 
ATOM     57  C   UNL A   1      39.390  26.601  28.286  1.00  0.00     0.029 A 
ATOM     58  C   UNL A   1      40.292  27.623  28.807  1.00  0.00     0.049 A 
ATOM     59  H   UNL A   1      42.340  27.456  29.149  1.00  0.00     0.167 HD
ATOM     60  C   UNL A   1      46.699  26.911  29.693  1.00  0.00     0.031 A 
ATOM     61  C   UNL A   1      39.942  28.873  29.166  1.00  0.00     0.031 A 
ATOM     62  C   UNL A   1      46.432  28.275  30.046  1.00  0.00     0.049 A 
ATOM     63  C   UNL A   1      41.017  29.802  29.668  1.00  0.00     0.074 A 
ATOM     64  C   UNL A   1      47.321  29.253  30.448  1.00  0.00     0.029 A 
ATOM     65  N   UNL A   1      45.169  28.850  30.037  1.00  0.00    -0.354 N 
ATOM     66  N   UNL A   1      42.305  29.586  29.790  1.00  0.00    -0.248 NA
ATOM     67  C   UNL A   1      40.589  31.147  30.075  1.00  0.00     0.031 C 
ATOM     68  C   UNL A   1      46.587  30.406  30.741  1.00  0.00     0.029 A 
ATOM     69  C   UNL A   1      45.250  30.165  30.456  1.00  0.00     0.049 A 
ATOM     70  H   UNL A   1      44.339  28.390  29.773  1.00  0.00     0.167 HD
ATOM     71  C   UNL A   1      42.847  30.776  30.259  1.00  0.00     0.074 A 
ATOM     72  C   UNL A   1      41.748  31.713  30.382  1.00  0.00     0.031 C 
ATOM     73  C   UNL A   1      44.135  31.070  30.563  1.00  0.00     0.031 A 
BRANCH  60  74
ATOM     74  C   UNL A   1      48.102  26.381  29.789  1.00  0.00    -0.014 A 
ATOM     75  C   UNL A   1      48.596  25.837  30.988  1.00  0.00     0.009 A 
ATOM     76  C   UNL A   1      48.950  26.447  28.675  1.00  0.00     0.009 A 
ATOM     77  C   UNL A   1      49.925  25.419  31.081  1.00  0.00     0.001 A 
ATOM     78  C   UNL A   1      50.267  25.993  28.761  1.00  0.00     0.001 A 
ATOM     79  C   UNL A   1      50.757  25.492  29.967  1.00  0.00     0.000 A 
ENDBRANCH  60  74
BRANCH  61  80
ATOM     80  C   UNL A   1      38.530  29.328  29.045  1.00  0.00    -0.014 A 
ATOM     81  C   UNL A   1      37.665  29.272  30.149  1.00  0.00     0.009 A 
ATOM     82  C   UNL A   1      38.035  29.811  27.823  1.00  0.00     0.009 A 
ATOM     83  C   UNL A   1      36.328  29.661  30.024  1.00  0.00     0.001 A 
ATOM     84  C   UNL A   1      36.706  30.229  27.709  1.00  0.00     0.001 A 
ATOM     85  C   UNL A   1      35.851  30.143  28.807  1.00  0.00     0.000 A 
ENDBRANCH  61  80
BRANCH  73  86
ATOM     86  C   UNL A   1      44.429  32.469  31.024  1.00  0.00    -0.014 A 
ATOM     87  C   UNL A   1      44.419  32.805  32.386  1.00  0.00     0.009 A 
ATOM     88  C   UNL A   1      44.790  33.446  30.081  1.00  0.00     0.009 A 
ATOM     89  C   UNL A   1      44.735  34.102  32.791  1.00  0.00     0.001 A 
ATOM     90  C   UNL A   1      45.139  34.730  30.493  1.00  0.00     0.001 A 
ATOM     91  C   UNL A   1      45.103  35.060  31.846  1.00  0.00     0.000 A 
ENDBRANCH  73  86
ENDBRANCH  47  48
ENDBRANCH  39  42
ENDBRANCH  37  38
ENDBRANCH  36  37
ENDBRANCH  35  36
ENDBRANCH   1  35
TORSDOF 17
ENDMDL
MODEL 2
REMARK VINA RESULT:     -13.7      0.364      5.604
REMARK SMILES CC(C)[C@H](NC(=O)[C@H](Cc1ccccc1)n1c(=O)[nH]c2ccccc2c1=O)C(=O)NCCCCNC(=O)c1ccc(-c2c3nc(c(-c4ccccc4)c4ccc([nH]4)c(-c4ccccc4)c4nc(c(-c5ccccc5)c5ccc2[nH]5)C=C4)C=C3)cc1
REMARK SMILES IDX 31 1 30 2 28 3 29 4 4 6 2 7 1 8 3 9 5 10 6 11 7 13 8 14
REMARK SMILES IDX 16 15 17 16 26 17 18 18 19 19 25 20 27 21 20 22 24 24 21 25
REMARK SMILES IDX 23 26 22 27 9 28 10 29 11 30 15 31 12 32 14 33 13 34 32 35
REMARK SMILES IDX 33 36 34 37 35 38 36 39 37 41 38 42 39 43 85 44 40 45 84 46
REMARK SMILES IDX 41 47 42 48 43 49 78 50 44 51 83 52 77 53 79 54 45 55 82 56
REMARK SMILES IDX 76 57 75 58 46 60 68 61 53 62 67 63 54 64 57 65 66 66 80 67
REMARK SMILES IDX 55 68 56 69 65 71 81 72 58 73 47 74 48 75 52 76 49 77 51 78
REMARK SMILES IDX 50 79 69 80 70 81 74 82 71 83 73 84 72 85 59 86 60 87 64 88
REMARK SMILES IDX 61 89 63 90 62 91
REMARK H PARENT 30 5 5 12 19 23 35 40 79 59 57 70
REMARK Flexibility Score: inf
ROOT
ATOM      1  C   UNL A   1      34.667  22.714  27.181  1.00  0.00     0.116 C 
ENDROOT
BRANCH   1   2
ATOM      2  N   UNL A   1      33.207  23.297  26.973  1.00  0.00    -0.354 N 
ATOM      3  C   UNL A   1      32.746  24.449  26.453  1.00  0.00     0.242 C 
ATOM      4  O   UNL A   1      31.517  24.553  26.336  1.00  0.00    -0.273 OA
ATOM      5  H   UNL A   1      32.495  22.695  27.288  1.00  0.00     0.163 HD
BRANCH   3   6
ATOM      6  C   UNL A   1      33.673  25.453  25.763  1.00  0.00     0.173 C 
BRANCH   6   7
ATOM      7  C   UNL A   1      32.864  26.805  25.622  1.00  0.00     0.015 C 
ATOM      8  C   UNL A   1      32.144  27.300  26.882  1.00  0.00     0.010 C 
ATOM      9  C   UNL A   1      33.683  27.989  25.056  1.00  0.00     0.010 C 
ENDBRANCH   6   7
BRANCH   6  10
ATOM     10  N   UNL A   1      34.376  25.041  24.537  1.00  0.00    -0.342 N 
ATOM     11  C   UNL A   1      34.030  24.264  23.470  1.00  0.00     0.244 C 
ATOM     12  H   UNL A   1      35.290  25.403  24.474  1.00  0.00     0.164 HD
ATOM     13  O   UNL A   1      34.971  23.920  22.741  1.00  0.00    -0.273 OA
BRANCH  11  14
ATOM     14  C   UNL A   1      32.585  23.926  23.048  1.00  0.00     0.189 C 
BRANCH  14  15
ATOM     15  N   UNL A   1      31.972  25.202  22.583  1.00  0.00    -0.247 N 
ATOM     16  C   UNL A   1      32.550  25.988  21.622  1.00  0.00     0.329 A 
ATOM     17  C   UNL A   1      30.746  25.594  23.135  1.00  0.00     0.264 A 
ATOM     18  O   UNL A   1      33.145  25.555  20.642  1.00  0.00    -0.248 OA
ATOM     19  N   UNL A   1      32.416  27.342  21.808  1.00  0.00    -0.307 N 
ATOM     20  C   UNL A   1      30.352  27.016  22.953  1.00  0.00     0.064 A 
ATOM     21  O   UNL A   1      30.002  24.853  23.771  1.00  0.00    -0.268 OA
ATOM     22  C   UNL A   1      31.317  27.889  22.463  1.00  0.00     0.055 A 
ATOM     23  H   UNL A   1      33.117  27.945  21.467  1.00  0.00     0.171 HD
ATOM     24  C   UNL A   1      29.078  27.501  23.258  1.00  0.00     0.016 A 
ATOM     25  C   UNL A   1      31.098  29.266  22.448  1.00  0.00     0.027 A 
ATOM     26  C   UNL A   1      28.808  28.867  23.117  1.00  0.00     0.001 A 
ATOM     27  C   UNL A   1      29.829  29.753  22.763  1.00  0.00     0.002 A 
ENDBRANCH  14  15
BRANCH  14  28
ATOM     28  C   UNL A   1      32.446  22.563  22.257  1.00  0.00     0.071 C 
BRANCH  28  29
ATOM     29  C   UNL A   1      32.310  21.211  22.974  1.00  0.00    -0.045 A 
ATOM     30  C   UNL A   1      32.601  21.031  24.749  1.00  0.00     0.004 A 
ATOM     31  C   UNL A   1      32.106  19.725  21.951  1.00  0.00     0.004 A 
ATOM     32  C   UNL A   1      32.822  19.400  25.476  1.00  0.00     0.000 A 
ATOM     33  C   UNL A   1      32.367  18.083  22.690  1.00  0.00     0.000 A 
ATOM     34  C   UNL A   1      32.687  17.918  24.462  1.00  0.00     0.000 A 
ENDBRANCH  28  29
ENDBRANCH  14  28
ENDBRANCH  11  14
ENDBRANCH   6  10
ENDBRANCH   3   6
ENDBRANCH   1   2
BRANCH   1  35
ATOM     35  C   UNL A   1      36.109  21.885  25.763  1.00  0.00     0.023 C 
BRANCH  35  36
ATOM     36  C   UNL A   1      37.724  22.171  25.291  1.00  0.00     0.023 C 
BRANCH  36  37
ATOM     37  C   UNL A   1      38.926  21.751  26.123  1.00  0.00     0.116 C 
BRANCH  37  38
ATOM     38  N   UNL A   1      39.525  20.464  25.782  1.00  0.00    -0.352 N 
ATOM     39  C   UNL A   1      40.790  20.033  26.100  1.00  0.00     0.251 C 
ATOM     40  H   UNL A   1      38.962  19.839  25.270  1.00  0.00     0.163 HD
ATOM     41  O   UNL A   1      41.186  18.898  25.880  1.00  0.00    -0.269 OA
BRANCH  39  42
ATOM     42  C   UNL A   1      41.679  21.069  26.637  1.00  0.00     0.039 A 
ATOM     43  C   UNL A   1      42.193  21.988  25.719  1.00  0.00     0.014 A 
ATOM     44  C   UNL A   1      41.640  21.327  28.007  1.00  0.00     0.014 A 
ATOM     45  C   UNL A   1      42.613  23.226  26.181  1.00  0.00     0.010 A 
ATOM     46  C   UNL A   1      41.943  22.605  28.440  1.00  0.00     0.010 A 
ATOM     47  C   UNL A   1      42.446  23.557  27.535  1.00  0.00    -0.014 A 
BRANCH  47  48
ATOM     48  C   UNL A   1      42.867  24.879  28.040  1.00  0.00     0.031 A 
ATOM     49  C   UNL A   1      41.811  25.920  28.264  1.00  0.00     0.074 A 
ATOM     50  C   UNL A   1      44.168  25.138  28.276  1.00  0.00     0.049 A 
ATOM     51  N   UNL A   1      41.940  27.151  28.680  1.00  0.00    -0.248 NA
ATOM     52  C   UNL A   1      40.424  25.538  27.941  1.00  0.00     0.031 C 
ATOM     53  C   UNL A   1      45.278  24.205  28.061  1.00  0.00     0.029 A 
ATOM     54  N   UNL A   1      44.774  26.265  28.766  1.00  0.00    -0.354 N 
ATOM     55  C   UNL A   1      40.660  27.684  28.649  1.00  0.00     0.074 A 
ATOM     56  C   UNL A   1      39.786  26.684  28.086  1.00  0.00     0.031 C 
ATOM     57  C   UNL A   1      46.422  24.782  28.470  1.00  0.00     0.029 A 
ATOM     58  C   UNL A   1      46.132  26.135  28.932  1.00  0.00     0.049 A 
ATOM     59  H   UNL A   1      44.281  27.092  28.979  1.00  0.00     0.167 HD
ATOM     60  C   UNL A   1      40.238  28.889  29.090  1.00  0.00     0.031 A 
ATOM     61  C   UNL A   1      47.032  27.013  29.413  1.00  0.00     0.031 A 
ATOM     62  C   UNL A   1      41.113  29.869  29.665  1.00  0.00     0.049 A 
ATOM     63  C   UNL A   1      46.544  28.366  29.863  1.00  0.00     0.074 A 
ATOM     64  C   UNL A   1      40.798  31.109  30.184  1.00  0.00     0.029 A 
ATOM     65  N   UNL A   1      42.485  29.708  29.796  1.00  0.00    -0.354 N 
ATOM     66  N   UNL A   1      45.320  28.837  29.889  1.00  0.00    -0.248 NA
ATOM     67  C   UNL A   1      47.562  29.304  30.355  1.00  0.00     0.031 C 
ATOM     68  C   UNL A   1      41.990  31.726  30.573  1.00  0.00     0.029 A 
ATOM     69  C   UNL A   1      43.037  30.841  30.361  1.00  0.00     0.049 A 
ATOM     70  H   UNL A   1      42.990  28.906  29.526  1.00  0.00     0.167 HD
ATOM     71  C   UNL A   1      45.415  30.114  30.426  1.00  0.00     0.074 A 
ATOM     72  C   UNL A   1      46.816  30.334  30.728  1.00  0.00     0.031 C 
ATOM     73  C   UNL A   1      44.437  31.025  30.651  1.00  0.00     0.031 A 
BRANCH  60  74
ATOM     74  C   UNL A   1      38.772  29.193  28.952  1.00  0.00    -0.014 A 
ATOM     75  C   UNL A   1      38.242  29.703  27.754  1.00  0.00     0.009 A 
ATOM     76  C   UNL A   1      37.913  28.990  30.041  1.00  0.00     0.009 A 
ATOM     77  C   UNL A   1      36.893  30.051  27.668  1.00  0.00     0.001 A 
ATOM     78  C   UNL A   1      36.556  29.303  29.940  1.00  0.00     0.001 A 
ATOM     79  C   UNL A   1      36.051  29.846  28.758  1.00  0.00     0.000 A 
ENDBRANCH  60  74
BRANCH  61  80
ATOM     80  C   UNL A   1      48.469  26.642  29.518  1.00  0.00    -0.014 A 
ATOM     81  C   UNL A   1      48.956  25.987  30.660  1.00  0.00     0.009 A 
ATOM     82  C   UNL A   1      49.367  26.952  28.484  1.00  0.00     0.009 A 
ATOM     83  C   UNL A   1      50.314  25.676  30.776  1.00  0.00     0.001 A 
ATOM     84  C   UNL A   1      50.718  26.612  28.589  1.00  0.00     0.001 A 
ATOM     85  C   UNL A   1      51.193  25.984  29.740  1.00  0.00     0.000 A 
ENDBRANCH  61  80
BRANCH  73  86
ATOM     86  C   UNL A   1      44.841  32.327  31.282  1.00  0.00    -0.014 A 
ATOM     87  C   UNL A   1      45.136  33.455  30.501  1.00  0.00     0.009 A 
ATOM     88  C   UNL A   1      44.860  32.440  32.681  1.00  0.00     0.009 A 
ATOM     89  C   UNL A   1      45.470  34.663  31.112  1.00  0.00     0.001 A 
ATOM     90  C   UNL A   1      45.160  33.658  33.287  1.00  0.00     0.001 A 
ATOM     91  C   UNL A   1      45.473  34.766  32.504  1.00  0.00     0.000 A 
ENDBRANCH  73  86
ENDBRANCH  47  48
ENDBRANCH  39  42
ENDBRANCH  37  38
ENDBRANCH  36  37
ENDBRANCH  35  36
ENDBRANCH   1  35
TORSDOF 17
ENDMDL
MODEL 3
REMARK VINA RESULT:     -12.7      2.198      4.194
REMARK SMILES CC(C)[C@H](NC(=O)[C@H](Cc1ccccc1)n1c(=O)[nH]c2ccccc2c1=O)C(=O)NCCCCNC(=O)c1ccc(-c2c3nc(c(-c4ccccc4)c4ccc([nH]4)c(-c4ccccc4)c4nc(c(-c5ccccc5)c5ccc2[nH]5)C=C4)C=C3)cc1
REMARK SMILES IDX 31 1 30 2 28 3 29 4 4 6 2 7 1 8 3 9 5 10 6 11 7 13 8 14
REMARK SMILES IDX 16 15 17 16 26 17 18 18 19 19 25 20 27 21 20 22 24 24 21 25
REMARK SMILES IDX 23 26 22 27 9 28 10 29 11 30 15 31 12 32 14 33 13 34 32 35
REMARK SMILES IDX 33 36 34 37 35 38 36 39 37 41 38 42 39 43 85 44 40 45 84 46
REMARK SMILES IDX 41 47 42 48 43 49 78 50 44 51 83 52 77 53 79 54 45 55 82 56
REMARK SMILES IDX 76 57 75 58 46 60 68 61 53 62 67 63 54 64 57 65 66 66 80 67
REMARK SMILES IDX 55 68 56 69 65 71 81 72 58 73 47 74 48 75 52 76 49 77 51 78
REMARK SMILES IDX 50 79 69 80 70 81 74 82 71 83 73 84 72 85 59 86 60 87 64 88
REMARK SMILES IDX 61 89 63 90 62 91
REMARK H PARENT 30 5 5 12 19 23 35 40 79 59 57 70
REMARK Flexibility Score: inf
ROOT
ATOM      1  C   UNL A   1      37.939  22.625  25.672  1.00  0.00     0.116 C 
ENDROOT
BRANCH   1   2
ATOM      2  N   UNL A   1      37.395  22.759  24.188  1.00  0.00    -0.354 N 
ATOM      3  C   UNL A   1      36.156  22.763  23.664  1.00  0.00     0.242 C 
ATOM      4  O   UNL A   1      36.066  23.000  22.451  1.00  0.00    -0.273 OA
ATOM      5  H   UNL A   1      38.106  22.858  23.516  1.00  0.00     0.163 HD
BRANCH   3   6
ATOM      6  C   UNL A   1      34.904  22.782  24.545  1.00  0.00     0.173 C 
BRANCH   6   7
ATOM      7  C   UNL A   1      35.034  21.571  25.555  1.00  0.00     0.015 C 
ATOM      8  C   UNL A   1      34.362  21.751  26.922  1.00  0.00     0.010 C 
ATOM      9  C   UNL A   1      34.577  20.207  24.986  1.00  0.00     0.010 C 
ENDBRANCH   6   7
BRANCH   6  10
ATOM     10  N   UNL A   1      33.585  22.891  23.901  1.00  0.00    -0.342 N 
ATOM     11  C   UNL A   1      32.605  23.840  23.919  1.00  0.00     0.244 C 
ATOM     12  H   UNL A   1      33.364  22.114  23.336  1.00  0.00     0.164 HD
ATOM     13  O   UNL A   1      31.512  23.477  23.461  1.00  0.00    -0.273 OA
BRANCH  11  14
ATOM     14  C   UNL A   1      32.804  25.316  24.319  1.00  0.00     0.189 C 
BRANCH  14  15
ATOM     15  N   UNL A   1      31.856  26.110  23.489  1.00  0.00    -0.247 N 
ATOM     16  C   UNL A   1      32.211  26.654  22.284  1.00  0.00     0.329 A 
ATOM     17  C   UNL A   1      30.545  26.283  23.953  1.00  0.00     0.264 A 
ATOM     18  O   UNL A   1      32.952  26.110  21.473  1.00  0.00    -0.248 OA
ATOM     19  N   UNL A   1      31.666  27.885  22.008  1.00  0.00    -0.307 N 
ATOM     20  C   UNL A   1      29.749  27.370  23.325  1.00  0.00     0.064 A 
ATOM     21  O   UNL A   1      30.032  25.618  24.849  1.00  0.00    -0.268 OA
ATOM     22  C   UNL A   1      30.426  28.268  22.508  1.00  0.00     0.055 A 
ATOM     23  H   UNL A   1      32.167  28.514  21.439  1.00  0.00     0.171 HD
ATOM     24  C   UNL A   1      28.376  27.527  23.529  1.00  0.00     0.016 A 
ATOM     25  C   UNL A   1      29.802  29.424  22.040  1.00  0.00     0.027 A 
ATOM     26  C   UNL A   1      27.713  28.615  22.950  1.00  0.00     0.001 A 
ATOM     27  C   UNL A   1      28.433  29.588  22.252  1.00  0.00     0.002 A 
ENDBRANCH  14  15
BRANCH  14  28
ATOM     28  C   UNL A   1      32.990  25.543  25.874  1.00  0.00     0.071 C 
BRANCH  28  29
ATOM     29  C   UNL A   1      33.054  26.948  26.494  1.00  0.00    -0.045 A 
ATOM     30  C   UNL A   1      31.563  27.877  26.925  1.00  0.00     0.004 A 
ATOM     31  C   UNL A   1      34.665  27.781  26.544  1.00  0.00     0.004 A 
ATOM     32  C   UNL A   1      31.656  29.640  27.270  1.00  0.00     0.000 A 
ATOM     33  C   UNL A   1      34.742  29.572  26.858  1.00  0.00     0.000 A 
ATOM     34  C   UNL A   1      33.241  30.495  27.259  1.00  0.00     0.000 A 
ENDBRANCH  28  29
ENDBRANCH  14  28
ENDBRANCH  11  14
ENDBRANCH   6  10
ENDBRANCH   3   6
ENDBRANCH   1   2
BRANCH   1  35
ATOM     35  C   UNL A   1      39.770  21.736  26.467  1.00  0.00     0.023 C 
BRANCH  35  36
ATOM     36  C   UNL A   1      41.431  21.708  26.080  1.00  0.00     0.023 C 
BRANCH  36  37
ATOM     37  C   UNL A   1      42.352  20.548  26.429  1.00  0.00     0.116 C 
BRANCH  37  38
ATOM     38  N   UNL A   1      42.895  19.798  25.300  1.00  0.00    -0.352 N 
ATOM     39  C   UNL A   1      44.044  20.076  24.600  1.00  0.00     0.251 C 
ATOM     40  H   UNL A   1      42.382  19.008  25.010  1.00  0.00     0.163 HD
ATOM     41  O   UNL A   1      44.498  19.339  23.738  1.00  0.00    -0.269 OA
BRANCH  39  42
ATOM     42  C   UNL A   1      44.641  21.384  24.890  1.00  0.00     0.039 A 
ATOM     43  C   UNL A   1      44.201  22.457  24.113  1.00  0.00     0.014 A 
ATOM     44  C   UNL A   1      45.270  21.564  26.121  1.00  0.00     0.014 A 
ATOM     45  C   UNL A   1      44.331  23.743  24.618  1.00  0.00     0.010 A 
ATOM     46  C   UNL A   1      45.282  22.834  26.669  1.00  0.00     0.010 A 
ATOM     47  C   UNL A   1      44.828  23.932  25.917  1.00  0.00    -0.014 A 
BRANCH  47  48
ATOM     48  C   UNL A   1      44.952  25.292  26.480  1.00  0.00     0.031 A 
ATOM     49  C   UNL A   1      46.302  25.945  26.457  1.00  0.00     0.074 A 
ATOM     50  C   UNL A   1      43.881  25.913  27.009  1.00  0.00     0.049 A 
ATOM     51  N   UNL A   1      46.659  27.118  26.906  1.00  0.00    -0.248 NA
ATOM     52  C   UNL A   1      47.410  25.159  25.883  1.00  0.00     0.031 C 
ATOM     53  C   UNL A   1      42.530  25.353  27.109  1.00  0.00     0.029 A 
ATOM     54  N   UNL A   1      43.761  27.166  27.551  1.00  0.00    -0.354 N 
ATOM     55  C   UNL A   1      48.027  27.194  26.685  1.00  0.00     0.074 A 
ATOM     56  C   UNL A   1      48.453  25.923  26.152  1.00  0.00     0.031 C 
ATOM     57  C   UNL A   1      41.708  26.282  27.628  1.00  0.00     0.029 A 
ATOM     58  C   UNL A   1      42.479  27.481  27.936  1.00  0.00     0.049 A 
ATOM     59  H   UNL A   1      44.522  27.784  27.655  1.00  0.00     0.167 HD
ATOM     60  C   UNL A   1      48.853  28.247  26.869  1.00  0.00     0.031 A 
ATOM     61  C   UNL A   1      41.991  28.617  28.469  1.00  0.00     0.031 A 
ATOM     62  C   UNL A   1      48.415  29.513  27.381  1.00  0.00     0.049 A 
ATOM     63  C   UNL A   1      42.939  29.765  28.702  1.00  0.00     0.074 A 
ATOM     64  C   UNL A   1      49.149  30.666  27.576  1.00  0.00     0.029 A 
ATOM     65  N   UNL A   1      47.114  29.784  27.781  1.00  0.00    -0.354 N 
ATOM     66  N   UNL A   1      44.219  29.848  28.428  1.00  0.00    -0.248 NA
ATOM     67  C   UNL A   1      42.372  30.976  29.310  1.00  0.00     0.031 C 
ATOM     68  C   UNL A   1      48.305  31.620  28.151  1.00  0.00     0.029 A 
ATOM     69  C   UNL A   1      47.030  31.081  28.250  1.00  0.00     0.049 A 
ATOM     70  H   UNL A   1      46.364  29.148  27.736  1.00  0.00     0.167 HD
ATOM     71  C   UNL A   1      44.605  31.129  28.804  1.00  0.00     0.074 A 
ATOM     72  C   UNL A   1      43.418  31.790  29.307  1.00  0.00     0.031 C 
ATOM     73  C   UNL A   1      45.829  31.708  28.740  1.00  0.00     0.031 A 
BRANCH  60  74
ATOM     74  C   UNL A   1      50.301  28.050  26.515  1.00  0.00    -0.014 A 
ATOM     75  C   UNL A   1      51.210  27.504  27.439  1.00  0.00     0.009 A 
ATOM     76  C   UNL A   1      50.768  28.437  25.252  1.00  0.00     0.009 A 
ATOM     77  C   UNL A   1      52.565  27.399  27.120  1.00  0.00     0.001 A 
ATOM     78  C   UNL A   1      52.117  28.295  24.923  1.00  0.00     0.001 A 
ATOM     79  C   UNL A   1      53.016  27.789  25.862  1.00  0.00     0.000 A 
ENDBRANCH  60  74
BRANCH  61  80
ATOM     80  C   UNL A   1      40.544  28.739  28.796  1.00  0.00    -0.014 A 
ATOM     81  C   UNL A   1      40.063  28.355  30.058  1.00  0.00     0.009 A 
ATOM     82  C   UNL A   1      39.634  29.227  27.847  1.00  0.00     0.009 A 
ATOM     83  C   UNL A   1      38.698  28.431  30.350  1.00  0.00     0.001 A 
ATOM     84  C   UNL A   1      38.274  29.332  28.152  1.00  0.00     0.001 A 
ATOM     85  C   UNL A   1      37.805  28.923  29.400  1.00  0.00     0.000 A 
ENDBRANCH  61  80
BRANCH  73  86
ATOM     86  C   UNL A   1      45.938  33.136  29.194  1.00  0.00    -0.014 A 
ATOM     87  C   UNL A   1      45.715  34.201  28.309  1.00  0.00     0.009 A 
ATOM     88  C   UNL A   1      46.199  33.413  30.546  1.00  0.00     0.009 A 
ATOM     89  C   UNL A   1      45.782  35.518  28.764  1.00  0.00     0.001 A 
ATOM     90  C   UNL A   1      46.230  34.729  31.004  1.00  0.00     0.001 A 
ATOM     91  C   UNL A   1      46.031  35.780  30.112  1.00  0.00     0.000 A 
ENDBRANCH  73  86
ENDBRANCH  47  48
ENDBRANCH  39  42
ENDBRANCH  37  38
ENDBRANCH  36  37
ENDBRANCH  35  36
ENDBRANCH   1  35
TORSDOF 17
ENDMDL
