MODEL 1
REMARK VINA RESULT:     -11.8      0.000      0.000
REMARK SMILES O=C(NCCCCNC(=O)[C@@H]1CC[C@@H](CN2C(=O)CC3(CCCC3)CC2=O)O1)c1ccc(-c2c3nc(c(-c4ccccc4)c4ccc([nH]4)c(-c4ccccc4)c4nc(c(-c5ccccc5)c5ccc2[nH]5)C=C4)C=C3)cc1
REMARK SMILES IDX 5 1 4 2 3 3 1 4 2 5 29 7 30 8 76 9 31 10 75 11 32 12 33 13
REMARK SMILES IDX 34 14 69 15 35 16 74 17 68 18 70 19 36 20 73 21 67 22 66 23
REMARK SMILES IDX 37 25 59 26 44 27 58 28 45 29 48 30 57 31 71 32 46 33 47 34
REMARK SMILES IDX 56 36 72 37 49 38 38 39 39 40 43 41 40 42 42 43 41 44 60 45
REMARK SMILES IDX 61 46 65 47 62 48 64 49 63 50 50 51 51 52 55 53 52 54 54 55
REMARK SMILES IDX 53 56 6 57 7 58 8 59 9 60 10 62 11 63 12 64 28 65 13 66
REMARK SMILES IDX 14 67 15 68 16 69 17 70 26 71 18 72 19 73 25 74 27 75 20 76
REMARK SMILES IDX 21 77 24 78 22 79 23 80
REMARK H PARENT 3 6 70 24 48 35 8 61
REMARK Flexibility Score: inf
ROOT
ATOM      1  C   UNL A   1      34.035  28.429  25.696  1.00  0.00     0.023 C 
ENDROOT
BRANCH   1   2
ATOM      2  C   UNL A   1      33.678  28.597  27.167  1.00  0.00     0.116 C 
BRANCH   2   3
ATOM      3  N   UNL A   1      33.624  29.986  27.596  1.00  0.00    -0.352 N 
ATOM      4  O   UNL A   1      34.359  31.863  28.622  1.00  0.00    -0.269 OA
ATOM      5  C   UNL A   1      34.604  30.730  28.214  1.00  0.00     0.251 C 
ATOM      6  H   UNL A   1      32.775  30.455  27.422  1.00  0.00     0.163 HD
BRANCH   5   7
ATOM      7  C   UNL A   1      35.948  30.145  28.419  1.00  0.00     0.039 A 
ATOM      8  C   UNL A   1      36.283  29.550  29.636  1.00  0.00     0.014 A 
ATOM      9  C   UNL A   1      36.891  30.207  27.388  1.00  0.00     0.014 A 
ATOM     10  C   UNL A   1      37.595  29.162  29.875  1.00  0.00     0.010 A 
ATOM     11  C   UNL A   1      38.191  29.732  27.600  1.00  0.00     0.010 A 
ATOM     12  C   UNL A   1      38.565  29.238  28.859  1.00  0.00    -0.014 A 
BRANCH  12  13
ATOM     13  C   UNL A   1      39.933  28.734  29.143  1.00  0.00     0.031 A 
ATOM     14  C   UNL A   1      40.375  27.363  28.711  1.00  0.00     0.074 A 
ATOM     15  C   UNL A   1      40.810  29.569  29.734  1.00  0.00     0.049 A 
ATOM     16  N   UNL A   1      41.568  26.826  28.786  1.00  0.00    -0.248 NA
ATOM     17  C   UNL A   1      39.357  26.479  28.123  1.00  0.00     0.031 C 
ATOM     18  C   UNL A   1      40.494  30.917  30.217  1.00  0.00     0.029 A 
ATOM     19  N   UNL A   1      42.149  29.430  29.991  1.00  0.00    -0.354 N 
ATOM     20  C   UNL A   1      41.443  25.543  28.269  1.00  0.00     0.074 A 
ATOM     21  C   UNL A   1      40.052  25.371  27.906  1.00  0.00     0.031 C 
ATOM     22  C   UNL A   1      41.621  31.506  30.642  1.00  0.00     0.029 A 
ATOM     23  C   UNL A   1      42.724  30.561  30.518  1.00  0.00     0.049 A 
ATOM     24  H   UNL A   1      42.650  28.600  29.814  1.00  0.00     0.167 HD
ATOM     25  C   UNL A   1      42.401  24.598  28.104  1.00  0.00     0.031 A 
ATOM     26  C   UNL A   1      43.998  30.815  30.864  1.00  0.00     0.031 A 
ATOM     27  C   UNL A   1      43.784  24.766  28.468  1.00  0.00     0.049 A 
ATOM     28  C   UNL A   1      45.036  29.752  30.667  1.00  0.00     0.074 A 
ATOM     29  C   UNL A   1      44.829  23.865  28.334  1.00  0.00     0.029 A 
ATOM     30  N   UNL A   1      44.319  25.913  29.033  1.00  0.00    -0.354 N 
ATOM     31  N   UNL A   1      44.899  28.552  30.157  1.00  0.00    -0.248 NA
ATOM     32  C   UNL A   1      46.403  30.080  31.092  1.00  0.00     0.031 C 
ATOM     33  C   UNL A   1      45.987  24.453  28.854  1.00  0.00     0.029 A 
ATOM     34  C   UNL A   1      45.674  25.738  29.267  1.00  0.00     0.049 A 
ATOM     35  H   UNL A   1      43.811  26.731  29.238  1.00  0.00     0.167 HD
ATOM     36  C   UNL A   1      46.162  27.980  30.202  1.00  0.00     0.074 A 
ATOM     37  C   UNL A   1      47.057  28.979  30.751  1.00  0.00     0.031 C 
ATOM     38  C   UNL A   1      46.544  26.734  29.832  1.00  0.00     0.031 A 
BRANCH  25  39
ATOM     39  C   UNL A   1      41.984  23.279  27.515  1.00  0.00    -0.014 A 
ATOM     40  C   UNL A   1      42.207  22.987  26.160  1.00  0.00     0.009 A 
ATOM     41  C   UNL A   1      41.418  22.291  28.337  1.00  0.00     0.009 A 
ATOM     42  C   UNL A   1      41.851  21.742  25.636  1.00  0.00     0.001 A 
ATOM     43  C   UNL A   1      41.086  21.039  27.816  1.00  0.00     0.001 A 
ATOM     44  C   UNL A   1      41.296  20.768  26.465  1.00  0.00     0.000 A 
ENDBRANCH  25  39
BRANCH  26  45
ATOM     45  C   UNL A   1      44.354  32.136  31.445  1.00  0.00    -0.014 A 
ATOM     46  C   UNL A   1      44.747  33.201  30.621  1.00  0.00     0.009 A 
ATOM     47  C   UNL A   1      44.288  32.336  32.832  1.00  0.00     0.009 A 
ATOM     48  C   UNL A   1      45.086  34.435  31.180  1.00  0.00     0.001 A 
ATOM     49  C   UNL A   1      44.598  33.579  33.385  1.00  0.00     0.001 A 
ATOM     50  C   UNL A   1      45.005  34.625  32.559  1.00  0.00     0.000 A 
ENDBRANCH  26  45
BRANCH  38  51
ATOM     51  C   UNL A   1      47.996  26.395  30.013  1.00  0.00    -0.014 A 
ATOM     52  C   UNL A   1      48.925  26.624  28.986  1.00  0.00     0.009 A 
ATOM     53  C   UNL A   1      48.440  25.843  31.224  1.00  0.00     0.009 A 
ATOM     54  C   UNL A   1      50.263  26.264  29.152  1.00  0.00     0.001 A 
ATOM     55  C   UNL A   1      49.783  25.508  31.396  1.00  0.00     0.001 A 
ATOM     56  C   UNL A   1      50.691  25.708  30.358  1.00  0.00     0.000 A 
ENDBRANCH  38  51
ENDBRANCH  12  13
ENDBRANCH   5   7
ENDBRANCH   2   3
ENDBRANCH   1   2
BRANCH   1  57
ATOM     57  C   UNL A   1      33.179  29.239  24.718  1.00  0.00     0.023 C 
BRANCH  57  58
ATOM     58  C   UNL A   1      33.085  28.649  23.308  1.00  0.00     0.116 C 
BRANCH  58  59
ATOM     59  N   UNL A   1      31.948  29.181  22.578  1.00  0.00    -0.354 N 
ATOM     60  C   UNL A   1      30.709  28.620  22.398  1.00  0.00     0.249 C 
ATOM     61  H   UNL A   1      32.084  30.060  22.156  1.00  0.00     0.163 HD
ATOM     62  O   UNL A   1      29.900  29.197  21.672  1.00  0.00    -0.272 OA
BRANCH  60  63
ATOM     63  C   UNL A   1      30.405  27.294  23.103  1.00  0.00     0.207 C 
ATOM     64  C   UNL A   1      30.253  27.382  24.611  1.00  0.00     0.045 C 
ATOM     65  O   UNL A   1      31.473  26.362  22.869  1.00  0.00    -0.363 OA
ATOM     66  C   UNL A   1      30.623  25.980  25.041  1.00  0.00     0.037 C 
ATOM     67  C   UNL A   1      31.763  25.646  24.085  1.00  0.00     0.139 C 
BRANCH  67  68
ATOM     68  C   UNL A   1      31.972  24.145  23.777  1.00  0.00     0.160 C 
BRANCH  68  69
ATOM     69  N   UNL A   1      33.332  23.730  24.135  1.00  0.00    -0.280 N 
ATOM     70  C   UNL A   1      34.263  23.557  23.127  1.00  0.00     0.229 C 
ATOM     71  C   UNL A   1      33.580  23.424  25.464  1.00  0.00     0.229 C 
ATOM     72  O   UNL A   1      33.963  23.523  21.933  1.00  0.00    -0.274 OA
ATOM     73  C   UNL A   1      35.721  23.525  23.533  1.00  0.00     0.108 C 
ATOM     74  C   UNL A   1      34.983  23.731  25.911  1.00  0.00     0.108 C 
ATOM     75  O   UNL A   1      32.742  23.001  26.255  1.00  0.00    -0.274 OA
ATOM     76  C   UNL A   1      36.024  23.126  24.981  1.00  0.00    -0.012 C 
ATOM     77  C   UNL A   1      37.437  23.640  25.369  1.00  0.00     0.008 C 
ATOM     78  C   UNL A   1      36.100  21.591  25.154  1.00  0.00     0.008 C 
ATOM     79  C   UNL A   1      38.191  22.436  25.910  1.00  0.00     0.001 C 
ATOM     80  C   UNL A   1      37.588  21.270  25.152  1.00  0.00     0.001 C 
ENDBRANCH  68  69
ENDBRANCH  67  68
ENDBRANCH  60  63
ENDBRANCH  58  59
ENDBRANCH  57  58
ENDBRANCH   1  57
TORSDOF 13
ENDMDL
MODEL 2
REMARK VINA RESULT:     -11.5      0.785      5.913
REMARK SMILES O=C(NCCCCNC(=O)[C@@H]1CC[C@@H](CN2C(=O)CC3(CCCC3)CC2=O)O1)c1ccc(-c2c3nc(c(-c4ccccc4)c4ccc([nH]4)c(-c4ccccc4)c4nc(c(-c5ccccc5)c5ccc2[nH]5)C=C4)C=C3)cc1
REMARK SMILES IDX 5 1 4 2 3 3 1 4 2 5 29 7 30 8 76 9 31 10 75 11 32 12 33 13
REMARK SMILES IDX 34 14 69 15 35 16 74 17 68 18 70 19 36 20 73 21 67 22 66 23
REMARK SMILES IDX 37 25 59 26 44 27 58 28 45 29 48 30 57 31 71 32 46 33 47 34
REMARK SMILES IDX 56 36 72 37 49 38 38 39 39 40 43 41 40 42 42 43 41 44 60 45
REMARK SMILES IDX 61 46 65 47 62 48 64 49 63 50 50 51 51 52 55 53 52 54 54 55
REMARK SMILES IDX 53 56 6 57 7 58 8 59 9 60 10 62 11 63 12 64 28 65 13 66
REMARK SMILES IDX 14 67 15 68 16 69 17 70 26 71 18 72 19 73 25 74 27 75 20 76
REMARK SMILES IDX 21 77 24 78 22 79 23 80
REMARK H PARENT 3 6 70 24 48 35 8 61
REMARK Flexibility Score: inf
ROOT
ATOM      1  C   UNL A   1      33.702  28.077  25.780  1.00  0.00     0.023 C 
ENDROOT
BRANCH   1   2
ATOM      2  C   UNL A   1      33.425  28.399  27.243  1.00  0.00     0.116 C 
BRANCH   2   3
ATOM      3  N   UNL A   1      33.309  29.824  27.511  1.00  0.00    -0.352 N 
ATOM      4  O   UNL A   1      33.969  31.841  28.295  1.00  0.00    -0.269 OA
ATOM      5  C   UNL A   1      34.263  30.681  28.014  1.00  0.00     0.251 C 
ATOM      6  H   UNL A   1      32.435  30.229  27.306  1.00  0.00     0.163 HD
BRANCH   5   7
ATOM      7  C   UNL A   1      35.638  30.189  28.251  1.00  0.00     0.039 A 
ATOM      8  C   UNL A   1      35.997  29.658  29.490  1.00  0.00     0.014 A 
ATOM      9  C   UNL A   1      36.586  30.274  27.226  1.00  0.00     0.014 A 
ATOM     10  C   UNL A   1      37.328  29.361  29.754  1.00  0.00     0.010 A 
ATOM     11  C   UNL A   1      37.911  29.889  27.466  1.00  0.00     0.010 A 
ATOM     12  C   UNL A   1      38.301  29.463  28.744  1.00  0.00    -0.014 A 
BRANCH  12  13
ATOM     13  C   UNL A   1      39.695  29.055  29.057  1.00  0.00     0.031 A 
ATOM     14  C   UNL A   1      40.600  29.914  29.896  1.00  0.00     0.074 A 
ATOM     15  C   UNL A   1      40.115  27.845  28.637  1.00  0.00     0.049 A 
ATOM     16  N   UNL A   1      41.800  29.644  30.347  1.00  0.00    -0.248 NA
ATOM     17  C   UNL A   1      40.105  31.247  30.275  1.00  0.00     0.031 C 
ATOM     18  C   UNL A   1      39.335  26.927  27.802  1.00  0.00     0.029 A 
ATOM     19  N   UNL A   1      41.276  27.160  28.888  1.00  0.00    -0.354 N 
ATOM     20  C   UNL A   1      42.208  30.769  31.051  1.00  0.00     0.074 A 
ATOM     21  C   UNL A   1      41.138  31.739  30.946  1.00  0.00     0.031 C 
ATOM     22  C   UNL A   1      40.007  25.774  27.671  1.00  0.00     0.029 A 
ATOM     23  C   UNL A   1      41.285  25.892  28.361  1.00  0.00     0.049 A 
ATOM     24  H   UNL A   1      42.028  27.541  29.397  1.00  0.00     0.167 HD
ATOM     25  C   UNL A   1      43.364  30.974  31.729  1.00  0.00     0.031 A 
ATOM     26  C   UNL A   1      42.217  24.924  28.424  1.00  0.00     0.031 A 
ATOM     27  C   UNL A   1      44.430  30.012  31.832  1.00  0.00     0.049 A 
ATOM     28  C   UNL A   1      43.483  25.178  29.184  1.00  0.00     0.074 A 
ATOM     29  C   UNL A   1      45.638  30.128  32.501  1.00  0.00     0.029 A 
ATOM     30  N   UNL A   1      44.417  28.752  31.253  1.00  0.00    -0.354 N 
ATOM     31  N   UNL A   1      43.840  26.244  29.859  1.00  0.00    -0.248 NA
ATOM     32  C   UNL A   1      44.475  24.095  29.191  1.00  0.00     0.031 C 
ATOM     33  C   UNL A   1      46.371  28.954  32.295  1.00  0.00     0.029 A 
ATOM     34  C   UNL A   1      45.600  28.088  31.537  1.00  0.00     0.049 A 
ATOM     35  H   UNL A   1      43.677  28.384  30.718  1.00  0.00     0.167 HD
ATOM     36  C   UNL A   1      45.098  25.960  30.371  1.00  0.00     0.074 A 
ATOM     37  C   UNL A   1      45.424  24.609  29.960  1.00  0.00     0.031 C 
ATOM     38  C   UNL A   1      45.915  26.753  31.105  1.00  0.00     0.031 A 
BRANCH  25  39
ATOM     39  C   UNL A   1      43.548  32.303  32.407  1.00  0.00    -0.014 A 
ATOM     40  C   UNL A   1      43.156  32.497  33.741  1.00  0.00     0.009 A 
ATOM     41  C   UNL A   1      44.178  33.357  31.725  1.00  0.00     0.009 A 
ATOM     42  C   UNL A   1      43.371  33.725  34.371  1.00  0.00     0.001 A 
ATOM     43  C   UNL A   1      44.413  34.575  32.365  1.00  0.00     0.001 A 
ATOM     44  C   UNL A   1      44.004  34.761  33.683  1.00  0.00     0.000 A 
ENDBRANCH  25  39
BRANCH  26  45
ATOM     45  C   UNL A   1      41.984  23.630  27.733  1.00  0.00    -0.014 A 
ATOM     46  C   UNL A   1      42.391  23.442  26.404  1.00  0.00     0.009 A 
ATOM     47  C   UNL A   1      41.360  22.572  28.411  1.00  0.00     0.009 A 
ATOM     48  C   UNL A   1      42.158  22.224  25.762  1.00  0.00     0.001 A 
ATOM     49  C   UNL A   1      41.156  21.346  27.777  1.00  0.00     0.001 A 
ATOM     50  C   UNL A   1      41.548  21.176  26.450  1.00  0.00     0.000 A 
ENDBRANCH  26  45
BRANCH  38  51
ATOM     51  C   UNL A   1      47.238  26.166  31.505  1.00  0.00    -0.014 A 
ATOM     52  C   UNL A   1      48.340  26.208  30.637  1.00  0.00     0.009 A 
ATOM     53  C   UNL A   1      47.384  25.564  32.765  1.00  0.00     0.009 A 
ATOM     54  C   UNL A   1      49.552  25.621  31.005  1.00  0.00     0.001 A 
ATOM     55  C   UNL A   1      48.604  25.001  33.139  1.00  0.00     0.001 A 
ATOM     56  C   UNL A   1      49.683  25.019  32.256  1.00  0.00     0.000 A 
ENDBRANCH  38  51
ENDBRANCH  12  13
ENDBRANCH   5   7
ENDBRANCH   2   3
ENDBRANCH   1   2
BRANCH   1  57
ATOM     57  C   UNL A   1      33.187  29.109  24.773  1.00  0.00     0.023 C 
BRANCH  57  58
ATOM     58  C   UNL A   1      33.082  28.602  23.332  1.00  0.00     0.116 C 
BRANCH  58  59
ATOM     59  N   UNL A   1      31.959  29.201  22.632  1.00  0.00    -0.354 N 
ATOM     60  C   UNL A   1      30.716  28.670  22.400  1.00  0.00     0.249 C 
ATOM     61  H   UNL A   1      32.110  30.106  22.277  1.00  0.00     0.163 HD
ATOM     62  O   UNL A   1      29.921  29.309  21.710  1.00  0.00    -0.272 OA
BRANCH  60  63
ATOM     63  C   UNL A   1      30.388  27.300  23.002  1.00  0.00     0.207 C 
ATOM     64  C   UNL A   1      30.123  27.296  24.496  1.00  0.00     0.045 C 
ATOM     65  O   UNL A   1      31.490  26.401  22.795  1.00  0.00    -0.363 OA
ATOM     66  C   UNL A   1      30.490  25.877  24.872  1.00  0.00     0.037 C 
ATOM     67  C   UNL A   1      31.705  25.620  23.986  1.00  0.00     0.139 C 
BRANCH  67  68
ATOM     68  C   UNL A   1      31.968  24.143  23.609  1.00  0.00     0.160 C 
BRANCH  68  69
ATOM     69  N   UNL A   1      33.319  23.742  24.011  1.00  0.00    -0.280 N 
ATOM     70  C   UNL A   1      34.257  23.481  23.029  1.00  0.00     0.229 C 
ATOM     71  C   UNL A   1      33.552  23.536  25.362  1.00  0.00     0.229 C 
ATOM     72  O   UNL A   1      33.968  23.359  21.838  1.00  0.00    -0.274 OA
ATOM     73  C   UNL A   1      35.711  23.465  23.450  1.00  0.00     0.108 C 
ATOM     74  C   UNL A   1      34.954  23.860  25.798  1.00  0.00     0.108 C 
ATOM     75  O   UNL A   1      32.702  23.184  26.175  1.00  0.00    -0.274 OA
ATOM     76  C   UNL A   1      35.997  23.174  24.927  1.00  0.00    -0.012 C 
ATOM     77  C   UNL A   1      37.412  23.700  25.289  1.00  0.00     0.008 C 
ATOM     78  C   UNL A   1      36.052  21.656  25.218  1.00  0.00     0.008 C 
ATOM     79  C   UNL A   1      38.147  22.533  25.928  1.00  0.00     0.001 C 
ATOM     80  C   UNL A   1      37.536  21.319  25.255  1.00  0.00     0.001 C 
ENDBRANCH  68  69
ENDBRANCH  67  68
ENDBRANCH  60  63
ENDBRANCH  58  59
ENDBRANCH  57  58
ENDBRANCH   1  57
TORSDOF 13
ENDMDL
MODEL 3
REMARK VINA RESULT:     -11.5      1.935      7.648
REMARK SMILES O=C(NCCCCNC(=O)[C@@H]1CC[C@@H](CN2C(=O)CC3(CCCC3)CC2=O)O1)c1ccc(-c2c3nc(c(-c4ccccc4)c4ccc([nH]4)c(-c4ccccc4)c4nc(c(-c5ccccc5)c5ccc2[nH]5)C=C4)C=C3)cc1
REMARK SMILES IDX 5 1 4 2 3 3 1 4 2 5 29 7 30 8 76 9 31 10 75 11 32 12 33 13
REMARK SMILES IDX 34 14 69 15 35 16 74 17 68 18 70 19 36 20 73 21 67 22 66 23
REMARK SMILES IDX 37 25 59 26 44 27 58 28 45 29 48 30 57 31 71 32 46 33 47 34
REMARK SMILES IDX 56 36 72 37 49 38 38 39 39 40 43 41 40 42 42 43 41 44 60 45
REMARK SMILES IDX 61 46 65 47 62 48 64 49 63 50 50 51 51 52 55 53 52 54 54 55
REMARK SMILES IDX 53 56 6 57 7 58 8 59 9 60 10 62 11 63 12 64 28 65 13 66
REMARK SMILES IDX 14 67 15 68 16 69 17 70 26 71 18 72 19 73 25 74 27 75 20 76
REMARK SMILES IDX 21 77 24 78 22 79 23 80
REMARK H PARENT 3 6 70 24 48 35 8 61
REMARK Flexibility Score: inf
ROOT
ATOM      1  C   UNL A   1      37.658  19.971  24.906  1.00  0.00     0.023 C 
ENDROOT
BRANCH   1   2
ATOM      2  C   UNL A   1      38.854  20.360  25.765  1.00  0.00     0.116 C 
BRANCH   2   3
ATOM      3  N   UNL A   1      39.954  19.410  25.693  1.00  0.00    -0.352 N 
ATOM      4  O   UNL A   1      42.112  18.737  25.776  1.00  0.00    -0.269 OA
ATOM      5  C   UNL A   1      41.280  19.612  26.005  1.00  0.00     0.251 C 
ATOM      6  H   UNL A   1      39.720  18.506  25.379  1.00  0.00     0.163 HD
BRANCH   5   7
ATOM      7  C   UNL A   1      41.708  20.904  26.587  1.00  0.00     0.039 A 
ATOM      8  C   UNL A   1      41.686  21.100  27.968  1.00  0.00     0.014 A 
ATOM      9  C   UNL A   1      42.119  21.938  25.740  1.00  0.00     0.014 A 
ATOM     10  C   UNL A   1      41.922  22.366  28.488  1.00  0.00     0.010 A 
ATOM     11  C   UNL A   1      42.445  23.191  26.274  1.00  0.00     0.010 A 
ATOM     12  C   UNL A   1      42.314  23.426  27.651  1.00  0.00    -0.014 A 
BRANCH  12  13
ATOM     13  C   UNL A   1      42.633  24.739  28.269  1.00  0.00     0.031 A 
ATOM     14  C   UNL A   1      44.045  25.129  28.609  1.00  0.00     0.074 A 
ATOM     15  C   UNL A   1      41.629  25.619  28.450  1.00  0.00     0.049 A 
ATOM     16  N   UNL A   1      44.494  26.280  29.047  1.00  0.00    -0.248 NA
ATOM     17  C   UNL A   1      45.087  24.105  28.443  1.00  0.00     0.031 C 
ATOM     18  C   UNL A   1      40.214  25.350  28.175  1.00  0.00     0.029 A 
ATOM     19  N   UNL A   1      41.644  26.927  28.861  1.00  0.00    -0.354 N 
ATOM     20  C   UNL A   1      45.862  26.117  29.220  1.00  0.00     0.074 A 
ATOM     21  C   UNL A   1      46.169  24.747  28.864  1.00  0.00     0.031 C 
ATOM     22  C   UNL A   1      39.510  26.477  28.356  1.00  0.00     0.029 A 
ATOM     23  C   UNL A   1      40.410  27.528  28.813  1.00  0.00     0.049 A 
ATOM     24  H   UNL A   1      42.460  27.389  29.162  1.00  0.00     0.167 HD
ATOM     25  C   UNL A   1      46.780  27.026  29.629  1.00  0.00     0.031 A 
ATOM     26  C   UNL A   1      40.038  28.788  29.103  1.00  0.00     0.031 A 
ATOM     27  C   UNL A   1      46.476  28.388  29.986  1.00  0.00     0.049 A 
ATOM     28  C   UNL A   1      41.076  29.772  29.549  1.00  0.00     0.074 A 
ATOM     29  C   UNL A   1      47.341  29.384  30.409  1.00  0.00     0.029 A 
ATOM     30  N   UNL A   1      45.209  28.948  29.960  1.00  0.00    -0.354 N 
ATOM     31  N   UNL A   1      42.369  29.602  29.687  1.00  0.00    -0.248 NA
ATOM     32  C   UNL A   1      40.603  31.123  29.880  1.00  0.00     0.031 C 
ATOM     33  C   UNL A   1      46.592  30.535  30.674  1.00  0.00     0.029 A 
ATOM     34  C   UNL A   1      45.267  30.270  30.371  1.00  0.00     0.049 A 
ATOM     35  H   UNL A   1      44.389  28.476  29.688  1.00  0.00     0.167 HD
ATOM     36  C   UNL A   1      42.864  30.823  30.121  1.00  0.00     0.074 A 
ATOM     37  C   UNL A   1      41.738  31.733  30.186  1.00  0.00     0.031 C 
ATOM     38  C   UNL A   1      44.135  31.156  30.448  1.00  0.00     0.031 A 
BRANCH  25  39
ATOM     39  C   UNL A   1      48.211  26.575  29.730  1.00  0.00    -0.014 A 
ATOM     40  C   UNL A   1      48.695  25.953  30.892  1.00  0.00     0.009 A 
ATOM     41  C   UNL A   1      49.069  26.716  28.628  1.00  0.00     0.009 A 
ATOM     42  C   UNL A   1      50.016  25.502  30.955  1.00  0.00     0.001 A 
ATOM     43  C   UNL A   1      50.382  26.243  28.686  1.00  0.00     0.001 A 
ATOM     44  C   UNL A   1      50.856  25.643  29.850  1.00  0.00     0.000 A 
ENDBRANCH  25  39
BRANCH  26  45
ATOM     45  C   UNL A   1      38.610  29.178  28.988  1.00  0.00    -0.014 A 
ATOM     46  C   UNL A   1      37.757  29.121  30.100  1.00  0.00     0.009 A 
ATOM     47  C   UNL A   1      38.097  29.624  27.759  1.00  0.00     0.009 A 
ATOM     48  C   UNL A   1      36.414  29.483  29.977  1.00  0.00     0.001 A 
ATOM     49  C   UNL A   1      36.762  30.013  27.647  1.00  0.00     0.001 A 
ATOM     50  C   UNL A   1      35.920  29.935  28.754  1.00  0.00     0.000 A 
ENDBRANCH  26  45
BRANCH  38  51
ATOM     51  C   UNL A   1      44.363  32.568  30.904  1.00  0.00    -0.014 A 
ATOM     52  C   UNL A   1      44.314  32.905  32.265  1.00  0.00     0.009 A 
ATOM     53  C   UNL A   1      44.631  33.573  29.961  1.00  0.00     0.009 A 
ATOM     54  C   UNL A   1      44.485  34.230  32.671  1.00  0.00     0.001 A 
ATOM     55  C   UNL A   1      44.827  34.892  30.373  1.00  0.00     0.001 A 
ATOM     56  C   UNL A   1      44.743  35.221  31.724  1.00  0.00     0.000 A 
ENDBRANCH  38  51
ENDBRANCH  12  13
ENDBRANCH   5   7
ENDBRANCH   2   3
ENDBRANCH   1   2
BRANCH   1  57
ATOM     57  C   UNL A   1      36.628  21.080  24.675  1.00  0.00     0.023 C 
BRANCH  57  58
ATOM     58  C   UNL A   1      35.544  21.182  25.752  1.00  0.00     0.116 C 
BRANCH  58  59
ATOM     59  N   UNL A   1      34.459  20.247  25.512  1.00  0.00    -0.354 N 
ATOM     60  C   UNL A   1      33.133  20.516  25.286  1.00  0.00     0.249 C 
ATOM     61  H   UNL A   1      34.707  19.295  25.511  1.00  0.00     0.163 HD
ATOM     62  O   UNL A   1      32.348  19.573  25.185  1.00  0.00    -0.272 OA
BRANCH  60  63
ATOM     63  C   UNL A   1      32.697  21.982  25.188  1.00  0.00     0.207 C 
ATOM     64  C   UNL A   1      31.224  22.239  25.448  1.00  0.00     0.045 C 
ATOM     65  O   UNL A   1      32.956  22.479  23.865  1.00  0.00    -0.363 OA
ATOM     66  C   UNL A   1      30.991  23.516  24.671  1.00  0.00     0.037 C 
ATOM     67  C   UNL A   1      31.849  23.293  23.431  1.00  0.00     0.139 C 
BRANCH  67  68
ATOM     68  C   UNL A   1      32.374  24.568  22.731  1.00  0.00     0.160 C 
BRANCH  68  69
ATOM     69  N   UNL A   1      32.358  25.706  23.654  1.00  0.00    -0.280 N 
ATOM     70  C   UNL A   1      31.400  26.689  23.484  1.00  0.00     0.229 C 
ATOM     71  C   UNL A   1      33.381  25.793  24.585  1.00  0.00     0.229 C 
ATOM     72  O   UNL A   1      30.694  26.774  22.478  1.00  0.00    -0.274 OA
ATOM     73  C   UNL A   1      31.149  27.618  24.653  1.00  0.00     0.108 C 
ATOM     74  C   UNL A   1      32.978  26.439  25.881  1.00  0.00     0.108 C 
ATOM     75  O   UNL A   1      34.511  25.336  24.430  1.00  0.00    -0.274 OA
ATOM     76  C   UNL A   1      32.291  27.779  25.661  1.00  0.00    -0.012 C 
ATOM     77  C   UNL A   1      31.718  28.303  27.006  1.00  0.00     0.008 C 
ATOM     78  C   UNL A   1      33.307  28.858  25.217  1.00  0.00     0.008 C 
ATOM     79  C   UNL A   1      32.535  29.533  27.364  1.00  0.00     0.001 C 
ATOM     80  C   UNL A   1      32.932  30.100  26.014  1.00  0.00     0.001 C 
ENDBRANCH  68  69
ENDBRANCH  67  68
ENDBRANCH  60  63
ENDBRANCH  58  59
ENDBRANCH  57  58
ENDBRANCH   1  57
TORSDOF 13
ENDMDL
