MODEL 1
REMARK VINA RESULT:     -13.5      0.000      0.000
REMARK SMILES COc1cc([C@@H]2CC(=O)Nc3c(C(=O)NCCCCNC(=O)c4ccc(-c5c6nc(c(-c7ccccc7)c7ccc([nH]7)c(-c7ccccc7)c7nc(c(-c8ccccc8)c8ccc5[nH]8)C=C7)C=C6)cc4)cn(-c4ccccc4)c32)ccc1O
REMARK SMILES IDX 17 1 16 2 15 3 13 4 14 5 12 7 6 8 7 9 79 10 8 11 11 12 72 13
REMARK SMILES IDX 9 14 10 15 71 16 5 18 3 19 4 20 82 21 81 22 80 23 2 24 1 25
REMARK SMILES IDX 83 26 73 28 74 29 78 30 75 31 77 32 76 33 18 34 19 35 20 36
REMARK SMILES IDX 21 37 22 39 23 40 24 41 70 42 25 43 69 44 26 45 27 46 28 47
REMARK SMILES IDX 63 48 29 49 68 50 62 51 64 52 30 53 67 54 61 55 60 56 31 58
REMARK SMILES IDX 53 59 38 60 52 61 39 62 42 63 51 64 65 65 40 66 41 67 50 69
REMARK SMILES IDX 66 70 43 71 32 72 33 73 37 74 34 75 36 76 35 77 54 78 55 79
REMARK SMILES IDX 59 80 56 81 58 82 57 83 44 84 45 85 49 86 46 87 48 88 47 89
REMARK H PARENT 15 6 10 17 83 27 20 38 64 57 42 68
REMARK Flexibility Score: inf
ROOT
ATOM      1  C   UNL A   1      36.666  22.565  23.558  1.00  0.00     0.023 C 
ENDROOT
BRANCH   1   2
ATOM      2  C   UNL A   1      35.179  22.950  23.578  1.00  0.00     0.116 C 
BRANCH   2   3
ATOM      3  N   UNL A   1      34.641  22.954  24.919  1.00  0.00    -0.352 N 
ATOM      4  C   UNL A   1      33.902  23.850  25.646  1.00  0.00     0.254 C 
ATOM      5  O   UNL A   1      33.559  23.432  26.758  1.00  0.00    -0.269 OA
ATOM      6  H   UNL A   1      34.852  22.134  25.419  1.00  0.00     0.163 HD
BRANCH   4   7
ATOM      7  C   UNL A   1      33.501  25.196  25.208  1.00  0.00     0.081 A 
ATOM      8  C   UNL A   1      32.644  28.221  23.177  1.00  0.00     0.078 C 
ATOM      9  C   UNL A   1      33.456  27.785  21.939  1.00  0.00     0.115 C 
ATOM     10  C   UNL A   1      32.891  27.194  24.248  1.00  0.00     0.055 A 
ATOM     11  C   UNL A   1      33.201  26.326  21.614  1.00  0.00     0.225 C 
ATOM     12  C   UNL A   1      33.173  25.862  23.990  1.00  0.00     0.076 A 
ATOM     13  N   UNL A   1      33.163  27.436  25.573  1.00  0.00    -0.317 N 
ATOM     14  O   UNL A   1      33.154  25.893  20.465  1.00  0.00    -0.275 OA
ATOM     15  N   UNL A   1      33.146  25.458  22.677  1.00  0.00    -0.324 N 
ATOM     16  C   UNL A   1      33.538  26.240  26.139  1.00  0.00     0.107 A 
ATOM     17  H   UNL A   1      33.085  24.495  22.488  1.00  0.00     0.170 HD
BRANCH   8  18
ATOM     18  C   UNL A   1      31.201  28.418  22.706  1.00  0.00    -0.034 A 
ATOM     19  C   UNL A   1      28.857  27.851  23.215  1.00  0.00     0.160 A 
ATOM     20  C   UNL A   1      30.226  27.540  23.217  1.00  0.00     0.054 A 
ATOM     21  C   UNL A   1      28.463  29.069  22.660  1.00  0.00     0.157 A 
ATOM     22  C   UNL A   1      29.408  29.906  22.059  1.00  0.00     0.050 A 
ATOM     23  C   UNL A   1      30.763  29.575  22.055  1.00  0.00     0.008 A 
BRANCH  19  24
ATOM     24  O   UNL A   1      28.127  26.884  23.843  1.00  0.00    -0.493 OA
ATOM     25  C   UNL A   1      28.751  25.931  24.680  1.00  0.00     0.278 C 
ENDBRANCH  19  24
BRANCH  21  26
ATOM     26  O   UNL A   1      27.200  29.582  22.670  1.00  0.00    -0.504 OA
ATOM     27  H   UNL A   1      26.699  29.582  23.463  1.00  0.00     0.293 HD
ENDBRANCH  21  26
ENDBRANCH   8  18
BRANCH  13  28
ATOM     28  C   UNL A   1      33.201  28.687  26.225  1.00  0.00     0.045 A 
ATOM     29  C   UNL A   1      32.074  29.514  26.224  1.00  0.00     0.026 A 
ATOM     30  C   UNL A   1      34.389  29.101  26.844  1.00  0.00     0.026 A 
ATOM     31  C   UNL A   1      32.139  30.761  26.844  1.00  0.00     0.002 A 
ATOM     32  C   UNL A   1      34.454  30.366  27.426  1.00  0.00     0.002 A 
ATOM     33  C   UNL A   1      33.330  31.193  27.431  1.00  0.00     0.000 A 
ENDBRANCH  13  28
ENDBRANCH   4   7
ENDBRANCH   2   3
ENDBRANCH   1   2
BRANCH   1  34
ATOM     34  C   UNL A   1      37.196  21.850  24.805  1.00  0.00     0.023 C 
BRANCH  34  35
ATOM     35  C   UNL A   1      38.125  22.697  25.670  1.00  0.00     0.116 C 
BRANCH  35  36
ATOM     36  N   UNL A   1      39.018  21.909  26.529  1.00  0.00    -0.352 N 
ATOM     37  C   UNL A   1      40.162  22.337  27.193  1.00  0.00     0.251 C 
ATOM     38  H   UNL A   1      38.776  20.962  26.650  1.00  0.00     0.163 HD
ATOM     39  O   UNL A   1      41.035  21.574  27.549  1.00  0.00    -0.269 OA
BRANCH  37  40
ATOM     40  C   UNL A   1      40.257  23.776  27.485  1.00  0.00     0.039 A 
ATOM     41  C   UNL A   1      39.141  24.616  27.523  1.00  0.00     0.014 A 
ATOM     42  C   UNL A   1      41.520  24.225  27.845  1.00  0.00     0.014 A 
ATOM     43  C   UNL A   1      39.299  25.909  28.022  1.00  0.00     0.010 A 
ATOM     44  C   UNL A   1      41.622  25.402  28.525  1.00  0.00     0.010 A 
ATOM     45  C   UNL A   1      40.545  26.287  28.537  1.00  0.00    -0.014 A 
BRANCH  45  46
ATOM     46  C   UNL A   1      40.785  27.592  29.136  1.00  0.00     0.031 A 
ATOM     47  C   UNL A   1      41.703  28.511  28.412  1.00  0.00     0.074 A 
ATOM     48  C   UNL A   1      39.990  28.040  30.134  1.00  0.00     0.049 A 
ATOM     49  N   UNL A   1      42.813  29.008  28.847  1.00  0.00    -0.248 NA
ATOM     50  C   UNL A   1      41.393  28.881  27.022  1.00  0.00     0.031 C 
ATOM     51  C   UNL A   1      38.824  27.383  30.744  1.00  0.00     0.029 A 
ATOM     52  N   UNL A   1      39.955  29.274  30.692  1.00  0.00    -0.354 N 
ATOM     53  C   UNL A   1      43.271  29.880  27.863  1.00  0.00     0.074 A 
ATOM     54  C   UNL A   1      42.434  29.658  26.709  1.00  0.00     0.031 C 
ATOM     55  C   UNL A   1      38.049  28.310  31.346  1.00  0.00     0.029 A 
ATOM     56  C   UNL A   1      38.763  29.571  31.338  1.00  0.00     0.049 A 
ATOM     57  H   UNL A   1      40.710  29.905  30.644  1.00  0.00     0.167 HD
ATOM     58  C   UNL A   1      44.173  30.864  28.141  1.00  0.00     0.031 A 
ATOM     59  C   UNL A   1      38.374  30.783  31.797  1.00  0.00     0.031 A 
ATOM     60  C   UNL A   1      44.750  30.708  29.451  1.00  0.00     0.049 A 
ATOM     61  C   UNL A   1      39.601  31.600  31.956  1.00  0.00     0.074 A 
ATOM     62  C   UNL A   1      45.487  29.722  30.075  1.00  0.00     0.029 A 
ATOM     63  N   UNL A   1      44.232  31.485  30.462  1.00  0.00    -0.354 N 
ATOM     64  N   UNL A   1      40.536  31.312  32.818  1.00  0.00    -0.248 NA
ATOM     65  C   UNL A   1      40.024  32.432  30.839  1.00  0.00     0.031 C 
ATOM     66  C   UNL A   1      44.946  29.650  31.393  1.00  0.00     0.029 A 
ATOM     67  C   UNL A   1      43.973  30.645  31.514  1.00  0.00     0.049 A 
ATOM     68  H   UNL A   1      44.077  32.458  30.434  1.00  0.00     0.167 HD
ATOM     69  C   UNL A   1      41.727  31.526  32.136  1.00  0.00     0.074 A 
ATOM     70  C   UNL A   1      41.351  32.319  30.965  1.00  0.00     0.031 C 
ATOM     71  C   UNL A   1      42.849  30.795  32.414  1.00  0.00     0.031 A 
BRANCH  58  72
ATOM     72  C   UNL A   1      44.272  32.172  27.402  1.00  0.00    -0.014 A 
ATOM     73  C   UNL A   1      43.777  33.337  28.018  1.00  0.00     0.009 A 
ATOM     74  C   UNL A   1      44.569  32.254  26.030  1.00  0.00     0.009 A 
ATOM     75  C   UNL A   1      43.527  34.501  27.280  1.00  0.00     0.001 A 
ATOM     76  C   UNL A   1      44.357  33.427  25.300  1.00  0.00     0.001 A 
ATOM     77  C   UNL A   1      43.810  34.542  25.919  1.00  0.00     0.000 A 
ENDBRANCH  58  72
BRANCH  59  78
ATOM     78  C   UNL A   1      37.003  31.335  31.815  1.00  0.00    -0.014 A 
ATOM     79  C   UNL A   1      36.457  31.884  32.984  1.00  0.00     0.009 A 
ATOM     80  C   UNL A   1      36.306  31.543  30.608  1.00  0.00     0.009 A 
ATOM     81  C   UNL A   1      35.277  32.640  32.938  1.00  0.00     0.001 A 
ATOM     82  C   UNL A   1      35.128  32.295  30.563  1.00  0.00     0.001 A 
ATOM     83  C   UNL A   1      34.621  32.855  31.727  1.00  0.00     0.000 A 
ENDBRANCH  59  78
BRANCH  71  84
ATOM     84  C   UNL A   1      42.815  29.853  33.598  1.00  0.00    -0.014 A 
ATOM     85  C   UNL A   1      42.366  28.523  33.503  1.00  0.00     0.009 A 
ATOM     86  C   UNL A   1      43.422  30.256  34.795  1.00  0.00     0.009 A 
ATOM     87  C   UNL A   1      42.492  27.636  34.577  1.00  0.00     0.001 A 
ATOM     88  C   UNL A   1      43.567  29.366  35.862  1.00  0.00     0.001 A 
ATOM     89  C   UNL A   1      43.097  28.059  35.756  1.00  0.00     0.000 A 
ENDBRANCH  71  84
ENDBRANCH  45  46
ENDBRANCH  37  40
ENDBRANCH  35  36
ENDBRANCH  34  35
ENDBRANCH   1  34
TORSDOF 15
ENDMDL
MODEL 2
REMARK VINA RESULT:     -13.4      3.217      7.900
REMARK SMILES COc1cc([C@@H]2CC(=O)Nc3c(C(=O)NCCCCNC(=O)c4ccc(-c5c6nc(c(-c7ccccc7)c7ccc([nH]7)c(-c7ccccc7)c7nc(c(-c8ccccc8)c8ccc5[nH]8)C=C7)C=C6)cc4)cn(-c4ccccc4)c32)ccc1O
REMARK SMILES IDX 17 1 16 2 15 3 13 4 14 5 12 7 6 8 7 9 79 10 8 11 11 12 72 13
REMARK SMILES IDX 9 14 10 15 71 16 5 18 3 19 4 20 82 21 81 22 80 23 2 24 1 25
REMARK SMILES IDX 83 26 73 28 74 29 78 30 75 31 77 32 76 33 18 34 19 35 20 36
REMARK SMILES IDX 21 37 22 39 23 40 24 41 70 42 25 43 69 44 26 45 27 46 28 47
REMARK SMILES IDX 63 48 29 49 68 50 62 51 64 52 30 53 67 54 61 55 60 56 31 58
REMARK SMILES IDX 53 59 38 60 52 61 39 62 42 63 51 64 65 65 40 66 41 67 50 69
REMARK SMILES IDX 66 70 43 71 32 72 33 73 37 74 34 75 36 76 35 77 54 78 55 79
REMARK SMILES IDX 59 80 56 81 58 82 57 83 44 84 45 85 49 86 46 87 48 88 47 89
REMARK H PARENT 15 6 10 17 83 27 20 38 64 57 42 68
REMARK Flexibility Score: inf
ROOT
ATOM      1  C   UNL A   1      32.432  28.855  27.025  1.00  0.00     0.023 C 
ENDROOT
BRANCH   1   2
ATOM      2  C   UNL A   1      31.937  27.626  26.246  1.00  0.00     0.116 C 
BRANCH   2   3
ATOM      3  N   UNL A   1      32.509  27.560  24.922  1.00  0.00    -0.352 N 
ATOM      4  C   UNL A   1      33.157  26.584  24.211  1.00  0.00     0.254 C 
ATOM      5  O   UNL A   1      33.420  26.902  23.046  1.00  0.00    -0.269 OA
ATOM      6  H   UNL A   1      32.413  28.400  24.420  1.00  0.00     0.163 HD
BRANCH   4   7
ATOM      7  C   UNL A   1      33.525  25.250  24.713  1.00  0.00     0.081 A 
ATOM      8  C   UNL A   1      33.582  21.954  26.486  1.00  0.00     0.078 C 
ATOM      9  C   UNL A   1      32.626  22.392  27.615  1.00  0.00     0.115 C 
ATOM     10  C   UNL A   1      33.835  23.164  25.630  1.00  0.00     0.055 A 
ATOM     11  C   UNL A   1      31.434  23.141  27.051  1.00  0.00     0.225 C 
ATOM     12  C   UNL A   1      32.922  24.192  25.457  1.00  0.00     0.076 A 
ATOM     13  N   UNL A   1      35.048  23.588  25.141  1.00  0.00    -0.317 N 
ATOM     14  O   UNL A   1      30.302  23.050  27.521  1.00  0.00    -0.275 OA
ATOM     15  N   UNL A   1      31.692  24.043  26.048  1.00  0.00    -0.324 N 
ATOM     16  C   UNL A   1      34.858  24.841  24.606  1.00  0.00     0.107 A 
ATOM     17  H   UNL A   1      30.954  24.615  25.737  1.00  0.00     0.170 HD
BRANCH   8  18
ATOM     18  C   UNL A   1      32.940  20.737  25.818  1.00  0.00    -0.034 A 
ATOM     19  C   UNL A   1      32.342  19.762  23.633  1.00  0.00     0.160 A 
ATOM     20  C   UNL A   1      32.541  20.870  24.474  1.00  0.00     0.054 A 
ATOM     21  C   UNL A   1      32.527  18.489  24.174  1.00  0.00     0.157 A 
ATOM     22  C   UNL A   1      32.824  18.338  25.531  1.00  0.00     0.050 A 
ATOM     23  C   UNL A   1      33.004  19.449  26.357  1.00  0.00     0.008 A 
BRANCH  19  24
ATOM     24  O   UNL A   1      32.048  20.152  22.360  1.00  0.00    -0.493 OA
ATOM     25  C   UNL A   1      31.949  21.522  22.023  1.00  0.00     0.278 C 
ENDBRANCH  19  24
BRANCH  21  26
ATOM     26  O   UNL A   1      32.485  17.313  23.485  1.00  0.00    -0.504 OA
ATOM     27  H   UNL A   1      32.065  16.564  23.861  1.00  0.00     0.293 HD
ENDBRANCH  21  26
ENDBRANCH   8  18
BRANCH  13  28
ATOM     28  C   UNL A   1      36.299  22.948  25.279  1.00  0.00     0.045 A 
ATOM     29  C   UNL A   1      36.476  21.646  24.799  1.00  0.00     0.026 A 
ATOM     30  C   UNL A   1      37.344  23.619  25.927  1.00  0.00     0.026 A 
ATOM     31  C   UNL A   1      37.708  21.016  24.973  1.00  0.00     0.002 A 
ATOM     32  C   UNL A   1      38.559  22.964  26.129  1.00  0.00     0.002 A 
ATOM     33  C   UNL A   1      38.742  21.666  25.649  1.00  0.00     0.000 A 
ENDBRANCH  13  28
ENDBRANCH   4   7
ENDBRANCH   2   3
ENDBRANCH   1   2
BRANCH   1  34
ATOM     34  C   UNL A   1      33.767  29.452  26.566  1.00  0.00     0.023 C 
BRANCH  34  35
ATOM     35  C   UNL A   1      34.958  29.085  27.448  1.00  0.00     0.116 C 
BRANCH  35  36
ATOM     36  N   UNL A   1      35.208  30.040  28.534  1.00  0.00    -0.352 N 
ATOM     37  C   UNL A   1      36.270  30.056  29.430  1.00  0.00     0.251 C 
ATOM     38  H   UNL A   1      34.542  30.758  28.640  1.00  0.00     0.163 HD
ATOM     39  O   UNL A   1      36.211  30.614  30.505  1.00  0.00    -0.269 OA
BRANCH  37  40
ATOM     40  C   UNL A   1      37.508  29.386  28.999  1.00  0.00     0.039 A 
ATOM     41  C   UNL A   1      38.176  29.718  27.816  1.00  0.00     0.014 A 
ATOM     42  C   UNL A   1      38.041  28.484  29.908  1.00  0.00     0.014 A 
ATOM     43  C   UNL A   1      39.448  29.189  27.601  1.00  0.00     0.010 A 
ATOM     44  C   UNL A   1      39.358  28.148  29.796  1.00  0.00     0.010 A 
ATOM     45  C   UNL A   1      40.038  28.416  28.609  1.00  0.00    -0.014 A 
BRANCH  45  46
ATOM     46  C   UNL A   1      41.387  27.878  28.500  1.00  0.00     0.031 A 
ATOM     47  C   UNL A   1      41.551  26.614  27.734  1.00  0.00     0.074 A 
ATOM     48  C   UNL A   1      42.453  28.642  28.827  1.00  0.00     0.049 A 
ATOM     49  N   UNL A   1      42.010  25.489  28.174  1.00  0.00    -0.248 NA
ATOM     50  C   UNL A   1      41.103  26.564  26.334  1.00  0.00     0.031 C 
ATOM     51  C   UNL A   1      42.475  30.039  29.291  1.00  0.00     0.029 A 
ATOM     52  N   UNL A   1      43.768  28.378  28.635  1.00  0.00    -0.354 N 
ATOM     53  C   UNL A   1      42.066  24.629  27.081  1.00  0.00     0.074 A 
ATOM     54  C   UNL A   1      41.369  25.295  26.008  1.00  0.00     0.031 C 
ATOM     55  C   UNL A   1      43.694  30.569  29.062  1.00  0.00     0.029 A 
ATOM     56  C   UNL A   1      44.579  29.504  28.634  1.00  0.00     0.049 A 
ATOM     57  H   UNL A   1      44.118  27.466  28.509  1.00  0.00     0.167 HD
ATOM     58  C   UNL A   1      42.861  23.521  27.082  1.00  0.00     0.031 A 
ATOM     59  C   UNL A   1      45.879  29.562  28.264  1.00  0.00     0.031 A 
ATOM     60  C   UNL A   1      43.390  23.241  28.392  1.00  0.00     0.049 A 
ATOM     61  C   UNL A   1      46.417  28.182  28.356  1.00  0.00     0.074 A 
ATOM     62  C   UNL A   1      42.833  22.961  29.623  1.00  0.00     0.029 A 
ATOM     63  N   UNL A   1      44.681  23.645  28.647  1.00  0.00    -0.354 N 
ATOM     64  N   UNL A   1      46.522  27.538  29.484  1.00  0.00    -0.248 NA
ATOM     65  C   UNL A   1      46.371  27.345  27.166  1.00  0.00     0.031 C 
ATOM     66  C   UNL A   1      43.623  23.703  30.551  1.00  0.00     0.029 A 
ATOM     67  C   UNL A   1      44.656  24.321  29.840  1.00  0.00     0.049 A 
ATOM     68  H   UNL A   1      45.470  23.480  28.081  1.00  0.00     0.167 HD
ATOM     69  C   UNL A   1      46.099  26.246  29.195  1.00  0.00     0.074 A 
ATOM     70  C   UNL A   1      46.127  26.159  27.735  1.00  0.00     0.031 C 
ATOM     71  C   UNL A   1      45.483  25.470  30.139  1.00  0.00     0.031 A 
BRANCH  58  72
ATOM     72  C   UNL A   1      43.468  22.899  25.853  1.00  0.00    -0.014 A 
ATOM     73  C   UNL A   1      43.618  21.500  25.805  1.00  0.00     0.009 A 
ATOM     74  C   UNL A   1      44.149  23.646  24.875  1.00  0.00     0.009 A 
ATOM     75  C   UNL A   1      44.463  20.889  24.870  1.00  0.00     0.001 A 
ATOM     76  C   UNL A   1      44.961  23.035  23.915  1.00  0.00     0.001 A 
ATOM     77  C   UNL A   1      45.140  21.659  23.930  1.00  0.00     0.000 A 
ENDBRANCH  58  72
BRANCH  59  78
ATOM     78  C   UNL A   1      46.565  30.674  27.574  1.00  0.00    -0.014 A 
ATOM     79  C   UNL A   1      45.851  31.600  26.802  1.00  0.00     0.009 A 
ATOM     80  C   UNL A   1      47.911  30.970  27.872  1.00  0.00     0.009 A 
ATOM     81  C   UNL A   1      46.453  32.792  26.373  1.00  0.00     0.001 A 
ATOM     82  C   UNL A   1      48.511  32.158  27.442  1.00  0.00     0.001 A 
ATOM     83  C   UNL A   1      47.776  33.076  26.704  1.00  0.00     0.000 A 
ENDBRANCH  59  78
BRANCH  71  84
ATOM     84  C   UNL A   1      45.414  25.989  31.558  1.00  0.00    -0.014 A 
ATOM     85  C   UNL A   1      44.513  26.992  31.961  1.00  0.00     0.009 A 
ATOM     86  C   UNL A   1      46.142  25.323  32.553  1.00  0.00     0.009 A 
ATOM     87  C   UNL A   1      44.368  27.338  33.309  1.00  0.00     0.001 A 
ATOM     88  C   UNL A   1      45.984  25.653  33.902  1.00  0.00     0.001 A 
ATOM     89  C   UNL A   1      45.102  26.663  34.279  1.00  0.00     0.000 A 
ENDBRANCH  71  84
ENDBRANCH  45  46
ENDBRANCH  37  40
ENDBRANCH  35  36
ENDBRANCH  34  35
ENDBRANCH   1  34
TORSDOF 15
ENDMDL
MODEL 3
REMARK VINA RESULT:     -13.4      2.789      8.129
REMARK SMILES COc1cc([C@@H]2CC(=O)Nc3c(C(=O)NCCCCNC(=O)c4ccc(-c5c6nc(c(-c7ccccc7)c7ccc([nH]7)c(-c7ccccc7)c7nc(c(-c8ccccc8)c8ccc5[nH]8)C=C7)C=C6)cc4)cn(-c4ccccc4)c32)ccc1O
REMARK SMILES IDX 17 1 16 2 15 3 13 4 14 5 12 7 6 8 7 9 79 10 8 11 11 12 72 13
REMARK SMILES IDX 9 14 10 15 71 16 5 18 3 19 4 20 82 21 81 22 80 23 2 24 1 25
REMARK SMILES IDX 83 26 73 28 74 29 78 30 75 31 77 32 76 33 18 34 19 35 20 36
REMARK SMILES IDX 21 37 22 39 23 40 24 41 70 42 25 43 69 44 26 45 27 46 28 47
REMARK SMILES IDX 63 48 29 49 68 50 62 51 64 52 30 53 67 54 61 55 60 56 31 58
REMARK SMILES IDX 53 59 38 60 52 61 39 62 42 63 51 64 65 65 40 66 41 67 50 69
REMARK SMILES IDX 66 70 43 71 32 72 33 73 37 74 34 75 36 76 35 77 54 78 55 79
REMARK SMILES IDX 59 80 56 81 58 82 57 83 44 84 45 85 49 86 46 87 48 88 47 89
REMARK H PARENT 15 6 10 17 83 27 20 38 64 57 42 68
REMARK Flexibility Score: inf
ROOT
ATOM      1  C   UNL A   1      31.585  28.252  27.601  1.00  0.00     0.023 C 
ENDROOT
BRANCH   1   2
ATOM      2  C   UNL A   1      31.566  27.129  26.552  1.00  0.00     0.116 C 
BRANCH   2   3
ATOM      3  N   UNL A   1      32.363  27.458  25.394  1.00  0.00    -0.352 N 
ATOM      4  C   UNL A   1      33.243  26.756  24.612  1.00  0.00     0.254 C 
ATOM      5  O   UNL A   1      33.662  27.389  23.636  1.00  0.00    -0.269 OA
ATOM      6  H   UNL A   1      32.249  28.390  25.102  1.00  0.00     0.163 HD
BRANCH   4   7
ATOM      7  C   UNL A   1      33.685  25.371  24.838  1.00  0.00     0.081 A 
ATOM      8  C   UNL A   1      33.832  21.721  25.652  1.00  0.00     0.078 C 
ATOM      9  C   UNL A   1      32.572  21.730  26.542  1.00  0.00     0.115 C 
ATOM     10  C   UNL A   1      34.091  23.144  25.240  1.00  0.00     0.055 A 
ATOM     11  C   UNL A   1      31.450  22.506  25.877  1.00  0.00     0.225 C 
ATOM     12  C   UNL A   1      33.095  24.096  25.087  1.00  0.00     0.076 A 
ATOM     13  N   UNL A   1      35.302  23.793  25.235  1.00  0.00    -0.317 N 
ATOM     14  O   UNL A   1      30.267  22.187  25.973  1.00  0.00    -0.275 OA
ATOM     15  N   UNL A   1      31.798  23.678  25.252  1.00  0.00    -0.324 N 
ATOM     16  C   UNL A   1      35.051  25.126  25.007  1.00  0.00     0.107 A 
ATOM     17  H   UNL A   1      31.077  24.250  24.904  1.00  0.00     0.170 HD
BRANCH   8  18
ATOM     18  C   UNL A   1      33.576  20.699  24.543  1.00  0.00    -0.034 A 
ATOM     19  C   UNL A   1      33.379  18.284  24.082  1.00  0.00     0.160 A 
ATOM     20  C   UNL A   1      33.925  19.359  24.802  1.00  0.00     0.054 A 
ATOM     21  C   UNL A   1      32.476  18.575  23.058  1.00  0.00     0.157 A 
ATOM     22  C   UNL A   1      32.197  19.903  22.722  1.00  0.00     0.050 A 
ATOM     23  C   UNL A   1      32.761  20.960  23.438  1.00  0.00     0.008 A 
BRANCH  19  24
ATOM     24  O   UNL A   1      33.803  17.087  24.577  1.00  0.00    -0.493 OA
ATOM     25  C   UNL A   1      32.982  16.324  25.439  1.00  0.00     0.278 C 
ENDBRANCH  19  24
BRANCH  21  26
ATOM     26  O   UNL A   1      31.769  17.663  22.331  1.00  0.00    -0.504 OA
ATOM     27  H   UNL A   1      32.202  17.140  21.685  1.00  0.00     0.293 HD
ENDBRANCH  21  26
ENDBRANCH   8  18
BRANCH  13  28
ATOM     28  C   UNL A   1      36.567  23.249  25.548  1.00  0.00     0.045 A 
ATOM     29  C   UNL A   1      37.504  24.012  26.251  1.00  0.00     0.026 A 
ATOM     30  C   UNL A   1      36.879  21.952  25.120  1.00  0.00     0.026 A 
ATOM     31  C   UNL A   1      38.761  23.471  26.523  1.00  0.00     0.002 A 
ATOM     32  C   UNL A   1      38.152  21.436  25.363  1.00  0.00     0.002 A 
ATOM     33  C   UNL A   1      39.089  22.193  26.068  1.00  0.00     0.000 A 
ENDBRANCH  13  28
ENDBRANCH   4   7
ENDBRANCH   2   3
ENDBRANCH   1   2
BRANCH   1  34
ATOM     34  C   UNL A   1      32.157  29.597  27.139  1.00  0.00     0.023 C 
BRANCH  34  35
ATOM     35  C   UNL A   1      33.605  29.842  27.556  1.00  0.00     0.116 C 
BRANCH  35  36
ATOM     36  N   UNL A   1      34.108  31.173  27.194  1.00  0.00    -0.352 N 
ATOM     37  C   UNL A   1      35.254  31.808  27.660  1.00  0.00     0.251 C 
ATOM     38  H   UNL A   1      33.569  31.677  26.543  1.00  0.00     0.163 HD
ATOM     39  O   UNL A   1      35.394  33.012  27.624  1.00  0.00    -0.269 OA
BRANCH  37  40
ATOM     40  C   UNL A   1      36.326  30.942  28.174  1.00  0.00     0.039 A 
ATOM     41  C   UNL A   1      36.458  29.600  27.806  1.00  0.00     0.014 A 
ATOM     42  C   UNL A   1      37.279  31.580  28.956  1.00  0.00     0.014 A 
ATOM     43  C   UNL A   1      37.623  28.923  28.166  1.00  0.00     0.010 A 
ATOM     44  C   UNL A   1      38.495  30.984  29.116  1.00  0.00     0.010 A 
ATOM     45  C   UNL A   1      38.645  29.633  28.810  1.00  0.00    -0.014 A 
BRANCH  45  46
ATOM     46  C   UNL A   1      39.921  29.026  29.165  1.00  0.00     0.031 A 
ATOM     47  C   UNL A   1      40.215  28.870  30.614  1.00  0.00     0.074 A 
ATOM     48  C   UNL A   1      40.653  28.382  28.228  1.00  0.00     0.049 A 
ATOM     49  N   UNL A   1      41.200  29.386  31.271  1.00  0.00    -0.248 NA
ATOM     50  C   UNL A   1      39.283  28.101  31.454  1.00  0.00     0.031 C 
ATOM     51  C   UNL A   1      40.338  28.162  26.808  1.00  0.00     0.029 A 
ATOM     52  N   UNL A   1      41.763  27.626  28.402  1.00  0.00    -0.354 N 
ATOM     53  C   UNL A   1      41.117  28.889  32.568  1.00  0.00     0.074 A 
ATOM     54  C   UNL A   1      39.845  28.215  32.660  1.00  0.00     0.031 C 
ATOM     55  C   UNL A   1      41.056  27.117  26.346  1.00  0.00     0.029 A 
ATOM     56  C   UNL A   1      42.012  26.737  27.366  1.00  0.00     0.049 A 
ATOM     57  H   UNL A   1      42.344  27.701  29.194  1.00  0.00     0.167 HD
ATOM     58  C   UNL A   1      42.193  28.891  33.406  1.00  0.00     0.031 A 
ATOM     59  C   UNL A   1      42.916  25.729  27.366  1.00  0.00     0.031 A 
ATOM     60  C   UNL A   1      43.279  29.679  32.882  1.00  0.00     0.049 A 
ATOM     61  C   UNL A   1      43.917  26.047  28.413  1.00  0.00     0.074 A 
ATOM     62  C   UNL A   1      43.432  31.003  32.525  1.00  0.00     0.029 A 
ATOM     63  N   UNL A   1      44.303  29.002  32.261  1.00  0.00    -0.354 N 
ATOM     64  N   UNL A   1      44.714  27.076  28.340  1.00  0.00    -0.248 NA
ATOM     65  C   UNL A   1      43.701  25.524  29.754  1.00  0.00     0.031 C 
ATOM     66  C   UNL A   1      44.193  30.963  31.318  1.00  0.00     0.029 A 
ATOM     67  C   UNL A   1      44.523  29.629  31.061  1.00  0.00     0.049 A 
ATOM     68  H   UNL A   1      44.786  28.217  32.610  1.00  0.00     0.167 HD
ATOM     69  C   UNL A   1      44.729  27.604  29.625  1.00  0.00     0.074 A 
ATOM     70  C   UNL A   1      44.180  26.545  30.473  1.00  0.00     0.031 C 
ATOM     71  C   UNL A   1      44.900  28.944  29.844  1.00  0.00     0.031 A 
BRANCH  58  72
ATOM     72  C   UNL A   1      42.422  27.897  34.513  1.00  0.00    -0.014 A 
ATOM     73  C   UNL A   1      43.111  26.704  34.222  1.00  0.00     0.009 A 
ATOM     74  C   UNL A   1      41.748  27.958  35.746  1.00  0.00     0.009 A 
ATOM     75  C   UNL A   1      43.066  25.606  35.090  1.00  0.00     0.001 A 
ATOM     76  C   UNL A   1      41.735  26.877  36.633  1.00  0.00     0.001 A 
ATOM     77  C   UNL A   1      42.371  25.692  36.292  1.00  0.00     0.000 A 
ENDBRANCH  58  72
BRANCH  59  78
ATOM     78  C   UNL A   1      42.781  24.406  26.723  1.00  0.00    -0.014 A 
ATOM     79  C   UNL A   1      43.156  24.206  25.388  1.00  0.00     0.009 A 
ATOM     80  C   UNL A   1      42.502  23.264  27.502  1.00  0.00     0.009 A 
ATOM     81  C   UNL A   1      43.280  22.911  24.863  1.00  0.00     0.001 A 
ATOM     82  C   UNL A   1      42.624  21.974  26.979  1.00  0.00     0.001 A 
ATOM     83  C   UNL A   1      43.027  21.797  25.661  1.00  0.00     0.000 A 
ENDBRANCH  59  78
BRANCH  71  84
ATOM     84  C   UNL A   1      45.235  29.825  28.660  1.00  0.00    -0.014 A 
ATOM     85  C   UNL A   1      44.253  30.372  27.814  1.00  0.00     0.009 A 
ATOM     86  C   UNL A   1      46.556  30.267  28.505  1.00  0.00     0.009 A 
ATOM     87  C   UNL A   1      44.586  31.305  26.826  1.00  0.00     0.001 A 
ATOM     88  C   UNL A   1      46.887  31.213  27.531  1.00  0.00     0.001 A 
ATOM     89  C   UNL A   1      45.904  31.728  26.688  1.00  0.00     0.000 A 
ENDBRANCH  71  84
ENDBRANCH  45  46
ENDBRANCH  37  40
ENDBRANCH  35  36
ENDBRANCH  34  35
ENDBRANCH   1  34
TORSDOF 15
ENDMDL
