MODEL 1
REMARK VINA RESULT:     -11.0      0.000      0.000
REMARK SMILES COc1ccccc1NC(=O)N[C@@](C)(C(=O)NCCCCNC(=O)c1ccc(-c2c3nc(c(-c4ccccc4)c4ccc([nH]4)c(-c4ccccc4)c4nc(c(-c5ccccc5)c5ccc2[nH]5)C=C4)C=C3)cc1)C(F)(F)F
REMARK SMILES IDX 19 1 18 2 17 3 15 4 16 5 13 7 14 8 12 9 9 10 10 11 11 13
REMARK SMILES IDX 8 15 3 16 4 17 5 18 7 19 6 20 2 21 1 22 73 23 74 24 75 25
REMARK SMILES IDX 76 26 20 27 21 28 22 29 23 30 24 32 25 33 26 34 72 35 27 36
REMARK SMILES IDX 71 37 28 38 29 39 30 40 65 41 31 42 70 43 64 44 66 45 32 46
REMARK SMILES IDX 69 47 63 48 62 49 33 51 55 52 40 53 54 54 41 55 44 56 53 57
REMARK SMILES IDX 67 58 42 59 43 60 52 62 68 63 45 64 34 65 35 66 39 67 36 68
REMARK SMILES IDX 38 69 37 70 56 71 57 72 61 73 58 74 60 75 59 76 46 77 47 78
REMARK SMILES IDX 51 79 48 80 50 81 49 82
REMARK H PARENT 17 6 9 12 12 14 22 31 66 50 44 61
REMARK Flexibility Score: inf
ROOT
ATOM      1  C   UNL A   1      31.730  30.337  26.401  1.00  0.00     0.023 C 
ENDROOT
BRANCH   1   2
ATOM      2  C   UNL A   1      31.273  29.887  25.009  1.00  0.00     0.116 C 
BRANCH   2   3
ATOM      3  N   UNL A   1      32.422  29.432  24.256  1.00  0.00    -0.354 N 
ATOM      4  C   UNL A   1      33.151  28.292  24.199  1.00  0.00     0.255 C 
ATOM      5  O   UNL A   1      34.270  28.490  23.714  1.00  0.00    -0.272 OA
ATOM      6  H   UNL A   1      32.754  30.118  23.634  1.00  0.00     0.163 HD
BRANCH   4   7
ATOM      7  C   UNL A   1      32.557  26.875  24.437  1.00  0.00     0.213 C 
ATOM      8  C   UNL A   1      33.368  25.970  23.490  1.00  0.00     0.056 C 
BRANCH   7   9
ATOM      9  N   UNL A   1      31.105  26.841  24.059  1.00  0.00    -0.316 N 
ATOM     10  N   UNL A   1      30.060  24.759  24.617  1.00  0.00    -0.305 N 
ATOM     11  C   UNL A   1      30.064  26.002  24.120  1.00  0.00     0.320 C 
ATOM     12  H   UNL A   1      29.176  24.511  24.972  1.00  0.00     0.172 HD
ATOM     13  O   UNL A   1      28.972  26.502  23.824  1.00  0.00    -0.248 OA
ATOM     14  H   UNL A   1      30.838  27.692  23.641  1.00  0.00     0.166 HD
BRANCH  10  15
ATOM     15  C   UNL A   1      30.987  23.721  24.762  1.00  0.00     0.085 A 
ATOM     16  C   UNL A   1      31.245  23.244  26.058  1.00  0.00     0.142 A 
ATOM     17  C   UNL A   1      32.347  22.426  26.311  1.00  0.00     0.048 A 
ATOM     18  C   UNL A   1      33.123  21.974  25.247  1.00  0.00     0.004 A 
ATOM     19  C   UNL A   1      31.669  23.144  23.699  1.00  0.00     0.030 A 
ATOM     20  C   UNL A   1      32.752  22.289  23.939  1.00  0.00     0.002 A 
BRANCH  16  21
ATOM     21  O   UNL A   1      30.496  23.670  27.125  1.00  0.00    -0.495 OA
ATOM     22  C   UNL A   1      29.389  22.785  27.327  1.00  0.00     0.278 C 
ENDBRANCH  16  21
ENDBRANCH  10  15
ENDBRANCH   7   9
BRANCH   7  23
ATOM     23  C   UNL A   1      32.880  26.650  25.940  1.00  0.00     0.420 C 
ATOM     24  F   UNL A   1      33.580  25.505  26.132  1.00  0.00    -0.168 F 
ATOM     25  F   UNL A   1      33.616  27.631  26.486  1.00  0.00    -0.168 F 
ATOM     26  F   UNL A   1      31.760  26.599  26.702  1.00  0.00    -0.168 F 
ENDBRANCH   7  23
ENDBRANCH   4   7
ENDBRANCH   2   3
ENDBRANCH   1   2
BRANCH   1  27
ATOM     27  C   UNL A   1      31.529  31.834  26.706  1.00  0.00     0.023 C 
BRANCH  27  28
ATOM     28  C   UNL A   1      32.772  32.613  27.134  1.00  0.00     0.116 C 
BRANCH  28  29
ATOM     29  N   UNL A   1      32.466  33.910  27.703  1.00  0.00    -0.352 N 
ATOM     30  C   UNL A   1      33.186  34.623  28.630  1.00  0.00     0.251 C 
ATOM     31  H   UNL A   1      31.638  34.335  27.383  1.00  0.00     0.163 HD
ATOM     32  O   UNL A   1      32.752  35.682  29.071  1.00  0.00    -0.269 OA
BRANCH  30  33
ATOM     33  C   UNL A   1      34.466  34.082  29.129  1.00  0.00     0.039 A 
ATOM     34  C   UNL A   1      34.448  33.279  30.272  1.00  0.00     0.014 A 
ATOM     35  C   UNL A   1      35.668  34.340  28.462  1.00  0.00     0.014 A 
ATOM     36  C   UNL A   1      35.631  32.686  30.717  1.00  0.00     0.010 A 
ATOM     37  C   UNL A   1      36.837  33.702  28.877  1.00  0.00     0.010 A 
ATOM     38  C   UNL A   1      36.828  32.869  30.006  1.00  0.00    -0.014 A 
BRANCH  38  39
ATOM     39  C   UNL A   1      38.077  32.191  30.434  1.00  0.00     0.031 A 
ATOM     40  C   UNL A   1      38.966  32.827  31.467  1.00  0.00     0.074 A 
ATOM     41  C   UNL A   1      38.436  31.027  29.860  1.00  0.00     0.049 A 
ATOM     42  N   UNL A   1      40.113  32.407  31.939  1.00  0.00    -0.248 NA
ATOM     43  C   UNL A   1      38.516  34.110  32.028  1.00  0.00     0.031 C 
ATOM     44  C   UNL A   1      37.680  30.324  28.822  1.00  0.00     0.029 A 
ATOM     45  N   UNL A   1      39.534  30.230  30.067  1.00  0.00    -0.354 N 
ATOM     46  C   UNL A   1      40.528  33.381  32.837  1.00  0.00     0.074 A 
ATOM     47  C   UNL A   1      39.534  34.432  32.813  1.00  0.00     0.031 C 
ATOM     48  C   UNL A   1      38.324  29.190  28.501  1.00  0.00     0.029 A 
ATOM     49  C   UNL A   1      39.552  29.102  29.284  1.00  0.00     0.049 A 
ATOM     50  H   UNL A   1      40.242  30.446  30.716  1.00  0.00     0.167 HD
ATOM     51  C   UNL A   1      41.629  33.393  33.628  1.00  0.00     0.031 A 
ATOM     52  C   UNL A   1      40.458  28.109  29.203  1.00  0.00     0.031 A 
ATOM     53  C   UNL A   1      42.612  32.345  33.662  1.00  0.00     0.049 A 
ATOM     54  C   UNL A   1      41.676  28.150  30.083  1.00  0.00     0.074 A 
ATOM     55  C   UNL A   1      43.736  32.242  34.464  1.00  0.00     0.029 A 
ATOM     56  N   UNL A   1      42.590  31.217  32.859  1.00  0.00    -0.354 N 
ATOM     57  N   UNL A   1      42.022  29.049  30.973  1.00  0.00    -0.248 NA
ATOM     58  C   UNL A   1      42.623  27.033  29.954  1.00  0.00     0.031 C 
ATOM     59  C   UNL A   1      44.415  31.070  34.117  1.00  0.00     0.029 A 
ATOM     60  C   UNL A   1      43.689  30.421  33.132  1.00  0.00     0.049 A 
ATOM     61  H   UNL A   1      41.895  31.011  32.191  1.00  0.00     0.167 HD
ATOM     62  C   UNL A   1      43.210  28.593  31.527  1.00  0.00     0.074 A 
ATOM     63  C   UNL A   1      43.518  27.332  30.885  1.00  0.00     0.031 C 
ATOM     64  C   UNL A   1      43.978  29.168  32.484  1.00  0.00     0.031 A 
BRANCH  51  65
ATOM     65  C   UNL A   1      41.822  34.586  34.520  1.00  0.00    -0.014 A 
ATOM     66  C   UNL A   1      42.540  35.710  34.082  1.00  0.00     0.009 A 
ATOM     67  C   UNL A   1      41.258  34.598  35.805  1.00  0.00     0.009 A 
ATOM     68  C   UNL A   1      42.723  36.807  34.927  1.00  0.00     0.001 A 
ATOM     69  C   UNL A   1      41.419  35.707  36.638  1.00  0.00     0.001 A 
ATOM     70  C   UNL A   1      42.159  36.805  36.203  1.00  0.00     0.000 A 
ENDBRANCH  51  65
BRANCH  52  71
ATOM     71  C   UNL A   1      40.243  26.977  28.265  1.00  0.00    -0.014 A 
ATOM     72  C   UNL A   1      39.558  25.826  28.685  1.00  0.00     0.009 A 
ATOM     73  C   UNL A   1      40.728  27.037  26.949  1.00  0.00     0.009 A 
ATOM     74  C   UNL A   1      39.389  24.747  27.815  1.00  0.00     0.001 A 
ATOM     75  C   UNL A   1      40.534  25.966  26.075  1.00  0.00     0.001 A 
ATOM     76  C   UNL A   1      39.872  24.818  26.510  1.00  0.00     0.000 A 
ENDBRANCH  52  71
BRANCH  64  77
ATOM     77  C   UNL A   1      45.206  28.421  32.918  1.00  0.00    -0.014 A 
ATOM     78  C   UNL A   1      46.450  28.652  32.312  1.00  0.00     0.009 A 
ATOM     79  C   UNL A   1      45.123  27.501  33.975  1.00  0.00     0.009 A 
ATOM     80  C   UNL A   1      47.582  27.953  32.738  1.00  0.00     0.001 A 
ATOM     81  C   UNL A   1      46.261  26.824  34.415  1.00  0.00     0.001 A 
ATOM     82  C   UNL A   1      47.487  27.045  33.791  1.00  0.00     0.000 A 
ENDBRANCH  64  77
ENDBRANCH  38  39
ENDBRANCH  30  33
ENDBRANCH  28  29
ENDBRANCH  27  28
ENDBRANCH   1  27
TORSDOF 15
ENDMDL
MODEL 2
REMARK VINA RESULT:     -11.0      3.743      8.801
REMARK SMILES COc1ccccc1NC(=O)N[C@@](C)(C(=O)NCCCCNC(=O)c1ccc(-c2c3nc(c(-c4ccccc4)c4ccc([nH]4)c(-c4ccccc4)c4nc(c(-c5ccccc5)c5ccc2[nH]5)C=C4)C=C3)cc1)C(F)(F)F
REMARK SMILES IDX 19 1 18 2 17 3 15 4 16 5 13 7 14 8 12 9 9 10 10 11 11 13
REMARK SMILES IDX 8 15 3 16 4 17 5 18 7 19 6 20 2 21 1 22 73 23 74 24 75 25
REMARK SMILES IDX 76 26 20 27 21 28 22 29 23 30 24 32 25 33 26 34 72 35 27 36
REMARK SMILES IDX 71 37 28 38 29 39 30 40 65 41 31 42 70 43 64 44 66 45 32 46
REMARK SMILES IDX 69 47 63 48 62 49 33 51 55 52 40 53 54 54 41 55 44 56 53 57
REMARK SMILES IDX 67 58 42 59 43 60 52 62 68 63 45 64 34 65 35 66 39 67 36 68
REMARK SMILES IDX 38 69 37 70 56 71 57 72 61 73 58 74 60 75 59 76 46 77 47 78
REMARK SMILES IDX 51 79 48 80 50 81 49 82
REMARK H PARENT 17 6 9 12 12 14 22 31 66 50 44 61
REMARK Flexibility Score: inf
ROOT
ATOM      1  C   UNL A   1      36.695  20.998  24.693  1.00  0.00     0.023 C 
ENDROOT
BRANCH   1   2
ATOM      2  C   UNL A   1      35.278  20.510  25.015  1.00  0.00     0.116 C 
BRANCH   2   3
ATOM      3  N   UNL A   1      34.771  21.245  26.154  1.00  0.00    -0.354 N 
ATOM      4  C   UNL A   1      34.295  22.496  26.365  1.00  0.00     0.255 C 
ATOM      5  O   UNL A   1      34.354  22.813  27.557  1.00  0.00    -0.272 OA
ATOM      6  H   UNL A   1      34.774  20.705  26.976  1.00  0.00     0.163 HD
BRANCH   4   7
ATOM      7  C   UNL A   1      33.507  23.309  25.299  1.00  0.00     0.213 C 
ATOM      8  C   UNL A   1      32.443  24.063  26.120  1.00  0.00     0.056 C 
BRANCH   7   9
ATOM      9  N   UNL A   1      32.840  22.388  24.319  1.00  0.00    -0.316 N 
ATOM     10  N   UNL A   1      31.892  23.560  22.457  1.00  0.00    -0.305 N 
ATOM     11  C   UNL A   1      32.179  22.456  23.157  1.00  0.00     0.320 C 
ATOM     12  H   UNL A   1      31.830  23.374  21.492  1.00  0.00     0.172 HD
ATOM     13  O   UNL A   1      31.957  21.365  22.618  1.00  0.00    -0.248 OA
ATOM     14  H   UNL A   1      32.910  21.454  24.622  1.00  0.00     0.166 HD
BRANCH  10  15
ATOM     15  C   UNL A   1      31.658  24.910  22.742  1.00  0.00     0.085 A 
ATOM     16  C   UNL A   1      32.443  25.869  22.079  1.00  0.00     0.142 A 
ATOM     17  C   UNL A   1      32.468  27.194  22.513  1.00  0.00     0.048 A 
ATOM     18  C   UNL A   1      31.610  27.597  23.534  1.00  0.00     0.004 A 
ATOM     19  C   UNL A   1      30.703  25.351  23.646  1.00  0.00     0.030 A 
ATOM     20  C   UNL A   1      30.692  26.689  24.062  1.00  0.00     0.002 A 
BRANCH  16  21
ATOM     21  O   UNL A   1      33.295  25.502  21.069  1.00  0.00    -0.495 OA
ATOM     22  C   UNL A   1      32.597  25.504  19.818  1.00  0.00     0.278 C 
ENDBRANCH  16  21
ENDBRANCH  10  15
ENDBRANCH   7   9
BRANCH   7  23
ATOM     23  C   UNL A   1      34.619  24.230  24.726  1.00  0.00     0.420 C 
ATOM     24  F   UNL A   1      34.262  25.537  24.788  1.00  0.00    -0.168 F 
ATOM     25  F   UNL A   1      35.789  24.134  25.377  1.00  0.00    -0.168 F 
ATOM     26  F   UNL A   1      34.919  23.931  23.438  1.00  0.00    -0.168 F 
ENDBRANCH   7  23
ENDBRANCH   4   7
ENDBRANCH   2   3
ENDBRANCH   1   2
BRANCH   1  27
ATOM     27  C   UNL A   1      37.806  19.944  24.857  1.00  0.00     0.023 C 
BRANCH  27  28
ATOM     28  C   UNL A   1      38.971  20.321  25.770  1.00  0.00     0.116 C 
BRANCH  28  29
ATOM     29  N   UNL A   1      40.049  19.354  25.752  1.00  0.00    -0.352 N 
ATOM     30  C   UNL A   1      41.361  19.535  26.117  1.00  0.00     0.251 C 
ATOM     31  H   UNL A   1      39.811  18.451  25.440  1.00  0.00     0.163 HD
ATOM     32  O   UNL A   1      42.176  18.629  25.972  1.00  0.00    -0.269 OA
BRANCH  30  33
ATOM     33  C   UNL A   1      41.795  20.844  26.644  1.00  0.00     0.039 A 
ATOM     34  C   UNL A   1      42.270  21.799  25.741  1.00  0.00     0.014 A 
ATOM     35  C   UNL A   1      41.709  21.139  28.008  1.00  0.00     0.014 A 
ATOM     36  C   UNL A   1      42.607  23.073  26.199  1.00  0.00     0.010 A 
ATOM     37  C   UNL A   1      41.995  22.429  28.453  1.00  0.00     0.010 A 
ATOM     38  C   UNL A   1      42.445  23.407  27.554  1.00  0.00    -0.014 A 
BRANCH  38  39
ATOM     39  C   UNL A   1      42.740  24.779  28.039  1.00  0.00     0.031 A 
ATOM     40  C   UNL A   1      44.147  25.166  28.398  1.00  0.00     0.074 A 
ATOM     41  C   UNL A   1      41.736  25.661  28.201  1.00  0.00     0.049 A 
ATOM     42  N   UNL A   1      44.594  26.300  28.875  1.00  0.00    -0.248 NA
ATOM     43  C   UNL A   1      45.184  24.139  28.216  1.00  0.00     0.031 C 
ATOM     44  C   UNL A   1      40.322  25.399  27.921  1.00  0.00     0.029 A 
ATOM     45  N   UNL A   1      41.750  26.959  28.645  1.00  0.00    -0.354 N 
ATOM     46  C   UNL A   1      45.958  26.117  29.065  1.00  0.00     0.074 A 
ATOM     47  C   UNL A   1      46.258  24.751  28.694  1.00  0.00     0.031 C 
ATOM     48  C   UNL A   1      39.611  26.508  28.178  1.00  0.00     0.029 A 
ATOM     49  C   UNL A   1      40.509  27.547  28.671  1.00  0.00     0.049 A 
ATOM     50  H   UNL A   1      42.573  27.426  28.920  1.00  0.00     0.167 HD
ATOM     51  C   UNL A   1      46.883  27.010  29.491  1.00  0.00     0.031 A 
ATOM     52  C   UNL A   1      40.135  28.783  29.051  1.00  0.00     0.031 A 
ATOM     53  C   UNL A   1      46.590  28.371  29.850  1.00  0.00     0.049 A 
ATOM     54  C   UNL A   1      41.180  29.753  29.530  1.00  0.00     0.074 A 
ATOM     55  C   UNL A   1      47.466  29.367  30.247  1.00  0.00     0.029 A 
ATOM     56  N   UNL A   1      45.322  28.929  29.855  1.00  0.00    -0.354 N 
ATOM     57  N   UNL A   1      42.475  29.582  29.644  1.00  0.00    -0.248 NA
ATOM     58  C   UNL A   1      40.711  31.089  29.922  1.00  0.00     0.031 C 
ATOM     59  C   UNL A   1      46.722  30.516  30.530  1.00  0.00     0.029 A 
ATOM     60  C   UNL A   1      45.389  30.249  30.265  1.00  0.00     0.049 A 
ATOM     61  H   UNL A   1      44.495  28.456  29.604  1.00  0.00     0.167 HD
ATOM     62  C   UNL A   1      42.976  30.795  30.096  1.00  0.00     0.074 A 
ATOM     63  C   UNL A   1      41.851  31.697  30.220  1.00  0.00     0.031 C 
ATOM     64  C   UNL A   1      44.258  31.132  30.381  1.00  0.00     0.031 A 
BRANCH  51  65
ATOM     65  C   UNL A   1      48.304  26.532  29.593  1.00  0.00    -0.014 A 
ATOM     66  C   UNL A   1      48.779  25.915  30.761  1.00  0.00     0.009 A 
ATOM     67  C   UNL A   1      49.172  26.678  28.500  1.00  0.00     0.009 A 
ATOM     68  C   UNL A   1      50.107  25.489  30.847  1.00  0.00     0.001 A 
ATOM     69  C   UNL A   1      50.491  26.227  28.579  1.00  0.00     0.001 A 
ATOM     70  C   UNL A   1      50.960  25.642  29.754  1.00  0.00     0.000 A 
ENDBRANCH  51  65
BRANCH  52  71
ATOM     71  C   UNL A   1      38.707  29.188  28.978  1.00  0.00    -0.014 A 
ATOM     72  C   UNL A   1      37.869  29.039  30.093  1.00  0.00     0.009 A 
ATOM     73  C   UNL A   1      38.174  29.715  27.792  1.00  0.00     0.009 A 
ATOM     74  C   UNL A   1      36.518  29.385  30.014  1.00  0.00     0.001 A 
ATOM     75  C   UNL A   1      36.829  30.084  27.724  1.00  0.00     0.001 A 
ATOM     76  C   UNL A   1      36.000  29.910  28.832  1.00  0.00     0.000 A 
ENDBRANCH  52  71
BRANCH  64  77
ATOM     77  C   UNL A   1      44.513  32.545  30.823  1.00  0.00    -0.014 A 
ATOM     78  C   UNL A   1      44.508  32.895  32.182  1.00  0.00     0.009 A 
ATOM     79  C   UNL A   1      44.801  33.530  29.865  1.00  0.00     0.009 A 
ATOM     80  C   UNL A   1      44.757  34.212  32.571  1.00  0.00     0.001 A 
ATOM     81  C   UNL A   1      45.075  34.840  30.260  1.00  0.00     0.001 A 
ATOM     82  C   UNL A   1      45.045  35.182  31.611  1.00  0.00     0.000 A 
ENDBRANCH  64  77
ENDBRANCH  38  39
ENDBRANCH  30  33
ENDBRANCH  28  29
ENDBRANCH  27  28
ENDBRANCH   1  27
TORSDOF 15
ENDMDL
MODEL 3
REMARK VINA RESULT:     -11.0      1.089      5.948
REMARK SMILES COc1ccccc1NC(=O)N[C@@](C)(C(=O)NCCCCNC(=O)c1ccc(-c2c3nc(c(-c4ccccc4)c4ccc([nH]4)c(-c4ccccc4)c4nc(c(-c5ccccc5)c5ccc2[nH]5)C=C4)C=C3)cc1)C(F)(F)F
REMARK SMILES IDX 19 1 18 2 17 3 15 4 16 5 13 7 14 8 12 9 9 10 10 11 11 13
REMARK SMILES IDX 8 15 3 16 4 17 5 18 7 19 6 20 2 21 1 22 73 23 74 24 75 25
REMARK SMILES IDX 76 26 20 27 21 28 22 29 23 30 24 32 25 33 26 34 72 35 27 36
REMARK SMILES IDX 71 37 28 38 29 39 30 40 65 41 31 42 70 43 64 44 66 45 32 46
REMARK SMILES IDX 69 47 63 48 62 49 33 51 55 52 40 53 54 54 41 55 44 56 53 57
REMARK SMILES IDX 67 58 42 59 43 60 52 62 68 63 45 64 34 65 35 66 39 67 36 68
REMARK SMILES IDX 38 69 37 70 56 71 57 72 61 73 58 74 60 75 59 76 46 77 47 78
REMARK SMILES IDX 51 79 48 80 50 81 49 82
REMARK H PARENT 17 6 9 12 12 14 22 31 66 50 44 61
REMARK Flexibility Score: inf
ROOT
ATOM      1  C   UNL A   1      31.793  30.369  26.470  1.00  0.00     0.023 C 
ENDROOT
BRANCH   1   2
ATOM      2  C   UNL A   1      31.332  29.924  25.078  1.00  0.00     0.116 C 
BRANCH   2   3
ATOM      3  N   UNL A   1      32.474  29.439  24.333  1.00  0.00    -0.354 N 
ATOM      4  C   UNL A   1      33.176  28.282  24.285  1.00  0.00     0.255 C 
ATOM      5  O   UNL A   1      34.301  28.450  23.804  1.00  0.00    -0.272 OA
ATOM      6  H   UNL A   1      32.825  30.114  23.710  1.00  0.00     0.163 HD
BRANCH   4   7
ATOM      7  C   UNL A   1      32.547  26.880  24.526  1.00  0.00     0.213 C 
ATOM      8  C   UNL A   1      33.343  25.951  23.589  1.00  0.00     0.056 C 
BRANCH   7   9
ATOM      9  N   UNL A   1      31.097  26.879  24.137  1.00  0.00    -0.316 N 
ATOM     10  N   UNL A   1      30.017  24.799  24.633  1.00  0.00    -0.305 N 
ATOM     11  C   UNL A   1      30.044  26.054  24.170  1.00  0.00     0.320 C 
ATOM     12  H   UNL A   1      29.127  24.555  24.976  1.00  0.00     0.172 HD
ATOM     13  O   UNL A   1      28.961  26.578  23.880  1.00  0.00    -0.248 OA
ATOM     14  H   UNL A   1      30.846  27.744  23.741  1.00  0.00     0.166 HD
BRANCH  10  15
ATOM     15  C   UNL A   1      30.928  23.743  24.757  1.00  0.00     0.085 A 
ATOM     16  C   UNL A   1      31.187  23.243  26.044  1.00  0.00     0.142 A 
ATOM     17  C   UNL A   1      32.276  22.403  26.278  1.00  0.00     0.048 A 
ATOM     18  C   UNL A   1      33.038  21.953  25.201  1.00  0.00     0.004 A 
ATOM     19  C   UNL A   1      31.592  23.170  23.681  1.00  0.00     0.030 A 
ATOM     20  C   UNL A   1      32.662  22.293  23.901  1.00  0.00     0.002 A 
BRANCH  16  21
ATOM     21  O   UNL A   1      30.453  23.666  27.122  1.00  0.00    -0.495 OA
ATOM     22  C   UNL A   1      29.381  22.751  27.370  1.00  0.00     0.278 C 
ENDBRANCH  16  21
ENDBRANCH  10  15
ENDBRANCH   7   9
BRANCH   7  23
ATOM     23  C   UNL A   1      32.855  26.656  26.032  1.00  0.00     0.420 C 
ATOM     24  F   UNL A   1      31.720  26.637  26.773  1.00  0.00    -0.168 F 
ATOM     25  F   UNL A   1      33.485  25.499  26.289  1.00  0.00    -0.168 F 
ATOM     26  F   UNL A   1      33.677  27.611  26.534  1.00  0.00    -0.168 F 
ENDBRANCH   7  23
ENDBRANCH   4   7
ENDBRANCH   2   3
ENDBRANCH   1   2
BRANCH   1  27
ATOM     27  C   UNL A   1      31.511  31.844  26.816  1.00  0.00     0.023 C 
BRANCH  27  28
ATOM     28  C   UNL A   1      32.717  32.691  27.218  1.00  0.00     0.116 C 
BRANCH  28  29
ATOM     29  N   UNL A   1      32.363  34.039  27.614  1.00  0.00    -0.352 N 
ATOM     30  C   UNL A   1      32.991  34.850  28.527  1.00  0.00     0.251 C 
ATOM     31  H   UNL A   1      31.572  34.423  27.171  1.00  0.00     0.163 HD
ATOM     32  O   UNL A   1      32.522  35.948  28.809  1.00  0.00    -0.269 OA
BRANCH  30  33
ATOM     33  C   UNL A   1      34.214  34.372  29.203  1.00  0.00     0.039 A 
ATOM     34  C   UNL A   1      34.088  33.775  30.460  1.00  0.00     0.014 A 
ATOM     35  C   UNL A   1      35.468  34.486  28.595  1.00  0.00     0.014 A 
ATOM     36  C   UNL A   1      35.215  33.239  31.085  1.00  0.00     0.010 A 
ATOM     37  C   UNL A   1      36.582  33.901  29.196  1.00  0.00     0.010 A 
ATOM     38  C   UNL A   1      36.465  33.272  30.445  1.00  0.00    -0.014 A 
BRANCH  38  39
ATOM     39  C   UNL A   1      37.656  32.647  31.073  1.00  0.00     0.031 A 
ATOM     40  C   UNL A   1      38.283  31.427  30.457  1.00  0.00     0.074 A 
ATOM     41  C   UNL A   1      38.145  33.148  32.224  1.00  0.00     0.049 A 
ATOM     42  N   UNL A   1      39.300  30.720  30.880  1.00  0.00    -0.248 NA
ATOM     43  C   UNL A   1      37.676  30.926  29.215  1.00  0.00     0.031 C 
ATOM     44  C   UNL A   1      37.607  34.306  32.941  1.00  0.00     0.029 A 
ATOM     45  N   UNL A   1      39.205  32.743  32.995  1.00  0.00    -0.354 N 
ATOM     46  C   UNL A   1      39.443  29.684  29.967  1.00  0.00     0.074 A 
ATOM     47  C   UNL A   1      38.383  29.829  28.992  1.00  0.00     0.031 C 
ATOM     48  C   UNL A   1      38.355  34.532  34.034  1.00  0.00     0.029 A 
ATOM     49  C   UNL A   1      39.402  33.518  34.113  1.00  0.00     0.049 A 
ATOM     50  H   UNL A   1      39.772  31.971  32.769  1.00  0.00     0.167 HD
ATOM     51  C   UNL A   1      40.383  28.709  29.929  1.00  0.00     0.031 A 
ATOM     52  C   UNL A   1      40.320  33.422  35.092  1.00  0.00     0.031 A 
ATOM     53  C   UNL A   1      41.444  28.569  30.889  1.00  0.00     0.049 A 
ATOM     54  C   UNL A   1      41.347  32.325  35.033  1.00  0.00     0.074 A 
ATOM     55  C   UNL A   1      42.473  27.644  30.909  1.00  0.00     0.029 A 
ATOM     56  N   UNL A   1      41.612  29.378  32.001  1.00  0.00    -0.354 N 
ATOM     57  N   UNL A   1      41.505  31.390  34.127  1.00  0.00    -0.248 NA
ATOM     58  C   UNL A   1      42.327  32.277  36.127  1.00  0.00     0.031 C 
ATOM     59  C   UNL A   1      43.241  27.869  32.057  1.00  0.00     0.029 A 
ATOM     60  C   UNL A   1      42.716  28.963  32.725  1.00  0.00     0.049 A 
ATOM     61  H   UNL A   1      41.030  30.136  32.242  1.00  0.00     0.167 HD
ATOM     62  C   UNL A   1      42.616  30.661  34.528  1.00  0.00     0.074 A 
ATOM     63  C   UNL A   1      43.102  31.270  35.749  1.00  0.00     0.031 C 
ATOM     64  C   UNL A   1      43.186  29.583  33.936  1.00  0.00     0.031 A 
BRANCH  51  65
ATOM     65  C   UNL A   1      40.298  27.715  28.806  1.00  0.00    -0.014 A 
ATOM     66  C   UNL A   1      40.943  27.948  27.580  1.00  0.00     0.009 A 
ATOM     67  C   UNL A   1      39.586  26.518  28.982  1.00  0.00     0.009 A 
ATOM     68  C   UNL A   1      40.843  27.021  26.540  1.00  0.00     0.001 A 
ATOM     69  C   UNL A   1      39.512  25.581  27.950  1.00  0.00     0.001 A 
ATOM     70  C   UNL A   1      40.131  25.837  26.728  1.00  0.00     0.000 A 
ENDBRANCH  51  65
BRANCH  52  71
ATOM     71  C   UNL A   1      40.327  34.402  36.209  1.00  0.00    -0.014 A 
ATOM     72  C   UNL A   1      39.599  34.149  37.381  1.00  0.00     0.009 A 
ATOM     73  C   UNL A   1      41.054  35.598  36.104  1.00  0.00     0.009 A 
ATOM     74  C   UNL A   1      39.575  35.087  38.415  1.00  0.00     0.001 A 
ATOM     75  C   UNL A   1      41.050  36.522  37.151  1.00  0.00     0.001 A 
ATOM     76  C   UNL A   1      40.303  36.271  38.302  1.00  0.00     0.000 A 
ENDBRANCH  52  71
BRANCH  64  77
ATOM     77  C   UNL A   1      44.416  29.016  34.583  1.00  0.00    -0.014 A 
ATOM     78  C   UNL A   1      44.329  28.001  35.549  1.00  0.00     0.009 A 
ATOM     79  C   UNL A   1      45.683  29.477  34.191  1.00  0.00     0.009 A 
ATOM     80  C   UNL A   1      45.487  27.480  36.131  1.00  0.00     0.001 A 
ATOM     81  C   UNL A   1      46.838  28.936  34.756  1.00  0.00     0.001 A 
ATOM     82  C   UNL A   1      46.739  27.945  35.730  1.00  0.00     0.000 A 
ENDBRANCH  64  77
ENDBRANCH  38  39
ENDBRANCH  30  33
ENDBRANCH  28  29
ENDBRANCH  27  28
ENDBRANCH   1  27
TORSDOF 15
ENDMDL
