MODEL 1
REMARK VINA RESULT:     -12.4      0.000      0.000
REMARK SMILES O=C(NCCCCNC(=O)[C@@H]1CCCC[C@H]1C(=O)Nc1ccc(NC(=O)c2ccco2)cc1)c1ccc(-c2c3nc(c(-c4ccccc4)c4ccc([nH]4)c(-c4ccccc4)c4nc(c(-c5ccccc5)c5ccc2[nH]5)C=C4)C=C3)cc1
REMARK SMILES IDX 6 1 5 2 4 3 3 4 1 5 2 6 34 8 35 9 81 10 36 11 80 12 37 13
REMARK SMILES IDX 38 14 39 15 74 16 40 17 79 18 73 19 75 20 41 21 78 22 72 23
REMARK SMILES IDX 71 24 42 26 64 27 49 28 63 29 50 30 53 31 62 32 76 33 51 34
REMARK SMILES IDX 52 35 61 37 77 38 54 39 43 40 44 41 48 42 45 43 47 44 46 45
REMARK SMILES IDX 65 46 66 47 70 48 67 49 69 50 68 51 55 52 56 53 60 54 57 55
REMARK SMILES IDX 59 56 58 57 7 58 8 59 9 60 10 62 11 63 12 64 16 65 13 66
REMARK SMILES IDX 15 67 14 68 17 69 18 70 19 71 20 73 21 74 33 75 22 76 32 77
REMARK SMILES IDX 23 78 24 79 25 80 26 82 27 83 28 84 31 85 29 86 30 87
REMARK H PARENT 3 7 75 25 53 36 8 61 19 72 24 81
REMARK Flexibility Score: inf
ROOT
ATOM      1  C   UNL A   1      31.765  30.351  26.868  1.00  0.00     0.023 C 
ENDROOT
BRANCH   1   2
ATOM      2  C   UNL A   1      31.639  31.854  26.654  1.00  0.00     0.023 C 
BRANCH   2   3
ATOM      3  C   UNL A   1      32.794  32.656  27.225  1.00  0.00     0.116 C 
BRANCH   3   4
ATOM      4  N   UNL A   1      32.418  34.007  27.622  1.00  0.00    -0.352 N 
ATOM      5  O   UNL A   1      32.527  35.883  28.886  1.00  0.00    -0.269 OA
ATOM      6  C   UNL A   1      33.000  34.794  28.582  1.00  0.00     0.251 C 
ATOM      7  H   UNL A   1      31.652  34.401  27.144  1.00  0.00     0.163 HD
BRANCH   6   8
ATOM      8  C   UNL A   1      34.196  34.277  29.268  1.00  0.00     0.039 A 
ATOM      9  C   UNL A   1      35.461  34.523  28.730  1.00  0.00     0.014 A 
ATOM     10  C   UNL A   1      34.039  33.475  30.398  1.00  0.00     0.014 A 
ATOM     11  C   UNL A   1      36.559  33.851  29.243  1.00  0.00     0.010 A 
ATOM     12  C   UNL A   1      35.159  32.871  30.969  1.00  0.00     0.010 A 
ATOM     13  C   UNL A   1      36.421  33.034  30.377  1.00  0.00    -0.014 A 
BRANCH  13  14
ATOM     14  C   UNL A   1      37.635  32.425  30.965  1.00  0.00     0.031 A 
ATOM     15  C   UNL A   1      38.218  32.927  32.253  1.00  0.00     0.074 A 
ATOM     16  C   UNL A   1      38.176  31.366  30.333  1.00  0.00     0.049 A 
ATOM     17  N   UNL A   1      39.257  32.478  32.910  1.00  0.00    -0.248 NA
ATOM     18  C   UNL A   1      37.558  34.081  32.885  1.00  0.00     0.031 C 
ATOM     19  C   UNL A   1      37.686  30.797  29.072  1.00  0.00     0.029 A 
ATOM     20  N   UNL A   1      39.230  30.563  30.673  1.00  0.00    -0.354 N 
ATOM     21  C   UNL A   1      39.388  33.301  34.021  1.00  0.00     0.074 A 
ATOM     22  C   UNL A   1      38.334  34.290  33.941  1.00  0.00     0.031 C 
ATOM     23  C   UNL A   1      38.399  29.701  28.780  1.00  0.00     0.029 A 
ATOM     24  C   UNL A   1      39.435  29.532  29.790  1.00  0.00     0.049 A 
ATOM     25  H   UNL A   1      39.786  30.708  31.473  1.00  0.00     0.167 HD
ATOM     26  C   UNL A   1      40.304  33.232  35.016  1.00  0.00     0.031 A 
ATOM     27  C   UNL A   1      40.366  28.562  29.783  1.00  0.00     0.031 A 
ATOM     28  C   UNL A   1      41.351  32.247  35.087  1.00  0.00     0.049 A 
ATOM     29  C   UNL A   1      41.377  28.525  30.887  1.00  0.00     0.074 A 
ATOM     30  C   UNL A   1      42.332  32.095  36.052  1.00  0.00     0.029 A 
ATOM     31  N   UNL A   1      41.552  31.242  34.152  1.00  0.00    -0.354 N 
ATOM     32  N   UNL A   1      41.486  29.312  31.931  1.00  0.00    -0.248 NA
ATOM     33  C   UNL A   1      42.394  27.469  30.812  1.00  0.00     0.031 C 
ATOM     34  C   UNL A   1      43.147  31.019  35.683  1.00  0.00     0.029 A 
ATOM     35  C   UNL A   1      42.646  30.473  34.512  1.00  0.00     0.049 A 
ATOM     36  H   UNL A   1      40.997  31.096  33.352  1.00  0.00     0.167 HD
ATOM     37  C   UNL A   1      42.581  28.845  32.640  1.00  0.00     0.074 A 
ATOM     38  C   UNL A   1      43.082  27.688  31.924  1.00  0.00     0.031 C 
ATOM     39  C   UNL A   1      43.131  29.335  33.778  1.00  0.00     0.031 A 
BRANCH  26  40
ATOM     40  C   UNL A   1      40.229  34.268  36.103  1.00  0.00    -0.014 A 
ATOM     41  C   UNL A   1      40.936  35.477  36.005  1.00  0.00     0.009 A 
ATOM     42  C   UNL A   1      39.401  34.054  37.217  1.00  0.00     0.009 A 
ATOM     43  C   UNL A   1      40.833  36.440  37.013  1.00  0.00     0.001 A 
ATOM     44  C   UNL A   1      39.282  35.028  38.210  1.00  0.00     0.001 A 
ATOM     45  C   UNL A   1      40.003  36.217  38.111  1.00  0.00     0.000 A 
ENDBRANCH  26  40
BRANCH  27  46
ATOM     46  C   UNL A   1      40.388  27.569  28.680  1.00  0.00    -0.014 A 
ATOM     47  C   UNL A   1      39.656  26.377  28.775  1.00  0.00     0.009 A 
ATOM     48  C   UNL A   1      41.125  27.825  27.513  1.00  0.00     0.009 A 
ATOM     49  C   UNL A   1      39.679  25.451  27.731  1.00  0.00     0.001 A 
ATOM     50  C   UNL A   1      41.121  26.912  26.459  1.00  0.00     0.001 A 
ATOM     51  C   UNL A   1      40.406  25.722  26.572  1.00  0.00     0.000 A 
ENDBRANCH  27  46
BRANCH  39  52
ATOM     52  C   UNL A   1      44.324  28.600  34.314  1.00  0.00    -0.014 A 
ATOM     53  C   UNL A   1      45.626  28.964  33.937  1.00  0.00     0.009 A 
ATOM     54  C   UNL A   1      44.143  27.536  35.210  1.00  0.00     0.009 A 
ATOM     55  C   UNL A   1      46.724  28.250  34.419  1.00  0.00     0.001 A 
ATOM     56  C   UNL A   1      45.244  26.840  35.710  1.00  0.00     0.001 A 
ATOM     57  C   UNL A   1      46.531  27.191  35.306  1.00  0.00     0.000 A 
ENDBRANCH  39  52
ENDBRANCH  13  14
ENDBRANCH   6   8
ENDBRANCH   3   4
ENDBRANCH   2   3
ENDBRANCH   1   2
BRANCH   1  58
ATOM     58  C   UNL A   1      32.201  29.561  25.638  1.00  0.00     0.116 C 
BRANCH  58  59
ATOM     59  N   UNL A   1      31.320  29.767  24.506  1.00  0.00    -0.356 N 
ATOM     60  C   UNL A   1      31.080  28.997  23.415  1.00  0.00     0.223 C 
ATOM     61  H   UNL A   1      30.809  30.608  24.533  1.00  0.00     0.163 HD
ATOM     62  O   UNL A   1      30.307  29.436  22.558  1.00  0.00    -0.275 OA
BRANCH  60  63
ATOM     63  C   UNL A   1      31.715  27.628  23.232  1.00  0.00     0.091 C 
ATOM     64  C   UNL A   1      32.888  27.637  22.239  1.00  0.00     0.014 C 
ATOM     65  C   UNL A   1      30.691  26.506  23.016  1.00  0.00     0.091 C 
ATOM     66  C   UNL A   1      33.506  26.250  22.095  1.00  0.00     0.001 C 
ATOM     67  C   UNL A   1      31.356  25.138  22.803  1.00  0.00     0.014 C 
ATOM     68  C   UNL A   1      32.452  25.208  21.737  1.00  0.00     0.001 C 
BRANCH  65  69
ATOM     69  C   UNL A   1      29.499  26.459  24.001  1.00  0.00     0.228 C 
ATOM     70  O   UNL A   1      28.400  26.901  23.638  1.00  0.00    -0.274 OA
ATOM     71  N   UNL A   1      29.506  25.845  25.218  1.00  0.00    -0.326 N 
ATOM     72  H   UNL A   1      28.648  25.862  25.700  1.00  0.00     0.169 HD
BRANCH  71  73
ATOM     73  C   UNL A   1      30.542  25.200  25.882  1.00  0.00     0.041 A 
ATOM     74  C   UNL A   1      30.329  23.905  26.331  1.00  0.00     0.028 A 
ATOM     75  C   UNL A   1      31.767  25.805  26.111  1.00  0.00     0.028 A 
ATOM     76  C   UNL A   1      31.415  23.143  26.764  1.00  0.00     0.028 A 
ATOM     77  C   UNL A   1      32.861  25.033  26.502  1.00  0.00     0.028 A 
ATOM     78  C   UNL A   1      32.708  23.664  26.732  1.00  0.00     0.041 A 
BRANCH  78  79
ATOM     79  N   UNL A   1      33.891  22.918  26.869  1.00  0.00    -0.319 N 
ATOM     80  C   UNL A   1      34.413  21.848  26.169  1.00  0.00     0.291 C 
ATOM     81  H   UNL A   1      34.461  23.218  27.613  1.00  0.00     0.170 HD
ATOM     82  O   UNL A   1      35.533  21.454  26.499  1.00  0.00    -0.265 OA
BRANCH  80  83
ATOM     83  C   UNL A   1      33.682  21.265  25.075  1.00  0.00     0.191 A 
ATOM     84  C   UNL A   1      33.293  21.759  23.842  1.00  0.00     0.056 A 
ATOM     85  O   UNL A   1      33.226  19.984  25.218  1.00  0.00    -0.459 OA
ATOM     86  C   UNL A   1      32.528  20.738  23.222  1.00  0.00     0.043 A 
ATOM     87  C   UNL A   1      32.527  19.676  24.096  1.00  0.00     0.196 A 
ENDBRANCH  80  83
ENDBRANCH  78  79
ENDBRANCH  71  73
ENDBRANCH  65  69
ENDBRANCH  60  63
ENDBRANCH  58  59
ENDBRANCH   1  58
TORSDOF 15
ENDMDL
MODEL 2
REMARK VINA RESULT:     -12.4      4.448      9.956
REMARK SMILES O=C(NCCCCNC(=O)[C@@H]1CCCC[C@H]1C(=O)Nc1ccc(NC(=O)c2ccco2)cc1)c1ccc(-c2c3nc(c(-c4ccccc4)c4ccc([nH]4)c(-c4ccccc4)c4nc(c(-c5ccccc5)c5ccc2[nH]5)C=C4)C=C3)cc1
REMARK SMILES IDX 6 1 5 2 4 3 3 4 1 5 2 6 34 8 35 9 81 10 36 11 80 12 37 13
REMARK SMILES IDX 38 14 39 15 74 16 40 17 79 18 73 19 75 20 41 21 78 22 72 23
REMARK SMILES IDX 71 24 42 26 64 27 49 28 63 29 50 30 53 31 62 32 76 33 51 34
REMARK SMILES IDX 52 35 61 37 77 38 54 39 43 40 44 41 48 42 45 43 47 44 46 45
REMARK SMILES IDX 65 46 66 47 70 48 67 49 69 50 68 51 55 52 56 53 60 54 57 55
REMARK SMILES IDX 59 56 58 57 7 58 8 59 9 60 10 62 11 63 12 64 16 65 13 66
REMARK SMILES IDX 15 67 14 68 17 69 18 70 19 71 20 73 21 74 33 75 22 76 32 77
REMARK SMILES IDX 23 78 24 79 25 80 26 82 27 83 28 84 31 85 29 86 30 87
REMARK H PARENT 3 7 75 25 53 36 8 61 19 72 24 81
REMARK Flexibility Score: inf
ROOT
ATOM      1  C   UNL A   1      37.371  21.288  24.622  1.00  0.00     0.023 C 
ENDROOT
BRANCH   1   2
ATOM      2  C   UNL A   1      38.056  19.979  24.991  1.00  0.00     0.023 C 
BRANCH   2   3
ATOM      3  C   UNL A   1      39.200  20.138  25.975  1.00  0.00     0.116 C 
BRANCH   3   4
ATOM      4  N   UNL A   1      40.208  19.091  25.860  1.00  0.00    -0.352 N 
ATOM      5  O   UNL A   1      42.317  18.271  25.775  1.00  0.00    -0.269 OA
ATOM      6  C   UNL A   1      41.568  19.217  25.989  1.00  0.00     0.251 C 
ATOM      7  H   UNL A   1      39.873  18.186  25.666  1.00  0.00     0.163 HD
BRANCH   6   8
ATOM      8  C   UNL A   1      42.110  20.536  26.356  1.00  0.00     0.039 A 
ATOM      9  C   UNL A   1      42.249  20.874  27.703  1.00  0.00     0.014 A 
ATOM     10  C   UNL A   1      42.393  21.460  25.349  1.00  0.00     0.014 A 
ATOM     11  C   UNL A   1      42.539  22.185  28.047  1.00  0.00     0.010 A 
ATOM     12  C   UNL A   1      42.774  22.755  25.698  1.00  0.00     0.010 A 
ATOM     13  C   UNL A   1      42.822  23.132  27.049  1.00  0.00    -0.014 A 
BRANCH  13  14
ATOM     14  C   UNL A   1      43.240  24.491  27.459  1.00  0.00     0.031 A 
ATOM     15  C   UNL A   1      44.675  24.923  27.386  1.00  0.00     0.074 A 
ATOM     16  C   UNL A   1      42.282  25.352  27.852  1.00  0.00     0.049 A 
ATOM     17  N   UNL A   1      45.193  26.089  27.679  1.00  0.00    -0.248 NA
ATOM     18  C   UNL A   1      45.657  23.924  26.934  1.00  0.00     0.031 C 
ATOM     19  C   UNL A   1      40.854  25.032  27.958  1.00  0.00     0.029 A 
ATOM     20  N   UNL A   1      42.354  26.672  28.204  1.00  0.00    -0.354 N 
ATOM     21  C   UNL A   1      46.559  25.961  27.465  1.00  0.00     0.074 A 
ATOM     22  C   UNL A   1      46.794  24.600  27.036  1.00  0.00     0.031 C 
ATOM     23  C   UNL A   1      40.179  26.142  28.287  1.00  0.00     0.029 A 
ATOM     24  C   UNL A   1      41.130  27.228  28.483  1.00  0.00     0.049 A 
ATOM     25  H   UNL A   1      43.199  27.174  28.252  1.00  0.00     0.167 HD
ATOM     26  C   UNL A   1      47.525  26.900  27.611  1.00  0.00     0.031 A 
ATOM     27  C   UNL A   1      40.807  28.473  28.871  1.00  0.00     0.031 A 
ATOM     28  C   UNL A   1      47.283  28.252  28.041  1.00  0.00     0.049 A 
ATOM     29  C   UNL A   1      41.901  29.482  29.043  1.00  0.00     0.074 A 
ATOM     30  C   UNL A   1      48.195  29.277  28.224  1.00  0.00     0.029 A 
ATOM     31  N   UNL A   1      46.034  28.768  28.353  1.00  0.00    -0.354 N 
ATOM     32  N   UNL A   1      43.188  29.344  28.835  1.00  0.00    -0.248 NA
ATOM     33  C   UNL A   1      41.498  30.816  29.504  1.00  0.00     0.031 C 
ATOM     34  C   UNL A   1      47.501  30.404  28.681  1.00  0.00     0.029 A 
ATOM     35  C   UNL A   1      46.152  30.093  28.738  1.00  0.00     0.049 A 
ATOM     36  H   UNL A   1      45.188  28.266  28.306  1.00  0.00     0.167 HD
ATOM     37  C   UNL A   1      43.750  30.574  29.137  1.00  0.00     0.074 A 
ATOM     38  C   UNL A   1      42.659  31.454  29.510  1.00  0.00     0.031 C 
ATOM     39  C   UNL A   1      45.054  30.943  29.115  1.00  0.00     0.031 A 
BRANCH  26  40
ATOM     40  C   UNL A   1      48.942  26.489  27.323  1.00  0.00    -0.014 A 
ATOM     41  C   UNL A   1      49.772  25.983  28.337  1.00  0.00     0.009 A 
ATOM     42  C   UNL A   1      49.439  26.560  26.012  1.00  0.00     0.009 A 
ATOM     43  C   UNL A   1      51.078  25.580  28.046  1.00  0.00     0.001 A 
ATOM     44  C   UNL A   1      50.737  26.136  25.721  1.00  0.00     0.001 A 
ATOM     45  C   UNL A   1      51.557  25.653  26.738  1.00  0.00     0.000 A 
ENDBRANCH  26  40
BRANCH  27  46
ATOM     46  C   UNL A   1      39.388  28.816  29.141  1.00  0.00    -0.014 A 
ATOM     47  C   UNL A   1      38.839  28.639  30.418  1.00  0.00     0.009 A 
ATOM     48  C   UNL A   1      38.584  29.347  28.120  1.00  0.00     0.009 A 
ATOM     49  C   UNL A   1      37.505  28.969  30.664  1.00  0.00     0.001 A 
ATOM     50  C   UNL A   1      37.260  29.705  28.376  1.00  0.00     0.001 A 
ATOM     51  C   UNL A   1      36.719  29.507  29.645  1.00  0.00     0.000 A 
ENDBRANCH  27  46
BRANCH  39  52
ATOM     52  C   UNL A   1      45.355  32.363  29.494  1.00  0.00    -0.014 A 
ATOM     53  C   UNL A   1      45.358  33.383  28.529  1.00  0.00     0.009 A 
ATOM     54  C   UNL A   1      45.633  32.684  30.830  1.00  0.00     0.009 A 
ATOM     55  C   UNL A   1      45.672  34.693  28.892  1.00  0.00     0.001 A 
ATOM     56  C   UNL A   1      45.922  34.000  31.194  1.00  0.00     0.001 A 
ATOM     57  C   UNL A   1      45.951  35.000  30.223  1.00  0.00     0.000 A 
ENDBRANCH  39  52
ENDBRANCH  13  14
ENDBRANCH   6   8
ENDBRANCH   3   4
ENDBRANCH   2   3
ENDBRANCH   1   2
BRANCH   1  58
ATOM     58  C   UNL A   1      36.089  21.583  25.394  1.00  0.00     0.116 C 
BRANCH  58  59
ATOM     59  N   UNL A   1      35.125  20.505  25.301  1.00  0.00    -0.356 N 
ATOM     60  C   UNL A   1      33.770  20.515  25.365  1.00  0.00     0.223 C 
ATOM     61  H   UNL A   1      35.522  19.613  25.171  1.00  0.00     0.163 HD
ATOM     62  O   UNL A   1      33.182  19.432  25.308  1.00  0.00    -0.275 OA
BRANCH  60  63
ATOM     63  C   UNL A   1      32.974  21.806  25.486  1.00  0.00     0.091 C 
ATOM     64  C   UNL A   1      32.521  22.099  26.925  1.00  0.00     0.014 C 
ATOM     65  C   UNL A   1      31.879  21.947  24.420  1.00  0.00     0.091 C 
ATOM     66  C   UNL A   1      31.739  23.406  27.007  1.00  0.00     0.001 C 
ATOM     67  C   UNL A   1      31.068  23.242  24.581  1.00  0.00     0.014 C 
ATOM     68  C   UNL A   1      30.577  23.419  26.020  1.00  0.00     0.001 C 
BRANCH  65  69
ATOM     69  C   UNL A   1      32.299  21.667  22.957  1.00  0.00     0.228 C 
ATOM     70  O   UNL A   1      31.981  20.590  22.436  1.00  0.00    -0.274 OA
ATOM     71  N   UNL A   1      32.889  22.567  22.121  1.00  0.00    -0.326 N 
ATOM     72  H   UNL A   1      33.044  22.245  21.203  1.00  0.00     0.169 HD
BRANCH  71  73
ATOM     73  C   UNL A   1      33.306  23.869  22.367  1.00  0.00     0.041 A 
ATOM     74  C   UNL A   1      32.848  24.875  21.530  1.00  0.00     0.028 A 
ATOM     75  C   UNL A   1      34.160  24.190  23.410  1.00  0.00     0.028 A 
ATOM     76  C   UNL A   1      33.032  26.209  21.898  1.00  0.00     0.028 A 
ATOM     77  C   UNL A   1      34.309  25.519  23.802  1.00  0.00     0.028 A 
ATOM     78  C   UNL A   1      33.655  26.536  23.102  1.00  0.00     0.041 A 
BRANCH  78  79
ATOM     79  N   UNL A   1      33.647  27.805  23.706  1.00  0.00    -0.319 N 
ATOM     80  C   UNL A   1      32.631  28.672  24.055  1.00  0.00     0.291 C 
ATOM     81  H   UNL A   1      34.546  28.143  23.923  1.00  0.00     0.170 HD
ATOM     82  O   UNL A   1      32.952  29.704  24.648  1.00  0.00    -0.265 OA
BRANCH  80  83
ATOM     83  C   UNL A   1      31.259  28.343  23.769  1.00  0.00     0.191 A 
ATOM     84  C   UNL A   1      30.440  27.307  24.184  1.00  0.00     0.056 A 
ATOM     85  O   UNL A   1      30.572  29.149  22.904  1.00  0.00    -0.459 OA
ATOM     86  C   UNL A   1      29.206  27.473  23.505  1.00  0.00     0.043 A 
ATOM     87  C   UNL A   1      29.335  28.613  22.748  1.00  0.00     0.196 A 
ENDBRANCH  80  83
ENDBRANCH  78  79
ENDBRANCH  71  73
ENDBRANCH  65  69
ENDBRANCH  60  63
ENDBRANCH  58  59
ENDBRANCH   1  58
TORSDOF 15
ENDMDL
MODEL 3
REMARK VINA RESULT:     -12.2      3.910      9.561
REMARK SMILES O=C(NCCCCNC(=O)[C@@H]1CCCC[C@H]1C(=O)Nc1ccc(NC(=O)c2ccco2)cc1)c1ccc(-c2c3nc(c(-c4ccccc4)c4ccc([nH]4)c(-c4ccccc4)c4nc(c(-c5ccccc5)c5ccc2[nH]5)C=C4)C=C3)cc1
REMARK SMILES IDX 6 1 5 2 4 3 3 4 1 5 2 6 34 8 35 9 81 10 36 11 80 12 37 13
REMARK SMILES IDX 38 14 39 15 74 16 40 17 79 18 73 19 75 20 41 21 78 22 72 23
REMARK SMILES IDX 71 24 42 26 64 27 49 28 63 29 50 30 53 31 62 32 76 33 51 34
REMARK SMILES IDX 52 35 61 37 77 38 54 39 43 40 44 41 48 42 45 43 47 44 46 45
REMARK SMILES IDX 65 46 66 47 70 48 67 49 69 50 68 51 55 52 56 53 60 54 57 55
REMARK SMILES IDX 59 56 58 57 7 58 8 59 9 60 10 62 11 63 12 64 16 65 13 66
REMARK SMILES IDX 15 67 14 68 17 69 18 70 19 71 20 73 21 74 33 75 22 76 32 77
REMARK SMILES IDX 23 78 24 79 25 80 26 82 27 83 28 84 31 85 29 86 30 87
REMARK H PARENT 3 7 75 25 53 36 8 61 19 72 24 81
REMARK Flexibility Score: inf
ROOT
ATOM      1  C   UNL A   1      36.601  21.152  24.809  1.00  0.00     0.023 C 
ENDROOT
BRANCH   1   2
ATOM      2  C   UNL A   1      37.766  20.179  24.701  1.00  0.00     0.023 C 
BRANCH   2   3
ATOM      3  C   UNL A   1      38.910  20.479  25.652  1.00  0.00     0.116 C 
BRANCH   3   4
ATOM      4  N   UNL A   1      39.905  19.415  25.712  1.00  0.00    -0.352 N 
ATOM      5  O   UNL A   1      41.973  18.553  26.037  1.00  0.00    -0.269 OA
ATOM      6  C   UNL A   1      41.209  19.507  26.124  1.00  0.00     0.251 C 
ATOM      7  H   UNL A   1      39.604  18.524  25.420  1.00  0.00     0.163 HD
BRANCH   6   8
ATOM      8  C   UNL A   1      41.682  20.802  26.643  1.00  0.00     0.039 A 
ATOM      9  C   UNL A   1      41.622  21.059  28.014  1.00  0.00     0.014 A 
ATOM     10  C   UNL A   1      42.101  21.783  25.744  1.00  0.00     0.014 A 
ATOM     11  C   UNL A   1      41.848  22.346  28.473  1.00  0.00     0.010 A 
ATOM     12  C   UNL A   1      42.417  23.055  26.221  1.00  0.00     0.010 A 
ATOM     13  C   UNL A   1      42.266  23.351  27.584  1.00  0.00    -0.014 A 
BRANCH  13  14
ATOM     14  C   UNL A   1      42.610  24.683  28.129  1.00  0.00     0.031 A 
ATOM     15  C   UNL A   1      44.029  25.061  28.434  1.00  0.00     0.074 A 
ATOM     16  C   UNL A   1      41.611  25.571  28.296  1.00  0.00     0.049 A 
ATOM     17  N   UNL A   1      44.493  26.199  28.885  1.00  0.00    -0.248 NA
ATOM     18  C   UNL A   1      45.061  24.035  28.212  1.00  0.00     0.031 C 
ATOM     19  C   UNL A   1      40.193  25.304  28.029  1.00  0.00     0.029 A 
ATOM     20  N   UNL A   1      41.633  26.878  28.698  1.00  0.00    -0.354 N 
ATOM     21  C   UNL A   1      45.864  26.024  29.018  1.00  0.00     0.074 A 
ATOM     22  C   UNL A   1      46.157  24.664  28.618  1.00  0.00     0.031 C 
ATOM     23  C   UNL A   1      39.493  26.431  28.214  1.00  0.00     0.029 A 
ATOM     24  C   UNL A   1      40.397  27.475  28.678  1.00  0.00     0.049 A 
ATOM     25  H   UNL A   1      42.455  27.347  28.973  1.00  0.00     0.167 HD
ATOM     26  C   UNL A   1      46.791  26.920  29.432  1.00  0.00     0.031 A 
ATOM     27  C   UNL A   1      40.026  28.722  29.012  1.00  0.00     0.031 A 
ATOM     28  C   UNL A   1      46.491  28.270  29.831  1.00  0.00     0.049 A 
ATOM     29  C   UNL A   1      41.072  29.684  29.485  1.00  0.00     0.074 A 
ATOM     30  C   UNL A   1      47.359  29.255  30.271  1.00  0.00     0.029 A 
ATOM     31  N   UNL A   1      45.221  28.827  29.835  1.00  0.00    -0.354 N 
ATOM     32  N   UNL A   1      42.365  29.501  29.604  1.00  0.00    -0.248 NA
ATOM     33  C   UNL A   1      40.608  31.022  29.873  1.00  0.00     0.031 C 
ATOM     34  C   UNL A   1      46.608  30.397  30.575  1.00  0.00     0.029 A 
ATOM     35  C   UNL A   1      45.279  30.137  30.280  1.00  0.00     0.049 A 
ATOM     36  H   UNL A   1      44.399  28.359  29.561  1.00  0.00     0.167 HD
ATOM     37  C   UNL A   1      42.871  30.701  30.077  1.00  0.00     0.074 A 
ATOM     38  C   UNL A   1      41.750  31.614  30.192  1.00  0.00     0.031 C 
ATOM     39  C   UNL A   1      44.149  31.020  30.396  1.00  0.00     0.031 A 
BRANCH  26  40
ATOM     40  C   UNL A   1      48.221  26.461  29.498  1.00  0.00    -0.014 A 
ATOM     41  C   UNL A   1      48.733  25.842  30.648  1.00  0.00     0.009 A 
ATOM     42  C   UNL A   1      49.054  26.605  28.376  1.00  0.00     0.009 A 
ATOM     43  C   UNL A   1      50.058  25.397  30.682  1.00  0.00     0.001 A 
ATOM     44  C   UNL A   1      50.370  26.139  28.405  1.00  0.00     0.001 A 
ATOM     45  C   UNL A   1      50.873  25.542  29.559  1.00  0.00     0.000 A 
ENDBRANCH  26  40
BRANCH  27  46
ATOM     46  C   UNL A   1      38.597  29.114  28.926  1.00  0.00    -0.014 A 
ATOM     47  C   UNL A   1      37.756  29.004  30.043  1.00  0.00     0.009 A 
ATOM     48  C   UNL A   1      38.074  29.623  27.727  1.00  0.00     0.009 A 
ATOM     49  C   UNL A   1      36.414  29.379  29.955  1.00  0.00     0.001 A 
ATOM     50  C   UNL A   1      36.740  30.026  27.651  1.00  0.00     0.001 A 
ATOM     51  C   UNL A   1      35.910  29.895  28.761  1.00  0.00     0.000 A 
ENDBRANCH  27  46
BRANCH  39  52
ATOM     52  C   UNL A   1      44.389  32.418  30.883  1.00  0.00    -0.014 A 
ATOM     53  C   UNL A   1      44.761  33.439  29.995  1.00  0.00     0.009 A 
ATOM     54  C   UNL A   1      44.237  32.717  32.245  1.00  0.00     0.009 A 
ATOM     55  C   UNL A   1      45.013  34.727  30.470  1.00  0.00     0.001 A 
ATOM     56  C   UNL A   1      44.464  34.012  32.713  1.00  0.00     0.001 A 
ATOM     57  C   UNL A   1      44.862  35.012  31.827  1.00  0.00     0.000 A 
ENDBRANCH  39  52
ENDBRANCH  13  14
ENDBRANCH   6   8
ENDBRANCH   3   4
ENDBRANCH   2   3
ENDBRANCH   1   2
BRANCH   1  58
ATOM     58  C   UNL A   1      36.886  22.558  24.291  1.00  0.00     0.116 C 
BRANCH  58  59
ATOM     59  N   UNL A   1      36.004  22.938  23.206  1.00  0.00    -0.356 N 
ATOM     60  C   UNL A   1      34.654  23.061  23.158  1.00  0.00     0.223 C 
ATOM     61  H   UNL A   1      36.463  23.142  22.359  1.00  0.00     0.163 HD
ATOM     62  O   UNL A   1      34.139  23.356  22.076  1.00  0.00    -0.275 OA
BRANCH  60  63
ATOM     63  C   UNL A   1      33.778  22.864  24.386  1.00  0.00     0.091 C 
ATOM     64  C   UNL A   1      32.863  21.634  24.280  1.00  0.00     0.014 C 
ATOM     65  C   UNL A   1      33.083  24.150  24.851  1.00  0.00     0.091 C 
ATOM     66  C   UNL A   1      32.013  21.462  25.535  1.00  0.00     0.001 C 
ATOM     67  C   UNL A   1      32.181  23.920  26.073  1.00  0.00     0.014 C 
ATOM     68  C   UNL A   1      31.237  22.735  25.857  1.00  0.00     0.001 C 
BRANCH  65  69
ATOM     69  C   UNL A   1      33.974  25.410  24.977  1.00  0.00     0.228 C 
ATOM     70  O   UNL A   1      35.166  25.275  25.283  1.00  0.00    -0.274 OA
ATOM     71  N   UNL A   1      33.597  26.678  24.649  1.00  0.00    -0.326 N 
ATOM     72  H   UNL A   1      34.301  27.359  24.738  1.00  0.00     0.169 HD
BRANCH  71  73
ATOM     73  C   UNL A   1      32.368  27.154  24.209  1.00  0.00     0.041 A 
ATOM     74  C   UNL A   1      31.823  26.602  23.060  1.00  0.00     0.028 A 
ATOM     75  C   UNL A   1      31.680  28.156  24.873  1.00  0.00     0.028 A 
ATOM     76  C   UNL A   1      30.491  26.867  22.739  1.00  0.00     0.028 A 
ATOM     77  C   UNL A   1      30.337  28.389  24.580  1.00  0.00     0.028 A 
ATOM     78  C   UNL A   1      29.703  27.664  23.569  1.00  0.00     0.041 A 
BRANCH  78  79
ATOM     79  N   UNL A   1      28.303  27.771  23.507  1.00  0.00    -0.319 N 
ATOM     80  C   UNL A   1      27.455  28.774  23.081  1.00  0.00     0.291 C 
ATOM     81  H   UNL A   1      27.833  26.969  23.831  1.00  0.00     0.170 HD
ATOM     82  O   UNL A   1      26.247  28.528  23.087  1.00  0.00    -0.265 OA
BRANCH  80  83
ATOM     83  C   UNL A   1      27.985  30.028  22.614  1.00  0.00     0.191 A 
ATOM     84  C   UNL A   1      28.149  31.259  23.225  1.00  0.00     0.056 A 
ATOM     85  O   UNL A   1      28.403  30.104  21.314  1.00  0.00    -0.459 OA
ATOM     86  C   UNL A   1      28.656  32.136  22.232  1.00  0.00     0.043 A 
ATOM     87  C   UNL A   1      28.803  31.381  21.092  1.00  0.00     0.196 A 
ENDBRANCH  80  83
ENDBRANCH  78  79
ENDBRANCH  71  73
ENDBRANCH  65  69
ENDBRANCH  60  63
ENDBRANCH  58  59
ENDBRANCH   1  58
TORSDOF 15
ENDMDL
