MODEL 1
REMARK VINA RESULT:     -12.0      0.000      0.000
REMARK SMILES Cc1noc(-c2cc(=O)n(CC(=O)NCCCCNC(=O)c3ccc(-c4c5nc(c(-c6ccccc6)c6ccc([nH]6)c(-c6ccccc6)c6nc(c(-c7ccccc7)c7ccc4[nH]7)C=C6)C=C5)cc3)c3ccccc23)n1
REMARK SMILES IDX 16 1 15 2 14 3 12 4 13 5 11 7 10 8 6 9 7 10 75 11 8 12 70 13
REMARK SMILES IDX 74 14 9 15 71 16 73 17 72 18 5 19 1 20 2 21 3 22 76 23 4 24
REMARK SMILES IDX 17 25 18 26 19 27 20 28 21 30 22 31 23 32 69 33 24 34 68 35
REMARK SMILES IDX 25 36 26 37 27 38 62 39 28 40 67 41 61 42 63 43 29 44 66 45
REMARK SMILES IDX 60 46 59 47 30 49 52 50 37 51 51 52 38 53 41 54 50 55 64 56
REMARK SMILES IDX 39 57 40 58 49 60 65 61 42 62 31 63 32 64 36 65 33 66 35 67
REMARK SMILES IDX 34 68 53 69 54 70 58 71 55 72 57 73 56 74 43 75 44 76 48 77
REMARK SMILES IDX 45 78 47 79 46 80
REMARK H PARENT 14 6 19 29 63 48 41 59
REMARK Flexibility Score: inf
ROOT
ATOM      1  C   UNL A   1      35.866  21.441  25.627  1.00  0.00     0.023 C 
ENDROOT
BRANCH   1   2
ATOM      2  C   UNL A   1      34.588  21.519  24.793  1.00  0.00     0.116 C 
BRANCH   2   3
ATOM      3  N   UNL A   1      34.656  22.537  23.765  1.00  0.00    -0.355 N 
ATOM      4  C   UNL A   1      34.016  23.737  23.691  1.00  0.00     0.240 C 
ATOM      5  O   UNL A   1      34.358  24.510  22.790  1.00  0.00    -0.273 OA
ATOM      6  H   UNL A   1      35.253  22.332  23.010  1.00  0.00     0.163 HD
BRANCH   4   7
ATOM      7  C   UNL A   1      32.985  24.173  24.743  1.00  0.00     0.225 C 
BRANCH   7   8
ATOM      8  N   UNL A   1      32.203  25.371  24.416  1.00  0.00    -0.299 N 
ATOM      9  C   UNL A   1      30.726  27.661  23.570  1.00  0.00     0.055 A 
ATOM     10  C   UNL A   1      30.344  26.422  23.227  1.00  0.00     0.086 A 
ATOM     11  C   UNL A   1      31.886  27.800  24.483  1.00  0.00     0.011 A 
ATOM     12  C   UNL A   1      31.063  25.207  23.652  1.00  0.00     0.252 A 
ATOM     13  C   UNL A   1      32.599  26.657  24.900  1.00  0.00     0.053 A 
ATOM     14  C   UNL A   1      32.283  29.063  24.962  1.00  0.00     0.011 A 
ATOM     15  O   UNL A   1      30.634  24.122  23.262  1.00  0.00    -0.269 OA
ATOM     16  C   UNL A   1      33.677  26.814  25.789  1.00  0.00     0.027 A 
ATOM     17  C   UNL A   1      33.363  29.201  25.832  1.00  0.00     0.001 A 
ATOM     18  C   UNL A   1      34.058  28.076  26.246  1.00  0.00     0.002 A 
BRANCH   9  19
ATOM     19  C   UNL A   1      29.978  28.735  22.977  1.00  0.00     0.258 A 
ATOM     20  C   UNL A   1      27.703  31.443  22.848  1.00  0.00     0.093 C 
ATOM     21  C   UNL A   1      28.691  30.378  22.603  1.00  0.00     0.169 A 
ATOM     22  N   UNL A   1      29.316  30.225  21.434  1.00  0.00    -0.062 NA
ATOM     23  N   UNL A   1      29.061  29.484  23.570  1.00  0.00    -0.192 NA
ATOM     24  O   UNL A   1      30.166  29.150  21.667  1.00  0.00    -0.334 OA
ENDBRANCH   9  19
ENDBRANCH   7   8
ENDBRANCH   4   7
ENDBRANCH   2   3
ENDBRANCH   1   2
BRANCH   1  25
ATOM     25  C   UNL A   1      37.008  20.644  24.996  1.00  0.00     0.023 C 
BRANCH  25  26
ATOM     26  C   UNL A   1      38.401  20.956  25.527  1.00  0.00     0.116 C 
BRANCH  26  27
ATOM     27  N   UNL A   1      39.311  19.821  25.495  1.00  0.00    -0.352 N 
ATOM     28  C   UNL A   1      40.619  19.760  25.923  1.00  0.00     0.251 C 
ATOM     29  H   UNL A   1      38.945  18.989  25.119  1.00  0.00     0.163 HD
ATOM     30  O   UNL A   1      41.284  18.745  25.749  1.00  0.00    -0.269 OA
BRANCH  28  31
ATOM     31  C   UNL A   1      41.233  20.951  26.548  1.00  0.00     0.039 A 
ATOM     32  C   UNL A   1      41.149  21.155  27.926  1.00  0.00     0.014 A 
ATOM     33  C   UNL A   1      41.849  21.905  25.731  1.00  0.00     0.014 A 
ATOM     34  C   UNL A   1      41.520  22.383  28.461  1.00  0.00     0.010 A 
ATOM     35  C   UNL A   1      42.294  23.108  26.285  1.00  0.00     0.010 A 
ATOM     36  C   UNL A   1      42.082  23.379  27.645  1.00  0.00    -0.014 A 
BRANCH  36  37
ATOM     37  C   UNL A   1      42.421  24.697  28.239  1.00  0.00     0.031 A 
ATOM     38  C   UNL A   1      43.847  25.055  28.562  1.00  0.00     0.074 A 
ATOM     39  C   UNL A   1      41.444  25.606  28.420  1.00  0.00     0.049 A 
ATOM     40  N   UNL A   1      44.327  26.185  29.018  1.00  0.00    -0.248 NA
ATOM     41  C   UNL A   1      44.868  24.017  28.346  1.00  0.00     0.031 C 
ATOM     42  C   UNL A   1      40.026  25.384  28.129  1.00  0.00     0.029 A 
ATOM     43  N   UNL A   1      41.498  26.906  28.855  1.00  0.00    -0.354 N 
ATOM     44  C   UNL A   1      45.695  25.989  29.161  1.00  0.00     0.074 A 
ATOM     45  C   UNL A   1      45.969  24.625  28.767  1.00  0.00     0.031 C 
ATOM     46  C   UNL A   1      39.356  26.528  28.329  1.00  0.00     0.029 A 
ATOM     47  C   UNL A   1      40.282  27.544  28.819  1.00  0.00     0.049 A 
ATOM     48  H   UNL A   1      42.327  27.339  29.161  1.00  0.00     0.167 HD
ATOM     49  C   UNL A   1      46.638  26.869  29.572  1.00  0.00     0.031 A 
ATOM     50  C   UNL A   1      39.943  28.805  29.146  1.00  0.00     0.031 A 
ATOM     51  C   UNL A   1      46.369  28.231  29.950  1.00  0.00     0.049 A 
ATOM     52  C   UNL A   1      41.001  29.749  29.635  1.00  0.00     0.074 A 
ATOM     53  C   UNL A   1      47.269  29.203  30.354  1.00  0.00     0.029 A 
ATOM     54  N   UNL A   1      45.112  28.814  29.973  1.00  0.00    -0.354 N 
ATOM     55  N   UNL A   1      42.291  29.549  29.754  1.00  0.00    -0.248 NA
ATOM     56  C   UNL A   1      40.557  31.090  30.043  1.00  0.00     0.031 C 
ATOM     57  C   UNL A   1      46.550  30.359  30.671  1.00  0.00     0.029 A 
ATOM     58  C   UNL A   1      45.209  30.124  30.411  1.00  0.00     0.049 A 
ATOM     59  H   UNL A   1      44.275  28.364  29.716  1.00  0.00     0.167 HD
ATOM     60  C   UNL A   1      42.814  30.736  30.246  1.00  0.00     0.074 A 
ATOM     61  C   UNL A   1      41.707  31.660  30.383  1.00  0.00     0.031 C 
ATOM     62  C   UNL A   1      44.099  31.029  30.559  1.00  0.00     0.031 A 
BRANCH  49  63
ATOM     63  C   UNL A   1      48.060  26.391  29.653  1.00  0.00    -0.014 A 
ATOM     64  C   UNL A   1      48.530  25.805  30.841  1.00  0.00     0.009 A 
ATOM     65  C   UNL A   1      48.958  26.596  28.594  1.00  0.00     0.009 A 
ATOM     66  C   UNL A   1      49.872  25.440  30.969  1.00  0.00     0.001 A 
ATOM     67  C   UNL A   1      50.295  26.208  28.717  1.00  0.00     0.001 A 
ATOM     68  C   UNL A   1      50.752  25.638  29.905  1.00  0.00     0.000 A 
ENDBRANCH  49  63
BRANCH  50  69
ATOM     69  C   UNL A   1      38.529  29.234  29.003  1.00  0.00    -0.014 A 
ATOM     70  C   UNL A   1      38.058  29.736  27.779  1.00  0.00     0.009 A 
ATOM     71  C   UNL A   1      37.663  29.208  30.106  1.00  0.00     0.009 A 
ATOM     72  C   UNL A   1      36.758  30.232  27.670  1.00  0.00     0.001 A 
ATOM     73  C   UNL A   1      36.354  29.681  29.985  1.00  0.00     0.001 A 
ATOM     74  C   UNL A   1      35.907  30.203  28.771  1.00  0.00     0.000 A 
ENDBRANCH  50  69
BRANCH  62  75
ATOM     75  C   UNL A   1      44.392  32.404  31.088  1.00  0.00    -0.014 A 
ATOM     76  C   UNL A   1      44.678  33.450  30.197  1.00  0.00     0.009 A 
ATOM     77  C   UNL A   1      44.476  32.639  32.468  1.00  0.00     0.009 A 
ATOM     78  C   UNL A   1      45.057  34.704  30.678  1.00  0.00     0.001 A 
ATOM     79  C   UNL A   1      44.831  33.902  32.946  1.00  0.00     0.001 A 
ATOM     80  C   UNL A   1      45.129  34.930  32.051  1.00  0.00     0.000 A 
ENDBRANCH  62  75
ENDBRANCH  36  37
ENDBRANCH  28  31
ENDBRANCH  26  27
ENDBRANCH  25  26
ENDBRANCH   1  25
TORSDOF 13
ENDMDL
MODEL 2
REMARK VINA RESULT:     -12.0      0.310      5.863
REMARK SMILES Cc1noc(-c2cc(=O)n(CC(=O)NCCCCNC(=O)c3ccc(-c4c5nc(c(-c6ccccc6)c6ccc([nH]6)c(-c6ccccc6)c6nc(c(-c7ccccc7)c7ccc4[nH]7)C=C6)C=C5)cc3)c3ccccc23)n1
REMARK SMILES IDX 16 1 15 2 14 3 12 4 13 5 11 7 10 8 6 9 7 10 75 11 8 12 70 13
REMARK SMILES IDX 74 14 9 15 71 16 73 17 72 18 5 19 1 20 2 21 3 22 76 23 4 24
REMARK SMILES IDX 17 25 18 26 19 27 20 28 21 30 22 31 23 32 69 33 24 34 68 35
REMARK SMILES IDX 25 36 26 37 27 38 62 39 28 40 67 41 61 42 63 43 29 44 66 45
REMARK SMILES IDX 60 46 59 47 30 49 52 50 37 51 51 52 38 53 41 54 50 55 64 56
REMARK SMILES IDX 39 57 40 58 49 60 65 61 42 62 31 63 32 64 36 65 33 66 35 67
REMARK SMILES IDX 34 68 53 69 54 70 58 71 55 72 57 73 56 74 43 75 44 76 48 77
REMARK SMILES IDX 45 78 47 79 46 80
REMARK H PARENT 14 6 19 29 63 48 41 59
REMARK Flexibility Score: inf
ROOT
ATOM      1  C   UNL A   1      35.971  21.662  25.492  1.00  0.00     0.023 C 
ENDROOT
BRANCH   1   2
ATOM      2  C   UNL A   1      34.694  21.631  24.653  1.00  0.00     0.116 C 
BRANCH   2   3
ATOM      3  N   UNL A   1      34.694  22.630  23.605  1.00  0.00    -0.355 N 
ATOM      4  C   UNL A   1      34.013  23.808  23.531  1.00  0.00     0.240 C 
ATOM      5  O   UNL A   1      34.299  24.573  22.603  1.00  0.00    -0.273 OA
ATOM      6  H   UNL A   1      35.271  22.429  22.833  1.00  0.00     0.163 HD
BRANCH   4   7
ATOM      7  C   UNL A   1      33.005  24.232  24.609  1.00  0.00     0.225 C 
BRANCH   7   8
ATOM      8  N   UNL A   1      32.221  25.436  24.316  1.00  0.00    -0.299 N 
ATOM      9  C   UNL A   1      30.738  27.745  23.533  1.00  0.00     0.055 A 
ATOM     10  C   UNL A   1      30.358  26.514  23.158  1.00  0.00     0.086 A 
ATOM     11  C   UNL A   1      31.899  27.862  24.447  1.00  0.00     0.011 A 
ATOM     12  C   UNL A   1      31.080  25.290  23.549  1.00  0.00     0.252 A 
ATOM     13  C   UNL A   1      32.615  26.710  24.832  1.00  0.00     0.053 A 
ATOM     14  C   UNL A   1      32.294  29.113  24.958  1.00  0.00     0.011 A 
ATOM     15  O   UNL A   1      30.652  24.215  23.132  1.00  0.00    -0.269 OA
ATOM     16  C   UNL A   1      33.694  26.846  25.724  1.00  0.00     0.027 A 
ATOM     17  C   UNL A   1      33.375  29.230  25.830  1.00  0.00     0.001 A 
ATOM     18  C   UNL A   1      34.073  28.096  26.214  1.00  0.00     0.002 A 
BRANCH   9  19
ATOM     19  C   UNL A   1      29.987  28.833  22.970  1.00  0.00     0.258 A 
ATOM     20  C   UNL A   1      27.895  31.688  22.952  1.00  0.00     0.093 C 
ATOM     21  C   UNL A   1      28.770  30.540  22.654  1.00  0.00     0.169 A 
ATOM     22  N   UNL A   1      29.217  30.270  21.427  1.00  0.00    -0.062 NA
ATOM     23  N   UNL A   1      29.209  29.682  23.624  1.00  0.00    -0.192 NA
ATOM     24  O   UNL A   1      30.020  29.151  21.620  1.00  0.00    -0.334 OA
ENDBRANCH   9  19
ENDBRANCH   7   8
ENDBRANCH   4   7
ENDBRANCH   2   3
ENDBRANCH   1   2
BRANCH   1  25
ATOM     25  C   UNL A   1      37.092  20.741  25.007  1.00  0.00     0.023 C 
BRANCH  25  26
ATOM     26  C   UNL A   1      38.480  21.054  25.547  1.00  0.00     0.116 C 
BRANCH  26  27
ATOM     27  N   UNL A   1      39.374  19.906  25.575  1.00  0.00    -0.352 N 
ATOM     28  C   UNL A   1      40.681  19.848  26.003  1.00  0.00     0.251 C 
ATOM     29  H   UNL A   1      38.994  19.060  25.243  1.00  0.00     0.163 HD
ATOM     30  O   UNL A   1      41.331  18.814  25.883  1.00  0.00    -0.269 OA
BRANCH  28  31
ATOM     31  C   UNL A   1      41.315  21.061  26.563  1.00  0.00     0.039 A 
ATOM     32  C   UNL A   1      41.259  21.326  27.931  1.00  0.00     0.014 A 
ATOM     33  C   UNL A   1      41.920  21.974  25.692  1.00  0.00     0.014 A 
ATOM     34  C   UNL A   1      41.647  22.574  28.405  1.00  0.00     0.010 A 
ATOM     35  C   UNL A   1      42.383  23.197  26.184  1.00  0.00     0.010 A 
ATOM     36  C   UNL A   1      42.199  23.529  27.534  1.00  0.00    -0.014 A 
BRANCH  36  37
ATOM     37  C   UNL A   1      42.558  24.870  28.063  1.00  0.00     0.031 A 
ATOM     38  C   UNL A   1      41.502  25.919  28.288  1.00  0.00     0.074 A 
ATOM     39  C   UNL A   1      43.835  25.118  28.410  1.00  0.00     0.049 A 
ATOM     40  N   UNL A   1      41.630  27.115  28.806  1.00  0.00    -0.248 NA
ATOM     41  C   UNL A   1      40.126  25.589  27.883  1.00  0.00     0.031 C 
ATOM     42  C   UNL A   1      44.945  24.176  28.256  1.00  0.00     0.029 A 
ATOM     43  N   UNL A   1      44.407  26.218  28.997  1.00  0.00    -0.354 N 
ATOM     44  C   UNL A   1      40.364  27.684  28.774  1.00  0.00     0.074 A 
ATOM     45  C   UNL A   1      39.482  26.714  28.162  1.00  0.00     0.031 C 
ATOM     46  C   UNL A   1      46.049  24.711  28.796  1.00  0.00     0.029 A 
ATOM     47  C   UNL A   1      45.741  26.054  29.279  1.00  0.00     0.049 A 
ATOM     48  H   UNL A   1      43.910  27.043  29.198  1.00  0.00     0.167 HD
ATOM     49  C   UNL A   1      39.969  28.899  29.222  1.00  0.00     0.031 A 
ATOM     50  C   UNL A   1      46.625  26.888  29.858  1.00  0.00     0.031 A 
ATOM     51  C   UNL A   1      40.842  29.859  29.844  1.00  0.00     0.049 A 
ATOM     52  C   UNL A   1      46.171  28.243  30.312  1.00  0.00     0.074 A 
ATOM     53  C   UNL A   1      40.522  31.106  30.354  1.00  0.00     0.029 A 
ATOM     54  N   UNL A   1      42.203  29.683  30.040  1.00  0.00    -0.354 N 
ATOM     55  N   UNL A   1      44.966  28.760  30.281  1.00  0.00    -0.248 NA
ATOM     56  C   UNL A   1      47.196  29.135  30.872  1.00  0.00     0.031 C 
ATOM     57  C   UNL A   1      41.698  31.706  30.811  1.00  0.00     0.029 A 
ATOM     58  C   UNL A   1      42.741  30.809  30.638  1.00  0.00     0.049 A 
ATOM     59  H   UNL A   1      42.710  28.877  29.791  1.00  0.00     0.167 HD
ATOM     60  C   UNL A   1      45.086  30.033  30.820  1.00  0.00     0.074 A 
ATOM     61  C   UNL A   1      46.477  30.204  31.189  1.00  0.00     0.031 C 
ATOM     62  C   UNL A   1      44.128  30.975  30.987  1.00  0.00     0.031 A 
BRANCH  49  63
ATOM     63  C   UNL A   1      38.526  29.279  29.048  1.00  0.00    -0.014 A 
ATOM     64  C   UNL A   1      38.092  29.822  27.826  1.00  0.00     0.009 A 
ATOM     65  C   UNL A   1      37.615  29.185  30.110  1.00  0.00     0.009 A 
ATOM     66  C   UNL A   1      36.778  30.268  27.674  1.00  0.00     0.001 A 
ATOM     67  C   UNL A   1      36.294  29.611  29.949  1.00  0.00     0.001 A 
ATOM     68  C   UNL A   1      35.879  30.159  28.735  1.00  0.00     0.000 A 
ENDBRANCH  49  63
BRANCH  50  69
ATOM     69  C   UNL A   1      48.028  26.439  30.044  1.00  0.00    -0.014 A 
ATOM     70  C   UNL A   1      48.967  26.592  29.012  1.00  0.00     0.009 A 
ATOM     71  C   UNL A   1      48.417  25.793  31.227  1.00  0.00     0.009 A 
ATOM     72  C   UNL A   1      50.258  26.082  29.146  1.00  0.00     0.001 A 
ATOM     73  C   UNL A   1      49.719  25.307  31.368  1.00  0.00     0.001 A 
ATOM     74  C   UNL A   1      50.634  25.442  30.325  1.00  0.00     0.000 A 
ENDBRANCH  50  69
BRANCH  62  75
ATOM     75  C   UNL A   1      44.537  32.287  31.593  1.00  0.00    -0.014 A 
ATOM     76  C   UNL A   1      44.939  33.346  30.764  1.00  0.00     0.009 A 
ATOM     77  C   UNL A   1      44.613  32.442  32.985  1.00  0.00     0.009 A 
ATOM     78  C   UNL A   1      45.423  34.532  31.317  1.00  0.00     0.001 A 
ATOM     79  C   UNL A   1      45.073  33.639  33.535  1.00  0.00     0.001 A 
ATOM     80  C   UNL A   1      45.486  34.680  32.702  1.00  0.00     0.000 A 
ENDBRANCH  62  75
ENDBRANCH  36  37
ENDBRANCH  28  31
ENDBRANCH  26  27
ENDBRANCH  25  26
ENDBRANCH   1  25
TORSDOF 13
ENDMDL
MODEL 3
REMARK VINA RESULT:     -11.8      3.088      8.763
REMARK SMILES Cc1noc(-c2cc(=O)n(CC(=O)NCCCCNC(=O)c3ccc(-c4c5nc(c(-c6ccccc6)c6ccc([nH]6)c(-c6ccccc6)c6nc(c(-c7ccccc7)c7ccc4[nH]7)C=C6)C=C5)cc3)c3ccccc23)n1
REMARK SMILES IDX 16 1 15 2 14 3 12 4 13 5 11 7 10 8 6 9 7 10 75 11 8 12 70 13
REMARK SMILES IDX 74 14 9 15 71 16 73 17 72 18 5 19 1 20 2 21 3 22 76 23 4 24
REMARK SMILES IDX 17 25 18 26 19 27 20 28 21 30 22 31 23 32 69 33 24 34 68 35
REMARK SMILES IDX 25 36 26 37 27 38 62 39 28 40 67 41 61 42 63 43 29 44 66 45
REMARK SMILES IDX 60 46 59 47 30 49 52 50 37 51 51 52 38 53 41 54 50 55 64 56
REMARK SMILES IDX 39 57 40 58 49 60 65 61 42 62 31 63 32 64 36 65 33 66 35 67
REMARK SMILES IDX 34 68 53 69 54 70 58 71 55 72 57 73 56 74 43 75 44 76 48 77
REMARK SMILES IDX 45 78 47 79 46 80
REMARK H PARENT 14 6 19 29 63 48 41 59
REMARK Flexibility Score: inf
ROOT
ATOM      1  C   UNL A   1      32.319  29.465  25.403  1.00  0.00     0.023 C 
ENDROOT
BRANCH   1   2
ATOM      2  C   UNL A   1      33.144  28.304  25.958  1.00  0.00     0.116 C 
BRANCH   2   3
ATOM      3  N   UNL A   1      32.320  27.268  26.546  1.00  0.00    -0.355 N 
ATOM      4  C   UNL A   1      32.052  26.012  26.091  1.00  0.00     0.240 C 
ATOM      5  O   UNL A   1      31.446  25.249  26.851  1.00  0.00    -0.273 OA
ATOM      6  H   UNL A   1      31.892  27.506  27.400  1.00  0.00     0.163 HD
BRANCH   4   7
ATOM      7  C   UNL A   1      32.571  25.513  24.734  1.00  0.00     0.225 C 
BRANCH   7   8
ATOM      8  N   UNL A   1      32.756  24.063  24.613  1.00  0.00    -0.299 N 
ATOM      9  C   UNL A   1      32.948  21.217  24.514  1.00  0.00     0.055 A 
ATOM     10  C   UNL A   1      31.859  21.857  24.061  1.00  0.00     0.086 A 
ATOM     11  C   UNL A   1      34.089  22.039  24.980  1.00  0.00     0.011 A 
ATOM     12  C   UNL A   1      31.718  23.324  24.075  1.00  0.00     0.252 A 
ATOM     13  C   UNL A   1      33.982  23.446  25.013  1.00  0.00     0.053 A 
ATOM     14  C   UNL A   1      35.299  21.439  25.378  1.00  0.00     0.011 A 
ATOM     15  O   UNL A   1      30.668  23.803  23.651  1.00  0.00    -0.269 OA
ATOM     16  C   UNL A   1      35.090  24.203  25.432  1.00  0.00     0.027 A 
ATOM     17  C   UNL A   1      36.382  22.206  25.804  1.00  0.00     0.001 A 
ATOM     18  C   UNL A   1      36.278  23.588  25.828  1.00  0.00     0.002 A 
BRANCH   9  19
ATOM     19  C   UNL A   1      32.871  19.783  24.531  1.00  0.00     0.258 A 
ATOM     20  C   UNL A   1      33.746  16.460  23.681  1.00  0.00     0.093 C 
ATOM     21  C   UNL A   1      33.172  17.708  24.216  1.00  0.00     0.169 A 
ATOM     22  N   UNL A   1      32.235  17.725  25.165  1.00  0.00    -0.062 NA
ATOM     23  N   UNL A   1      33.583  18.943  23.795  1.00  0.00    -0.192 NA
ATOM     24  O   UNL A   1      32.029  19.083  25.382  1.00  0.00    -0.334 OA
ENDBRANCH   9  19
ENDBRANCH   7   8
ENDBRANCH   4   7
ENDBRANCH   2   3
ENDBRANCH   1   2
BRANCH   1  25
ATOM     25  C   UNL A   1      31.830  30.473  26.445  1.00  0.00     0.023 C 
BRANCH  25  26
ATOM     26  C   UNL A   1      32.904  31.363  27.054  1.00  0.00     0.116 C 
BRANCH  26  27
ATOM     27  N   UNL A   1      32.451  32.715  27.348  1.00  0.00    -0.352 N 
ATOM     28  C   UNL A   1      33.068  33.677  28.116  1.00  0.00     0.251 C 
ATOM     29  H   UNL A   1      31.592  32.975  26.945  1.00  0.00     0.163 HD
ATOM     30  O   UNL A   1      32.513  34.748  28.337  1.00  0.00    -0.269 OA
BRANCH  28  31
ATOM     31  C   UNL A   1      34.387  33.387  28.718  1.00  0.00     0.039 A 
ATOM     32  C   UNL A   1      35.564  33.665  28.021  1.00  0.00     0.014 A 
ATOM     33  C   UNL A   1      34.440  32.773  29.973  1.00  0.00     0.014 A 
ATOM     34  C   UNL A   1      36.774  33.174  28.496  1.00  0.00     0.010 A 
ATOM     35  C   UNL A   1      35.669  32.350  30.487  1.00  0.00     0.010 A 
ATOM     36  C   UNL A   1      36.838  32.497  29.726  1.00  0.00    -0.014 A 
BRANCH  36  37
ATOM     37  C   UNL A   1      38.138  31.942  30.181  1.00  0.00     0.031 A 
ATOM     38  C   UNL A   1      38.653  30.636  29.638  1.00  0.00     0.074 A 
ATOM     39  C   UNL A   1      38.894  32.657  31.036  1.00  0.00     0.049 A 
ATOM     40  N   UNL A   1      39.796  30.041  29.873  1.00  0.00    -0.248 NA
ATOM     41  C   UNL A   1      37.779  29.900  28.710  1.00  0.00     0.031 C 
ATOM     42  C   UNL A   1      38.512  33.944  31.620  1.00  0.00     0.029 A 
ATOM     43  N   UNL A   1      40.151  32.423  31.533  1.00  0.00    -0.354 N 
ATOM     44  C   UNL A   1      39.771  28.861  29.143  1.00  0.00     0.074 A 
ATOM     45  C   UNL A   1      38.490  28.806  28.473  1.00  0.00     0.031 C 
ATOM     46  C   UNL A   1      39.538  34.418  32.341  1.00  0.00     0.029 A 
ATOM     47  C   UNL A   1      40.625  33.443  32.321  1.00  0.00     0.049 A 
ATOM     48  H   UNL A   1      40.663  31.604  31.343  1.00  0.00     0.167 HD
ATOM     49  C   UNL A   1      40.731  27.913  29.031  1.00  0.00     0.031 A 
ATOM     50  C   UNL A   1      41.801  33.584  32.961  1.00  0.00     0.031 A 
ATOM     51  C   UNL A   1      42.012  27.973  29.685  1.00  0.00     0.049 A 
ATOM     52  C   UNL A   1      42.833  32.503  32.852  1.00  0.00     0.074 A 
ATOM     53  C   UNL A   1      43.058  27.070  29.606  1.00  0.00     0.029 A 
ATOM     54  N   UNL A   1      42.421  28.988  30.535  1.00  0.00    -0.354 N 
ATOM     55  N   UNL A   1      42.795  31.397  32.148  1.00  0.00    -0.248 NA
ATOM     56  C   UNL A   1      44.068  32.682  33.629  1.00  0.00     0.031 C 
ATOM     57  C   UNL A   1      44.081  27.511  30.450  1.00  0.00     0.029 A 
ATOM     58  C   UNL A   1      43.694  28.718  31.010  1.00  0.00     0.049 A 
ATOM     59  H   UNL A   1      41.887  29.781  30.767  1.00  0.00     0.167 HD
ATOM     60  C   UNL A   1      43.998  30.750  32.394  1.00  0.00     0.074 A 
ATOM     61  C   UNL A   1      44.754  31.596  33.295  1.00  0.00     0.031 C 
ATOM     62  C   UNL A   1      44.431  29.559  31.918  1.00  0.00     0.031 A 
BRANCH  49  63
ATOM     63  C   UNL A   1      40.439  26.710  28.179  1.00  0.00    -0.014 A 
ATOM     64  C   UNL A   1      40.911  26.664  26.856  1.00  0.00     0.009 A 
ATOM     65  C   UNL A   1      39.628  25.666  28.648  1.00  0.00     0.009 A 
ATOM     66  C   UNL A   1      40.571  25.601  26.018  1.00  0.00     0.001 A 
ATOM     67  C   UNL A   1      39.308  24.591  27.814  1.00  0.00     0.001 A 
ATOM     68  C   UNL A   1      39.773  24.562  26.500  1.00  0.00     0.000 A 
ENDBRANCH  49  63
BRANCH  50  69
ATOM     69  C   UNL A   1      42.050  34.816  33.751  1.00  0.00    -0.014 A 
ATOM     70  C   UNL A   1      42.726  35.905  33.178  1.00  0.00     0.009 A 
ATOM     71  C   UNL A   1      41.676  34.882  35.102  1.00  0.00     0.009 A 
ATOM     72  C   UNL A   1      43.050  37.023  33.948  1.00  0.00     0.001 A 
ATOM     73  C   UNL A   1      41.979  36.014  35.862  1.00  0.00     0.001 A 
ATOM     74  C   UNL A   1      42.674  37.078  35.288  1.00  0.00     0.000 A 
ENDBRANCH  50  69
BRANCH  62  75
ATOM     75  C   UNL A   1      45.786  29.082  32.357  1.00  0.00    -0.014 A 
ATOM     76  C   UNL A   1      46.919  29.393  31.590  1.00  0.00     0.009 A 
ATOM     77  C   UNL A   1      45.926  28.250  33.477  1.00  0.00     0.009 A 
ATOM     78  C   UNL A   1      48.167  28.868  31.927  1.00  0.00     0.001 A 
ATOM     79  C   UNL A   1      47.180  27.746  33.826  1.00  0.00     0.001 A 
ATOM     80  C   UNL A   1      48.297  28.048  33.047  1.00  0.00     0.000 A 
ENDBRANCH  62  75
ENDBRANCH  36  37
ENDBRANCH  28  31
ENDBRANCH  26  27
ENDBRANCH  25  26
ENDBRANCH   1  25
TORSDOF 13
ENDMDL
