MODEL 1
REMARK VINA RESULT:     -11.2      0.000      0.000
REMARK SMILES COc1ccc(C2=NN=C[C@@H]2C(=O)NCCCCNC(=O)c2ccc(-c3c4nc(c(-c5ccccc5)c5ccc([nH]5)c(-c5ccccc5)c5nc(c(-c6ccccc6)c6ccc3[nH]6)C=C5)C=C4)cc2)cc1OC
REMARK SMILES IDX 16 1 15 2 14 3 12 4 13 5 11 7 7 8 8 9 9 10 10 11 6 12 3 13
REMARK SMILES IDX 4 14 71 15 5 16 70 17 2 18 1 19 72 20 73 21 17 22 18 23
REMARK SMILES IDX 19 24 20 25 21 27 22 28 23 29 69 30 24 31 68 32 25 33 26 34
REMARK SMILES IDX 27 35 62 36 28 37 67 38 61 39 63 40 29 41 66 42 60 43 59 44
REMARK SMILES IDX 30 46 52 47 37 48 51 49 38 50 41 51 50 52 64 53 39 54 40 55
REMARK SMILES IDX 49 57 65 58 42 59 31 60 32 61 36 62 33 63 35 64 34 65 53 66
REMARK SMILES IDX 54 67 58 68 55 69 57 70 56 71 43 72 44 73 48 74 45 75 47 76
REMARK SMILES IDX 46 77
REMARK H PARENT 14 6 19 26 63 45 41 56
REMARK Flexibility Score: inf
ROOT
ATOM      1  C   UNL A   1      35.246  29.844  27.256  1.00  0.00     0.023 C 
ENDROOT
BRANCH   1   2
ATOM      2  C   UNL A   1      34.343  28.668  26.895  1.00  0.00     0.116 C 
BRANCH   2   3
ATOM      3  N   UNL A   1      33.083  28.572  27.606  1.00  0.00    -0.355 N 
ATOM      4  C   UNL A   1      31.902  28.018  27.205  1.00  0.00     0.234 C 
ATOM      5  O   UNL A   1      31.028  27.903  28.074  1.00  0.00    -0.274 OA
ATOM      6  H   UNL A   1      33.080  28.962  28.510  1.00  0.00     0.163 HD
BRANCH   4   7
ATOM      7  C   UNL A   1      31.558  27.654  25.779  1.00  0.00     0.173 C 
ATOM      8  C   UNL A   1      32.501  26.885  24.918  1.00  0.00     0.088 C 
ATOM      9  N   UNL A   1      32.866  27.538  23.854  1.00  0.00    -0.154 NA
ATOM     10  N   UNL A   1      32.198  28.798  23.853  1.00  0.00    -0.162 NA
ATOM     11  C   UNL A   1      31.470  28.867  24.918  1.00  0.00     0.128 C 
BRANCH   8  12
ATOM     12  C   UNL A   1      33.020  25.554  25.268  1.00  0.00     0.003 A 
ATOM     13  C   UNL A   1      33.850  22.951  25.830  1.00  0.00     0.160 A 
ATOM     14  C   UNL A   1      34.791  23.948  25.522  1.00  0.00     0.051 A 
ATOM     15  C   UNL A   1      32.487  23.259  25.864  1.00  0.00     0.161 A 
ATOM     16  C   UNL A   1      34.376  25.246  25.204  1.00  0.00     0.014 A 
ATOM     17  C   UNL A   1      32.092  24.579  25.647  1.00  0.00     0.060 A 
BRANCH  13  18
ATOM     18  O   UNL A   1      34.283  21.719  26.236  1.00  0.00    -0.493 OA
ATOM     19  C   UNL A   1      35.633  21.453  25.865  1.00  0.00     0.278 C 
ENDBRANCH  13  18
BRANCH  15  20
ATOM     20  O   UNL A   1      31.441  22.412  26.103  1.00  0.00    -0.493 OA
ATOM     21  C   UNL A   1      30.284  22.964  26.717  1.00  0.00     0.278 C 
ENDBRANCH  15  20
ENDBRANCH   8  12
ENDBRANCH   4   7
ENDBRANCH   2   3
ENDBRANCH   1   2
BRANCH   1  22
ATOM     22  C   UNL A   1      34.581  31.133  27.742  1.00  0.00     0.023 C 
BRANCH  22  23
ATOM     23  C   UNL A   1      35.518  32.306  27.995  1.00  0.00     0.116 C 
BRANCH  23  24
ATOM     24  N   UNL A   1      35.571  32.744  29.385  1.00  0.00    -0.352 N 
ATOM     25  C   UNL A   1      36.180  32.091  30.439  1.00  0.00     0.251 C 
ATOM     26  H   UNL A   1      35.125  33.595  29.596  1.00  0.00     0.163 HD
ATOM     27  O   UNL A   1      35.885  32.351  31.605  1.00  0.00    -0.269 OA
BRANCH  25  28
ATOM     28  C   UNL A   1      37.207  31.071  30.157  1.00  0.00     0.039 A 
ATOM     29  C   UNL A   1      38.498  31.439  29.772  1.00  0.00     0.014 A 
ATOM     30  C   UNL A   1      36.862  29.723  30.278  1.00  0.00     0.014 A 
ATOM     31  C   UNL A   1      39.461  30.447  29.602  1.00  0.00     0.010 A 
ATOM     32  C   UNL A   1      37.828  28.746  30.183  1.00  0.00     0.010 A 
ATOM     33  C   UNL A   1      39.127  29.101  29.836  1.00  0.00    -0.014 A 
BRANCH  33  34
ATOM     34  C   UNL A   1      40.185  28.097  29.948  1.00  0.00     0.031 A 
ATOM     35  C   UNL A   1      40.820  28.061  31.293  1.00  0.00     0.074 A 
ATOM     36  C   UNL A   1      40.403  27.112  29.050  1.00  0.00     0.049 A 
ATOM     37  N   UNL A   1      42.037  28.361  31.598  1.00  0.00    -0.248 NA
ATOM     38  C   UNL A   1      39.960  27.794  32.461  1.00  0.00     0.031 C 
ATOM     39  C   UNL A   1      39.607  26.822  27.855  1.00  0.00     0.029 A 
ATOM     40  N   UNL A   1      41.295  26.076  29.076  1.00  0.00    -0.354 N 
ATOM     41  C   UNL A   1      42.160  28.094  32.960  1.00  0.00     0.074 A 
ATOM     42  C   UNL A   1      40.821  27.953  33.468  1.00  0.00     0.031 C 
ATOM     43  C   UNL A   1      39.878  25.573  27.418  1.00  0.00     0.029 A 
ATOM     44  C   UNL A   1      40.991  25.047  28.189  1.00  0.00     0.049 A 
ATOM     45  H   UNL A   1      42.081  26.060  29.668  1.00  0.00     0.167 HD
ATOM     46  C   UNL A   1      43.351  27.684  33.477  1.00  0.00     0.031 A 
ATOM     47  C   UNL A   1      41.595  23.839  28.092  1.00  0.00     0.031 A 
ATOM     48  C   UNL A   1      44.420  27.888  32.534  1.00  0.00     0.049 A 
ATOM     49  C   UNL A   1      42.925  23.947  28.721  1.00  0.00     0.074 A 
ATOM     50  C   UNL A   1      45.132  28.945  32.019  1.00  0.00     0.029 A 
ATOM     51  N   UNL A   1      44.604  26.822  31.694  1.00  0.00    -0.354 N 
ATOM     52  N   UNL A   1      43.896  24.655  28.224  1.00  0.00    -0.248 NA
ATOM     53  C   UNL A   1      43.112  23.504  30.098  1.00  0.00     0.031 C 
ATOM     54  C   UNL A   1      45.601  28.520  30.739  1.00  0.00     0.029 A 
ATOM     55  C   UNL A   1      45.204  27.201  30.527  1.00  0.00     0.049 A 
ATOM     56  H   UNL A   1      44.339  25.897  31.906  1.00  0.00     0.167 HD
ATOM     57  C   UNL A   1      44.573  25.122  29.332  1.00  0.00     0.074 A 
ATOM     58  C   UNL A   1      44.180  24.237  30.421  1.00  0.00     0.031 C 
ATOM     59  C   UNL A   1      45.111  26.375  29.342  1.00  0.00     0.031 A 
BRANCH  46  60
ATOM     60  C   UNL A   1      43.479  26.601  34.540  1.00  0.00    -0.014 A 
ATOM     61  C   UNL A   1      44.674  26.548  35.286  1.00  0.00     0.009 A 
ATOM     62  C   UNL A   1      42.647  25.470  34.616  1.00  0.00     0.009 A 
ATOM     63  C   UNL A   1      45.051  25.397  35.991  1.00  0.00     0.001 A 
ATOM     64  C   UNL A   1      43.004  24.331  35.347  1.00  0.00     0.001 A 
ATOM     65  C   UNL A   1      44.221  24.284  36.011  1.00  0.00     0.000 A 
ENDBRANCH  46  60
BRANCH  47  66
ATOM     66  C   UNL A   1      41.081  22.537  27.620  1.00  0.00    -0.014 A 
ATOM     67  C   UNL A   1      39.891  22.472  26.874  1.00  0.00     0.009 A 
ATOM     68  C   UNL A   1      41.903  21.398  27.645  1.00  0.00     0.009 A 
ATOM     69  C   UNL A   1      39.571  21.333  26.126  1.00  0.00     0.001 A 
ATOM     70  C   UNL A   1      41.579  20.258  26.901  1.00  0.00     0.001 A 
ATOM     71  C   UNL A   1      40.424  20.234  26.125  1.00  0.00     0.000 A 
ENDBRANCH  47  66
BRANCH  59  72
ATOM     72  C   UNL A   1      45.463  26.990  28.018  1.00  0.00    -0.014 A 
ATOM     73  C   UNL A   1      44.671  27.939  27.352  1.00  0.00     0.009 A 
ATOM     74  C   UNL A   1      46.688  26.619  27.444  1.00  0.00     0.009 A 
ATOM     75  C   UNL A   1      45.081  28.470  26.124  1.00  0.00     0.001 A 
ATOM     76  C   UNL A   1      47.109  27.167  26.233  1.00  0.00     0.001 A 
ATOM     77  C   UNL A   1      46.300  28.084  25.568  1.00  0.00     0.000 A 
ENDBRANCH  59  72
ENDBRANCH  33  34
ENDBRANCH  25  28
ENDBRANCH  23  24
ENDBRANCH  22  23
ENDBRANCH   1  22
TORSDOF 14
ENDMDL
MODEL 2
REMARK VINA RESULT:     -11.2      3.334      8.360
REMARK SMILES COc1ccc(C2=NN=C[C@@H]2C(=O)NCCCCNC(=O)c2ccc(-c3c4nc(c(-c5ccccc5)c5ccc([nH]5)c(-c5ccccc5)c5nc(c(-c6ccccc6)c6ccc3[nH]6)C=C5)C=C4)cc2)cc1OC
REMARK SMILES IDX 16 1 15 2 14 3 12 4 13 5 11 7 7 8 8 9 9 10 10 11 6 12 3 13
REMARK SMILES IDX 4 14 71 15 5 16 70 17 2 18 1 19 72 20 73 21 17 22 18 23
REMARK SMILES IDX 19 24 20 25 21 27 22 28 23 29 69 30 24 31 68 32 25 33 26 34
REMARK SMILES IDX 27 35 62 36 28 37 67 38 61 39 63 40 29 41 66 42 60 43 59 44
REMARK SMILES IDX 30 46 52 47 37 48 51 49 38 50 41 51 50 52 64 53 39 54 40 55
REMARK SMILES IDX 49 57 65 58 42 59 31 60 32 61 36 62 33 63 35 64 34 65 53 66
REMARK SMILES IDX 54 67 58 68 55 69 57 70 56 71 43 72 44 73 48 74 45 75 47 76
REMARK SMILES IDX 46 77
REMARK H PARENT 14 6 19 26 63 45 41 56
REMARK Flexibility Score: inf
ROOT
ATOM      1  C   UNL A   1      38.042  23.607  26.150  1.00  0.00     0.023 C 
ENDROOT
BRANCH   1   2
ATOM      2  C   UNL A   1      36.545  23.534  25.866  1.00  0.00     0.116 C 
BRANCH   2   3
ATOM      3  N   UNL A   1      35.724  22.874  26.861  1.00  0.00    -0.355 N 
ATOM      4  C   UNL A   1      34.713  21.972  26.692  1.00  0.00     0.234 C 
ATOM      5  O   UNL A   1      34.294  21.420  27.718  1.00  0.00    -0.274 OA
ATOM      6  H   UNL A   1      35.924  23.111  27.796  1.00  0.00     0.163 HD
BRANCH   4   7
ATOM      7  C   UNL A   1      34.012  21.696  25.382  1.00  0.00     0.173 C 
ATOM      8  C   UNL A   1      32.972  22.617  24.842  1.00  0.00     0.088 C 
ATOM      9  N   UNL A   1      31.811  22.047  24.703  1.00  0.00    -0.154 NA
ATOM     10  N   UNL A   1      31.934  20.683  25.098  1.00  0.00    -0.162 NA
ATOM     11  C   UNL A   1      33.153  20.482  25.474  1.00  0.00     0.128 C 
BRANCH   8  12
ATOM     12  C   UNL A   1      33.213  24.040  24.560  1.00  0.00     0.003 A 
ATOM     13  C   UNL A   1      33.558  26.718  23.859  1.00  0.00     0.160 A 
ATOM     14  C   UNL A   1      33.361  26.353  25.201  1.00  0.00     0.051 A 
ATOM     15  C   UNL A   1      33.591  25.738  22.863  1.00  0.00     0.161 A 
ATOM     16  C   UNL A   1      33.150  25.014  25.552  1.00  0.00     0.014 A 
ATOM     17  C   UNL A   1      33.484  24.398  23.235  1.00  0.00     0.060 A 
BRANCH  13  18
ATOM     18  O   UNL A   1      33.863  28.016  23.553  1.00  0.00    -0.493 OA
ATOM     19  C   UNL A   1      32.709  28.833  23.384  1.00  0.00     0.278 C 
ENDBRANCH  13  18
BRANCH  15  20
ATOM     20  O   UNL A   1      33.731  25.917  21.514  1.00  0.00    -0.493 OA
ATOM     21  C   UNL A   1      32.555  25.827  20.720  1.00  0.00     0.278 C 
ENDBRANCH  15  20
ENDBRANCH   8  12
ENDBRANCH   4   7
ENDBRANCH   2   3
ENDBRANCH   1   2
BRANCH   1  22
ATOM     22  C   UNL A   1      38.863  22.325  25.992  1.00  0.00     0.023 C 
BRANCH  22  23
ATOM     23  C   UNL A   1      40.098  22.217  26.876  1.00  0.00     0.116 C 
BRANCH  23  24
ATOM     24  N   UNL A   1      41.362  22.345  26.161  1.00  0.00    -0.352 N 
ATOM     25  C   UNL A   1      42.036  23.514  25.868  1.00  0.00     0.251 C 
ATOM     26  H   UNL A   1      41.779  21.509  25.852  1.00  0.00     0.163 HD
ATOM     27  O   UNL A   1      42.893  23.551  24.985  1.00  0.00    -0.269 OA
BRANCH  25  28
ATOM     28  C   UNL A   1      41.728  24.734  26.636  1.00  0.00     0.039 A 
ATOM     29  C   UNL A   1      42.137  24.870  27.964  1.00  0.00     0.014 A 
ATOM     30  C   UNL A   1      41.012  25.756  26.009  1.00  0.00     0.014 A 
ATOM     31  C   UNL A   1      41.902  26.074  28.625  1.00  0.00     0.010 A 
ATOM     32  C   UNL A   1      40.844  26.972  26.632  1.00  0.00     0.010 A 
ATOM     33  C   UNL A   1      41.279  27.134  27.944  1.00  0.00    -0.014 A 
BRANCH  33  34
ATOM     34  C   UNL A   1      41.293  28.479  28.520  1.00  0.00     0.031 A 
ATOM     35  C   UNL A   1      42.492  29.270  28.133  1.00  0.00     0.074 A 
ATOM     36  C   UNL A   1      40.232  29.069  29.111  1.00  0.00     0.049 A 
ATOM     37  N   UNL A   1      43.440  29.689  28.901  1.00  0.00    -0.248 NA
ATOM     38  C   UNL A   1      42.740  29.502  26.697  1.00  0.00     0.031 C 
ATOM     39  C   UNL A   1      38.878  28.523  29.230  1.00  0.00     0.029 A 
ATOM     40  N   UNL A   1      40.092  30.333  29.612  1.00  0.00    -0.354 N 
ATOM     41  C   UNL A   1      44.282  30.440  28.083  1.00  0.00     0.074 A 
ATOM     42  C   UNL A   1      43.922  30.120  26.727  1.00  0.00     0.031 C 
ATOM     43  C   UNL A   1      38.011  29.515  29.528  1.00  0.00     0.029 A 
ATOM     44  C   UNL A   1      38.768  30.724  29.796  1.00  0.00     0.049 A 
ATOM     45  H   UNL A   1      40.857  30.914  29.824  1.00  0.00     0.167 HD
ATOM     46  C   UNL A   1      44.967  31.503  28.589  1.00  0.00     0.031 A 
ATOM     47  C   UNL A   1      38.313  31.954  30.133  1.00  0.00     0.031 A 
ATOM     48  C   UNL A   1      44.937  31.496  30.030  1.00  0.00     0.049 A 
ATOM     49  C   UNL A   1      39.429  32.696  30.750  1.00  0.00     0.074 A 
ATOM     50  C   UNL A   1      45.509  30.779  31.054  1.00  0.00     0.029 A 
ATOM     51  N   UNL A   1      43.855  32.157  30.546  1.00  0.00    -0.354 N 
ATOM     52  N   UNL A   1      39.940  32.389  31.906  1.00  0.00    -0.248 NA
ATOM     53  C   UNL A   1      40.213  33.625  29.944  1.00  0.00     0.031 C 
ATOM     54  C   UNL A   1      44.615  30.893  32.163  1.00  0.00     0.029 A 
ATOM     55  C   UNL A   1      43.549  31.714  31.801  1.00  0.00     0.049 A 
ATOM     56  H   UNL A   1      43.360  32.865  30.072  1.00  0.00     0.167 HD
ATOM     57  C   UNL A   1      41.276  32.705  31.778  1.00  0.00     0.074 A 
ATOM     58  C   UNL A   1      41.345  33.629  30.654  1.00  0.00     0.031 C 
ATOM     59  C   UNL A   1      42.233  31.931  32.365  1.00  0.00     0.031 A 
BRANCH  46  60
ATOM     60  C   UNL A   1      45.152  32.817  27.845  1.00  0.00    -0.014 A 
ATOM     61  C   UNL A   1      43.995  33.514  27.441  1.00  0.00     0.009 A 
ATOM     62  C   UNL A   1      46.363  33.226  27.258  1.00  0.00     0.009 A 
ATOM     63  C   UNL A   1      44.040  34.497  26.443  1.00  0.00     0.001 A 
ATOM     64  C   UNL A   1      46.416  34.232  26.286  1.00  0.00     0.001 A 
ATOM     65  C   UNL A   1      45.249  34.847  25.857  1.00  0.00     0.000 A 
ENDBRANCH  46  60
BRANCH  47  66
ATOM     66  C   UNL A   1      37.022  32.617  29.852  1.00  0.00    -0.014 A 
ATOM     67  C   UNL A   1      36.729  33.078  28.557  1.00  0.00     0.009 A 
ATOM     68  C   UNL A   1      35.966  32.532  30.774  1.00  0.00     0.009 A 
ATOM     69  C   UNL A   1      35.415  33.380  28.180  1.00  0.00     0.001 A 
ATOM     70  C   UNL A   1      34.653  32.838  30.398  1.00  0.00     0.001 A 
ATOM     71  C   UNL A   1      34.376  33.241  29.095  1.00  0.00     0.000 A 
ENDBRANCH  47  66
BRANCH  59  72
ATOM     72  C   UNL A   1      41.835  31.127  33.569  1.00  0.00    -0.014 A 
ATOM     73  C   UNL A   1      41.790  31.634  34.877  1.00  0.00     0.009 A 
ATOM     74  C   UNL A   1      41.440  29.798  33.351  1.00  0.00     0.009 A 
ATOM     75  C   UNL A   1      41.396  30.816  35.942  1.00  0.00     0.001 A 
ATOM     76  C   UNL A   1      41.023  28.991  34.409  1.00  0.00     0.001 A 
ATOM     77  C   UNL A   1      41.012  29.497  35.705  1.00  0.00     0.000 A 
ENDBRANCH  59  72
ENDBRANCH  33  34
ENDBRANCH  25  28
ENDBRANCH  23  24
ENDBRANCH  22  23
ENDBRANCH   1  22
TORSDOF 14
ENDMDL
MODEL 3
REMARK VINA RESULT:     -11.1      1.941      3.219
REMARK SMILES COc1ccc(C2=NN=C[C@@H]2C(=O)NCCCCNC(=O)c2ccc(-c3c4nc(c(-c5ccccc5)c5ccc([nH]5)c(-c5ccccc5)c5nc(c(-c6ccccc6)c6ccc3[nH]6)C=C5)C=C4)cc2)cc1OC
REMARK SMILES IDX 16 1 15 2 14 3 12 4 13 5 11 7 7 8 8 9 9 10 10 11 6 12 3 13
REMARK SMILES IDX 4 14 71 15 5 16 70 17 2 18 1 19 72 20 73 21 17 22 18 23
REMARK SMILES IDX 19 24 20 25 21 27 22 28 23 29 69 30 24 31 68 32 25 33 26 34
REMARK SMILES IDX 27 35 62 36 28 37 67 38 61 39 63 40 29 41 66 42 60 43 59 44
REMARK SMILES IDX 30 46 52 47 37 48 51 49 38 50 41 51 50 52 64 53 39 54 40 55
REMARK SMILES IDX 49 57 65 58 42 59 31 60 32 61 36 62 33 63 35 64 34 65 53 66
REMARK SMILES IDX 54 67 58 68 55 69 57 70 56 71 43 72 44 73 48 74 45 75 47 76
REMARK SMILES IDX 46 77
REMARK H PARENT 14 6 19 26 63 45 41 56
REMARK Flexibility Score: inf
ROOT
ATOM      1  C   UNL A   1      34.956  29.721  27.052  1.00  0.00     0.023 C 
ENDROOT
BRANCH   1   2
ATOM      2  C   UNL A   1      34.158  28.484  26.650  1.00  0.00     0.116 C 
BRANCH   2   3
ATOM      3  N   UNL A   1      32.784  28.416  27.107  1.00  0.00    -0.355 N 
ATOM      4  C   UNL A   1      31.840  27.458  26.877  1.00  0.00     0.234 C 
ATOM      5  O   UNL A   1      30.796  27.549  27.536  1.00  0.00    -0.274 OA
ATOM      6  H   UNL A   1      32.490  29.172  27.665  1.00  0.00     0.163 HD
BRANCH   4   7
ATOM      7  C   UNL A   1      31.936  26.388  25.814  1.00  0.00     0.173 C 
ATOM      8  C   UNL A   1      30.888  26.231  24.766  1.00  0.00     0.088 C 
ATOM      9  N   UNL A   1      30.307  25.067  24.799  1.00  0.00    -0.154 NA
ATOM     10  N   UNL A   1      30.906  24.299  25.840  1.00  0.00    -0.162 NA
ATOM     11  C   UNL A   1      31.811  25.027  26.405  1.00  0.00     0.128 C 
BRANCH   8  12
ATOM     12  C   UNL A   1      30.502  27.301  23.835  1.00  0.00     0.003 A 
ATOM     13  C   UNL A   1      29.625  29.384  22.199  1.00  0.00     0.160 A 
ATOM     14  C   UNL A   1      30.997  29.113  22.333  1.00  0.00     0.051 A 
ATOM     15  C   UNL A   1      28.686  28.604  22.881  1.00  0.00     0.161 A 
ATOM     16  C   UNL A   1      31.442  28.092  23.181  1.00  0.00     0.014 A 
ATOM     17  C   UNL A   1      29.135  27.525  23.641  1.00  0.00     0.060 A 
BRANCH  13  18
ATOM     18  O   UNL A   1      29.209  30.316  21.289  1.00  0.00    -0.493 OA
ATOM     19  C   UNL A   1      28.916  31.579  21.879  1.00  0.00     0.278 C 
ENDBRANCH  13  18
BRANCH  15  20
ATOM     20  O   UNL A   1      27.326  28.752  22.897  1.00  0.00    -0.493 OA
ATOM     21  C   UNL A   1      26.591  27.904  23.769  1.00  0.00     0.278 C 
ENDBRANCH  15  20
ENDBRANCH   8  12
ENDBRANCH   4   7
ENDBRANCH   2   3
ENDBRANCH   1   2
BRANCH   1  22
ATOM     22  C   UNL A   1      34.184  30.917  27.613  1.00  0.00     0.023 C 
BRANCH  22  23
ATOM     23  C   UNL A   1      35.027  32.123  28.005  1.00  0.00     0.116 C 
BRANCH  23  24
ATOM     24  N   UNL A   1      34.950  32.477  29.418  1.00  0.00    -0.352 N 
ATOM     25  C   UNL A   1      35.592  31.850  30.467  1.00  0.00     0.251 C 
ATOM     26  H   UNL A   1      34.379  33.244  29.648  1.00  0.00     0.163 HD
ATOM     27  O   UNL A   1      35.207  31.994  31.627  1.00  0.00    -0.269 OA
BRANCH  25  28
ATOM     28  C   UNL A   1      36.766  31.000  30.189  1.00  0.00     0.039 A 
ATOM     29  C   UNL A   1      38.013  31.565  29.919  1.00  0.00     0.014 A 
ATOM     30  C   UNL A   1      36.603  29.614  30.195  1.00  0.00     0.014 A 
ATOM     31  C   UNL A   1      39.113  30.726  29.749  1.00  0.00     0.010 A 
ATOM     32  C   UNL A   1      37.698  28.784  30.102  1.00  0.00     0.010 A 
ATOM     33  C   UNL A   1      38.955  29.334  29.870  1.00  0.00    -0.014 A 
BRANCH  33  34
ATOM     34  C   UNL A   1      40.133  28.475  29.987  1.00  0.00     0.031 A 
ATOM     35  C   UNL A   1      40.673  28.405  31.371  1.00  0.00     0.074 A 
ATOM     36  C   UNL A   1      40.547  27.611  29.035  1.00  0.00     0.049 A 
ATOM     37  N   UNL A   1      41.813  28.838  31.795  1.00  0.00    -0.248 NA
ATOM     38  C   UNL A   1      39.781  27.924  32.443  1.00  0.00     0.031 C 
ATOM     39  C   UNL A   1      39.882  27.323  27.762  1.00  0.00     0.029 A 
ATOM     40  N   UNL A   1      41.570  26.706  29.051  1.00  0.00    -0.354 N 
ATOM     41  C   UNL A   1      41.879  28.471  33.137  1.00  0.00     0.074 A 
ATOM     42  C   UNL A   1      40.541  28.107  33.525  1.00  0.00     0.031 C 
ATOM     43  C   UNL A   1      40.355  26.165  27.252  1.00  0.00     0.029 A 
ATOM     44  C   UNL A   1      41.475  25.727  28.065  1.00  0.00     0.049 A 
ATOM     45  H   UNL A   1      42.309  26.742  29.701  1.00  0.00     0.167 HD
ATOM     46  C   UNL A   1      43.078  28.179  33.714  1.00  0.00     0.031 A 
ATOM     47  C   UNL A   1      42.248  24.624  27.923  1.00  0.00     0.031 A 
ATOM     48  C   UNL A   1      44.169  28.607  32.877  1.00  0.00     0.049 A 
ATOM     49  C   UNL A   1      43.503  24.852  28.663  1.00  0.00     0.074 A 
ATOM     50  C   UNL A   1      44.760  29.791  32.505  1.00  0.00     0.029 A 
ATOM     51  N   UNL A   1      44.557  27.653  31.974  1.00  0.00    -0.354 N 
ATOM     52  N   UNL A   1      44.397  25.725  28.301  1.00  0.00    -0.248 NA
ATOM     53  C   UNL A   1      43.656  24.319  30.011  1.00  0.00     0.031 C 
ATOM     54  C   UNL A   1      45.370  29.547  31.236  1.00  0.00     0.029 A 
ATOM     55  C   UNL A   1      45.176  28.210  30.892  1.00  0.00     0.049 A 
ATOM     56  H   UNL A   1      44.410  26.686  32.092  1.00  0.00     0.167 HD
ATOM     57  C   UNL A   1      44.925  26.179  29.492  1.00  0.00     0.074 A 
ATOM     58  C   UNL A   1      44.587  25.158  30.474  1.00  0.00     0.031 C 
ATOM     59  C   UNL A   1      45.280  27.488  29.642  1.00  0.00     0.031 A 
BRANCH  46  60
ATOM     60  C   UNL A   1      43.283  27.035  34.695  1.00  0.00    -0.014 A 
ATOM     61  C   UNL A   1      44.272  27.188  35.689  1.00  0.00     0.009 A 
ATOM     62  C   UNL A   1      42.797  25.730  34.496  1.00  0.00     0.009 A 
ATOM     63  C   UNL A   1      44.802  26.087  36.375  1.00  0.00     0.001 A 
ATOM     64  C   UNL A   1      43.300  24.632  35.205  1.00  0.00     0.001 A 
ATOM     65  C   UNL A   1      44.324  24.807  36.124  1.00  0.00     0.000 A 
ENDBRANCH  46  60
BRANCH  47  66
ATOM     66  C   UNL A   1      41.953  23.311  27.311  1.00  0.00    -0.014 A 
ATOM     67  C   UNL A   1      42.758  22.817  26.271  1.00  0.00     0.009 A 
ATOM     68  C   UNL A   1      41.072  22.417  27.942  1.00  0.00     0.009 A 
ATOM     69  C   UNL A   1      42.730  21.462  25.920  1.00  0.00     0.001 A 
ATOM     70  C   UNL A   1      41.041  21.064  27.587  1.00  0.00     0.001 A 
ATOM     71  C   UNL A   1      41.885  20.583  26.591  1.00  0.00     0.000 A 
ENDBRANCH  47  66
BRANCH  59  72
ATOM     72  C   UNL A   1      45.632  28.258  28.402  1.00  0.00    -0.014 A 
ATOM     73  C   UNL A   1      44.719  29.026  27.664  1.00  0.00     0.009 A 
ATOM     74  C   UNL A   1      46.975  28.238  27.994  1.00  0.00     0.009 A 
ATOM     75  C   UNL A   1      45.135  29.723  26.524  1.00  0.00     0.001 A 
ATOM     76  C   UNL A   1      47.395  28.953  26.873  1.00  0.00     0.001 A 
ATOM     77  C   UNL A   1      46.473  29.687  26.132  1.00  0.00     0.000 A 
ENDBRANCH  59  72
ENDBRANCH  33  34
ENDBRANCH  25  28
ENDBRANCH  23  24
ENDBRANCH  22  23
ENDBRANCH   1  22
TORSDOF 14
ENDMDL
