MODEL 1
REMARK VINA RESULT:     -11.4      0.000      0.000
REMARK SMILES Cc1ccc(Br)cc1C(=O)N1CCO[C@H](CC(=O)NCCCCNC(=O)c2ccc(-c3c4nc(c(-c5ccccc5)c5ccc([nH]5)c(-c5ccccc5)c5nc(c(-c6ccccc6)c6ccc3[nH]6)C=C5)C=C4)cc2)C1
REMARK SMILES IDX 21 1 20 2 19 3 17 4 18 5 16 7 15 8 11 9 12 10 75 11 13 12
REMARK SMILES IDX 14 13 9 14 10 15 8 16 1 17 2 18 3 19 4 20 7 21 5 22 6 23
REMARK SMILES IDX 22 24 23 25 24 26 25 27 26 29 27 30 28 31 74 32 29 33 73 34
REMARK SMILES IDX 30 35 31 36 32 37 67 38 33 39 72 40 66 41 68 42 34 43 71 44
REMARK SMILES IDX 65 45 64 46 35 48 57 49 42 50 56 51 43 52 46 53 55 54 69 55
REMARK SMILES IDX 44 56 45 57 54 59 70 60 47 61 36 62 37 63 41 64 38 65 40 66
REMARK SMILES IDX 39 67 58 68 59 69 63 70 60 71 62 72 61 73 48 74 49 75 53 76
REMARK SMILES IDX 50 77 52 78 51 79
REMARK H PARENT 19 6 24 28 68 47 46 58
REMARK Flexibility Score: inf
ROOT
ATOM      1  C   UNL A   1      36.906  21.077  24.545  1.00  0.00     0.023 C 
ENDROOT
BRANCH   1   2
ATOM      2  C   UNL A   1      36.880  22.202  25.573  1.00  0.00     0.116 C 
BRANCH   2   3
ATOM      3  N   UNL A   1      35.829  21.966  26.540  1.00  0.00    -0.356 N 
ATOM      4  C   UNL A   1      34.758  22.763  26.811  1.00  0.00     0.222 C 
ATOM      5  O   UNL A   1      34.106  22.569  27.835  1.00  0.00    -0.275 OA
ATOM      6  H   UNL A   1      35.896  21.133  27.062  1.00  0.00     0.163 HD
BRANCH   4   7
ATOM      7  C   UNL A   1      34.349  23.793  25.794  1.00  0.00     0.133 C 
BRANCH   7   8
ATOM      8  C   UNL A   1      33.656  23.242  24.538  1.00  0.00     0.147 C 
ATOM      9  N   UNL A   1      31.475  23.946  25.338  1.00  0.00    -0.334 N 
ATOM     10  C   UNL A   1      30.972  22.586  25.456  1.00  0.00     0.148 C 
ATOM     11  C   UNL A   1      32.419  24.096  24.226  1.00  0.00     0.152 C 
ATOM     12  C   UNL A   1      32.123  21.556  25.463  1.00  0.00     0.182 C 
ATOM     13  O   UNL A   1      33.254  21.854  24.621  1.00  0.00    -0.374 OA
BRANCH   9  14
ATOM     14  C   UNL A   1      30.905  25.096  25.860  1.00  0.00     0.254 C 
ATOM     15  O   UNL A   1      29.967  24.973  26.654  1.00  0.00    -0.269 OA
BRANCH  14  16
ATOM     16  C   UNL A   1      31.241  26.503  25.398  1.00  0.00     0.044 A 
ATOM     17  C   UNL A   1      29.409  26.984  23.610  1.00  0.00     0.045 C 
ATOM     18  C   UNL A   1      30.547  27.351  24.502  1.00  0.00    -0.038 A 
ATOM     19  C   UNL A   1      30.923  28.713  24.394  1.00  0.00     0.005 A 
ATOM     20  C   UNL A   1      31.940  29.257  25.167  1.00  0.00     0.016 A 
ATOM     21  C   UNL A   1      32.296  27.084  26.144  1.00  0.00     0.029 A 
ATOM     22  C   UNL A   1      32.628  28.435  26.039  1.00  0.00     0.018 A 
ATOM     23  Br  UNL A   1      33.990  29.162  27.129  1.00  0.00    -0.051 Br
ENDBRANCH  14  16
ENDBRANCH   9  14
ENDBRANCH   7   8
ENDBRANCH   4   7
ENDBRANCH   2   3
ENDBRANCH   1   2
BRANCH   1  24
ATOM     24  C   UNL A   1      37.778  19.894  24.973  1.00  0.00     0.023 C 
BRANCH  24  25
ATOM     25  C   UNL A   1      39.000  20.281  25.797  1.00  0.00     0.116 C 
BRANCH  25  26
ATOM     26  N   UNL A   1      40.006  19.233  25.830  1.00  0.00    -0.352 N 
ATOM     27  C   UNL A   1      41.354  19.341  26.071  1.00  0.00     0.251 C 
ATOM     28  H   UNL A   1      39.677  18.322  25.656  1.00  0.00     0.163 HD
ATOM     29  O   UNL A   1      42.091  18.378  25.908  1.00  0.00    -0.269 OA
BRANCH  27  30
ATOM     30  C   UNL A   1      41.910  20.642  26.498  1.00  0.00     0.039 A 
ATOM     31  C   UNL A   1      42.181  21.604  25.523  1.00  0.00     0.014 A 
ATOM     32  C   UNL A   1      42.138  20.920  27.848  1.00  0.00     0.014 A 
ATOM     33  C   UNL A   1      42.632  22.865  25.911  1.00  0.00     0.010 A 
ATOM     34  C   UNL A   1      42.508  22.204  28.238  1.00  0.00     0.010 A 
ATOM     35  C   UNL A   1      42.764  23.188  27.273  1.00  0.00    -0.014 A 
BRANCH  35  36
ATOM     36  C   UNL A   1      43.153  24.559  27.688  1.00  0.00     0.031 A 
ATOM     37  C   UNL A   1      44.595  24.985  27.668  1.00  0.00     0.074 A 
ATOM     38  C   UNL A   1      42.202  25.416  28.108  1.00  0.00     0.049 A 
ATOM     39  N   UNL A   1      45.113  26.153  27.959  1.00  0.00    -0.248 NA
ATOM     40  C   UNL A   1      45.588  23.965  27.297  1.00  0.00     0.031 C 
ATOM     41  C   UNL A   1      40.775  25.108  28.223  1.00  0.00     0.029 A 
ATOM     42  N   UNL A   1      42.293  26.725  28.506  1.00  0.00    -0.354 N 
ATOM     43  C   UNL A   1      46.486  26.005  27.810  1.00  0.00     0.074 A 
ATOM     44  C   UNL A   1      46.727  24.623  27.464  1.00  0.00     0.031 C 
ATOM     45  C   UNL A   1      40.118  26.210  28.616  1.00  0.00     0.029 A 
ATOM     46  C   UNL A   1      41.078  27.289  28.819  1.00  0.00     0.049 A 
ATOM     47  H   UNL A   1      43.144  27.215  28.562  1.00  0.00     0.167 HD
ATOM     48  C   UNL A   1      47.457  26.941  27.927  1.00  0.00     0.031 A 
ATOM     49  C   UNL A   1      40.772  28.538  29.216  1.00  0.00     0.031 A 
ATOM     50  C   UNL A   1      47.218  28.318  28.277  1.00  0.00     0.049 A 
ATOM     51  C   UNL A   1      41.871  29.554  29.352  1.00  0.00     0.074 A 
ATOM     52  C   UNL A   1      48.129  29.355  28.369  1.00  0.00     0.029 A 
ATOM     53  N   UNL A   1      45.977  28.846  28.598  1.00  0.00    -0.354 N 
ATOM     54  N   UNL A   1      43.155  29.420  29.126  1.00  0.00    -0.248 NA
ATOM     55  C   UNL A   1      41.472  30.899  29.786  1.00  0.00     0.031 C 
ATOM     56  C   UNL A   1      47.450  30.497  28.806  1.00  0.00     0.029 A 
ATOM     57  C   UNL A   1      46.104  30.188  28.919  1.00  0.00     0.049 A 
ATOM     58  H   UNL A   1      45.131  28.343  28.597  1.00  0.00     0.167 HD
ATOM     59  C   UNL A   1      43.714  30.669  29.365  1.00  0.00     0.074 A 
ATOM     60  C   UNL A   1      42.624  31.552  29.727  1.00  0.00     0.031 C 
ATOM     61  C   UNL A   1      45.012  31.051  29.291  1.00  0.00     0.031 A 
BRANCH  48  62
ATOM     62  C   UNL A   1      48.876  26.502  27.682  1.00  0.00    -0.014 A 
ATOM     63  C   UNL A   1      49.691  26.052  28.733  1.00  0.00     0.009 A 
ATOM     64  C   UNL A   1      49.393  26.504  26.378  1.00  0.00     0.009 A 
ATOM     65  C   UNL A   1      51.007  25.651  28.489  1.00  0.00     0.001 A 
ATOM     66  C   UNL A   1      50.697  26.071  26.131  1.00  0.00     0.001 A 
ATOM     67  C   UNL A   1      51.507  25.655  27.187  1.00  0.00     0.000 A 
ENDBRANCH  48  62
BRANCH  49  68
ATOM     68  C   UNL A   1      39.358  28.907  29.494  1.00  0.00    -0.014 A 
ATOM     69  C   UNL A   1      38.803  28.700  30.767  1.00  0.00     0.009 A 
ATOM     70  C   UNL A   1      38.552  29.457  28.485  1.00  0.00     0.009 A 
ATOM     71  C   UNL A   1      37.463  29.007  31.014  1.00  0.00     0.001 A 
ATOM     72  C   UNL A   1      37.222  29.795  28.744  1.00  0.00     0.001 A 
ATOM     73  C   UNL A   1      36.676  29.558  30.004  1.00  0.00     0.000 A 
ENDBRANCH  49  68
BRANCH  61  74
ATOM     74  C   UNL A   1      45.316  32.495  29.586  1.00  0.00    -0.014 A 
ATOM     75  C   UNL A   1      45.645  32.925  30.881  1.00  0.00     0.009 A 
ATOM     76  C   UNL A   1      45.284  33.438  28.546  1.00  0.00     0.009 A 
ATOM     77  C   UNL A   1      45.888  34.275  31.137  1.00  0.00     0.001 A 
ATOM     78  C   UNL A   1      45.562  34.781  28.798  1.00  0.00     0.001 A 
ATOM     79  C   UNL A   1      45.849  35.201  30.096  1.00  0.00     0.000 A 
ENDBRANCH  61  74
ENDBRANCH  35  36
ENDBRANCH  27  30
ENDBRANCH  25  26
ENDBRANCH  24  25
ENDBRANCH   1  24
TORSDOF 14
ENDMDL
MODEL 2
REMARK VINA RESULT:     -11.4      4.865      9.917
REMARK SMILES Cc1ccc(Br)cc1C(=O)N1CCO[C@H](CC(=O)NCCCCNC(=O)c2ccc(-c3c4nc(c(-c5ccccc5)c5ccc([nH]5)c(-c5ccccc5)c5nc(c(-c6ccccc6)c6ccc3[nH]6)C=C5)C=C4)cc2)C1
REMARK SMILES IDX 21 1 20 2 19 3 17 4 18 5 16 7 15 8 11 9 12 10 75 11 13 12
REMARK SMILES IDX 14 13 9 14 10 15 8 16 1 17 2 18 3 19 4 20 7 21 5 22 6 23
REMARK SMILES IDX 22 24 23 25 24 26 25 27 26 29 27 30 28 31 74 32 29 33 73 34
REMARK SMILES IDX 30 35 31 36 32 37 67 38 33 39 72 40 66 41 68 42 34 43 71 44
REMARK SMILES IDX 65 45 64 46 35 48 57 49 42 50 56 51 43 52 46 53 55 54 69 55
REMARK SMILES IDX 44 56 45 57 54 59 70 60 47 61 36 62 37 63 41 64 38 65 40 66
REMARK SMILES IDX 39 67 58 68 59 69 63 70 60 71 62 72 61 73 48 74 49 75 53 76
REMARK SMILES IDX 50 77 52 78 51 79
REMARK H PARENT 19 6 24 28 68 47 46 58
REMARK Flexibility Score: inf
ROOT
ATOM      1  C   UNL A   1      31.553  30.618  26.475  1.00  0.00     0.023 C 
ENDROOT
BRANCH   1   2
ATOM      2  C   UNL A   1      32.995  30.124  26.463  1.00  0.00     0.116 C 
BRANCH   2   3
ATOM      3  N   UNL A   1      33.354  29.674  25.134  1.00  0.00    -0.356 N 
ATOM      4  C   UNL A   1      33.456  28.388  24.695  1.00  0.00     0.222 C 
ATOM      5  O   UNL A   1      34.027  28.158  23.631  1.00  0.00    -0.275 OA
ATOM      6  H   UNL A   1      33.546  30.377  24.472  1.00  0.00     0.163 HD
BRANCH   4   7
ATOM      7  C   UNL A   1      32.775  27.301  25.481  1.00  0.00     0.133 C 
BRANCH   7   8
ATOM      8  C   UNL A   1      31.250  27.220  25.314  1.00  0.00     0.147 C 
ATOM      9  N   UNL A   1      31.298  24.794  25.325  1.00  0.00    -0.334 N 
ATOM     10  C   UNL A   1      30.832  24.682  23.950  1.00  0.00     0.148 C 
ATOM     11  C   UNL A   1      30.729  25.957  26.013  1.00  0.00     0.152 C 
ATOM     12  C   UNL A   1      31.003  26.013  23.185  1.00  0.00     0.182 C 
ATOM     13  O   UNL A   1      30.785  27.219  23.943  1.00  0.00    -0.374 OA
BRANCH   9  14
ATOM     14  C   UNL A   1      31.852  23.790  26.103  1.00  0.00     0.254 C 
ATOM     15  O   UNL A   1      31.536  23.735  27.296  1.00  0.00    -0.269 OA
BRANCH  14  16
ATOM     16  C   UNL A   1      32.952  22.853  25.634  1.00  0.00     0.044 A 
ATOM     17  C   UNL A   1      35.045  24.400  25.556  1.00  0.00     0.045 C 
ATOM     18  C   UNL A   1      34.339  23.088  25.489  1.00  0.00    -0.038 A 
ATOM     19  C   UNL A   1      35.213  21.997  25.253  1.00  0.00     0.005 A 
ATOM     20  C   UNL A   1      34.753  20.689  25.190  1.00  0.00     0.016 A 
ATOM     21  C   UNL A   1      32.513  21.510  25.528  1.00  0.00     0.029 A 
ATOM     22  C   UNL A   1      33.398  20.451  25.323  1.00  0.00     0.018 A 
ATOM     23  Br  UNL A   1      32.754  18.674  25.279  1.00  0.00    -0.051 Br
ENDBRANCH  14  16
ENDBRANCH   9  14
ENDBRANCH   7   8
ENDBRANCH   4   7
ENDBRANCH   2   3
ENDBRANCH   1   2
BRANCH   1  24
ATOM     24  C   UNL A   1      31.442  32.141  26.582  1.00  0.00     0.023 C 
BRANCH  24  25
ATOM     25  C   UNL A   1      32.637  32.813  27.245  1.00  0.00     0.116 C 
BRANCH  25  26
ATOM     26  N   UNL A   1      32.355  34.179  27.654  1.00  0.00    -0.352 N 
ATOM     27  C   UNL A   1      32.998  34.945  28.595  1.00  0.00     0.251 C 
ATOM     28  H   UNL A   1      31.601  34.613  27.195  1.00  0.00     0.163 HD
ATOM     29  O   UNL A   1      32.536  36.027  28.933  1.00  0.00    -0.269 OA
BRANCH  27  30
ATOM     30  C   UNL A   1      34.236  34.435  29.220  1.00  0.00     0.039 A 
ATOM     31  C   UNL A   1      34.135  33.709  30.408  1.00  0.00     0.014 A 
ATOM     32  C   UNL A   1      35.484  34.650  28.627  1.00  0.00     0.014 A 
ATOM     33  C   UNL A   1      35.282  33.152  30.972  1.00  0.00     0.010 A 
ATOM     34  C   UNL A   1      36.614  34.025  29.146  1.00  0.00     0.010 A 
ATOM     35  C   UNL A   1      36.526  33.275  30.326  1.00  0.00    -0.014 A 
BRANCH  35  36
ATOM     36  C   UNL A   1      37.729  32.603  30.877  1.00  0.00     0.031 A 
ATOM     37  C   UNL A   1      38.369  33.097  32.145  1.00  0.00     0.074 A 
ATOM     38  C   UNL A   1      38.262  31.557  30.216  1.00  0.00     0.049 A 
ATOM     39  N   UNL A   1      39.400  32.610  32.791  1.00  0.00    -0.248 NA
ATOM     40  C   UNL A   1      37.795  34.306  32.756  1.00  0.00     0.031 C 
ATOM     41  C   UNL A   1      37.766  31.014  28.949  1.00  0.00     0.029 A 
ATOM     42  N   UNL A   1      39.331  30.756  30.525  1.00  0.00    -0.354 N 
ATOM     43  C   UNL A   1      39.598  33.453  33.877  1.00  0.00     0.074 A 
ATOM     44  C   UNL A   1      38.623  34.515  33.771  1.00  0.00     0.031 C 
ATOM     45  C   UNL A   1      38.500  29.941  28.614  1.00  0.00     0.029 A 
ATOM     46  C   UNL A   1      39.540  29.744  29.618  1.00  0.00     0.049 A 
ATOM     47  H   UNL A   1      39.896  30.891  31.320  1.00  0.00     0.167 HD
ATOM     48  C   UNL A   1      40.495  33.341  34.886  1.00  0.00     0.031 A 
ATOM     49  C   UNL A   1      40.460  28.763  29.600  1.00  0.00     0.031 A 
ATOM     50  C   UNL A   1      41.469  32.286  34.990  1.00  0.00     0.049 A 
ATOM     51  C   UNL A   1      41.453  28.670  30.724  1.00  0.00     0.074 A 
ATOM     52  C   UNL A   1      42.386  32.056  36.000  1.00  0.00     0.029 A 
ATOM     53  N   UNL A   1      41.656  31.289  34.045  1.00  0.00    -0.354 N 
ATOM     54  N   UNL A   1      41.573  29.426  31.788  1.00  0.00    -0.248 NA
ATOM     55  C   UNL A   1      42.430  27.575  30.650  1.00  0.00     0.031 C 
ATOM     56  C   UNL A   1      43.169  30.955  35.638  1.00  0.00     0.029 A 
ATOM     57  C   UNL A   1      42.695  30.458  34.435  1.00  0.00     0.049 A 
ATOM     58  H   UNL A   1      41.129  31.186  33.220  1.00  0.00     0.167 HD
ATOM     59  C   UNL A   1      42.621  28.884  32.522  1.00  0.00     0.074 A 
ATOM     60  C   UNL A   1      43.083  27.720  31.794  1.00  0.00     0.031 C 
ATOM     61  C   UNL A   1      43.153  29.312  33.693  1.00  0.00     0.031 A 
BRANCH  48  62
ATOM     62  C   UNL A   1      40.466  34.398  35.957  1.00  0.00    -0.014 A 
ATOM     63  C   UNL A   1      41.260  35.552  35.863  1.00  0.00     0.009 A 
ATOM     64  C   UNL A   1      39.610  34.255  37.060  1.00  0.00     0.009 A 
ATOM     65  C   UNL A   1      41.226  36.522  36.868  1.00  0.00     0.001 A 
ATOM     66  C   UNL A   1      39.552  35.241  38.046  1.00  0.00     0.001 A 
ATOM     67  C   UNL A   1      40.367  36.368  37.956  1.00  0.00     0.000 A 
ENDBRANCH  48  62
BRANCH  49  68
ATOM     68  C   UNL A   1      40.475  27.772  28.490  1.00  0.00    -0.014 A 
ATOM     69  C   UNL A   1      41.203  28.025  27.317  1.00  0.00     0.009 A 
ATOM     70  C   UNL A   1      39.752  26.574  28.593  1.00  0.00     0.009 A 
ATOM     71  C   UNL A   1      41.180  27.114  26.258  1.00  0.00     0.001 A 
ATOM     72  C   UNL A   1      39.758  25.649  27.547  1.00  0.00     0.001 A 
ATOM     73  C   UNL A   1      40.462  25.925  26.377  1.00  0.00     0.000 A 
ENDBRANCH  49  68
BRANCH  61  74
ATOM     74  C   UNL A   1      44.279  28.497  34.268  1.00  0.00    -0.014 A 
ATOM     75  C   UNL A   1      44.035  27.409  35.122  1.00  0.00     0.009 A 
ATOM     76  C   UNL A   1      45.606  28.815  33.938  1.00  0.00     0.009 A 
ATOM     77  C   UNL A   1      45.097  26.690  35.672  1.00  0.00     0.001 A 
ATOM     78  C   UNL A   1      46.665  28.072  34.461  1.00  0.00     0.001 A 
ATOM     79  C   UNL A   1      46.410  27.020  35.339  1.00  0.00     0.000 A 
ENDBRANCH  61  74
ENDBRANCH  35  36
ENDBRANCH  27  30
ENDBRANCH  25  26
ENDBRANCH  24  25
ENDBRANCH   1  24
TORSDOF 14
ENDMDL
MODEL 3
REMARK VINA RESULT:     -11.3      1.079      6.059
REMARK SMILES Cc1ccc(Br)cc1C(=O)N1CCO[C@H](CC(=O)NCCCCNC(=O)c2ccc(-c3c4nc(c(-c5ccccc5)c5ccc([nH]5)c(-c5ccccc5)c5nc(c(-c6ccccc6)c6ccc3[nH]6)C=C5)C=C4)cc2)C1
REMARK SMILES IDX 21 1 20 2 19 3 17 4 18 5 16 7 15 8 11 9 12 10 75 11 13 12
REMARK SMILES IDX 14 13 9 14 10 15 8 16 1 17 2 18 3 19 4 20 7 21 5 22 6 23
REMARK SMILES IDX 22 24 23 25 24 26 25 27 26 29 27 30 28 31 74 32 29 33 73 34
REMARK SMILES IDX 30 35 31 36 32 37 67 38 33 39 72 40 66 41 68 42 34 43 71 44
REMARK SMILES IDX 65 45 64 46 35 48 57 49 42 50 56 51 43 52 46 53 55 54 69 55
REMARK SMILES IDX 44 56 45 57 54 59 70 60 47 61 36 62 37 63 41 64 38 65 40 66
REMARK SMILES IDX 39 67 58 68 59 69 63 70 60 71 62 72 61 73 48 74 49 75 53 76
REMARK SMILES IDX 50 77 52 78 51 79
REMARK H PARENT 19 6 24 28 68 47 46 58
REMARK Flexibility Score: inf
ROOT
ATOM      1  C   UNL A   1      37.147  21.085  24.574  1.00  0.00     0.023 C 
ENDROOT
BRANCH   1   2
ATOM      2  C   UNL A   1      37.186  22.213  25.598  1.00  0.00     0.116 C 
BRANCH   2   3
ATOM      3  N   UNL A   1      36.001  22.171  26.429  1.00  0.00    -0.356 N 
ATOM      4  C   UNL A   1      34.885  22.945  26.320  1.00  0.00     0.222 C 
ATOM      5  O   UNL A   1      34.084  22.982  27.252  1.00  0.00    -0.275 OA
ATOM      6  H   UNL A   1      36.002  21.506  27.156  1.00  0.00     0.163 HD
BRANCH   4   7
ATOM      7  C   UNL A   1      34.621  23.652  25.018  1.00  0.00     0.133 C 
BRANCH   7   8
ATOM      8  C   UNL A   1      33.904  22.816  23.946  1.00  0.00     0.147 C 
ATOM      9  N   UNL A   1      32.723  24.763  23.107  1.00  0.00    -0.334 N 
ATOM     10  C   UNL A   1      31.414  24.255  23.492  1.00  0.00     0.148 C 
ATOM     11  C   UNL A   1      33.642  23.691  22.713  1.00  0.00     0.152 C 
ATOM     12  C   UNL A   1      31.532  23.114  24.526  1.00  0.00     0.182 C 
ATOM     13  O   UNL A   1      32.654  22.222  24.370  1.00  0.00    -0.374 OA
BRANCH   9  14
ATOM     14  C   UNL A   1      33.036  26.056  22.723  1.00  0.00     0.254 C 
ATOM     15  O   UNL A   1      33.834  26.212  21.792  1.00  0.00    -0.269 OA
BRANCH  14  16
ATOM     16  C   UNL A   1      32.599  27.302  23.475  1.00  0.00     0.044 A 
ATOM     17  C   UNL A   1      30.313  27.881  22.371  1.00  0.00     0.045 C 
ATOM     18  C   UNL A   1      31.390  28.032  23.392  1.00  0.00    -0.038 A 
ATOM     19  C   UNL A   1      31.108  29.031  24.356  1.00  0.00     0.005 A 
ATOM     20  C   UNL A   1      31.972  29.301  25.408  1.00  0.00     0.016 A 
ATOM     21  C   UNL A   1      33.474  27.628  24.542  1.00  0.00     0.029 A 
ATOM     22  C   UNL A   1      33.159  28.598  25.494  1.00  0.00     0.018 A 
ATOM     23  Br  UNL A   1      34.333  28.921  26.939  1.00  0.00    -0.051 Br
ENDBRANCH  14  16
ENDBRANCH   9  14
ENDBRANCH   7   8
ENDBRANCH   4   7
ENDBRANCH   2   3
ENDBRANCH   1   2
BRANCH   1  24
ATOM     24  C   UNL A   1      38.011  19.885  24.971  1.00  0.00     0.023 C 
BRANCH  24  25
ATOM     25  C   UNL A   1      39.211  20.236  25.840  1.00  0.00     0.116 C 
BRANCH  25  26
ATOM     26  N   UNL A   1      40.192  19.164  25.898  1.00  0.00    -0.352 N 
ATOM     27  C   UNL A   1      41.548  19.249  26.096  1.00  0.00     0.251 C 
ATOM     28  H   UNL A   1      39.835  18.255  25.778  1.00  0.00     0.163 HD
ATOM     29  O   UNL A   1      42.256  18.260  25.961  1.00  0.00    -0.269 OA
BRANCH  27  30
ATOM     30  C   UNL A   1      42.148  20.553  26.443  1.00  0.00     0.039 A 
ATOM     31  C   UNL A   1      42.602  21.375  25.409  1.00  0.00     0.014 A 
ATOM     32  C   UNL A   1      42.240  20.974  27.772  1.00  0.00     0.014 A 
ATOM     33  C   UNL A   1      43.100  22.643  25.708  1.00  0.00     0.010 A 
ATOM     34  C   UNL A   1      42.660  22.269  28.061  1.00  0.00     0.010 A 
ATOM     35  C   UNL A   1      43.099  23.114  27.033  1.00  0.00    -0.014 A 
BRANCH  35  36
ATOM     36  C   UNL A   1      43.541  24.498  27.339  1.00  0.00     0.031 A 
ATOM     37  C   UNL A   1      42.549  25.538  27.782  1.00  0.00     0.074 A 
ATOM     38  C   UNL A   1      44.840  24.824  27.192  1.00  0.00     0.049 A 
ATOM     39  N   UNL A   1      42.762  26.784  28.128  1.00  0.00    -0.248 NA
ATOM     40  C   UNL A   1      41.134  25.138  27.821  1.00  0.00     0.031 C 
ATOM     41  C   UNL A   1      45.892  23.921  26.718  1.00  0.00     0.029 A 
ATOM     42  N   UNL A   1      45.499  26.002  27.436  1.00  0.00    -0.354 N 
ATOM     43  C   UNL A   1      41.511  27.313  28.421  1.00  0.00     0.074 A 
ATOM     44  C   UNL A   1      40.540  26.276  28.153  1.00  0.00     0.031 C 
ATOM     45  C   UNL A   1      47.070  24.563  26.753  1.00  0.00     0.029 A 
ATOM     46  C   UNL A   1      46.853  25.931  27.211  1.00  0.00     0.049 A 
ATOM     47  H   UNL A   1      45.046  26.820  27.744  1.00  0.00     0.167 HD
ATOM     48  C   UNL A   1      41.200  28.544  28.892  1.00  0.00     0.031 A 
ATOM     49  C   UNL A   1      47.814  26.860  27.363  1.00  0.00     0.031 A 
ATOM     50  C   UNL A   1      42.166  29.579  29.155  1.00  0.00     0.049 A 
ATOM     51  C   UNL A   1      47.439  28.224  27.874  1.00  0.00     0.074 A 
ATOM     52  C   UNL A   1      41.957  30.840  29.683  1.00  0.00     0.029 A 
ATOM     53  N   UNL A   1      43.526  29.472  28.902  1.00  0.00    -0.354 N 
ATOM     54  N   UNL A   1      46.263  28.682  28.226  1.00  0.00    -0.248 NA
ATOM     55  C   UNL A   1      48.532  29.193  28.022  1.00  0.00     0.031 C 
ATOM     56  C   UNL A   1      43.180  31.520  29.692  1.00  0.00     0.029 A 
ATOM     57  C   UNL A   1      44.163  30.657  29.235  1.00  0.00     0.049 A 
ATOM     58  H   UNL A   1      43.972  28.673  28.540  1.00  0.00     0.167 HD
ATOM     59  C   UNL A   1      46.478  29.983  28.661  1.00  0.00     0.074 A 
ATOM     60  C   UNL A   1      47.901  30.230  28.554  1.00  0.00     0.031 C 
ATOM     61  C   UNL A   1      45.578  30.893  29.109  1.00  0.00     0.031 A 
BRANCH  48  62
ATOM     62  C   UNL A   1      39.747  28.841  29.148  1.00  0.00    -0.014 A 
ATOM     63  C   UNL A   1      39.157  28.571  30.393  1.00  0.00     0.009 A 
ATOM     64  C   UNL A   1      38.965  29.428  28.142  1.00  0.00     0.009 A 
ATOM     65  C   UNL A   1      37.805  28.849  30.613  1.00  0.00     0.001 A 
ATOM     66  C   UNL A   1      37.623  29.736  28.375  1.00  0.00     0.001 A 
ATOM     67  C   UNL A   1      37.041  29.436  29.606  1.00  0.00     0.000 A 
ENDBRANCH  48  62
BRANCH  49  68
ATOM     68  C   UNL A   1      49.229  26.530  27.049  1.00  0.00    -0.014 A 
ATOM     69  C   UNL A   1      49.749  26.762  25.765  1.00  0.00     0.009 A 
ATOM     70  C   UNL A   1      50.066  25.971  28.027  1.00  0.00     0.009 A 
ATOM     71  C   UNL A   1      51.066  26.411  25.460  1.00  0.00     0.001 A 
ATOM     72  C   UNL A   1      51.392  25.651  27.729  1.00  0.00     0.001 A 
ATOM     73  C   UNL A   1      51.887  25.860  26.443  1.00  0.00     0.000 A 
ENDBRANCH  49  68
BRANCH  61  74
ATOM     74  C   UNL A   1      46.117  32.230  29.539  1.00  0.00    -0.014 A 
ATOM     75  C   UNL A   1      46.166  33.319  28.654  1.00  0.00     0.009 A 
ATOM     76  C   UNL A   1      46.570  32.405  30.856  1.00  0.00     0.009 A 
ATOM     77  C   UNL A   1      46.703  34.540  29.065  1.00  0.00     0.001 A 
ATOM     78  C   UNL A   1      47.075  33.637  31.274  1.00  0.00     0.001 A 
ATOM     79  C   UNL A   1      47.154  34.699  30.375  1.00  0.00     0.000 A 
ENDBRANCH  61  74
ENDBRANCH  35  36
ENDBRANCH  27  30
ENDBRANCH  25  26
ENDBRANCH  24  25
ENDBRANCH   1  24
TORSDOF 14
ENDMDL
