MODEL 1
REMARK VINA RESULT:     -10.1      0.000      0.000
REMARK SMILES CSCC[C@H](NC(=O)[C@H]1CC[NH2+][C@H]1C)C(=O)NCCCCNC(=O)c1ccc(-c2c3nc(c(-c4ccccc4)c4ccc([nH]4)c(-c4ccccc4)c4nc(c(-c5ccccc5)c5ccc2[nH]5)C=C4)C=C3)cc1
REMARK SMILES IDX 19 1 18 2 17 3 15 4 16 5 5 7 4 8 3 9 2 10 1 11 6 12 7 13
REMARK SMILES IDX 8 15 9 16 10 17 13 18 11 19 12 20 14 21 20 24 21 25 22 26
REMARK SMILES IDX 23 27 24 29 25 30 26 31 72 32 27 33 71 34 28 35 29 36 30 37
REMARK SMILES IDX 65 38 31 39 70 40 64 41 66 42 32 43 69 44 63 45 62 46 33 48
REMARK SMILES IDX 55 49 40 50 54 51 41 52 44 53 53 54 67 55 42 56 43 57 52 59
REMARK SMILES IDX 68 60 45 61 34 62 35 63 39 64 36 65 38 66 37 67 56 68 57 69
REMARK SMILES IDX 61 70 58 71 60 72 59 73 46 74 47 75 51 76 48 77 50 78 49 79
REMARK H PARENT 17 6 6 14 12 22 12 23 22 28 66 47 44 58
REMARK Flexibility Score: inf
ROOT
ATOM      1  C   UNL A   1      36.736  20.288  25.052  1.00  0.00     0.023 C 
ENDROOT
BRANCH   1   2
ATOM      2  C   UNL A   1      36.451  21.761  25.326  1.00  0.00     0.116 C 
BRANCH   2   3
ATOM      3  N   UNL A   1      35.631  21.981  26.503  1.00  0.00    -0.354 N 
ATOM      4  C   UNL A   1      34.324  21.666  26.734  1.00  0.00     0.242 C 
ATOM      5  O   UNL A   1      33.892  21.806  27.881  1.00  0.00    -0.273 OA
ATOM      6  H   UNL A   1      36.088  22.428  27.253  1.00  0.00     0.163 HD
BRANCH   4   7
ATOM      7  C   UNL A   1      33.443  21.019  25.643  1.00  0.00     0.172 C 
BRANCH   7   8
ATOM      8  C   UNL A   1      32.413  22.087  25.213  1.00  0.00     0.046 C 
BRANCH   8   9
ATOM      9  C   UNL A   1      32.954  23.300  24.459  1.00  0.00     0.072 C 
BRANCH   9  10
ATOM     10  S   UNL A   1      32.134  24.863  24.909  1.00  0.00    -0.165 SA
ATOM     11  C   UNL A   1      31.744  24.502  26.640  1.00  0.00     0.085 C 
ENDBRANCH   9  10
ENDBRANCH   8   9
ENDBRANCH   7   8
BRANCH   7  12
ATOM     12  N   UNL A   1      32.825  19.772  26.086  1.00  0.00    -0.344 N 
ATOM     13  C   UNL A   1      32.976  18.504  25.602  1.00  0.00     0.229 C 
ATOM     14  H   UNL A   1      32.208  19.858  26.848  1.00  0.00     0.164 HD
ATOM     15  O   UNL A   1      32.206  17.640  26.023  1.00  0.00    -0.275 OA
BRANCH  13  16
ATOM     16  C   UNL A   1      34.107  18.179  24.630  1.00  0.00     0.142 C 
ATOM     17  C   UNL A   1      34.767  16.846  24.995  1.00  0.00     0.081 C 
ATOM     18  C   UNL A   1      33.675  17.997  23.166  1.00  0.00     0.192 C 
ATOM     19  C   UNL A   1      34.159  15.864  24.018  1.00  0.00     0.261 C 
ATOM     20  N   UNL A   1      34.071  16.628  22.770  1.00  0.00    -0.343 N 
ATOM     21  C   UNL A   1      32.201  18.220  22.853  1.00  0.00     0.076 C 
ATOM     22  H   UNL A   1      33.371  16.220  22.151  1.00  0.00     0.346 HD
ATOM     23  H   UNL A   1      34.957  16.625  22.264  1.00  0.00     0.346 HD
ENDBRANCH  13  16
ENDBRANCH   7  12
ENDBRANCH   4   7
ENDBRANCH   2   3
ENDBRANCH   1   2
BRANCH   1  24
ATOM     24  C   UNL A   1      38.181  19.965  24.690  1.00  0.00     0.023 C 
BRANCH  24  25
ATOM     25  C   UNL A   1      39.169  20.145  25.830  1.00  0.00     0.116 C 
BRANCH  25  26
ATOM     26  N   UNL A   1      40.171  19.092  25.887  1.00  0.00    -0.352 N 
ATOM     27  C   UNL A   1      41.515  19.196  26.157  1.00  0.00     0.251 C 
ATOM     28  H   UNL A   1      39.843  18.182  25.710  1.00  0.00     0.163 HD
ATOM     29  O   UNL A   1      42.251  18.228  26.060  1.00  0.00    -0.269 OA
BRANCH  27  30
ATOM     30  C   UNL A   1      42.058  20.517  26.528  1.00  0.00     0.039 A 
ATOM     31  C   UNL A   1      42.543  21.351  25.519  1.00  0.00     0.014 A 
ATOM     32  C   UNL A   1      42.028  20.946  27.857  1.00  0.00     0.014 A 
ATOM     33  C   UNL A   1      42.938  22.649  25.837  1.00  0.00     0.010 A 
ATOM     34  C   UNL A   1      42.342  22.265  28.157  1.00  0.00     0.010 A 
ATOM     35  C   UNL A   1      42.804  23.126  27.152  1.00  0.00    -0.014 A 
BRANCH  35  36
ATOM     36  C   UNL A   1      43.149  24.524  27.500  1.00  0.00     0.031 A 
ATOM     37  C   UNL A   1      44.587  24.961  27.500  1.00  0.00     0.074 A 
ATOM     38  C   UNL A   1      42.179  25.376  27.884  1.00  0.00     0.049 A 
ATOM     39  N   UNL A   1      45.098  26.116  27.838  1.00  0.00    -0.248 NA
ATOM     40  C   UNL A   1      45.586  23.957  27.095  1.00  0.00     0.031 C 
ATOM     41  C   UNL A   1      40.752  25.057  27.970  1.00  0.00     0.029 A 
ATOM     42  N   UNL A   1      42.250  26.688  28.280  1.00  0.00    -0.354 N 
ATOM     43  C   UNL A   1      46.473  25.971  27.707  1.00  0.00     0.074 A 
ATOM     44  C   UNL A   1      46.722  24.603  27.312  1.00  0.00     0.031 C 
ATOM     45  C   UNL A   1      40.080  26.151  28.364  1.00  0.00     0.029 A 
ATOM     46  C   UNL A   1      41.030  27.234  28.596  1.00  0.00     0.049 A 
ATOM     47  H   UNL A   1      43.095  27.189  28.334  1.00  0.00     0.167 HD
ATOM     48  C   UNL A   1      47.443  26.900  27.880  1.00  0.00     0.031 A 
ATOM     49  C   UNL A   1      40.714  28.469  29.029  1.00  0.00     0.031 A 
ATOM     50  C   UNL A   1      47.192  28.264  28.255  1.00  0.00     0.049 A 
ATOM     51  C   UNL A   1      41.809  29.482  29.213  1.00  0.00     0.074 A 
ATOM     52  C   UNL A   1      48.099  29.300  28.395  1.00  0.00     0.029 A 
ATOM     53  N   UNL A   1      45.941  28.783  28.550  1.00  0.00    -0.354 N 
ATOM     54  N   UNL A   1      43.099  29.349  29.015  1.00  0.00    -0.248 NA
ATOM     55  C   UNL A   1      41.402  30.818  29.668  1.00  0.00     0.031 C 
ATOM     56  C   UNL A   1      47.402  30.435  28.822  1.00  0.00     0.029 A 
ATOM     57  C   UNL A   1      46.055  30.119  28.895  1.00  0.00     0.049 A 
ATOM     58  H   UNL A   1      45.098  28.276  28.520  1.00  0.00     0.167 HD
ATOM     59  C   UNL A   1      43.653  30.591  29.296  1.00  0.00     0.074 A 
ATOM     60  C   UNL A   1      42.559  31.467  29.660  1.00  0.00     0.031 C 
ATOM     61  C   UNL A   1      44.953  30.974  29.254  1.00  0.00     0.031 A 
BRANCH  48  62
ATOM     62  C   UNL A   1      48.864  26.462  27.665  1.00  0.00    -0.014 A 
ATOM     63  C   UNL A   1      49.451  26.496  26.390  1.00  0.00     0.009 A 
ATOM     64  C   UNL A   1      49.636  26.036  28.757  1.00  0.00     0.009 A 
ATOM     65  C   UNL A   1      50.770  26.077  26.207  1.00  0.00     0.001 A 
ATOM     66  C   UNL A   1      50.964  25.646  28.576  1.00  0.00     0.001 A 
ATOM     67  C   UNL A   1      51.527  25.657  27.300  1.00  0.00     0.000 A 
ENDBRANCH  48  62
BRANCH  49  68
ATOM     68  C   UNL A   1      39.296  28.824  29.300  1.00  0.00    -0.014 A 
ATOM     69  C   UNL A   1      38.760  28.677  30.589  1.00  0.00     0.009 A 
ATOM     70  C   UNL A   1      38.469  29.305  28.273  1.00  0.00     0.009 A 
ATOM     71  C   UNL A   1      37.419  28.974  30.837  1.00  0.00     0.001 A 
ATOM     72  C   UNL A   1      37.136  29.629  28.530  1.00  0.00     0.001 A 
ATOM     73  C   UNL A   1      36.609  29.455  29.808  1.00  0.00     0.000 A 
ENDBRANCH  49  68
BRANCH  61  74
ATOM     74  C   UNL A   1      45.257  32.408  29.577  1.00  0.00    -0.014 A 
ATOM     75  C   UNL A   1      45.207  33.404  28.589  1.00  0.00     0.009 A 
ATOM     76  C   UNL A   1      45.555  32.773  30.898  1.00  0.00     0.009 A 
ATOM     77  C   UNL A   1      45.481  34.733  28.915  1.00  0.00     0.001 A 
ATOM     78  C   UNL A   1      45.799  34.107  31.227  1.00  0.00     0.001 A 
ATOM     79  C   UNL A   1      45.771  35.084  30.233  1.00  0.00     0.000 A 
ENDBRANCH  61  74
ENDBRANCH  35  36
ENDBRANCH  27  30
ENDBRANCH  25  26
ENDBRANCH  24  25
ENDBRANCH   1  24
TORSDOF 16
ENDMDL
MODEL 2
REMARK VINA RESULT:     -10.0      2.313      4.157
REMARK SMILES CSCC[C@H](NC(=O)[C@H]1CC[NH2+][C@H]1C)C(=O)NCCCCNC(=O)c1ccc(-c2c3nc(c(-c4ccccc4)c4ccc([nH]4)c(-c4ccccc4)c4nc(c(-c5ccccc5)c5ccc2[nH]5)C=C4)C=C3)cc1
REMARK SMILES IDX 19 1 18 2 17 3 15 4 16 5 5 7 4 8 3 9 2 10 1 11 6 12 7 13
REMARK SMILES IDX 8 15 9 16 10 17 13 18 11 19 12 20 14 21 20 24 21 25 22 26
REMARK SMILES IDX 23 27 24 29 25 30 26 31 72 32 27 33 71 34 28 35 29 36 30 37
REMARK SMILES IDX 65 38 31 39 70 40 64 41 66 42 32 43 69 44 63 45 62 46 33 48
REMARK SMILES IDX 55 49 40 50 54 51 41 52 44 53 53 54 67 55 42 56 43 57 52 59
REMARK SMILES IDX 68 60 45 61 34 62 35 63 39 64 36 65 38 66 37 67 56 68 57 69
REMARK SMILES IDX 61 70 58 71 60 72 59 73 46 74 47 75 51 76 48 77 50 78 49 79
REMARK H PARENT 17 6 6 14 12 22 12 23 22 28 66 47 44 58
REMARK Flexibility Score: inf
ROOT
ATOM      1  C   UNL A   1      38.535  22.725  25.899  1.00  0.00     0.023 C 
ENDROOT
BRANCH   1   2
ATOM      2  C   UNL A   1      37.118  23.283  25.813  1.00  0.00     0.116 C 
BRANCH   2   3
ATOM      3  N   UNL A   1      36.532  23.171  24.490  1.00  0.00    -0.354 N 
ATOM      4  C   UNL A   1      35.376  23.697  23.995  1.00  0.00     0.242 C 
ATOM      5  O   UNL A   1      35.172  23.598  22.782  1.00  0.00    -0.273 OA
ATOM      6  H   UNL A   1      37.050  22.630  23.850  1.00  0.00     0.163 HD
BRANCH   4   7
ATOM      7  C   UNL A   1      34.415  24.518  24.882  1.00  0.00     0.172 C 
BRANCH   7   8
ATOM      8  C   UNL A   1      33.216  23.599  25.206  1.00  0.00     0.046 C 
BRANCH   8   9
ATOM      9  C   UNL A   1      33.018  23.218  26.673  1.00  0.00     0.072 C 
BRANCH   9  10
ATOM     10  S   UNL A   1      33.942  21.729  27.168  1.00  0.00    -0.165 SA
ATOM     11  C   UNL A   1      33.719  20.733  25.672  1.00  0.00     0.085 C 
ENDBRANCH   9  10
ENDBRANCH   8   9
ENDBRANCH   7   8
BRANCH   7  12
ATOM     12  N   UNL A   1      34.019  25.780  24.264  1.00  0.00    -0.344 N 
ATOM     13  C   UNL A   1      33.371  26.852  24.808  1.00  0.00     0.229 C 
ATOM     14  H   UNL A   1      34.255  25.873  23.313  1.00  0.00     0.164 HD
ATOM     15  O   UNL A   1      32.982  27.732  24.038  1.00  0.00    -0.275 OA
BRANCH  13  16
ATOM     16  C   UNL A   1      33.208  26.970  26.320  1.00  0.00     0.142 C 
ATOM     17  C   UNL A   1      33.533  28.390  26.791  1.00  0.00     0.081 C 
ATOM     18  C   UNL A   1      31.785  26.715  26.843  1.00  0.00     0.192 C 
ATOM     19  C   UNL A   1      32.173  29.026  26.979  1.00  0.00     0.261 C 
ATOM     20  N   UNL A   1      31.363  27.945  27.548  1.00  0.00    -0.343 N 
ATOM     21  C   UNL A   1      30.735  26.322  25.813  1.00  0.00     0.076 C 
ATOM     22  H   UNL A   1      30.371  28.122  27.390  1.00  0.00     0.346 HD
ATOM     23  H   UNL A   1      31.495  27.865  28.556  1.00  0.00     0.346 HD
ENDBRANCH  13  16
ENDBRANCH   7  12
ENDBRANCH   4   7
ENDBRANCH   2   3
ENDBRANCH   1   2
BRANCH   1  24
ATOM     24  C   UNL A   1      38.704  21.305  25.369  1.00  0.00     0.023 C 
BRANCH  24  25
ATOM     25  C   UNL A   1      39.136  20.291  26.415  1.00  0.00     0.116 C 
BRANCH  25  26
ATOM     26  N   UNL A   1      40.236  19.449  25.972  1.00  0.00    -0.352 N 
ATOM     27  C   UNL A   1      41.580  19.738  25.932  1.00  0.00     0.251 C 
ATOM     28  H   UNL A   1      39.985  18.551  25.657  1.00  0.00     0.163 HD
ATOM     29  O   UNL A   1      42.374  18.961  25.428  1.00  0.00    -0.269 OA
BRANCH  27  30
ATOM     30  C   UNL A   1      42.038  21.030  26.478  1.00  0.00     0.039 A 
ATOM     31  C   UNL A   1      42.365  22.056  25.590  1.00  0.00     0.014 A 
ATOM     32  C   UNL A   1      42.083  21.238  27.859  1.00  0.00     0.014 A 
ATOM     33  C   UNL A   1      42.673  23.320  26.091  1.00  0.00     0.010 A 
ATOM     34  C   UNL A   1      42.308  22.516  28.351  1.00  0.00     0.010 A 
ATOM     35  C   UNL A   1      42.609  23.567  27.472  1.00  0.00    -0.014 A 
BRANCH  35  36
ATOM     36  C   UNL A   1      42.863  24.919  28.023  1.00  0.00     0.031 A 
ATOM     37  C   UNL A   1      44.251  25.302  28.454  1.00  0.00     0.074 A 
ATOM     38  C   UNL A   1      41.835  25.772  28.199  1.00  0.00     0.049 A 
ATOM     39  N   UNL A   1      44.664  26.407  29.018  1.00  0.00    -0.248 NA
ATOM     40  C   UNL A   1      45.310  24.298  28.251  1.00  0.00     0.031 C 
ATOM     41  C   UNL A   1      40.436  25.499  27.863  1.00  0.00     0.029 A 
ATOM     42  N   UNL A   1      41.812  27.044  28.713  1.00  0.00    -0.354 N 
ATOM     43  C   UNL A   1      46.020  26.223  29.256  1.00  0.00     0.074 A 
ATOM     44  C   UNL A   1      46.350  24.884  28.826  1.00  0.00     0.031 C 
ATOM     45  C   UNL A   1      39.696  26.582  28.153  1.00  0.00     0.029 A 
ATOM     46  C   UNL A   1      40.559  27.607  28.729  1.00  0.00     0.049 A 
ATOM     47  H   UNL A   1      42.615  27.509  29.039  1.00  0.00     0.167 HD
ATOM     48  C   UNL A   1      46.916  27.100  29.768  1.00  0.00     0.031 A 
ATOM     49  C   UNL A   1      40.151  28.814  29.165  1.00  0.00     0.031 A 
ATOM     50  C   UNL A   1      46.589  28.438  30.178  1.00  0.00     0.049 A 
ATOM     51  C   UNL A   1      41.166  29.768  29.729  1.00  0.00     0.074 A 
ATOM     52  C   UNL A   1      47.436  29.426  30.649  1.00  0.00     0.029 A 
ATOM     53  N   UNL A   1      45.312  28.976  30.163  1.00  0.00    -0.354 N 
ATOM     54  N   UNL A   1      42.459  29.606  29.881  1.00  0.00    -0.248 NA
ATOM     55  C   UNL A   1      40.666  31.078  30.171  1.00  0.00     0.031 C 
ATOM     56  C   UNL A   1      46.662  30.547  30.967  1.00  0.00     0.029 A 
ATOM     57  C   UNL A   1      45.343  30.275  30.641  1.00  0.00     0.049 A 
ATOM     58  H   UNL A   1      44.503  28.504  29.859  1.00  0.00     0.167 HD
ATOM     59  C   UNL A   1      42.930  30.800  30.410  1.00  0.00     0.074 A 
ATOM     60  C   UNL A   1      41.789  31.683  30.536  1.00  0.00     0.031 C 
ATOM     61  C   UNL A   1      44.196  31.137  30.758  1.00  0.00     0.031 A 
BRANCH  48  62
ATOM     62  C   UNL A   1      48.336  26.630  29.912  1.00  0.00    -0.014 A 
ATOM     63  C   UNL A   1      49.284  26.857  28.902  1.00  0.00     0.009 A 
ATOM     64  C   UNL A   1      48.738  25.974  31.086  1.00  0.00     0.009 A 
ATOM     65  C   UNL A   1      50.597  26.405  29.049  1.00  0.00     0.001 A 
ATOM     66  C   UNL A   1      50.058  25.549  31.243  1.00  0.00     0.001 A 
ATOM     67  C   UNL A   1      50.984  25.756  30.221  1.00  0.00     0.000 A 
ENDBRANCH  48  62
BRANCH  49  68
ATOM     68  C   UNL A   1      38.719  29.198  29.068  1.00  0.00    -0.014 A 
ATOM     69  C   UNL A   1      38.193  29.685  27.861  1.00  0.00     0.009 A 
ATOM     70  C   UNL A   1      37.871  29.087  30.180  1.00  0.00     0.009 A 
ATOM     71  C   UNL A   1      36.857  30.081  27.778  1.00  0.00     0.001 A 
ATOM     72  C   UNL A   1      36.528  29.456  30.087  1.00  0.00     0.001 A 
ATOM     73  C   UNL A   1      36.024  29.962  28.891  1.00  0.00     0.000 A 
ENDBRANCH  49  68
BRANCH  61  74
ATOM     74  C   UNL A   1      44.417  32.529  31.275  1.00  0.00    -0.014 A 
ATOM     75  C   UNL A   1      44.357  32.815  32.648  1.00  0.00     0.009 A 
ATOM     76  C   UNL A   1      44.734  33.561  30.378  1.00  0.00     0.009 A 
ATOM     77  C   UNL A   1      44.579  34.114  33.107  1.00  0.00     0.001 A 
ATOM     78  C   UNL A   1      44.984  34.852  30.843  1.00  0.00     0.001 A 
ATOM     79  C   UNL A   1      44.897  35.129  32.206  1.00  0.00     0.000 A 
ENDBRANCH  61  74
ENDBRANCH  35  36
ENDBRANCH  27  30
ENDBRANCH  25  26
ENDBRANCH  24  25
ENDBRANCH   1  24
TORSDOF 16
ENDMDL
MODEL 3
REMARK VINA RESULT:     -10.0      0.722      6.121
REMARK SMILES CSCC[C@H](NC(=O)[C@H]1CC[NH2+][C@H]1C)C(=O)NCCCCNC(=O)c1ccc(-c2c3nc(c(-c4ccccc4)c4ccc([nH]4)c(-c4ccccc4)c4nc(c(-c5ccccc5)c5ccc2[nH]5)C=C4)C=C3)cc1
REMARK SMILES IDX 19 1 18 2 17 3 15 4 16 5 5 7 4 8 3 9 2 10 1 11 6 12 7 13
REMARK SMILES IDX 8 15 9 16 10 17 13 18 11 19 12 20 14 21 20 24 21 25 22 26
REMARK SMILES IDX 23 27 24 29 25 30 26 31 72 32 27 33 71 34 28 35 29 36 30 37
REMARK SMILES IDX 65 38 31 39 70 40 64 41 66 42 32 43 69 44 63 45 62 46 33 48
REMARK SMILES IDX 55 49 40 50 54 51 41 52 44 53 53 54 67 55 42 56 43 57 52 59
REMARK SMILES IDX 68 60 45 61 34 62 35 63 39 64 36 65 38 66 37 67 56 68 57 69
REMARK SMILES IDX 61 70 58 71 60 72 59 73 46 74 47 75 51 76 48 77 50 78 49 79
REMARK H PARENT 17 6 6 14 12 22 12 23 22 28 66 47 44 58
REMARK Flexibility Score: inf
ROOT
ATOM      1  C   UNL A   1      36.558  20.654  25.321  1.00  0.00     0.023 C 
ENDROOT
BRANCH   1   2
ATOM      2  C   UNL A   1      36.293  22.124  25.627  1.00  0.00     0.116 C 
BRANCH   2   3
ATOM      3  N   UNL A   1      35.299  22.329  26.665  1.00  0.00    -0.354 N 
ATOM      4  C   UNL A   1      34.009  21.892  26.742  1.00  0.00     0.242 C 
ATOM      5  O   UNL A   1      33.409  22.056  27.808  1.00  0.00    -0.273 OA
ATOM      6  H   UNL A   1      35.602  22.865  27.433  1.00  0.00     0.163 HD
BRANCH   4   7
ATOM      7  C   UNL A   1      33.355  21.091  25.595  1.00  0.00     0.172 C 
BRANCH   7   8
ATOM      8  C   UNL A   1      32.346  22.039  24.910  1.00  0.00     0.046 C 
BRANCH   8   9
ATOM      9  C   UNL A   1      32.407  22.122  23.386  1.00  0.00     0.072 C 
BRANCH   9  10
ATOM     10  S   UNL A   1      32.703  23.807  22.760  1.00  0.00    -0.165 SA
ATOM     11  C   UNL A   1      33.366  24.567  24.264  1.00  0.00     0.085 C 
ENDBRANCH   9  10
ENDBRANCH   8   9
ENDBRANCH   7   8
BRANCH   7  12
ATOM     12  N   UNL A   1      32.750  19.844  26.054  1.00  0.00    -0.344 N 
ATOM     13  C   UNL A   1      32.915  18.571  25.590  1.00  0.00     0.229 C 
ATOM     14  H   UNL A   1      32.129  19.935  26.813  1.00  0.00     0.164 HD
ATOM     15  O   UNL A   1      32.153  17.705  26.021  1.00  0.00    -0.275 OA
BRANCH  13  16
ATOM     16  C   UNL A   1      34.051  18.243  24.625  1.00  0.00     0.142 C 
ATOM     17  C   UNL A   1      34.698  16.903  24.985  1.00  0.00     0.081 C 
ATOM     18  C   UNL A   1      33.630  18.076  23.156  1.00  0.00     0.192 C 
ATOM     19  C   UNL A   1      34.089  15.933  23.996  1.00  0.00     0.261 C 
ATOM     20  N   UNL A   1      34.019  16.707  22.753  1.00  0.00    -0.343 N 
ATOM     21  C   UNL A   1      32.161  18.313  22.831  1.00  0.00     0.076 C 
ATOM     22  H   UNL A   1      33.321  16.309  22.125  1.00  0.00     0.346 HD
ATOM     23  H   UNL A   1      34.909  16.700  22.254  1.00  0.00     0.346 HD
ENDBRANCH  13  16
ENDBRANCH   7  12
ENDBRANCH   4   7
ENDBRANCH   2   3
ENDBRANCH   1   2
BRANCH   1  24
ATOM     24  C   UNL A   1      37.955  20.343  24.797  1.00  0.00     0.023 C 
BRANCH  24  25
ATOM     25  C   UNL A   1      39.059  20.478  25.832  1.00  0.00     0.116 C 
BRANCH  25  26
ATOM     26  N   UNL A   1      39.966  19.340  25.849  1.00  0.00    -0.352 N 
ATOM     27  C   UNL A   1      41.324  19.326  26.060  1.00  0.00     0.251 C 
ATOM     28  H   UNL A   1      39.551  18.463  25.688  1.00  0.00     0.163 HD
ATOM     29  O   UNL A   1      41.967  18.296  25.935  1.00  0.00    -0.269 OA
BRANCH  27  30
ATOM     30  C   UNL A   1      41.997  20.593  26.404  1.00  0.00     0.039 A 
ATOM     31  C   UNL A   1      42.367  21.458  25.372  1.00  0.00     0.014 A 
ATOM     32  C   UNL A   1      42.201  20.946  27.740  1.00  0.00     0.014 A 
ATOM     33  C   UNL A   1      42.884  22.713  25.687  1.00  0.00     0.010 A 
ATOM     34  C   UNL A   1      42.637  22.227  28.051  1.00  0.00     0.010 A 
ATOM     35  C   UNL A   1      42.986  23.120  27.028  1.00  0.00    -0.014 A 
BRANCH  35  36
ATOM     36  C   UNL A   1      43.466  24.476  27.385  1.00  0.00     0.031 A 
ATOM     37  C   UNL A   1      42.483  25.523  27.829  1.00  0.00     0.074 A 
ATOM     38  C   UNL A   1      44.770  24.782  27.241  1.00  0.00     0.049 A 
ATOM     39  N   UNL A   1      42.694  26.781  28.119  1.00  0.00    -0.248 NA
ATOM     40  C   UNL A   1      41.073  25.110  27.930  1.00  0.00     0.031 C 
ATOM     41  C   UNL A   1      45.812  23.865  26.774  1.00  0.00     0.029 A 
ATOM     42  N   UNL A   1      45.439  25.958  27.470  1.00  0.00    -0.354 N 
ATOM     43  C   UNL A   1      41.445  27.311  28.416  1.00  0.00     0.074 A 
ATOM     44  C   UNL A   1      40.476  26.257  28.219  1.00  0.00     0.031 C 
ATOM     45  C   UNL A   1      46.993  24.505  26.779  1.00  0.00     0.029 A 
ATOM     46  C   UNL A   1      46.786  25.883  27.210  1.00  0.00     0.049 A 
ATOM     47  H   UNL A   1      44.996  26.776  27.789  1.00  0.00     0.167 HD
ATOM     48  C   UNL A   1      41.135  28.560  28.837  1.00  0.00     0.031 A 
ATOM     49  C   UNL A   1      47.745  26.823  27.305  1.00  0.00     0.031 A 
ATOM     50  C   UNL A   1      42.101  29.601  29.050  1.00  0.00     0.049 A 
ATOM     51  C   UNL A   1      47.373  28.202  27.774  1.00  0.00     0.074 A 
ATOM     52  C   UNL A   1      41.897  30.881  29.535  1.00  0.00     0.029 A 
ATOM     53  N   UNL A   1      43.458  29.482  28.792  1.00  0.00    -0.354 N 
ATOM     54  N   UNL A   1      46.197  28.668  28.120  1.00  0.00    -0.248 NA
ATOM     55  C   UNL A   1      48.465  29.180  27.876  1.00  0.00     0.031 C 
ATOM     56  C   UNL A   1      43.124  31.552  29.524  1.00  0.00     0.029 A 
ATOM     57  C   UNL A   1      44.100  30.672  29.084  1.00  0.00     0.049 A 
ATOM     58  H   UNL A   1      43.899  28.670  28.450  1.00  0.00     0.167 HD
ATOM     59  C   UNL A   1      46.412  29.984  28.507  1.00  0.00     0.074 A 
ATOM     60  C   UNL A   1      47.832  30.236  28.369  1.00  0.00     0.031 C 
ATOM     61  C   UNL A   1      45.514  30.903  28.940  1.00  0.00     0.031 A 
BRANCH  48  62
ATOM     62  C   UNL A   1      39.684  28.862  29.090  1.00  0.00    -0.014 A 
ATOM     63  C   UNL A   1      39.109  28.662  30.356  1.00  0.00     0.009 A 
ATOM     64  C   UNL A   1      38.888  29.379  28.056  1.00  0.00     0.009 A 
ATOM     65  C   UNL A   1      37.758  28.939  30.571  1.00  0.00     0.001 A 
ATOM     66  C   UNL A   1      37.545  29.683  28.282  1.00  0.00     0.001 A 
ATOM     67  C   UNL A   1      36.978  29.454  29.536  1.00  0.00     0.000 A 
ENDBRANCH  48  62
BRANCH  49  68
ATOM     68  C   UNL A   1      49.153  26.489  26.967  1.00  0.00    -0.014 A 
ATOM     69  C   UNL A   1      49.630  26.658  25.658  1.00  0.00     0.009 A 
ATOM     70  C   UNL A   1      50.026  25.992  27.947  1.00  0.00     0.009 A 
ATOM     71  C   UNL A   1      50.941  26.309  25.330  1.00  0.00     0.001 A 
ATOM     72  C   UNL A   1      51.346  25.671  27.623  1.00  0.00     0.001 A 
ATOM     73  C   UNL A   1      51.799  25.820  26.315  1.00  0.00     0.000 A 
ENDBRANCH  49  68
BRANCH  61  74
ATOM     74  C   UNL A   1      46.046  32.252  29.328  1.00  0.00    -0.014 A 
ATOM     75  C   UNL A   1      46.643  32.468  30.580  1.00  0.00     0.009 A 
ATOM     76  C   UNL A   1      45.987  33.311  28.409  1.00  0.00     0.009 A 
ATOM     77  C   UNL A   1      47.141  33.728  30.914  1.00  0.00     0.001 A 
ATOM     78  C   UNL A   1      46.513  34.561  28.735  1.00  0.00     0.001 A 
ATOM     79  C   UNL A   1      47.081  34.771  29.991  1.00  0.00     0.000 A 
ENDBRANCH  61  74
ENDBRANCH  35  36
ENDBRANCH  27  30
ENDBRANCH  25  26
ENDBRANCH  24  25
ENDBRANCH   1  24
TORSDOF 16
ENDMDL
