MODEL 1
REMARK VINA RESULT:     -10.9      0.000      0.000
REMARK SMILES CC1(C)CCN(c2ncccc2C(=O)NCCCCNC(=O)c2ccc(-c3c4nc(c(-c5ccccc5)c5ccc([nH]5)c(-c5ccccc5)c5nc(c(-c6ccccc6)c6ccc3[nH]6)C=C5)C=C4)cc2)C1
REMARK SMILES IDX 18 1 17 2 16 3 15 4 13 5 14 6 12 8 7 9 8 10 9 11 11 12 10 13
REMARK SMILES IDX 6 14 1 15 2 16 3 17 4 18 71 19 5 20 19 21 20 22 21 23 22 25
REMARK SMILES IDX 23 26 24 27 70 28 25 29 69 30 26 31 27 32 28 33 63 34 29 35
REMARK SMILES IDX 68 36 62 37 64 38 30 39 67 40 61 41 60 42 31 44 53 45 38 46
REMARK SMILES IDX 52 47 39 48 42 49 51 50 65 51 40 52 41 53 50 55 66 56 43 57
REMARK SMILES IDX 32 58 33 59 37 60 34 61 36 62 35 63 54 64 55 65 59 66 56 67
REMARK SMILES IDX 58 68 57 69 44 70 45 71 49 72 46 73 48 74 47 75
REMARK H PARENT 15 7 20 24 64 43 42 54
REMARK Flexibility Score: inf
ROOT
ATOM      1  C   UNL A   1      32.979  28.468  25.869  1.00  0.00     0.023 C 
ENDROOT
BRANCH   1   2
ATOM      2  C   UNL A   1      33.990  28.451  24.714  1.00  0.00     0.023 C 
BRANCH   2   3
ATOM      3  C   UNL A   1      33.415  28.904  23.370  1.00  0.00     0.116 C 
BRANCH   3   4
ATOM      4  N   UNL A   1      33.558  27.855  22.385  1.00  0.00    -0.352 N 
ATOM      5  C   UNL A   1      33.222  26.526  22.304  1.00  0.00     0.255 C 
ATOM      6  O   UNL A   1      33.596  26.013  21.249  1.00  0.00    -0.269 OA
ATOM      7  H   UNL A   1      34.010  28.174  21.570  1.00  0.00     0.163 HD
BRANCH   5   8
ATOM      8  C   UNL A   1      32.439  25.768  23.346  1.00  0.00     0.082 A 
ATOM      9  C   UNL A   1      32.988  24.629  23.981  1.00  0.00     0.141 A 
ATOM     10  N   UNL A   1      32.219  23.803  24.747  1.00  0.00    -0.238 NA
ATOM     11  C   UNL A   1      30.934  24.125  24.978  1.00  0.00     0.113 A 
ATOM     12  C   UNL A   1      31.124  26.109  23.695  1.00  0.00     0.019 A 
ATOM     13  C   UNL A   1      30.354  25.277  24.504  1.00  0.00     0.021 A 
BRANCH   9  14
ATOM     14  N   UNL A   1      34.331  24.321  23.971  1.00  0.00    -0.355 N 
ATOM     15  C   UNL A   1      35.648  22.069  25.918  1.00  0.00     0.013 C 
ATOM     16  C   UNL A   1      36.135  23.326  25.180  1.00  0.00    -0.016 C 
ATOM     17  C   UNL A   1      37.461  23.789  25.790  1.00  0.00     0.013 C 
ATOM     18  C   UNL A   1      36.269  23.069  23.669  1.00  0.00     0.030 C 
ATOM     19  C   UNL A   1      35.067  24.442  25.234  1.00  0.00     0.124 C 
ATOM     20  C   UNL A   1      34.840  23.232  23.156  1.00  0.00     0.119 C 
ENDBRANCH   9  14
ENDBRANCH   5   8
ENDBRANCH   3   4
ENDBRANCH   2   3
ENDBRANCH   1   2
BRANCH   1  21
ATOM     21  C   UNL A   1      33.577  28.678  27.258  1.00  0.00     0.116 C 
BRANCH  21  22
ATOM     22  N   UNL A   1      33.555  30.069  27.685  1.00  0.00    -0.352 N 
ATOM     23  C   UNL A   1      34.554  30.805  28.273  1.00  0.00     0.251 C 
ATOM     24  H   UNL A   1      32.708  30.547  27.531  1.00  0.00     0.163 HD
ATOM     25  O   UNL A   1      34.337  31.944  28.663  1.00  0.00    -0.269 OA
BRANCH  23  26
ATOM     26  C   UNL A   1      35.883  30.193  28.471  1.00  0.00     0.039 A 
ATOM     27  C   UNL A   1      36.796  30.223  27.415  1.00  0.00     0.014 A 
ATOM     28  C   UNL A   1      36.231  29.614  29.694  1.00  0.00     0.014 A 
ATOM     29  C   UNL A   1      38.087  29.728  27.606  1.00  0.00     0.010 A 
ATOM     30  C   UNL A   1      37.536  29.176  29.902  1.00  0.00     0.010 A 
ATOM     31  C   UNL A   1      38.475  29.232  28.861  1.00  0.00    -0.014 A 
BRANCH  31  32
ATOM     32  C   UNL A   1      39.865  28.777  29.106  1.00  0.00     0.031 A 
ATOM     33  C   UNL A   1      40.863  29.702  29.740  1.00  0.00     0.074 A 
ATOM     34  C   UNL A   1      40.242  27.550  28.698  1.00  0.00     0.049 A 
ATOM     35  N   UNL A   1      42.132  29.500  29.988  1.00  0.00    -0.248 NA
ATOM     36  C   UNL A   1      40.378  31.037  30.125  1.00  0.00     0.031 C 
ATOM     37  C   UNL A   1      39.376  26.572  28.035  1.00  0.00     0.029 A 
ATOM     38  N   UNL A   1      41.456  26.918  28.779  1.00  0.00    -0.354 N 
ATOM     39  C   UNL A   1      42.599  30.684  30.543  1.00  0.00     0.074 A 
ATOM     40  C   UNL A   1      41.491  31.615  30.551  1.00  0.00     0.031 C 
ATOM     41  C   UNL A   1      40.080  25.453  27.797  1.00  0.00     0.029 A 
ATOM     42  C   UNL A   1      41.452  25.649  28.255  1.00  0.00     0.049 A 
ATOM     43  H   UNL A   1      42.256  27.335  29.175  1.00  0.00     0.167 HD
ATOM     44  C   UNL A   1      43.835  30.968  31.021  1.00  0.00     0.031 A 
ATOM     45  C   UNL A   1      42.442  24.743  28.155  1.00  0.00     0.031 A 
ATOM     46  C   UNL A   1      44.935  30.042  31.020  1.00  0.00     0.049 A 
ATOM     47  C   UNL A   1      43.807  25.086  28.679  1.00  0.00     0.074 A 
ATOM     48  C   UNL A   1      46.211  30.217  31.526  1.00  0.00     0.029 A 
ATOM     49  N   UNL A   1      44.889  28.765  30.482  1.00  0.00    -0.354 N 
ATOM     50  N   UNL A   1      44.217  26.188  29.258  1.00  0.00    -0.248 NA
ATOM     51  C   UNL A   1      44.844  24.052  28.547  1.00  0.00     0.031 C 
ATOM     52  C   UNL A   1      46.950  29.060  31.257  1.00  0.00     0.029 A 
ATOM     53  C   UNL A   1      46.119  28.147  30.627  1.00  0.00     0.049 A 
ATOM     54  H   UNL A   1      44.098  28.358  30.059  1.00  0.00     0.167 HD
ATOM     55  C   UNL A   1      45.550  25.972  29.582  1.00  0.00     0.074 A 
ATOM     56  C   UNL A   1      45.875  24.629  29.148  1.00  0.00     0.031 C 
ATOM     57  C   UNL A   1      46.426  26.811  30.188  1.00  0.00     0.031 A 
BRANCH  44  58
ATOM     58  C   UNL A   1      44.055  32.346  31.579  1.00  0.00    -0.014 A 
ATOM     59  C   UNL A   1      44.376  33.426  30.740  1.00  0.00     0.009 A 
ATOM     60  C   UNL A   1      43.921  32.573  32.957  1.00  0.00     0.009 A 
ATOM     61  C   UNL A   1      44.600  34.695  31.276  1.00  0.00     0.001 A 
ATOM     62  C   UNL A   1      44.119  33.850  33.487  1.00  0.00     0.001 A 
ATOM     63  C   UNL A   1      44.468  34.907  32.647  1.00  0.00     0.000 A 
ENDBRANCH  44  58
BRANCH  45  64
ATOM     64  C   UNL A   1      42.172  23.410  27.556  1.00  0.00    -0.014 A 
ATOM     65  C   UNL A   1      42.523  23.151  26.223  1.00  0.00     0.009 A 
ATOM     66  C   UNL A   1      41.565  22.394  28.311  1.00  0.00     0.009 A 
ATOM     67  C   UNL A   1      42.249  21.907  25.649  1.00  0.00     0.001 A 
ATOM     68  C   UNL A   1      41.316  21.144  27.741  1.00  0.00     0.001 A 
ATOM     69  C   UNL A   1      41.651  20.904  26.409  1.00  0.00     0.000 A 
ENDBRANCH  45  64
BRANCH  57  70
ATOM     70  C   UNL A   1      47.809  26.286  30.446  1.00  0.00    -0.014 A 
ATOM     71  C   UNL A   1      48.801  26.330  29.455  1.00  0.00     0.009 A 
ATOM     72  C   UNL A   1      48.130  25.771  31.712  1.00  0.00     0.009 A 
ATOM     73  C   UNL A   1      50.081  25.839  29.718  1.00  0.00     0.001 A 
ATOM     74  C   UNL A   1      49.418  25.307  31.980  1.00  0.00     0.001 A 
ATOM     75  C   UNL A   1      50.391  25.333  30.981  1.00  0.00     0.000 A 
ENDBRANCH  57  70
ENDBRANCH  31  32
ENDBRANCH  23  26
ENDBRANCH  21  22
ENDBRANCH   1  21
TORSDOF 12
ENDMDL
MODEL 2
REMARK VINA RESULT:     -10.9      3.549      5.677
REMARK SMILES CC1(C)CCN(c2ncccc2C(=O)NCCCCNC(=O)c2ccc(-c3c4nc(c(-c5ccccc5)c5ccc([nH]5)c(-c5ccccc5)c5nc(c(-c6ccccc6)c6ccc3[nH]6)C=C5)C=C4)cc2)C1
REMARK SMILES IDX 18 1 17 2 16 3 15 4 13 5 14 6 12 8 7 9 8 10 9 11 11 12 10 13
REMARK SMILES IDX 6 14 1 15 2 16 3 17 4 18 71 19 5 20 19 21 20 22 21 23 22 25
REMARK SMILES IDX 23 26 24 27 70 28 25 29 69 30 26 31 27 32 28 33 63 34 29 35
REMARK SMILES IDX 68 36 62 37 64 38 30 39 67 40 61 41 60 42 31 44 53 45 38 46
REMARK SMILES IDX 52 47 39 48 42 49 51 50 65 51 40 52 41 53 50 55 66 56 43 57
REMARK SMILES IDX 32 58 33 59 37 60 34 61 36 62 35 63 54 64 55 65 59 66 56 67
REMARK SMILES IDX 58 68 57 69 44 70 45 71 49 72 46 73 48 74 47 75
REMARK H PARENT 15 7 20 24 64 43 42 54
REMARK Flexibility Score: inf
ROOT
ATOM      1  C   UNL A   1      31.397  31.997  26.884  1.00  0.00     0.023 C 
ENDROOT
BRANCH   1   2
ATOM      2  C   UNL A   1      31.571  30.826  25.906  1.00  0.00     0.023 C 
BRANCH   2   3
ATOM      3  C   UNL A   1      32.478  29.707  26.421  1.00  0.00     0.116 C 
BRANCH   3   4
ATOM      4  N   UNL A   1      31.714  28.497  26.628  1.00  0.00    -0.352 N 
ATOM      5  C   UNL A   1      31.279  27.459  25.839  1.00  0.00     0.255 C 
ATOM      6  O   UNL A   1      30.602  26.647  26.469  1.00  0.00    -0.269 OA
ATOM      7  H   UNL A   1      31.436  28.391  27.566  1.00  0.00     0.163 HD
BRANCH   5   8
ATOM      8  C   UNL A   1      31.620  27.280  24.382  1.00  0.00     0.082 A 
ATOM      9  C   UNL A   1      30.660  27.538  23.374  1.00  0.00     0.141 A 
ATOM     10  N   UNL A   1      30.871  27.165  22.080  1.00  0.00    -0.238 NA
ATOM     11  C   UNL A   1      32.051  26.620  21.735  1.00  0.00     0.113 A 
ATOM     12  C   UNL A   1      32.865  26.798  23.954  1.00  0.00     0.019 A 
ATOM     13  C   UNL A   1      33.085  26.449  22.623  1.00  0.00     0.021 A 
BRANCH   9  14
ATOM     14  N   UNL A   1      29.509  28.265  23.585  1.00  0.00    -0.355 N 
ATOM     15  C   UNL A   1      28.214  30.224  21.330  1.00  0.00     0.013 C 
ATOM     16  C   UNL A   1      28.190  30.122  22.863  1.00  0.00    -0.016 C 
ATOM     17  C   UNL A   1      27.722  31.456  23.452  1.00  0.00     0.013 C 
ATOM     18  C   UNL A   1      27.301  28.956  23.331  1.00  0.00     0.030 C 
ATOM     19  C   UNL A   1      29.579  29.720  23.408  1.00  0.00     0.124 C 
ATOM     20  C   UNL A   1      28.213  27.739  23.190  1.00  0.00     0.119 C 
ENDBRANCH   9  14
ENDBRANCH   5   8
ENDBRANCH   3   4
ENDBRANCH   2   3
ENDBRANCH   1   2
BRANCH   1  21
ATOM     21  C   UNL A   1      32.655  32.823  27.143  1.00  0.00     0.116 C 
BRANCH  21  22
ATOM     22  N   UNL A   1      32.366  34.171  27.606  1.00  0.00    -0.352 N 
ATOM     23  C   UNL A   1      33.020  34.913  28.558  1.00  0.00     0.251 C 
ATOM     24  H   UNL A   1      31.596  34.612  27.179  1.00  0.00     0.163 HD
ATOM     25  O   UNL A   1      32.585  36.003  28.903  1.00  0.00    -0.269 OA
BRANCH  23  26
ATOM     26  C   UNL A   1      34.234  34.363  29.196  1.00  0.00     0.039 A 
ATOM     27  C   UNL A   1      34.091  33.599  30.355  1.00  0.00     0.014 A 
ATOM     28  C   UNL A   1      35.498  34.584  28.642  1.00  0.00     0.014 A 
ATOM     29  C   UNL A   1      35.213  32.997  30.927  1.00  0.00     0.010 A 
ATOM     30  C   UNL A   1      36.607  33.936  29.178  1.00  0.00     0.010 A 
ATOM     31  C   UNL A   1      36.473  33.135  30.323  1.00  0.00    -0.014 A 
BRANCH  31  32
ATOM     32  C   UNL A   1      37.663  32.439  30.870  1.00  0.00     0.031 A 
ATOM     33  C   UNL A   1      38.342  32.958  32.105  1.00  0.00     0.074 A 
ATOM     34  C   UNL A   1      38.168  31.376  30.216  1.00  0.00     0.049 A 
ATOM     35  N   UNL A   1      39.418  32.515  32.702  1.00  0.00    -0.248 NA
ATOM     36  C   UNL A   1      37.746  34.145  32.739  1.00  0.00     0.031 C 
ATOM     37  C   UNL A   1      37.623  30.798  28.985  1.00  0.00     0.029 A 
ATOM     38  N   UNL A   1      39.258  30.593  30.496  1.00  0.00    -0.354 N 
ATOM     39  C   UNL A   1      39.637  33.375  33.770  1.00  0.00     0.074 A 
ATOM     40  C   UNL A   1      38.610  34.393  33.711  1.00  0.00     0.031 C 
ATOM     41  C   UNL A   1      38.364  29.735  28.633  1.00  0.00     0.029 A 
ATOM     42  C   UNL A   1      39.455  29.580  29.590  1.00  0.00     0.049 A 
ATOM     43  H   UNL A   1      39.845  30.743  31.272  1.00  0.00     0.167 HD
ATOM     44  C   UNL A   1      40.595  33.314  34.726  1.00  0.00     0.031 A 
ATOM     45  C   UNL A   1      40.409  28.632  29.535  1.00  0.00     0.031 A 
ATOM     46  C   UNL A   1      41.612  32.299  34.789  1.00  0.00     0.049 A 
ATOM     47  C   UNL A   1      41.468  28.593  30.599  1.00  0.00     0.074 A 
ATOM     48  C   UNL A   1      42.596  32.122  35.745  1.00  0.00     0.029 A 
ATOM     49  N   UNL A   1      41.775  31.290  33.853  1.00  0.00    -0.354 N 
ATOM     50  N   UNL A   1      41.624  29.376  31.638  1.00  0.00    -0.248 NA
ATOM     51  C   UNL A   1      42.477  27.529  30.487  1.00  0.00     0.031 C 
ATOM     52  C   UNL A   1      43.382  31.029  35.365  1.00  0.00     0.029 A 
ATOM     53  C   UNL A   1      42.856  30.497  34.199  1.00  0.00     0.049 A 
ATOM     54  H   UNL A   1      41.207  31.157  33.060  1.00  0.00     0.167 HD
ATOM     55  C   UNL A   1      42.731  28.887  32.318  1.00  0.00     0.074 A 
ATOM     56  C   UNL A   1      43.199  27.730  31.581  1.00  0.00     0.031 C 
ATOM     57  C   UNL A   1      43.308  29.351  33.454  1.00  0.00     0.031 A 
BRANCH  44  58
ATOM     58  C   UNL A   1      40.584  34.388  35.777  1.00  0.00    -0.014 A 
ATOM     59  C   UNL A   1      41.357  35.552  35.635  1.00  0.00     0.009 A 
ATOM     60  C   UNL A   1      39.776  34.245  36.916  1.00  0.00     0.009 A 
ATOM     61  C   UNL A   1      41.355  36.529  36.631  1.00  0.00     0.001 A 
ATOM     62  C   UNL A   1      39.754  35.239  37.897  1.00  0.00     0.001 A 
ATOM     63  C   UNL A   1      40.551  36.374  37.759  1.00  0.00     0.000 A 
ENDBRANCH  44  58
BRANCH  45  64
ATOM     64  C   UNL A   1      40.389  27.620  28.447  1.00  0.00    -0.014 A 
ATOM     65  C   UNL A   1      39.686  26.418  28.613  1.00  0.00     0.009 A 
ATOM     66  C   UNL A   1      41.072  27.849  27.242  1.00  0.00     0.009 A 
ATOM     67  C   UNL A   1      39.685  25.454  27.602  1.00  0.00     0.001 A 
ATOM     68  C   UNL A   1      41.047  26.894  26.224  1.00  0.00     0.001 A 
ATOM     69  C   UNL A   1      40.361  25.695  26.407  1.00  0.00     0.000 A 
ENDBRANCH  45  64
BRANCH  57  70
ATOM     70  C   UNL A   1      44.487  28.587  33.985  1.00  0.00    -0.014 A 
ATOM     71  C   UNL A   1      45.799  28.928  33.622  1.00  0.00     0.009 A 
ATOM     72  C   UNL A   1      44.279  27.532  34.888  1.00  0.00     0.009 A 
ATOM     73  C   UNL A   1      46.880  28.205  34.131  1.00  0.00     0.001 A 
ATOM     74  C   UNL A   1      45.363  26.830  35.416  1.00  0.00     0.001 A 
ATOM     75  C   UNL A   1      46.662  27.161  35.031  1.00  0.00     0.000 A 
ENDBRANCH  57  70
ENDBRANCH  31  32
ENDBRANCH  23  26
ENDBRANCH  21  22
ENDBRANCH   1  21
TORSDOF 12
ENDMDL
MODEL 3
REMARK VINA RESULT:     -10.9      3.954      8.360
REMARK SMILES CC1(C)CCN(c2ncccc2C(=O)NCCCCNC(=O)c2ccc(-c3c4nc(c(-c5ccccc5)c5ccc([nH]5)c(-c5ccccc5)c5nc(c(-c6ccccc6)c6ccc3[nH]6)C=C5)C=C4)cc2)C1
REMARK SMILES IDX 18 1 17 2 16 3 15 4 13 5 14 6 12 8 7 9 8 10 9 11 11 12 10 13
REMARK SMILES IDX 6 14 1 15 2 16 3 17 4 18 71 19 5 20 19 21 20 22 21 23 22 25
REMARK SMILES IDX 23 26 24 27 70 28 25 29 69 30 26 31 27 32 28 33 63 34 29 35
REMARK SMILES IDX 68 36 62 37 64 38 30 39 67 40 61 41 60 42 31 44 53 45 38 46
REMARK SMILES IDX 52 47 39 48 42 49 51 50 65 51 40 52 41 53 50 55 66 56 43 57
REMARK SMILES IDX 32 58 33 59 37 60 34 61 36 62 35 63 54 64 55 65 59 66 56 67
REMARK SMILES IDX 58 68 57 69 44 70 45 71 49 72 46 73 48 74 47 75
REMARK H PARENT 15 7 20 24 64 43 42 54
REMARK Flexibility Score: inf
ROOT
ATOM      1  C   UNL A   1      31.451  32.000  26.816  1.00  0.00     0.023 C 
ENDROOT
BRANCH   1   2
ATOM      2  C   UNL A   1      31.773  30.659  26.141  1.00  0.00     0.023 C 
BRANCH   2   3
ATOM      3  C   UNL A   1      32.408  29.625  27.071  1.00  0.00     0.116 C 
BRANCH   3   4
ATOM      4  N   UNL A   1      31.629  28.406  27.073  1.00  0.00    -0.352 N 
ATOM      5  C   UNL A   1      31.300  27.446  26.147  1.00  0.00     0.255 C 
ATOM      6  O   UNL A   1      30.553  26.586  26.612  1.00  0.00    -0.269 OA
ATOM      7  H   UNL A   1      31.236  28.220  27.956  1.00  0.00     0.163 HD
BRANCH   5   8
ATOM      8  C   UNL A   1      31.822  27.394  24.733  1.00  0.00     0.082 A 
ATOM      9  C   UNL A   1      30.968  27.652  23.634  1.00  0.00     0.141 A 
ATOM     10  N   UNL A   1      31.358  27.387  22.355  1.00  0.00    -0.238 NA
ATOM     11  C   UNL A   1      32.610  26.955  22.123  1.00  0.00     0.113 A 
ATOM     12  C   UNL A   1      33.143  27.036  24.431  1.00  0.00     0.019 A 
ATOM     13  C   UNL A   1      33.544  26.798  23.118  1.00  0.00     0.021 A 
BRANCH   9  14
ATOM     14  N   UNL A   1      29.745  28.276  23.747  1.00  0.00    -0.355 N 
ATOM     15  C   UNL A   1      28.503  30.174  21.412  1.00  0.00     0.013 C 
ATOM     16  C   UNL A   1      28.346  30.034  22.935  1.00  0.00    -0.016 C 
ATOM     17  C   UNL A   1      27.715  31.311  23.498  1.00  0.00     0.013 C 
ATOM     18  C   UNL A   1      27.520  28.788  23.299  1.00  0.00     0.030 C 
ATOM     19  C   UNL A   1      29.709  29.735  23.601  1.00  0.00     0.124 C 
ATOM     20  C   UNL A   1      28.540  27.655  23.225  1.00  0.00     0.119 C 
ENDBRANCH   9  14
ENDBRANCH   5   8
ENDBRANCH   3   4
ENDBRANCH   2   3
ENDBRANCH   1   2
BRANCH   1  21
ATOM     21  C   UNL A   1      32.660  32.790  27.312  1.00  0.00     0.116 C 
BRANCH  21  22
ATOM     22  N   UNL A   1      32.344  34.170  27.644  1.00  0.00    -0.352 N 
ATOM     23  C   UNL A   1      32.956  34.999  28.551  1.00  0.00     0.251 C 
ATOM     24  H   UNL A   1      31.588  34.563  27.151  1.00  0.00     0.163 HD
ATOM     25  O   UNL A   1      32.500  36.111  28.782  1.00  0.00    -0.269 OA
BRANCH  23  26
ATOM     26  C   UNL A   1      34.148  34.521  29.279  1.00  0.00     0.039 A 
ATOM     27  C   UNL A   1      33.977  33.961  30.547  1.00  0.00     0.014 A 
ATOM     28  C   UNL A   1      35.421  34.606  28.707  1.00  0.00     0.014 A 
ATOM     29  C   UNL A   1      35.077  33.424  31.218  1.00  0.00     0.010 A 
ATOM     30  C   UNL A   1      36.506  34.017  29.351  1.00  0.00     0.010 A 
ATOM     31  C   UNL A   1      36.341  33.419  30.609  1.00  0.00    -0.014 A 
BRANCH  31  32
ATOM     32  C   UNL A   1      37.505  32.782  31.272  1.00  0.00     0.031 A 
ATOM     33  C   UNL A   1      38.170  31.587  30.650  1.00  0.00     0.074 A 
ATOM     34  C   UNL A   1      37.922  33.243  32.467  1.00  0.00     0.049 A 
ATOM     35  N   UNL A   1      39.164  30.868  31.103  1.00  0.00    -0.248 NA
ATOM     36  C   UNL A   1      37.630  31.126  29.361  1.00  0.00     0.031 C 
ATOM     37  C   UNL A   1      37.336  34.372  33.193  1.00  0.00     0.029 A 
ATOM     38  N   UNL A   1      38.938  32.814  33.283  1.00  0.00    -0.354 N 
ATOM     39  C   UNL A   1      39.360  29.863  30.165  1.00  0.00     0.074 A 
ATOM     40  C   UNL A   1      38.351  30.037  29.143  1.00  0.00     0.031 C 
ATOM     41  C   UNL A   1      38.021  34.564  34.332  1.00  0.00     0.029 A 
ATOM     42  C   UNL A   1      39.067  33.552  34.434  1.00  0.00     0.049 A 
ATOM     43  H   UNL A   1      39.519  32.050  33.064  1.00  0.00     0.167 HD
ATOM     44  C   UNL A   1      40.306  28.893  30.145  1.00  0.00     0.031 A 
ATOM     45  C   UNL A   1      39.933  33.427  35.457  1.00  0.00     0.031 A 
ATOM     46  C   UNL A   1      41.313  28.725  31.157  1.00  0.00     0.049 A 
ATOM     47  C   UNL A   1      40.963  32.335  35.419  1.00  0.00     0.074 A 
ATOM     48  C   UNL A   1      42.345  27.804  31.202  1.00  0.00     0.029 A 
ATOM     49  N   UNL A   1      41.411  29.494  32.306  1.00  0.00    -0.354 N 
ATOM     50  N   UNL A   1      41.174  31.431  34.494  1.00  0.00    -0.248 NA
ATOM     51  C   UNL A   1      41.883  32.255  36.563  1.00  0.00     0.031 C 
ATOM     52  C   UNL A   1      43.044  27.990  32.401  1.00  0.00     0.029 A 
ATOM     53  C   UNL A   1      42.476  29.058  33.077  1.00  0.00     0.049 A 
ATOM     54  H   UNL A   1      40.812  30.240  32.540  1.00  0.00     0.167 HD
ATOM     55  C   UNL A   1      42.266  30.691  34.930  1.00  0.00     0.074 A 
ATOM     56  C   UNL A   1      42.680  31.261  36.195  1.00  0.00     0.031 C 
ATOM     57  C   UNL A   1      42.873  29.636  34.334  1.00  0.00     0.031 A 
BRANCH  44  58
ATOM     58  C   UNL A   1      40.282  27.937  28.986  1.00  0.00    -0.014 A 
ATOM     59  C   UNL A   1      39.594  26.715  29.067  1.00  0.00     0.009 A 
ATOM     60  C   UNL A   1      40.940  28.268  27.792  1.00  0.00     0.009 A 
ATOM     61  C   UNL A   1      39.601  25.827  27.991  1.00  0.00     0.001 A 
ATOM     62  C   UNL A   1      40.922  27.389  26.707  1.00  0.00     0.001 A 
ATOM     63  C   UNL A   1      40.262  26.165  26.810  1.00  0.00     0.000 A 
ENDBRANCH  44  58
BRANCH  45  64
ATOM     64  C   UNL A   1      39.880  34.380  36.595  1.00  0.00    -0.014 A 
ATOM     65  C   UNL A   1      40.592  35.587  36.538  1.00  0.00     0.009 A 
ATOM     66  C   UNL A   1      39.122  34.089  37.740  1.00  0.00     0.009 A 
ATOM     67  C   UNL A   1      40.564  36.476  37.617  1.00  0.00     0.001 A 
ATOM     68  C   UNL A   1      39.076  34.992  38.805  1.00  0.00     0.001 A 
ATOM     69  C   UNL A   1      39.803  36.179  38.746  1.00  0.00     0.000 A 
ENDBRANCH  45  64
BRANCH  57  70
ATOM     70  C   UNL A   1      44.070  29.053  35.029  1.00  0.00    -0.014 A 
ATOM     71  C   UNL A   1      45.363  29.537  34.782  1.00  0.00     0.009 A 
ATOM     72  C   UNL A   1      43.892  28.027  35.971  1.00  0.00     0.009 A 
ATOM     73  C   UNL A   1      46.460  28.982  35.443  1.00  0.00     0.001 A 
ATOM     74  C   UNL A   1      44.988  27.494  36.650  1.00  0.00     0.001 A 
ATOM     75  C   UNL A   1      46.272  27.965  36.380  1.00  0.00     0.000 A 
ENDBRANCH  57  70
ENDBRANCH  31  32
ENDBRANCH  23  26
ENDBRANCH  21  22
ENDBRANCH   1  21
TORSDOF 12
ENDMDL
