MODEL 1
REMARK VINA RESULT:     -12.1      0.000      0.000
REMARK SMILES CN(C)C(=O)c1ccc2c(c1)N(CC(=O)NCCCCNC(=O)c1ccc(-c3c4nc(c(-c5ccccc5)c5ccc([nH]5)c(-c5ccccc5)c5nc(c(-c6ccccc6)c6ccc3[nH]6)C=C5)C=C4)cc1)C(=O)[C@@H]1CCCCN21
REMARK SMILES IDX 18 1 17 2 16 3 14 4 15 5 13 7 12 8 6 9 7 10 11 11 8 12 10 13
REMARK SMILES IDX 9 14 79 15 72 16 74 17 78 18 73 19 75 20 77 21 76 22 4 23
REMARK SMILES IDX 1 24 2 25 3 26 5 27 19 28 20 29 21 30 22 31 23 33 24 34
REMARK SMILES IDX 25 35 71 36 26 37 70 38 27 39 28 40 29 41 64 42 30 43 69 44
REMARK SMILES IDX 63 45 65 46 31 47 68 48 62 49 61 50 32 52 54 53 39 54 53 55
REMARK SMILES IDX 40 56 43 57 52 58 66 59 41 60 42 61 51 63 67 64 44 65 33 66
REMARK SMILES IDX 34 67 38 68 35 69 37 70 36 71 55 72 56 73 60 74 57 75 59 76
REMARK SMILES IDX 58 77 45 78 46 79 50 80 47 81 49 82 48 83
REMARK H PARENT 16 6 21 32 65 51 43 62
REMARK Flexibility Score: inf
ROOT
ATOM      1  C   UNL A   1      40.531  21.836  27.418  1.00  0.00     0.023 C 
ENDROOT
BRANCH   1   2
ATOM      2  C   UNL A   1      39.523  21.935  26.274  1.00  0.00     0.116 C 
BRANCH   2   3
ATOM      3  N   UNL A   1      38.555  22.991  26.484  1.00  0.00    -0.355 N 
ATOM      4  C   UNL A   1      37.469  23.330  25.740  1.00  0.00     0.240 C 
ATOM      5  O   UNL A   1      36.713  24.187  26.210  1.00  0.00    -0.273 OA
ATOM      6  H   UNL A   1      38.707  23.546  27.284  1.00  0.00     0.163 HD
BRANCH   4   7
ATOM      7  C   UNL A   1      37.113  22.610  24.431  1.00  0.00     0.225 C 
BRANCH   7   8
ATOM      8  N   UNL A   1      35.850  21.863  24.388  1.00  0.00    -0.299 N 
ATOM      9  C   UNL A   1      33.482  24.436  23.048  1.00  0.00     0.042 A 
ATOM     10  C   UNL A   1      32.305  23.713  22.955  1.00  0.00     0.016 A 
ATOM     11  C   UNL A   1      34.630  23.846  23.576  1.00  0.00     0.042 A 
ATOM     12  C   UNL A   1      32.300  22.371  23.333  1.00  0.00     0.029 A 
ATOM     13  C   UNL A   1      34.640  22.484  23.942  1.00  0.00     0.069 A 
ATOM     14  C   UNL A   1      33.453  21.712  23.811  1.00  0.00     0.062 A 
ATOM     15  N   UNL A   1      33.423  20.358  24.130  1.00  0.00    -0.358 N 
ATOM     16  C   UNL A   1      35.861  20.548  24.831  1.00  0.00     0.250 C 
ATOM     17  C   UNL A   1      34.528  19.794  24.918  1.00  0.00     0.172 C 
ATOM     18  C   UNL A   1      32.404  19.456  23.579  1.00  0.00     0.117 C 
ATOM     19  O   UNL A   1      36.905  20.004  25.212  1.00  0.00    -0.272 OA
ATOM     20  C   UNL A   1      34.771  18.337  24.503  1.00  0.00     0.035 C 
ATOM     21  C   UNL A   1      32.256  18.134  24.332  1.00  0.00     0.022 C 
ATOM     22  C   UNL A   1      33.550  17.488  24.800  1.00  0.00     0.004 C 
BRANCH   9  23
ATOM     23  C   UNL A   1      33.489  25.835  22.575  1.00  0.00     0.253 C 
ATOM     24  C   UNL A   1      33.299  28.221  23.027  1.00  0.00     0.146 C 
ATOM     25  N   UNL A   1      33.335  26.854  23.512  1.00  0.00    -0.345 N 
ATOM     26  C   UNL A   1      33.300  26.666  24.955  1.00  0.00     0.146 C 
ATOM     27  O   UNL A   1      33.668  26.030  21.375  1.00  0.00    -0.269 OA
ENDBRANCH   9  23
ENDBRANCH   7   8
ENDBRANCH   4   7
ENDBRANCH   2   3
ENDBRANCH   1   2
BRANCH   1  28
ATOM     28  C   UNL A   1      42.000  21.884  26.989  1.00  0.00     0.023 C 
BRANCH  28  29
ATOM     29  C   UNL A   1      42.651  23.263  27.009  1.00  0.00     0.116 C 
BRANCH  29  30
ATOM     30  N   UNL A   1      42.257  24.118  25.900  1.00  0.00    -0.352 N 
ATOM     31  C   UNL A   1      41.768  25.404  25.941  1.00  0.00     0.251 C 
ATOM     32  H   UNL A   1      42.352  23.724  25.003  1.00  0.00     0.163 HD
ATOM     33  O   UNL A   1      41.400  25.964  24.913  1.00  0.00    -0.269 OA
BRANCH  31  34
ATOM     34  C   UNL A   1      41.641  26.090  27.246  1.00  0.00     0.039 A 
ATOM     35  C   UNL A   1      40.560  25.823  28.086  1.00  0.00     0.014 A 
ATOM     36  C   UNL A   1      42.588  27.055  27.602  1.00  0.00     0.014 A 
ATOM     37  C   UNL A   1      40.330  26.639  29.189  1.00  0.00     0.010 A 
ATOM     38  C   UNL A   1      42.397  27.822  28.756  1.00  0.00     0.010 A 
ATOM     39  C   UNL A   1      41.237  27.658  29.527  1.00  0.00    -0.014 A 
BRANCH  39  40
ATOM     40  C   UNL A   1      40.936  28.542  30.684  1.00  0.00     0.031 A 
ATOM     41  C   UNL A   1      41.801  28.524  31.916  1.00  0.00     0.074 A 
ATOM     42  C   UNL A   1      39.921  29.423  30.589  1.00  0.00     0.049 A 
ATOM     43  N   UNL A   1      41.724  29.281  32.983  1.00  0.00    -0.248 NA
ATOM     44  C   UNL A   1      42.892  27.538  31.961  1.00  0.00     0.031 C 
ATOM     45  C   UNL A   1      39.024  29.550  29.440  1.00  0.00     0.029 A 
ATOM     46  N   UNL A   1      39.499  30.401  31.453  1.00  0.00    -0.354 N 
ATOM     47  C   UNL A   1      42.742  28.853  33.828  1.00  0.00     0.074 A 
ATOM     48  C   UNL A   1      43.407  27.753  33.164  1.00  0.00     0.031 C 
ATOM     49  C   UNL A   1      38.202  30.591  29.640  1.00  0.00     0.029 A 
ATOM     50  C   UNL A   1      38.472  31.165  30.954  1.00  0.00     0.049 A 
ATOM     51  H   UNL A   1      39.894  30.543  32.344  1.00  0.00     0.167 HD
ATOM     52  C   UNL A   1      43.096  29.339  35.041  1.00  0.00     0.031 A 
ATOM     53  C   UNL A   1      37.814  32.210  31.490  1.00  0.00     0.031 A 
ATOM     54  C   UNL A   1      42.443  30.441  35.698  1.00  0.00     0.049 A 
ATOM     55  C   UNL A   1      38.196  32.700  32.856  1.00  0.00     0.074 A 
ATOM     56  C   UNL A   1      42.750  31.015  36.920  1.00  0.00     0.029 A 
ATOM     57  N   UNL A   1      41.355  31.133  35.191  1.00  0.00    -0.354 N 
ATOM     58  N   UNL A   1      39.166  32.288  33.635  1.00  0.00    -0.248 NA
ATOM     59  C   UNL A   1      37.392  33.793  33.420  1.00  0.00     0.031 C 
ATOM     60  C   UNL A   1      41.815  32.020  37.177  1.00  0.00     0.029 A 
ATOM     61  C   UNL A   1      40.961  32.111  36.089  1.00  0.00     0.049 A 
ATOM     62  H   UNL A   1      40.925  30.956  34.324  1.00  0.00     0.167 HD
ATOM     63  C   UNL A   1      39.092  33.071  34.778  1.00  0.00     0.074 A 
ATOM     64  C   UNL A   1      37.998  34.000  34.582  1.00  0.00     0.031 C 
ATOM     65  C   UNL A   1      39.862  33.019  35.892  1.00  0.00     0.031 A 
BRANCH  52  66
ATOM     66  C   UNL A   1      44.241  28.681  35.760  1.00  0.00    -0.014 A 
ATOM     67  C   UNL A   1      43.986  27.650  36.678  1.00  0.00     0.009 A 
ATOM     68  C   UNL A   1      45.557  29.143  35.605  1.00  0.00     0.009 A 
ATOM     69  C   UNL A   1      45.023  27.102  37.435  1.00  0.00     0.001 A 
ATOM     70  C   UNL A   1      46.597  28.575  36.345  1.00  0.00     0.001 A 
ATOM     71  C   UNL A   1      46.327  27.562  37.265  1.00  0.00     0.000 A 
ENDBRANCH  52  66
BRANCH  53  72
ATOM     72  C   UNL A   1      36.726  32.859  30.714  1.00  0.00    -0.014 A 
ATOM     73  C   UNL A   1      35.388  32.479  30.908  1.00  0.00     0.009 A 
ATOM     74  C   UNL A   1      37.025  33.816  29.733  1.00  0.00     0.009 A 
ATOM     75  C   UNL A   1      34.374  33.021  30.116  1.00  0.00     0.001 A 
ATOM     76  C   UNL A   1      36.005  34.378  28.962  1.00  0.00     0.001 A 
ATOM     77  C   UNL A   1      34.683  33.972  29.146  1.00  0.00     0.000 A 
ENDBRANCH  53  72
BRANCH  65  78
ATOM     78  C   UNL A   1      39.555  33.987  36.998  1.00  0.00    -0.014 A 
ATOM     79  C   UNL A   1      40.081  35.288  36.956  1.00  0.00     0.009 A 
ATOM     80  C   UNL A   1      38.824  33.583  38.126  1.00  0.00     0.009 A 
ATOM     81  C   UNL A   1      39.892  36.162  38.027  1.00  0.00     0.001 A 
ATOM     82  C   UNL A   1      38.615  34.469  39.185  1.00  0.00     0.001 A 
ATOM     83  C   UNL A   1      39.157  35.753  39.138  1.00  0.00     0.000 A 
ENDBRANCH  65  78
ENDBRANCH  39  40
ENDBRANCH  31  34
ENDBRANCH  29  30
ENDBRANCH  28  29
ENDBRANCH   1  28
TORSDOF 13
ENDMDL
MODEL 2
REMARK VINA RESULT:     -12.1      3.189      9.158
REMARK SMILES CN(C)C(=O)c1ccc2c(c1)N(CC(=O)NCCCCNC(=O)c1ccc(-c3c4nc(c(-c5ccccc5)c5ccc([nH]5)c(-c5ccccc5)c5nc(c(-c6ccccc6)c6ccc3[nH]6)C=C5)C=C4)cc1)C(=O)[C@@H]1CCCCN21
REMARK SMILES IDX 18 1 17 2 16 3 14 4 15 5 13 7 12 8 6 9 7 10 11 11 8 12 10 13
REMARK SMILES IDX 9 14 79 15 72 16 74 17 78 18 73 19 75 20 77 21 76 22 4 23
REMARK SMILES IDX 1 24 2 25 3 26 5 27 19 28 20 29 21 30 22 31 23 33 24 34
REMARK SMILES IDX 25 35 71 36 26 37 70 38 27 39 28 40 29 41 64 42 30 43 69 44
REMARK SMILES IDX 63 45 65 46 31 47 68 48 62 49 61 50 32 52 54 53 39 54 53 55
REMARK SMILES IDX 40 56 43 57 52 58 66 59 41 60 42 61 51 63 67 64 44 65 33 66
REMARK SMILES IDX 34 67 38 68 35 69 37 70 36 71 55 72 56 73 60 74 57 75 59 76
REMARK SMILES IDX 58 77 45 78 46 79 50 80 47 81 49 82 48 83
REMARK H PARENT 16 6 21 32 65 51 43 62
REMARK Flexibility Score: inf
ROOT
ATOM      1  C   UNL A   1      34.163  33.283  28.393  1.00  0.00     0.023 C 
ENDROOT
BRANCH   1   2
ATOM      2  C   UNL A   1      33.408  31.973  28.176  1.00  0.00     0.116 C 
BRANCH   2   3
ATOM      3  N   UNL A   1      34.238  30.953  27.571  1.00  0.00    -0.355 N 
ATOM      4  C   UNL A   1      33.905  29.706  27.142  1.00  0.00     0.240 C 
ATOM      5  O   UNL A   1      34.770  29.076  26.526  1.00  0.00    -0.273 OA
ATOM      6  H   UNL A   1      35.185  31.199  27.454  1.00  0.00     0.163 HD
BRANCH   4   7
ATOM      7  C   UNL A   1      32.487  29.136  27.299  1.00  0.00     0.225 C 
BRANCH   7   8
ATOM      8  N   UNL A   1      31.699  28.927  26.078  1.00  0.00    -0.299 N 
ATOM      9  C   UNL A   1      31.575  25.190  25.875  1.00  0.00     0.042 A 
ATOM     10  C   UNL A   1      30.785  24.996  24.755  1.00  0.00     0.016 A 
ATOM     11  C   UNL A   1      31.926  26.480  26.273  1.00  0.00     0.042 A 
ATOM     12  C   UNL A   1      30.290  26.105  24.072  1.00  0.00     0.029 A 
ATOM     13  C   UNL A   1      31.414  27.608  25.600  1.00  0.00     0.069 A 
ATOM     14  C   UNL A   1      30.564  27.430  24.475  1.00  0.00     0.062 A 
ATOM     15  N   UNL A   1      30.010  28.513  23.798  1.00  0.00    -0.358 N 
ATOM     16  C   UNL A   1      31.275  30.050  25.382  1.00  0.00     0.250 C 
ATOM     17  C   UNL A   1      30.566  29.853  24.036  1.00  0.00     0.172 C 
ATOM     18  C   UNL A   1      28.802  28.375  22.976  1.00  0.00     0.117 C 
ATOM     19  O   UNL A   1      31.513  31.193  25.793  1.00  0.00    -0.272 OA
ATOM     20  C   UNL A   1      29.455  30.904  23.919  1.00  0.00     0.035 C 
ATOM     21  C   UNL A   1      28.572  29.522  21.993  1.00  0.00     0.022 C 
ATOM     22  C   UNL A   1      28.881  30.917  22.515  1.00  0.00     0.004 C 
BRANCH   9  23
ATOM     23  C   UNL A   1      32.030  24.006  26.632  1.00  0.00     0.253 C 
ATOM     24  C   UNL A   1      33.690  22.271  27.047  1.00  0.00     0.146 C 
ATOM     25  N   UNL A   1      33.276  23.461  26.327  1.00  0.00    -0.345 N 
ATOM     26  C   UNL A   1      34.242  24.045  25.407  1.00  0.00     0.146 C 
ATOM     27  O   UNL A   1      31.296  23.581  27.521  1.00  0.00    -0.269 OA
ENDBRANCH   9  23
ENDBRANCH   7   8
ENDBRANCH   4   7
ENDBRANCH   2   3
ENDBRANCH   1   2
BRANCH   1  28
ATOM     28  C   UNL A   1      33.277  34.527  28.508  1.00  0.00     0.023 C 
BRANCH  28  29
ATOM     29  C   UNL A   1      33.755  35.591  29.489  1.00  0.00     0.116 C 
BRANCH  29  30
ATOM     30  N   UNL A   1      32.753  35.983  30.468  1.00  0.00    -0.352 N 
ATOM     31  C   UNL A   1      32.742  35.747  31.824  1.00  0.00     0.251 C 
ATOM     32  H   UNL A   1      31.982  36.482  30.114  1.00  0.00     0.163 HD
ATOM     33  O   UNL A   1      31.774  36.073  32.506  1.00  0.00    -0.269 OA
BRANCH  31  34
ATOM     34  C   UNL A   1      33.887  35.048  32.449  1.00  0.00     0.039 A 
ATOM     35  C   UNL A   1      35.132  35.669  32.545  1.00  0.00     0.014 A 
ATOM     36  C   UNL A   1      33.721  33.731  32.890  1.00  0.00     0.014 A 
ATOM     37  C   UNL A   1      36.245  34.922  32.914  1.00  0.00     0.010 A 
ATOM     38  C   UNL A   1      34.829  33.005  33.338  1.00  0.00     0.010 A 
ATOM     39  C   UNL A   1      36.109  33.577  33.300  1.00  0.00    -0.014 A 
BRANCH  39  40
ATOM     40  C   UNL A   1      37.325  32.794  33.643  1.00  0.00     0.031 A 
ATOM     41  C   UNL A   1      37.919  31.818  32.662  1.00  0.00     0.074 A 
ATOM     42  C   UNL A   1      37.943  33.024  34.818  1.00  0.00     0.049 A 
ATOM     43  N   UNL A   1      39.016  31.110  32.772  1.00  0.00    -0.248 NA
ATOM     44  C   UNL A   1      37.196  31.608  31.397  1.00  0.00     0.031 C 
ATOM     45  C   UNL A   1      37.477  33.958  35.843  1.00  0.00     0.029 A 
ATOM     46  N   UNL A   1      39.112  32.522  35.330  1.00  0.00    -0.354 N 
ATOM     47  C   UNL A   1      39.107  30.364  31.603  1.00  0.00     0.074 A 
ATOM     48  C   UNL A   1      37.941  30.682  30.807  1.00  0.00     0.031 C 
ATOM     49  C   UNL A   1      38.383  34.014  36.830  1.00  0.00     0.029 A 
ATOM     50  C   UNL A   1      39.462  33.075  36.538  1.00  0.00     0.049 A 
ATOM     51  H   UNL A   1      39.649  31.832  34.877  1.00  0.00     0.167 HD
ATOM     52  C   UNL A   1      40.078  29.500  31.223  1.00  0.00     0.031 A 
ATOM     53  C   UNL A   1      40.528  32.855  37.330  1.00  0.00     0.031 A 
ATOM     54  C   UNL A   1      41.244  29.191  32.007  1.00  0.00     0.049 A 
ATOM     55  C   UNL A   1      41.567  31.857  36.906  1.00  0.00     0.074 A 
ATOM     56  C   UNL A   1      42.292  28.343  31.689  1.00  0.00     0.029 A 
ATOM     57  N   UNL A   1      41.517  29.714  33.260  1.00  0.00    -0.354 N 
ATOM     58  N   UNL A   1      41.639  31.168  35.793  1.00  0.00    -0.248 NA
ATOM     59  C   UNL A   1      42.668  31.603  37.846  1.00  0.00     0.031 C 
ATOM     60  C   UNL A   1      43.172  28.312  32.773  1.00  0.00     0.029 A 
ATOM     61  C   UNL A   1      42.703  29.185  33.741  1.00  0.00     0.049 A 
ATOM     62  H   UNL A   1      40.953  30.363  33.738  1.00  0.00     0.167 HD
ATOM     63  C   UNL A   1      42.791  30.402  35.897  1.00  0.00     0.074 A 
ATOM     64  C   UNL A   1      43.400  30.728  37.170  1.00  0.00     0.031 C 
ATOM     65  C   UNL A   1      43.294  29.504  35.015  1.00  0.00     0.031 A 
BRANCH  52  66
ATOM     66  C   UNL A   1      39.928  28.807  29.897  1.00  0.00    -0.014 A 
ATOM     67  C   UNL A   1      39.419  27.499  29.849  1.00  0.00     0.009 A 
ATOM     68  C   UNL A   1      40.378  29.404  28.709  1.00  0.00     0.009 A 
ATOM     69  C   UNL A   1      39.374  26.798  28.642  1.00  0.00     0.001 A 
ATOM     70  C   UNL A   1      40.308  28.710  27.499  1.00  0.00     0.001 A 
ATOM     71  C   UNL A   1      39.815  27.405  27.469  1.00  0.00     0.000 A 
ENDBRANCH  52  66
BRANCH  53  72
ATOM     72  C   UNL A   1      40.656  33.607  38.604  1.00  0.00    -0.014 A 
ATOM     73  C   UNL A   1      40.120  33.089  39.794  1.00  0.00     0.009 A 
ATOM     74  C   UNL A   1      41.258  34.874  38.625  1.00  0.00     0.009 A 
ATOM     75  C   UNL A   1      40.158  33.835  40.973  1.00  0.00     0.001 A 
ATOM     76  C   UNL A   1      41.319  35.606  39.812  1.00  0.00     0.001 A 
ATOM     77  C   UNL A   1      40.760  35.091  40.982  1.00  0.00     0.000 A 
ENDBRANCH  53  72
BRANCH  65  78
ATOM     78  C   UNL A   1      44.565  28.798  35.387  1.00  0.00    -0.014 A 
ATOM     79  C   UNL A   1      44.514  27.613  36.137  1.00  0.00     0.009 A 
ATOM     80  C   UNL A   1      45.815  29.355  35.077  1.00  0.00     0.009 A 
ATOM     81  C   UNL A   1      45.688  27.004  36.580  1.00  0.00     0.001 A 
ATOM     82  C   UNL A   1      46.990  28.730  35.500  1.00  0.00     0.001 A 
ATOM     83  C   UNL A   1      46.925  27.561  36.258  1.00  0.00     0.000 A 
ENDBRANCH  65  78
ENDBRANCH  39  40
ENDBRANCH  31  34
ENDBRANCH  29  30
ENDBRANCH  28  29
ENDBRANCH   1  28
TORSDOF 13
ENDMDL
MODEL 3
REMARK VINA RESULT:     -12.0      0.924      5.850
REMARK SMILES CN(C)C(=O)c1ccc2c(c1)N(CC(=O)NCCCCNC(=O)c1ccc(-c3c4nc(c(-c5ccccc5)c5ccc([nH]5)c(-c5ccccc5)c5nc(c(-c6ccccc6)c6ccc3[nH]6)C=C5)C=C4)cc1)C(=O)[C@@H]1CCCCN21
REMARK SMILES IDX 18 1 17 2 16 3 14 4 15 5 13 7 12 8 6 9 7 10 11 11 8 12 10 13
REMARK SMILES IDX 9 14 79 15 72 16 74 17 78 18 73 19 75 20 77 21 76 22 4 23
REMARK SMILES IDX 1 24 2 25 3 26 5 27 19 28 20 29 21 30 22 31 23 33 24 34
REMARK SMILES IDX 25 35 71 36 26 37 70 38 27 39 28 40 29 41 64 42 30 43 69 44
REMARK SMILES IDX 63 45 65 46 31 47 68 48 62 49 61 50 32 52 54 53 39 54 53 55
REMARK SMILES IDX 40 56 43 57 52 58 66 59 41 60 42 61 51 63 67 64 44 65 33 66
REMARK SMILES IDX 34 67 38 68 35 69 37 70 36 71 55 72 56 73 60 74 57 75 59 76
REMARK SMILES IDX 58 77 45 78 46 79 50 80 47 81 49 82 48 83
REMARK H PARENT 16 6 21 32 65 51 43 62
REMARK Flexibility Score: inf
ROOT
ATOM      1  C   UNL A   1      40.454  21.510  27.316  1.00  0.00     0.023 C 
ENDROOT
BRANCH   1   2
ATOM      2  C   UNL A   1      39.558  21.846  26.125  1.00  0.00     0.116 C 
BRANCH   2   3
ATOM      3  N   UNL A   1      38.609  22.897  26.430  1.00  0.00    -0.355 N 
ATOM      4  C   UNL A   1      37.501  23.288  25.746  1.00  0.00     0.240 C 
ATOM      5  O   UNL A   1      36.771  24.122  26.291  1.00  0.00    -0.273 OA
ATOM      6  H   UNL A   1      38.795  23.403  27.254  1.00  0.00     0.163 HD
BRANCH   4   7
ATOM      7  C   UNL A   1      37.093  22.649  24.410  1.00  0.00     0.225 C 
BRANCH   7   8
ATOM      8  N   UNL A   1      35.830  21.901  24.372  1.00  0.00    -0.299 N 
ATOM      9  C   UNL A   1      33.453  24.477  23.055  1.00  0.00     0.042 A 
ATOM     10  C   UNL A   1      32.275  23.754  22.967  1.00  0.00     0.016 A 
ATOM     11  C   UNL A   1      34.604  23.886  23.574  1.00  0.00     0.042 A 
ATOM     12  C   UNL A   1      32.273  22.411  23.341  1.00  0.00     0.029 A 
ATOM     13  C   UNL A   1      34.617  22.523  23.936  1.00  0.00     0.069 A 
ATOM     14  C   UNL A   1      33.430  21.752  23.810  1.00  0.00     0.062 A 
ATOM     15  N   UNL A   1      33.402  20.396  24.125  1.00  0.00    -0.358 N 
ATOM     16  C   UNL A   1      35.844  20.585  24.811  1.00  0.00     0.250 C 
ATOM     17  C   UNL A   1      34.512  19.830  24.905  1.00  0.00     0.172 C 
ATOM     18  C   UNL A   1      32.380  19.496  23.578  1.00  0.00     0.117 C 
ATOM     19  O   UNL A   1      36.891  20.040  25.185  1.00  0.00    -0.272 OA
ATOM     20  C   UNL A   1      34.753  18.375  24.484  1.00  0.00     0.035 C 
ATOM     21  C   UNL A   1      32.236  18.171  24.327  1.00  0.00     0.022 C 
ATOM     22  C   UNL A   1      33.534  17.524  24.786  1.00  0.00     0.004 C 
BRANCH   9  23
ATOM     23  C   UNL A   1      33.457  25.878  22.586  1.00  0.00     0.253 C 
ATOM     24  C   UNL A   1      33.192  28.258  23.032  1.00  0.00     0.146 C 
ATOM     25  N   UNL A   1      33.230  26.891  23.515  1.00  0.00    -0.345 N 
ATOM     26  C   UNL A   1      33.120  26.697  24.954  1.00  0.00     0.146 C 
ATOM     27  O   UNL A   1      33.697  26.080  21.398  1.00  0.00    -0.269 OA
ENDBRANCH   9  23
ENDBRANCH   7   8
ENDBRANCH   4   7
ENDBRANCH   2   3
ENDBRANCH   1   2
BRANCH   1  28
ATOM     28  C   UNL A   1      41.863  21.036  26.950  1.00  0.00     0.023 C 
BRANCH  28  29
ATOM     29  C   UNL A   1      42.958  22.095  27.025  1.00  0.00     0.116 C 
BRANCH  29  30
ATOM     30  N   UNL A   1      43.069  22.913  25.827  1.00  0.00    -0.352 N 
ATOM     31  C   UNL A   1      42.969  24.281  25.712  1.00  0.00     0.251 C 
ATOM     32  H   UNL A   1      43.237  22.425  24.990  1.00  0.00     0.163 HD
ATOM     33  O   UNL A   1      43.003  24.818  24.609  1.00  0.00    -0.269 OA
BRANCH  31  34
ATOM     34  C   UNL A   1      42.767  25.099  26.928  1.00  0.00     0.039 A 
ATOM     35  C   UNL A   1      41.659  24.890  27.750  1.00  0.00     0.014 A 
ATOM     36  C   UNL A   1      43.671  26.127  27.216  1.00  0.00     0.014 A 
ATOM     37  C   UNL A   1      41.359  25.811  28.747  1.00  0.00     0.010 A 
ATOM     38  C   UNL A   1      43.410  27.006  28.271  1.00  0.00     0.010 A 
ATOM     39  C   UNL A   1      42.223  26.889  29.009  1.00  0.00    -0.014 A 
BRANCH  39  40
ATOM     40  C   UNL A   1      41.849  27.882  30.050  1.00  0.00     0.031 A 
ATOM     41  C   UNL A   1      40.669  28.798  29.856  1.00  0.00     0.074 A 
ATOM     42  C   UNL A   1      42.531  27.902  31.211  1.00  0.00     0.049 A 
ATOM     43  N   UNL A   1      40.161  29.669  30.693  1.00  0.00    -0.248 NA
ATOM     44  C   UNL A   1      39.967  28.730  28.565  1.00  0.00     0.031 C 
ATOM     45  C   UNL A   1      43.679  27.051  31.527  1.00  0.00     0.029 A 
ATOM     46  N   UNL A   1      42.334  28.635  32.354  1.00  0.00    -0.354 N 
ATOM     47  C   UNL A   1      39.095  30.260  30.027  1.00  0.00     0.074 A 
ATOM     48  C   UNL A   1      39.043  29.671  28.706  1.00  0.00     0.031 C 
ATOM     49  C   UNL A   1      44.043  27.261  32.800  1.00  0.00     0.029 A 
ATOM     50  C   UNL A   1      43.195  28.303  33.372  1.00  0.00     0.049 A 
ATOM     51  H   UNL A   1      41.643  29.332  32.438  1.00  0.00     0.167 HD
ATOM     52  C   UNL A   1      38.232  31.201  30.477  1.00  0.00     0.031 A 
ATOM     53  C   UNL A   1      43.300  28.781  34.626  1.00  0.00     0.031 A 
ATOM     54  C   UNL A   1      38.275  31.780  31.794  1.00  0.00     0.049 A 
ATOM     55  C   UNL A   1      42.359  29.857  35.085  1.00  0.00     0.074 A 
ATOM     56  C   UNL A   1      37.424  32.725  32.344  1.00  0.00     0.029 A 
ATOM     57  N   UNL A   1      39.214  31.473  32.765  1.00  0.00    -0.354 N 
ATOM     58  N   UNL A   1      41.353  30.397  34.443  1.00  0.00    -0.248 NA
ATOM     59  C   UNL A   1      42.571  30.393  36.437  1.00  0.00     0.031 C 
ATOM     60  C   UNL A   1      37.882  33.028  33.629  1.00  0.00     0.029 A 
ATOM     61  C   UNL A   1      38.981  32.230  33.900  1.00  0.00     0.049 A 
ATOM     62  H   UNL A   1      39.939  30.816  32.662  1.00  0.00     0.167 HD
ATOM     63  C   UNL A   1      40.809  31.333  35.311  1.00  0.00     0.074 A 
ATOM     64  C   UNL A   1      41.581  31.271  36.535  1.00  0.00     0.031 C 
ATOM     65  C   UNL A   1      39.765  32.172  35.107  1.00  0.00     0.031 A 
BRANCH  52  66
ATOM     66  C   UNL A   1      37.160  31.685  29.540  1.00  0.00    -0.014 A 
ATOM     67  C   UNL A   1      37.331  32.899  28.855  1.00  0.00     0.009 A 
ATOM     68  C   UNL A   1      35.945  30.996  29.407  1.00  0.00     0.009 A 
ATOM     69  C   UNL A   1      36.303  33.419  28.066  1.00  0.00     0.001 A 
ATOM     70  C   UNL A   1      34.928  31.505  28.596  1.00  0.00     0.001 A 
ATOM     71  C   UNL A   1      35.105  32.720  27.935  1.00  0.00     0.000 A 
ENDBRANCH  52  66
BRANCH  53  72
ATOM     72  C   UNL A   1      44.342  28.229  35.530  1.00  0.00    -0.014 A 
ATOM     73  C   UNL A   1      45.636  28.773  35.540  1.00  0.00     0.009 A 
ATOM     74  C   UNL A   1      44.065  27.118  36.340  1.00  0.00     0.009 A 
ATOM     75  C   UNL A   1      46.641  28.198  36.321  1.00  0.00     0.001 A 
ATOM     76  C   UNL A   1      45.065  26.563  37.141  1.00  0.00     0.001 A 
ATOM     77  C   UNL A   1      46.353  27.096  37.123  1.00  0.00     0.000 A 
ENDBRANCH  53  72
BRANCH  65  78
ATOM     78  C   UNL A   1      39.388  33.102  36.224  1.00  0.00    -0.014 A 
ATOM     79  C   UNL A   1      39.990  34.366  36.315  1.00  0.00     0.009 A 
ATOM     80  C   UNL A   1      38.509  32.690  37.238  1.00  0.00     0.009 A 
ATOM     81  C   UNL A   1      39.729  35.197  37.405  1.00  0.00     0.001 A 
ATOM     82  C   UNL A   1      38.231  33.534  38.315  1.00  0.00     0.001 A 
ATOM     83  C   UNL A   1      38.848  34.782  38.402  1.00  0.00     0.000 A 
ENDBRANCH  65  78
ENDBRANCH  39  40
ENDBRANCH  31  34
ENDBRANCH  29  30
ENDBRANCH  28  29
ENDBRANCH   1  28
TORSDOF 13
ENDMDL
