MODEL 1
REMARK VINA RESULT:     -10.4      0.000      0.000
REMARK SMILES CC[C@](C)([NH3+])C(=O)Nc1ccc(C(F)(F)F)cc1C(=O)NCCCCNC(=O)c1ccc(-c2c3nc(c(-c4ccccc4)c4ccc([nH]4)c(-c4ccccc4)c4nc(c(-c5ccccc5)c5ccc2[nH]5)C=C4)C=C3)cc1
REMARK SMILES IDX 23 1 22 2 21 3 19 4 20 5 18 7 9 8 10 9 11 10 17 11 12 12
REMARK SMILES IDX 8 13 6 14 7 15 3 17 4 18 2 19 1 20 5 21 13 25 14 26 15 27
REMARK SMILES IDX 16 28 24 29 25 30 26 31 27 32 28 34 29 35 30 36 76 37 31 38
REMARK SMILES IDX 75 39 32 40 33 41 34 42 69 43 35 44 74 45 68 46 70 47 36 48
REMARK SMILES IDX 73 49 67 50 66 51 37 53 59 54 44 55 58 56 45 57 48 58 57 59
REMARK SMILES IDX 71 60 46 61 47 62 56 64 72 65 49 66 38 67 39 68 43 69 40 70
REMARK SMILES IDX 42 71 41 72 60 73 61 74 65 75 62 76 64 77 63 78 50 79 51 80
REMARK SMILES IDX 55 81 52 82 54 83 53 84
REMARK H PARENT 21 6 8 16 5 22 5 23 5 24 26 33 70 52 48 63
REMARK Flexibility Score: inf
ROOT
ATOM      1  C   UNL A   1      34.580  30.649  27.724  1.00  0.00     0.023 C 
ENDROOT
BRANCH   1   2
ATOM      2  C   UNL A   1      34.450  29.161  27.418  1.00  0.00     0.116 C 
BRANCH   2   3
ATOM      3  N   UNL A   1      33.157  28.588  27.710  1.00  0.00    -0.352 N 
ATOM      4  C   UNL A   1      32.479  27.544  27.120  1.00  0.00     0.253 C 
ATOM      5  O   UNL A   1      31.363  27.279  27.580  1.00  0.00    -0.269 OA
ATOM      6  H   UNL A   1      32.679  29.015  28.458  1.00  0.00     0.163 HD
BRANCH   4   7
ATOM      7  C   UNL A   1      32.946  26.782  25.907  1.00  0.00     0.063 A 
ATOM      8  C   UNL A   1      33.317  25.431  25.802  1.00  0.00     0.054 A 
ATOM      9  C   UNL A   1      34.032  25.005  24.665  1.00  0.00     0.027 A 
ATOM     10  C   UNL A   1      34.155  25.817  23.539  1.00  0.00     0.015 A 
ATOM     11  C   UNL A   1      33.035  27.574  24.732  1.00  0.00     0.029 A 
ATOM     12  C   UNL A   1      33.578  27.084  23.532  1.00  0.00     0.056 A 
BRANCH   8  13
ATOM     13  N   UNL A   1      33.065  24.389  26.705  1.00  0.00    -0.320 N 
ATOM     14  C   UNL A   1      31.941  23.695  27.055  1.00  0.00     0.285 C 
ATOM     15  O   UNL A   1      32.101  22.915  28.009  1.00  0.00    -0.267 OA
ATOM     16  H   UNL A   1      33.869  24.095  27.189  1.00  0.00     0.170 HD
BRANCH  14  17
ATOM     17  C   UNL A   1      30.606  23.680  26.244  1.00  0.00     0.171 C 
ATOM     18  C   UNL A   1      29.630  22.713  26.942  1.00  0.00     0.090 C 
BRANCH  17  19
ATOM     19  C   UNL A   1      30.893  23.286  24.778  1.00  0.00     0.075 C 
ATOM     20  C   UNL A   1      30.504  24.335  23.742  1.00  0.00     0.011 C 
ENDBRANCH  17  19
BRANCH  17  21
ATOM     21  N   UNL A   1      29.940  24.989  26.245  1.00  0.00    -0.345 N 
ATOM     22  H   UNL A   1      28.999  24.893  26.627  1.00  0.00     0.345 HD
ATOM     23  H   UNL A   1      29.884  25.344  25.289  1.00  0.00     0.345 HD
ATOM     24  H   UNL A   1      30.474  25.642  26.818  1.00  0.00     0.345 HD
ENDBRANCH  17  21
ENDBRANCH  14  17
ENDBRANCH   8  13
BRANCH  12  25
ATOM     25  C   UNL A   1      33.551  27.893  22.257  1.00  0.00     0.416 C 
ATOM     26  F   UNL A   1      32.580  28.843  22.257  1.00  0.00    -0.166 F 
ATOM     27  F   UNL A   1      34.724  28.558  22.047  1.00  0.00    -0.166 F 
ATOM     28  F   UNL A   1      33.352  27.141  21.140  1.00  0.00    -0.166 F 
ENDBRANCH  12  25
ENDBRANCH   4   7
ENDBRANCH   2   3
ENDBRANCH   1   2
BRANCH   1  29
ATOM     29  C   UNL A   1      33.262  31.428  27.809  1.00  0.00     0.023 C 
BRANCH  29  30
ATOM     30  C   UNL A   1      33.179  32.747  27.034  1.00  0.00     0.116 C 
BRANCH  30  31
ATOM     31  N   UNL A   1      32.701  33.873  27.823  1.00  0.00    -0.352 N 
ATOM     32  C   UNL A   1      33.242  34.480  28.936  1.00  0.00     0.251 C 
ATOM     33  H   UNL A   1      31.853  34.266  27.509  1.00  0.00     0.163 HD
ATOM     34  O   UNL A   1      32.631  35.360  29.524  1.00  0.00    -0.269 OA
BRANCH  32  35
ATOM     35  C   UNL A   1      34.558  34.040  29.451  1.00  0.00     0.039 A 
ATOM     36  C   UNL A   1      34.612  33.341  30.660  1.00  0.00     0.014 A 
ATOM     37  C   UNL A   1      35.734  34.304  28.744  1.00  0.00     0.014 A 
ATOM     38  C   UNL A   1      35.828  32.813  31.102  1.00  0.00     0.010 A 
ATOM     39  C   UNL A   1      36.930  33.715  29.146  1.00  0.00     0.010 A 
ATOM     40  C   UNL A   1      36.987  32.947  30.320  1.00  0.00    -0.014 A 
BRANCH  40  41
ATOM     41  C   UNL A   1      38.251  32.257  30.691  1.00  0.00     0.031 A 
ATOM     42  C   UNL A   1      39.201  32.875  31.680  1.00  0.00     0.074 A 
ATOM     43  C   UNL A   1      38.583  31.103  30.078  1.00  0.00     0.049 A 
ATOM     44  N   UNL A   1      40.372  32.444  32.078  1.00  0.00    -0.248 NA
ATOM     45  C   UNL A   1      38.794  34.154  32.282  1.00  0.00     0.031 C 
ATOM     46  C   UNL A   1      37.778  30.417  29.064  1.00  0.00     0.029 A 
ATOM     47  N   UNL A   1      39.692  30.304  30.214  1.00  0.00    -0.354 N 
ATOM     48  C   UNL A   1      40.847  33.405  32.961  1.00  0.00     0.074 A 
ATOM     49  C   UNL A   1      39.861  34.464  33.003  1.00  0.00     0.031 C 
ATOM     50  C   UNL A   1      38.404  29.288  28.695  1.00  0.00     0.029 A 
ATOM     51  C   UNL A   1      39.670  29.189  29.411  1.00  0.00     0.049 A 
ATOM     52  H   UNL A   1      40.433  30.510  30.829  1.00  0.00     0.167 HD
ATOM     53  C   UNL A   1      41.991  33.401  33.688  1.00  0.00     0.031 A 
ATOM     54  C   UNL A   1      40.569  28.196  29.265  1.00  0.00     0.031 A 
ATOM     55  C   UNL A   1      42.971  32.350  33.657  1.00  0.00     0.049 A 
ATOM     56  C   UNL A   1      41.834  28.220  30.076  1.00  0.00     0.074 A 
ATOM     57  C   UNL A   1      44.133  32.231  34.400  1.00  0.00     0.029 A 
ATOM     58  N   UNL A   1      42.906  31.233  32.839  1.00  0.00    -0.354 N 
ATOM     59  N   UNL A   1      42.234  29.102  30.959  1.00  0.00    -0.248 NA
ATOM     60  C   UNL A   1      42.767  27.101  29.875  1.00  0.00     0.031 C 
ATOM     61  C   UNL A   1      44.795  31.066  33.998  1.00  0.00     0.029 A 
ATOM     62  C   UNL A   1      44.017  30.432  33.043  1.00  0.00     0.049 A 
ATOM     63  H   UNL A   1      42.177  31.039  32.205  1.00  0.00     0.167 HD
ATOM     64  C   UNL A   1      43.449  28.632  31.440  1.00  0.00     0.074 A 
ATOM     65  C   UNL A   1      43.713  27.380  30.762  1.00  0.00     0.031 C 
ATOM     66  C   UNL A   1      44.270  29.189  32.363  1.00  0.00     0.031 A 
BRANCH  53  67
ATOM     67  C   UNL A   1      42.244  34.585  34.581  1.00  0.00    -0.014 A 
ATOM     68  C   UNL A   1      41.784  34.604  35.907  1.00  0.00     0.009 A 
ATOM     69  C   UNL A   1      42.980  35.680  34.102  1.00  0.00     0.009 A 
ATOM     70  C   UNL A   1      42.020  35.712  36.722  1.00  0.00     0.001 A 
ATOM     71  C   UNL A   1      43.241  36.775  34.929  1.00  0.00     0.001 A 
ATOM     72  C   UNL A   1      42.752  36.794  36.235  1.00  0.00     0.000 A 
ENDBRANCH  53  67
BRANCH  54  73
ATOM     73  C   UNL A   1      40.296  27.077  28.326  1.00  0.00    -0.014 A 
ATOM     74  C   UNL A   1      39.548  25.966  28.745  1.00  0.00     0.009 A 
ATOM     75  C   UNL A   1      40.790  27.106  27.013  1.00  0.00     0.009 A 
ATOM     76  C   UNL A   1      39.324  24.894  27.877  1.00  0.00     0.001 A 
ATOM     77  C   UNL A   1      40.541  26.047  26.138  1.00  0.00     0.001 A 
ATOM     78  C   UNL A   1      39.817  24.938  26.573  1.00  0.00     0.000 A 
ENDBRANCH  54  73
BRANCH  66  79
ATOM     79  C   UNL A   1      45.516  28.429  32.720  1.00  0.00    -0.014 A 
ATOM     80  C   UNL A   1      45.516  27.466  33.740  1.00  0.00     0.009 A 
ATOM     81  C   UNL A   1      46.699  28.657  31.999  1.00  0.00     0.009 A 
ATOM     82  C   UNL A   1      46.686  26.769  34.052  1.00  0.00     0.001 A 
ATOM     83  C   UNL A   1      47.858  27.940  32.293  1.00  0.00     0.001 A 
ATOM     84  C   UNL A   1      47.853  27.003  33.325  1.00  0.00     0.000 A 
ENDBRANCH  66  79
ENDBRANCH  40  41
ENDBRANCH  32  35
ENDBRANCH  30  31
ENDBRANCH  29  30
ENDBRANCH   1  29
TORSDOF 16
ENDMDL
MODEL 2
REMARK VINA RESULT:     -10.4      2.155      6.362
REMARK SMILES CC[C@](C)([NH3+])C(=O)Nc1ccc(C(F)(F)F)cc1C(=O)NCCCCNC(=O)c1ccc(-c2c3nc(c(-c4ccccc4)c4ccc([nH]4)c(-c4ccccc4)c4nc(c(-c5ccccc5)c5ccc2[nH]5)C=C4)C=C3)cc1
REMARK SMILES IDX 23 1 22 2 21 3 19 4 20 5 18 7 9 8 10 9 11 10 17 11 12 12
REMARK SMILES IDX 8 13 6 14 7 15 3 17 4 18 2 19 1 20 5 21 13 25 14 26 15 27
REMARK SMILES IDX 16 28 24 29 25 30 26 31 27 32 28 34 29 35 30 36 76 37 31 38
REMARK SMILES IDX 75 39 32 40 33 41 34 42 69 43 35 44 74 45 68 46 70 47 36 48
REMARK SMILES IDX 73 49 67 50 66 51 37 53 59 54 44 55 58 56 45 57 48 58 57 59
REMARK SMILES IDX 71 60 46 61 47 62 56 64 72 65 49 66 38 67 39 68 43 69 40 70
REMARK SMILES IDX 42 71 41 72 60 73 61 74 65 75 62 76 64 77 63 78 50 79 51 80
REMARK SMILES IDX 55 81 52 82 54 83 53 84
REMARK H PARENT 21 6 8 16 5 22 5 23 5 24 26 33 70 52 48 63
REMARK Flexibility Score: inf
ROOT
ATOM      1  C   UNL A   1      31.842  30.616  26.118  1.00  0.00     0.023 C 
ENDROOT
BRANCH   1   2
ATOM      2  C   UNL A   1      32.414  29.480  26.957  1.00  0.00     0.116 C 
BRANCH   2   3
ATOM      3  N   UNL A   1      33.113  28.461  26.209  1.00  0.00    -0.352 N 
ATOM      4  C   UNL A   1      32.670  27.599  25.230  1.00  0.00     0.253 C 
ATOM      5  O   UNL A   1      33.503  26.810  24.769  1.00  0.00    -0.269 OA
ATOM      6  H   UNL A   1      34.066  28.366  26.437  1.00  0.00     0.163 HD
BRANCH   4   7
ATOM      7  C   UNL A   1      31.244  27.477  24.761  1.00  0.00     0.063 A 
ATOM      8  C   UNL A   1      30.294  26.487  25.068  1.00  0.00     0.054 A 
ATOM      9  C   UNL A   1      29.138  26.379  24.270  1.00  0.00     0.027 A 
ATOM     10  C   UNL A   1      28.790  27.374  23.359  1.00  0.00     0.015 A 
ATOM     11  C   UNL A   1      30.845  28.505  23.866  1.00  0.00     0.029 A 
ATOM     12  C   UNL A   1      29.602  28.495  23.211  1.00  0.00     0.056 A 
BRANCH   8  13
ATOM     13  N   UNL A   1      30.326  25.547  26.106  1.00  0.00    -0.320 N 
ATOM     14  C   UNL A   1      30.688  24.230  26.175  1.00  0.00     0.285 C 
ATOM     15  O   UNL A   1      30.448  23.694  27.270  1.00  0.00    -0.267 OA
ATOM     16  H   UNL A   1      30.025  25.912  26.968  1.00  0.00     0.170 HD
BRANCH  14  17
ATOM     17  C   UNL A   1      31.516  23.468  25.092  1.00  0.00     0.171 C 
ATOM     18  C   UNL A   1      30.825  23.668  23.730  1.00  0.00     0.090 C 
BRANCH  17  19
ATOM     19  C   UNL A   1      31.642  21.979  25.488  1.00  0.00     0.075 C 
ATOM     20  C   UNL A   1      33.042  21.393  25.347  1.00  0.00     0.011 C 
ENDBRANCH  17  19
BRANCH  17  21
ATOM     21  N   UNL A   1      32.870  24.017  24.939  1.00  0.00    -0.345 N 
ATOM     22  H   UNL A   1      32.831  25.035  24.981  1.00  0.00     0.345 HD
ATOM     23  H   UNL A   1      33.254  23.729  24.038  1.00  0.00     0.345 HD
ATOM     24  H   UNL A   1      33.466  23.668  25.689  1.00  0.00     0.345 HD
ENDBRANCH  17  21
ENDBRANCH  14  17
ENDBRANCH   8  13
BRANCH  12  25
ATOM     25  C   UNL A   1      29.138  29.655  22.363  1.00  0.00     0.416 C 
ATOM     26  F   UNL A   1      27.972  29.399  21.714  1.00  0.00    -0.166 F 
ATOM     27  F   UNL A   1      28.911  30.775  23.109  1.00  0.00    -0.166 F 
ATOM     28  F   UNL A   1      30.036  30.026  21.410  1.00  0.00    -0.166 F 
ENDBRANCH  12  25
ENDBRANCH   4   7
ENDBRANCH   2   3
ENDBRANCH   1   2
BRANCH   1  29
ATOM     29  C   UNL A   1      31.542  31.916  26.873  1.00  0.00     0.023 C 
BRANCH  29  30
ATOM     30  C   UNL A   1      32.742  32.764  27.308  1.00  0.00     0.116 C 
BRANCH  30  31
ATOM     31  N   UNL A   1      32.412  34.144  27.630  1.00  0.00    -0.352 N 
ATOM     32  C   UNL A   1      32.979  35.011  28.540  1.00  0.00     0.251 C 
ATOM     33  H   UNL A   1      31.661  34.520  27.114  1.00  0.00     0.163 HD
ATOM     34  O   UNL A   1      32.489  36.112  28.739  1.00  0.00    -0.269 OA
BRANCH  32  35
ATOM     35  C   UNL A   1      34.171  34.594  29.313  1.00  0.00     0.039 A 
ATOM     36  C   UNL A   1      33.998  34.103  30.610  1.00  0.00     0.014 A 
ATOM     37  C   UNL A   1      35.452  34.677  28.762  1.00  0.00     0.014 A 
ATOM     38  C   UNL A   1      35.095  33.593  31.310  1.00  0.00     0.010 A 
ATOM     39  C   UNL A   1      36.531  34.101  29.430  1.00  0.00     0.010 A 
ATOM     40  C   UNL A   1      36.360  33.536  30.704  1.00  0.00    -0.014 A 
BRANCH  40  41
ATOM     41  C   UNL A   1      37.503  32.853  31.367  1.00  0.00     0.031 A 
ATOM     42  C   UNL A   1      38.156  31.656  30.732  1.00  0.00     0.074 A 
ATOM     43  C   UNL A   1      37.908  33.266  32.585  1.00  0.00     0.049 A 
ATOM     44  N   UNL A   1      39.123  30.903  31.193  1.00  0.00    -0.248 NA
ATOM     45  C   UNL A   1      37.639  31.236  29.420  1.00  0.00     0.031 C 
ATOM     46  C   UNL A   1      37.332  34.383  33.339  1.00  0.00     0.029 A 
ATOM     47  N   UNL A   1      38.897  32.788  33.409  1.00  0.00    -0.354 N 
ATOM     48  C   UNL A   1      39.318  29.914  30.237  1.00  0.00     0.074 A 
ATOM     49  C   UNL A   1      38.337  30.132  29.196  1.00  0.00     0.031 C 
ATOM     50  C   UNL A   1      37.997  34.523  34.496  1.00  0.00     0.029 A 
ATOM     51  C   UNL A   1      39.018  33.484  34.588  1.00  0.00     0.049 A 
ATOM     52  H   UNL A   1      39.467  32.019  33.178  1.00  0.00     0.167 HD
ATOM     53  C   UNL A   1      40.242  28.922  30.216  1.00  0.00     0.031 A 
ATOM     54  C   UNL A   1      39.854  33.307  35.629  1.00  0.00     0.031 A 
ATOM     55  C   UNL A   1      41.225  28.703  31.243  1.00  0.00     0.049 A 
ATOM     56  C   UNL A   1      40.863  32.194  35.585  1.00  0.00     0.074 A 
ATOM     57  C   UNL A   1      42.237  27.760  31.281  1.00  0.00     0.029 A 
ATOM     58  N   UNL A   1      41.319  29.437  32.415  1.00  0.00    -0.354 N 
ATOM     59  N   UNL A   1      41.079  31.311  34.642  1.00  0.00    -0.248 NA
ATOM     60  C   UNL A   1      41.751  32.063  36.750  1.00  0.00     0.031 C 
ATOM     61  C   UNL A   1      42.915  27.893  32.498  1.00  0.00     0.029 A 
ATOM     62  C   UNL A   1      42.358  28.954  33.193  1.00  0.00     0.049 A 
ATOM     63  H   UNL A   1      40.733  30.190  32.659  1.00  0.00     0.167 HD
ATOM     64  C   UNL A   1      42.145  30.538  35.084  1.00  0.00     0.074 A 
ATOM     65  C   UNL A   1      42.540  31.066  36.373  1.00  0.00     0.031 C 
ATOM     66  C   UNL A   1      42.742  29.486  34.473  1.00  0.00     0.031 A 
BRANCH  53  67
ATOM     67  C   UNL A   1      40.226  27.991  29.035  1.00  0.00    -0.014 A 
ATOM     68  C   UNL A   1      40.945  28.289  27.867  1.00  0.00     0.009 A 
ATOM     69  C   UNL A   1      39.511  26.784  29.103  1.00  0.00     0.009 A 
ATOM     70  C   UNL A   1      40.915  27.419  26.776  1.00  0.00     0.001 A 
ATOM     71  C   UNL A   1      39.508  25.901  28.022  1.00  0.00     0.001 A 
ATOM     72  C   UNL A   1      40.201  26.224  26.855  1.00  0.00     0.000 A 
ENDBRANCH  53  67
BRANCH  54  73
ATOM     73  C   UNL A   1      39.790  34.222  36.799  1.00  0.00    -0.014 A 
ATOM     74  C   UNL A   1      40.515  35.423  36.800  1.00  0.00     0.009 A 
ATOM     75  C   UNL A   1      39.017  33.895  37.924  1.00  0.00     0.009 A 
ATOM     76  C   UNL A   1      40.489  36.266  37.914  1.00  0.00     0.001 A 
ATOM     77  C   UNL A   1      38.970  34.753  39.025  1.00  0.00     0.001 A 
ATOM     78  C   UNL A   1      39.713  35.932  39.023  1.00  0.00     0.000 A 
ENDBRANCH  54  73
BRANCH  66  79
ATOM     79  C   UNL A   1      43.912  28.858  35.177  1.00  0.00    -0.014 A 
ATOM     80  C   UNL A   1      43.741  27.776  36.054  1.00  0.00     0.009 A 
ATOM     81  C   UNL A   1      45.209  29.335  34.929  1.00  0.00     0.009 A 
ATOM     82  C   UNL A   1      44.844  27.206  36.693  1.00  0.00     0.001 A 
ATOM     83  C   UNL A   1      46.312  28.746  35.548  1.00  0.00     0.001 A 
ATOM     84  C   UNL A   1      46.127  27.688  36.436  1.00  0.00     0.000 A 
ENDBRANCH  66  79
ENDBRANCH  40  41
ENDBRANCH  32  35
ENDBRANCH  30  31
ENDBRANCH  29  30
ENDBRANCH   1  29
TORSDOF 16
ENDMDL
MODEL 3
REMARK VINA RESULT:     -10.3      2.209      2.853
REMARK SMILES CC[C@](C)([NH3+])C(=O)Nc1ccc(C(F)(F)F)cc1C(=O)NCCCCNC(=O)c1ccc(-c2c3nc(c(-c4ccccc4)c4ccc([nH]4)c(-c4ccccc4)c4nc(c(-c5ccccc5)c5ccc2[nH]5)C=C4)C=C3)cc1
REMARK SMILES IDX 23 1 22 2 21 3 19 4 20 5 18 7 9 8 10 9 11 10 17 11 12 12
REMARK SMILES IDX 8 13 6 14 7 15 3 17 4 18 2 19 1 20 5 21 13 25 14 26 15 27
REMARK SMILES IDX 16 28 24 29 25 30 26 31 27 32 28 34 29 35 30 36 76 37 31 38
REMARK SMILES IDX 75 39 32 40 33 41 34 42 69 43 35 44 74 45 68 46 70 47 36 48
REMARK SMILES IDX 73 49 67 50 66 51 37 53 59 54 44 55 58 56 45 57 48 58 57 59
REMARK SMILES IDX 71 60 46 61 47 62 56 64 72 65 49 66 38 67 39 68 43 69 40 70
REMARK SMILES IDX 42 71 41 72 60 73 61 74 65 75 62 76 64 77 63 78 50 79 51 80
REMARK SMILES IDX 55 81 52 82 54 83 53 84
REMARK H PARENT 21 6 8 16 5 22 5 23 5 24 26 33 70 52 48 63
REMARK Flexibility Score: inf
ROOT
ATOM      1  C   UNL A   1      31.617  30.788  25.922  1.00  0.00     0.023 C 
ENDROOT
BRANCH   1   2
ATOM      2  C   UNL A   1      32.896  29.970  26.060  1.00  0.00     0.116 C 
BRANCH   2   3
ATOM      3  N   UNL A   1      33.413  29.433  24.823  1.00  0.00    -0.352 N 
ATOM      4  C   UNL A   1      32.770  28.831  23.763  1.00  0.00     0.253 C 
ATOM      5  O   UNL A   1      33.483  28.452  22.827  1.00  0.00    -0.269 OA
ATOM      6  H   UNL A   1      34.388  29.510  24.718  1.00  0.00     0.163 HD
BRANCH   4   7
ATOM      7  C   UNL A   1      31.299  28.512  23.707  1.00  0.00     0.063 A 
ATOM      8  C   UNL A   1      30.613  27.411  24.247  1.00  0.00     0.054 A 
ATOM      9  C   UNL A   1      29.305  27.136  23.801  1.00  0.00     0.027 A 
ATOM     10  C   UNL A   1      28.588  28.059  23.043  1.00  0.00     0.015 A 
ATOM     11  C   UNL A   1      30.534  29.463  22.980  1.00  0.00     0.029 A 
ATOM     12  C   UNL A   1      29.170  29.276  22.698  1.00  0.00     0.056 A 
BRANCH   8  13
ATOM     13  N   UNL A   1      31.057  26.502  25.215  1.00  0.00    -0.320 N 
ATOM     14  C   UNL A   1      31.337  25.163  25.196  1.00  0.00     0.285 C 
ATOM     15  O   UNL A   1      31.588  24.680  26.312  1.00  0.00    -0.267 OA
ATOM     16  H   UNL A   1      31.199  26.915  26.096  1.00  0.00     0.170 HD
BRANCH  14  17
ATOM     17  C   UNL A   1      31.542  24.307  23.905  1.00  0.00     0.171 C 
ATOM     18  C   UNL A   1      31.996  22.898  24.330  1.00  0.00     0.090 C 
BRANCH  17  19
ATOM     19  C   UNL A   1      32.557  25.008  22.974  1.00  0.00     0.075 C 
ATOM     20  C   UNL A   1      33.959  25.164  23.553  1.00  0.00     0.011 C 
ENDBRANCH  17  19
BRANCH  17  21
ATOM     21  N   UNL A   1      30.291  24.117  23.159  1.00  0.00    -0.345 N 
ATOM     22  H   UNL A   1      30.497  24.032  22.164  1.00  0.00     0.345 HD
ATOM     23  H   UNL A   1      29.678  24.919  23.312  1.00  0.00     0.345 HD
ATOM     24  H   UNL A   1      29.827  23.269  23.485  1.00  0.00     0.345 HD
ENDBRANCH  17  21
ENDBRANCH  14  17
ENDBRANCH   8  13
BRANCH  12  25
ATOM     25  C   UNL A   1      28.339  30.349  22.036  1.00  0.00     0.416 C 
ATOM     26  F   UNL A   1      29.068  31.445  21.698  1.00  0.00    -0.166 F 
ATOM     27  F   UNL A   1      27.764  29.911  20.879  1.00  0.00    -0.166 F 
ATOM     28  F   UNL A   1      27.312  30.796  22.809  1.00  0.00    -0.166 F 
ENDBRANCH  12  25
ENDBRANCH   4   7
ENDBRANCH   2   3
ENDBRANCH   1   2
BRANCH   1  29
ATOM     29  C   UNL A   1      31.442  31.926  26.935  1.00  0.00     0.023 C 
BRANCH  29  30
ATOM     30  C   UNL A   1      32.682  32.761  27.268  1.00  0.00     0.116 C 
BRANCH  30  31
ATOM     31  N   UNL A   1      32.390  34.134  27.653  1.00  0.00    -0.352 N 
ATOM     32  C   UNL A   1      33.010  34.958  28.569  1.00  0.00     0.251 C 
ATOM     33  H   UNL A   1      31.627  34.541  27.183  1.00  0.00     0.163 HD
ATOM     34  O   UNL A   1      32.549  36.059  28.828  1.00  0.00    -0.269 OA
BRANCH  32  35
ATOM     35  C   UNL A   1      34.225  34.492  29.277  1.00  0.00     0.039 A 
ATOM     36  C   UNL A   1      34.092  33.927  30.548  1.00  0.00     0.014 A 
ATOM     37  C   UNL A   1      35.487  34.603  28.690  1.00  0.00     0.014 A 
ATOM     38  C   UNL A   1      35.208  33.374  31.182  1.00  0.00     0.010 A 
ATOM     39  C   UNL A   1      36.584  33.985  29.287  1.00  0.00     0.010 A 
ATOM     40  C   UNL A   1      36.453  33.348  30.531  1.00  0.00    -0.014 A 
BRANCH  40  41
ATOM     41  C   UNL A   1      37.612  32.623  31.116  1.00  0.00     0.031 A 
ATOM     42  C   UNL A   1      38.266  33.112  32.379  1.00  0.00     0.074 A 
ATOM     43  C   UNL A   1      38.129  31.561  30.466  1.00  0.00     0.049 A 
ATOM     44  N   UNL A   1      39.319  32.640  32.999  1.00  0.00    -0.248 NA
ATOM     45  C   UNL A   1      37.675  34.299  33.016  1.00  0.00     0.031 C 
ATOM     46  C   UNL A   1      37.624  31.008  29.206  1.00  0.00     0.029 A 
ATOM     47  N   UNL A   1      39.200  30.757  30.773  1.00  0.00    -0.354 N 
ATOM     48  C   UNL A   1      39.525  33.481  34.086  1.00  0.00     0.074 A 
ATOM     49  C   UNL A   1      38.519  34.519  34.013  1.00  0.00     0.031 C 
ATOM     50  C   UNL A   1      38.365  29.941  28.866  1.00  0.00     0.029 A 
ATOM     51  C   UNL A   1      39.419  29.757  29.857  1.00  0.00     0.049 A 
ATOM     52  H   UNL A   1      39.759  30.886  31.573  1.00  0.00     0.167 HD
ATOM     53  C   UNL A   1      40.454  33.389  35.068  1.00  0.00     0.031 A 
ATOM     54  C   UNL A   1      40.363  28.797  29.816  1.00  0.00     0.031 A 
ATOM     55  C   UNL A   1      41.451  32.356  35.151  1.00  0.00     0.049 A 
ATOM     56  C   UNL A   1      41.389  28.722  30.912  1.00  0.00     0.074 A 
ATOM     57  C   UNL A   1      42.398  32.148  36.139  1.00  0.00     0.029 A 
ATOM     58  N   UNL A   1      41.632  31.355  34.209  1.00  0.00    -0.354 N 
ATOM     59  N   UNL A   1      41.525  29.484  31.969  1.00  0.00    -0.248 NA
ATOM     60  C   UNL A   1      42.384  27.645  30.812  1.00  0.00     0.031 C 
ATOM     61  C   UNL A   1      43.182  31.050  35.772  1.00  0.00     0.029 A 
ATOM     62  C   UNL A   1      42.689  30.541  34.581  1.00  0.00     0.049 A 
ATOM     63  H   UNL A   1      41.089  31.241  33.395  1.00  0.00     0.167 HD
ATOM     64  C   UNL A   1      42.601  28.962  32.675  1.00  0.00     0.074 A 
ATOM     65  C   UNL A   1      43.072  27.812  31.933  1.00  0.00     0.031 C 
ATOM     66  C   UNL A   1      43.148  29.399  33.836  1.00  0.00     0.031 A 
BRANCH  53  67
ATOM     67  C   UNL A   1      40.434  34.447  36.136  1.00  0.00    -0.014 A 
ATOM     68  C   UNL A   1      39.638  34.304  37.284  1.00  0.00     0.009 A 
ATOM     69  C   UNL A   1      41.246  35.586  36.011  1.00  0.00     0.009 A 
ATOM     70  C   UNL A   1      39.625  35.298  38.265  1.00  0.00     0.001 A 
ATOM     71  C   UNL A   1      41.253  36.564  37.007  1.00  0.00     0.001 A 
ATOM     72  C   UNL A   1      40.435  36.424  38.128  1.00  0.00     0.000 A 
ENDBRANCH  53  67
BRANCH  54  73
ATOM     73  C   UNL A   1      40.373  27.809  28.706  1.00  0.00    -0.014 A 
ATOM     74  C   UNL A   1      41.052  28.091  27.511  1.00  0.00     0.009 A 
ATOM     75  C   UNL A   1      39.695  26.585  28.828  1.00  0.00     0.009 A 
ATOM     76  C   UNL A   1      41.030  27.181  26.451  1.00  0.00     0.001 A 
ATOM     77  C   UNL A   1      39.698  25.666  27.777  1.00  0.00     0.001 A 
ATOM     78  C   UNL A   1      40.357  25.968  26.587  1.00  0.00     0.000 A 
ENDBRANCH  54  73
BRANCH  66  79
ATOM     79  C   UNL A   1      44.296  28.607  34.394  1.00  0.00    -0.014 A 
ATOM     80  C   UNL A   1      45.626  28.927  34.081  1.00  0.00     0.009 A 
ATOM     81  C   UNL A   1      44.042  27.545  35.277  1.00  0.00     0.009 A 
ATOM     82  C   UNL A   1      46.677  28.179  34.616  1.00  0.00     0.001 A 
ATOM     83  C   UNL A   1      45.095  26.817  35.832  1.00  0.00     0.001 A 
ATOM     84  C   UNL A   1      46.410  27.129  35.493  1.00  0.00     0.000 A 
ENDBRANCH  66  79
ENDBRANCH  40  41
ENDBRANCH  32  35
ENDBRANCH  30  31
ENDBRANCH  29  30
ENDBRANCH   1  29
TORSDOF 16
ENDMDL
