MODEL 1
REMARK VINA RESULT:     -10.1      0.000      0.000
REMARK SMILES C=C(C)CN(CC)C(=O)C[N@H+]1CC[C@@H](C(=O)NCCCCNC(=O)c2ccc(-c3c4nc(c(-c5ccccc5)c5ccc([nH]5)c(-c5ccccc5)c5nc(c(-c6ccccc6)c6ccc3[nH]6)C=C5)C=C4)cc2)[C@@H]1C
REMARK SMILES IDX 18 1 17 2 15 3 16 4 14 6 11 7 12 8 73 9 13 11 74 12 10 13
REMARK SMILES IDX 8 14 9 15 5 16 4 17 2 18 1 19 3 20 6 21 7 22 19 23 20 24
REMARK SMILES IDX 21 25 22 26 23 27 24 29 25 30 26 31 72 32 27 33 71 34 28 35
REMARK SMILES IDX 29 36 30 37 65 38 31 39 70 40 64 41 66 42 32 43 69 44 63 45
REMARK SMILES IDX 62 46 33 48 55 49 40 50 54 51 41 52 44 53 53 54 67 55 42 56
REMARK SMILES IDX 43 57 52 59 68 60 45 61 34 62 35 63 39 64 36 65 38 66 37 67
REMARK SMILES IDX 56 68 57 69 61 70 58 71 60 72 59 73 46 74 47 75 51 76 48 77
REMARK SMILES IDX 50 78 49 79
REMARK H PARENT 17 5 11 10 22 28 66 47 44 58
REMARK Flexibility Score: inf
ROOT
ATOM      1  C   UNL A   1      35.719  20.546  25.022  1.00  0.00     0.116 C 
ENDROOT
BRANCH   1   2
ATOM      2  N   UNL A   1      35.168  21.112  26.230  1.00  0.00    -0.356 N 
ATOM      3  C   UNL A   1      34.362  22.187  26.431  1.00  0.00     0.229 C 
ATOM      4  O   UNL A   1      34.007  22.389  27.597  1.00  0.00    -0.275 OA
ATOM      5  H   UNL A   1      35.419  20.634  27.053  1.00  0.00     0.163 HD
BRANCH   3   6
ATOM      6  C   UNL A   1      33.866  23.116  25.325  1.00  0.00     0.142 C 
ATOM      7  N   UNL A   1      32.711  25.278  25.174  1.00  0.00    -0.324 N 
ATOM      8  C   UNL A   1      33.907  25.259  24.326  1.00  0.00     0.263 C 
ATOM      9  C   UNL A   1      32.538  23.849  25.584  1.00  0.00     0.194 C 
ATOM     10  H   UNL A   1      31.917  25.663  24.660  1.00  0.00     0.348 HD
ATOM     11  C   UNL A   1      34.835  24.192  24.880  1.00  0.00     0.081 C 
ATOM     12  C   UNL A   1      31.412  23.243  24.739  1.00  0.00     0.076 C 
BRANCH   7  13
ATOM     13  C   UNL A   1      32.811  26.161  26.357  1.00  0.00     0.364 C 
BRANCH  13  14
ATOM     14  C   UNL A   1      31.893  27.382  26.422  1.00  0.00     0.278 C 
ATOM     15  O   UNL A   1      31.068  27.417  27.348  1.00  0.00    -0.268 OA
BRANCH  14  16
ATOM     16  N   UNL A   1      32.099  28.499  25.601  1.00  0.00    -0.334 N 
BRANCH  16  17
ATOM     17  C   UNL A   1      31.022  28.817  24.658  1.00  0.00     0.149 C 
BRANCH  17  18
ATOM     18  C   UNL A   1      30.796  27.729  23.630  1.00  0.00    -0.061 C 
ATOM     19  C   UNL A   1      31.599  27.486  22.579  1.00  0.00     0.009 C 
ATOM     20  C   UNL A   1      29.619  26.840  23.929  1.00  0.00     0.041 C 
ENDBRANCH  17  18
ENDBRANCH  16  17
BRANCH  16  21
ATOM     21  C   UNL A   1      33.285  29.358  25.526  1.00  0.00     0.116 C 
ATOM     22  C   UNL A   1      34.307  29.206  26.644  1.00  0.00     0.027 C 
ENDBRANCH  16  21
ENDBRANCH  14  16
ENDBRANCH  13  14
ENDBRANCH   7  13
ENDBRANCH   3   6
ENDBRANCH   1   2
BRANCH   1  23
ATOM     23  C   UNL A   1      37.191  20.901  24.819  1.00  0.00     0.023 C 
BRANCH  23  24
ATOM     24  C   UNL A   1      38.142  19.714  24.930  1.00  0.00     0.023 C 
BRANCH  24  25
ATOM     25  C   UNL A   1      39.350  19.957  25.824  1.00  0.00     0.116 C 
BRANCH  25  26
ATOM     26  N   UNL A   1      40.360  18.912  25.750  1.00  0.00    -0.352 N 
ATOM     27  C   UNL A   1      41.719  19.030  25.951  1.00  0.00     0.251 C 
ATOM     28  H   UNL A   1      40.032  18.010  25.531  1.00  0.00     0.163 HD
ATOM     29  O   UNL A   1      42.463  18.079  25.779  1.00  0.00    -0.269 OA
BRANCH  27  30
ATOM     30  C   UNL A   1      42.266  20.350  26.334  1.00  0.00     0.039 A 
ATOM     31  C   UNL A   1      42.662  21.230  25.326  1.00  0.00     0.014 A 
ATOM     32  C   UNL A   1      42.325  20.736  27.675  1.00  0.00     0.014 A 
ATOM     33  C   UNL A   1      43.055  22.526  25.663  1.00  0.00     0.010 A 
ATOM     34  C   UNL A   1      42.629  22.052  28.000  1.00  0.00     0.010 A 
ATOM     35  C   UNL A   1      43.005  22.960  26.998  1.00  0.00    -0.014 A 
BRANCH  35  36
ATOM     36  C   UNL A   1      43.356  24.354  27.365  1.00  0.00     0.031 A 
ATOM     37  C   UNL A   1      44.788  24.812  27.310  1.00  0.00     0.074 A 
ATOM     38  C   UNL A   1      42.395  25.194  27.799  1.00  0.00     0.049 A 
ATOM     39  N   UNL A   1      45.291  25.983  27.607  1.00  0.00    -0.248 NA
ATOM     40  C   UNL A   1      45.791  23.817  26.896  1.00  0.00     0.031 C 
ATOM     41  C   UNL A   1      40.979  24.856  27.960  1.00  0.00     0.029 A 
ATOM     42  N   UNL A   1      42.467  26.508  28.190  1.00  0.00    -0.354 N 
ATOM     43  C   UNL A   1      46.664  25.857  27.438  1.00  0.00     0.074 A 
ATOM     44  C   UNL A   1      46.922  24.484  27.065  1.00  0.00     0.031 C 
ATOM     45  C   UNL A   1      40.312  25.943  28.382  1.00  0.00     0.029 A 
ATOM     46  C   UNL A   1      41.256  27.042  28.554  1.00  0.00     0.049 A 
ATOM     47  H   UNL A   1      43.309  27.019  28.207  1.00  0.00     0.167 HD
ATOM     48  C   UNL A   1      47.625  26.804  27.557  1.00  0.00     0.031 A 
ATOM     49  C   UNL A   1      40.939  28.281  28.978  1.00  0.00     0.031 A 
ATOM     50  C   UNL A   1      47.367  28.175  27.902  1.00  0.00     0.049 A 
ATOM     51  C   UNL A   1      42.022  29.319  29.081  1.00  0.00     0.074 A 
ATOM     52  C   UNL A   1      48.262  29.229  27.970  1.00  0.00     0.029 A 
ATOM     53  N   UNL A   1      46.123  28.682  28.239  1.00  0.00    -0.354 N 
ATOM     54  N   UNL A   1      43.303  29.207  28.823  1.00  0.00    -0.248 NA
ATOM     55  C   UNL A   1      41.609  30.661  29.517  1.00  0.00     0.031 C 
ATOM     56  C   UNL A   1      47.567  30.364  28.399  1.00  0.00     0.029 A 
ATOM     57  C   UNL A   1      46.230  30.029  28.544  1.00  0.00     0.049 A 
ATOM     58  H   UNL A   1      45.287  28.164  28.260  1.00  0.00     0.167 HD
ATOM     59  C   UNL A   1      43.843  30.468  29.042  1.00  0.00     0.074 A 
ATOM     60  C   UNL A   1      42.748  31.333  29.430  1.00  0.00     0.031 C 
ATOM     61  C   UNL A   1      45.132  30.874  28.932  1.00  0.00     0.031 A 
BRANCH  48  62
ATOM     62  C   UNL A   1      49.048  26.383  27.314  1.00  0.00    -0.014 A 
ATOM     63  C   UNL A   1      49.571  26.297  26.013  1.00  0.00     0.009 A 
ATOM     64  C   UNL A   1      49.888  26.106  28.403  1.00  0.00     0.009 A 
ATOM     65  C   UNL A   1      50.895  25.905  25.807  1.00  0.00     0.001 A 
ATOM     66  C   UNL A   1      51.221  25.744  28.195  1.00  0.00     0.001 A 
ATOM     67  C   UNL A   1      51.720  25.635  26.899  1.00  0.00     0.000 A 
ENDBRANCH  48  62
BRANCH  49  68
ATOM     68  C   UNL A   1      39.532  28.618  29.319  1.00  0.00    -0.014 A 
ATOM     69  C   UNL A   1      38.664  29.133  28.344  1.00  0.00     0.009 A 
ATOM     70  C   UNL A   1      39.054  28.445  30.627  1.00  0.00     0.009 A 
ATOM     71  C   UNL A   1      37.359  29.500  28.678  1.00  0.00     0.001 A 
ATOM     72  C   UNL A   1      37.739  28.784  30.952  1.00  0.00     0.001 A 
ATOM     73  C   UNL A   1      36.896  29.322  29.981  1.00  0.00     0.000 A 
ENDBRANCH  49  68
BRANCH  61  74
ATOM     74  C   UNL A   1      45.420  32.323  29.207  1.00  0.00    -0.014 A 
ATOM     75  C   UNL A   1      45.342  33.288  28.190  1.00  0.00     0.009 A 
ATOM     76  C   UNL A   1      45.744  32.731  30.510  1.00  0.00     0.009 A 
ATOM     77  C   UNL A   1      45.621  34.627  28.467  1.00  0.00     0.001 A 
ATOM     78  C   UNL A   1      45.993  34.075  30.790  1.00  0.00     0.001 A 
ATOM     79  C   UNL A   1      45.941  35.020  29.766  1.00  0.00     0.000 A 
ENDBRANCH  61  74
ENDBRANCH  35  36
ENDBRANCH  27  30
ENDBRANCH  25  26
ENDBRANCH  24  25
ENDBRANCH  23  24
ENDBRANCH   1  23
TORSDOF 17
ENDMDL
MODEL 2
REMARK VINA RESULT:     -10.1      1.296      1.951
REMARK SMILES C=C(C)CN(CC)C(=O)C[N@H+]1CC[C@@H](C(=O)NCCCCNC(=O)c2ccc(-c3c4nc(c(-c5ccccc5)c5ccc([nH]5)c(-c5ccccc5)c5nc(c(-c6ccccc6)c6ccc3[nH]6)C=C5)C=C4)cc2)[C@@H]1C
REMARK SMILES IDX 18 1 17 2 15 3 16 4 14 6 11 7 12 8 73 9 13 11 74 12 10 13
REMARK SMILES IDX 8 14 9 15 5 16 4 17 2 18 1 19 3 20 6 21 7 22 19 23 20 24
REMARK SMILES IDX 21 25 22 26 23 27 24 29 25 30 26 31 72 32 27 33 71 34 28 35
REMARK SMILES IDX 29 36 30 37 65 38 31 39 70 40 64 41 66 42 32 43 69 44 63 45
REMARK SMILES IDX 62 46 33 48 55 49 40 50 54 51 41 52 44 53 53 54 67 55 42 56
REMARK SMILES IDX 43 57 52 59 68 60 45 61 34 62 35 63 39 64 36 65 38 66 37 67
REMARK SMILES IDX 56 68 57 69 61 70 58 71 60 72 59 73 46 74 47 75 51 76 48 77
REMARK SMILES IDX 50 78 49 79
REMARK H PARENT 17 5 11 10 22 28 66 47 44 58
REMARK Flexibility Score: inf
ROOT
ATOM      1  C   UNL A   1      37.115  22.192  24.821  1.00  0.00     0.116 C 
ENDROOT
BRANCH   1   2
ATOM      2  N   UNL A   1      36.404  22.655  23.654  1.00  0.00    -0.356 N 
ATOM      3  C   UNL A   1      35.082  22.885  23.439  1.00  0.00     0.229 C 
ATOM      4  O   UNL A   1      34.783  23.342  22.331  1.00  0.00    -0.275 OA
ATOM      5  H   UNL A   1      36.979  22.838  22.876  1.00  0.00     0.163 HD
BRANCH   3   6
ATOM      6  C   UNL A   1      33.983  22.639  24.470  1.00  0.00     0.142 C 
ATOM      7  N   UNL A   1      31.717  23.473  24.918  1.00  0.00    -0.324 N 
ATOM      8  C   UNL A   1      31.749  22.006  24.921  1.00  0.00     0.263 C 
ATOM      9  C   UNL A   1      33.162  23.865  24.908  1.00  0.00     0.194 C 
ATOM     10  H   UNL A   1      31.198  23.818  25.726  1.00  0.00     0.348 HD
ATOM     11  C   UNL A   1      32.961  21.581  24.109  1.00  0.00     0.081 C 
ATOM     12  C   UNL A   1      33.549  24.298  26.326  1.00  0.00     0.076 C 
BRANCH   7  13
ATOM     13  C   UNL A   1      30.997  24.069  23.771  1.00  0.00     0.364 C 
BRANCH  13  14
ATOM     14  C   UNL A   1      31.558  25.352  23.158  1.00  0.00     0.278 C 
ATOM     15  O   UNL A   1      32.325  25.225  22.192  1.00  0.00    -0.268 OA
BRANCH  14  16
ATOM     16  N   UNL A   1      31.082  26.615  23.537  1.00  0.00    -0.334 N 
BRANCH  16  17
ATOM     17  C   UNL A   1      31.057  26.892  24.976  1.00  0.00     0.149 C 
BRANCH  17  18
ATOM     18  C   UNL A   1      32.191  27.789  25.426  1.00  0.00    -0.061 C 
ATOM     19  C   UNL A   1      33.453  27.717  24.970  1.00  0.00     0.009 C 
ATOM     20  C   UNL A   1      31.771  28.872  26.383  1.00  0.00     0.041 C 
ENDBRANCH  17  18
ENDBRANCH  16  17
BRANCH  16  21
ATOM     21  C   UNL A   1      30.549  27.674  22.675  1.00  0.00     0.116 C 
ATOM     22  C   UNL A   1      29.239  28.314  23.113  1.00  0.00     0.027 C 
ENDBRANCH  16  21
ENDBRANCH  14  16
ENDBRANCH  13  14
ENDBRANCH   7  13
ENDBRANCH   3   6
ENDBRANCH   1   2
BRANCH   1  23
ATOM     23  C   UNL A   1      36.798  20.739  25.170  1.00  0.00     0.023 C 
BRANCH  23  24
ATOM     24  C   UNL A   1      37.957  19.773  24.944  1.00  0.00     0.023 C 
BRANCH  24  25
ATOM     25  C   UNL A   1      39.212  20.099  25.743  1.00  0.00     0.116 C 
BRANCH  25  26
ATOM     26  N   UNL A   1      40.185  19.018  25.780  1.00  0.00    -0.352 N 
ATOM     27  C   UNL A   1      41.533  19.099  26.059  1.00  0.00     0.251 C 
ATOM     28  H   UNL A   1      39.839  18.118  25.583  1.00  0.00     0.163 HD
ATOM     29  O   UNL A   1      42.250  18.117  25.978  1.00  0.00    -0.269 OA
BRANCH  27  30
ATOM     30  C   UNL A   1      42.105  20.416  26.414  1.00  0.00     0.039 A 
ATOM     31  C   UNL A   1      42.491  21.279  25.388  1.00  0.00     0.014 A 
ATOM     32  C   UNL A   1      42.194  20.818  27.749  1.00  0.00     0.014 A 
ATOM     33  C   UNL A   1      42.907  22.574  25.701  1.00  0.00     0.010 A 
ATOM     34  C   UNL A   1      42.521  22.135  28.051  1.00  0.00     0.010 A 
ATOM     35  C   UNL A   1      42.889  23.025  27.031  1.00  0.00    -0.014 A 
BRANCH  35  36
ATOM     36  C   UNL A   1      43.264  24.419  27.373  1.00  0.00     0.031 A 
ATOM     37  C   UNL A   1      44.699  24.861  27.275  1.00  0.00     0.074 A 
ATOM     38  C   UNL A   1      42.325  25.273  27.824  1.00  0.00     0.049 A 
ATOM     39  N   UNL A   1      45.223  26.029  27.547  1.00  0.00    -0.248 NA
ATOM     40  C   UNL A   1      45.681  23.850  26.846  1.00  0.00     0.031 C 
ATOM     41  C   UNL A   1      40.909  24.953  28.026  1.00  0.00     0.029 A 
ATOM     42  N   UNL A   1      42.421  26.591  28.199  1.00  0.00    -0.354 N 
ATOM     43  C   UNL A   1      46.589  25.886  27.342  1.00  0.00     0.074 A 
ATOM     44  C   UNL A   1      46.822  24.506  26.978  1.00  0.00     0.031 C 
ATOM     45  C   UNL A   1      40.266  26.051  28.454  1.00  0.00     0.029 A 
ATOM     46  C   UNL A   1      41.226  27.142  28.589  1.00  0.00     0.049 A 
ATOM     47  H   UNL A   1      43.269  27.093  28.188  1.00  0.00     0.167 HD
ATOM     48  C   UNL A   1      47.563  26.823  27.425  1.00  0.00     0.031 A 
ATOM     49  C   UNL A   1      40.933  28.389  29.008  1.00  0.00     0.031 A 
ATOM     50  C   UNL A   1      47.329  28.201  27.762  1.00  0.00     0.049 A 
ATOM     51  C   UNL A   1      42.030  29.416  29.071  1.00  0.00     0.074 A 
ATOM     52  C   UNL A   1      48.237  29.246  27.794  1.00  0.00     0.029 A 
ATOM     53  N   UNL A   1      46.100  28.725  28.127  1.00  0.00    -0.354 N 
ATOM     54  N   UNL A   1      43.302  29.287  28.780  1.00  0.00    -0.248 NA
ATOM     55  C   UNL A   1      41.643  30.766  29.503  1.00  0.00     0.031 C 
ATOM     56  C   UNL A   1      47.566  30.392  28.230  1.00  0.00     0.029 A 
ATOM     57  C   UNL A   1      46.230  30.074  28.414  1.00  0.00     0.049 A 
ATOM     58  H   UNL A   1      45.259  28.216  28.175  1.00  0.00     0.167 HD
ATOM     59  C   UNL A   1      43.862  30.544  28.970  1.00  0.00     0.074 A 
ATOM     60  C   UNL A   1      42.787  31.425  29.378  1.00  0.00     0.031 C 
ATOM     61  C   UNL A   1      45.151  30.935  28.822  1.00  0.00     0.031 A 
BRANCH  48  62
ATOM     62  C   UNL A   1      48.974  26.385  27.148  1.00  0.00    -0.014 A 
ATOM     63  C   UNL A   1      49.492  26.372  25.843  1.00  0.00     0.009 A 
ATOM     64  C   UNL A   1      49.810  26.014  28.213  1.00  0.00     0.009 A 
ATOM     65  C   UNL A   1      50.805  25.962  25.606  1.00  0.00     0.001 A 
ATOM     66  C   UNL A   1      51.132  25.635  27.976  1.00  0.00     0.001 A 
ATOM     67  C   UNL A   1      51.626  25.599  26.674  1.00  0.00     0.000 A 
ENDBRANCH  48  62
BRANCH  49  68
ATOM     68  C   UNL A   1      39.540  28.745  29.383  1.00  0.00    -0.014 A 
ATOM     69  C   UNL A   1      39.093  28.584  30.704  1.00  0.00     0.009 A 
ATOM     70  C   UNL A   1      38.643  29.228  28.419  1.00  0.00     0.009 A 
ATOM     71  C   UNL A   1      37.768  28.867  31.043  1.00  0.00     0.001 A 
ATOM     72  C   UNL A   1      37.327  29.540  28.767  1.00  0.00     0.001 A 
ATOM     73  C   UNL A   1      36.887  29.348  30.076  1.00  0.00     0.000 A 
ENDBRANCH  49  68
BRANCH  61  74
ATOM     74  C   UNL A   1      45.462  32.384  29.074  1.00  0.00    -0.014 A 
ATOM     75  C   UNL A   1      45.368  33.339  28.049  1.00  0.00     0.009 A 
ATOM     76  C   UNL A   1      45.825  32.802  30.363  1.00  0.00     0.009 A 
ATOM     77  C   UNL A   1      45.669  34.678  28.303  1.00  0.00     0.001 A 
ATOM     78  C   UNL A   1      46.095  34.146  30.622  1.00  0.00     0.001 A 
ATOM     79  C   UNL A   1      46.027  35.081  29.589  1.00  0.00     0.000 A 
ENDBRANCH  61  74
ENDBRANCH  35  36
ENDBRANCH  27  30
ENDBRANCH  25  26
ENDBRANCH  24  25
ENDBRANCH  23  24
ENDBRANCH   1  23
TORSDOF 17
ENDMDL
MODEL 3
REMARK VINA RESULT:     -10.0      1.284      6.152
REMARK SMILES C=C(C)CN(CC)C(=O)C[N@H+]1CC[C@@H](C(=O)NCCCCNC(=O)c2ccc(-c3c4nc(c(-c5ccccc5)c5ccc([nH]5)c(-c5ccccc5)c5nc(c(-c6ccccc6)c6ccc3[nH]6)C=C5)C=C4)cc2)[C@@H]1C
REMARK SMILES IDX 18 1 17 2 15 3 16 4 14 6 11 7 12 8 73 9 13 11 74 12 10 13
REMARK SMILES IDX 8 14 9 15 5 16 4 17 2 18 1 19 3 20 6 21 7 22 19 23 20 24
REMARK SMILES IDX 21 25 22 26 23 27 24 29 25 30 26 31 72 32 27 33 71 34 28 35
REMARK SMILES IDX 29 36 30 37 65 38 31 39 70 40 64 41 66 42 32 43 69 44 63 45
REMARK SMILES IDX 62 46 33 48 55 49 40 50 54 51 41 52 44 53 53 54 67 55 42 56
REMARK SMILES IDX 43 57 52 59 68 60 45 61 34 62 35 63 39 64 36 65 38 66 37 67
REMARK SMILES IDX 56 68 57 69 61 70 58 71 60 72 59 73 46 74 47 75 51 76 48 77
REMARK SMILES IDX 50 78 49 79
REMARK H PARENT 17 5 11 10 22 28 66 47 44 58
REMARK Flexibility Score: inf
ROOT
ATOM      1  C   UNL A   1      37.127  21.817  25.632  1.00  0.00     0.116 C 
ENDROOT
BRANCH   1   2
ATOM      2  N   UNL A   1      35.965  21.849  26.487  1.00  0.00    -0.356 N 
ATOM      3  C   UNL A   1      34.767  22.476  26.351  1.00  0.00     0.229 C 
ATOM      4  O   UNL A   1      33.938  22.261  27.241  1.00  0.00    -0.275 OA
ATOM      5  H   UNL A   1      36.056  21.323  27.313  1.00  0.00     0.163 HD
BRANCH   3   6
ATOM      6  C   UNL A   1      34.393  23.384  25.181  1.00  0.00     0.142 C 
ATOM      7  N   UNL A   1      32.397  24.581  24.398  1.00  0.00    -0.324 N 
ATOM      8  C   UNL A   1      33.564  25.469  24.434  1.00  0.00     0.263 C 
ATOM      9  C   UNL A   1      32.977  23.216  24.603  1.00  0.00     0.194 C 
ATOM     10  H   UNL A   1      31.894  24.691  23.517  1.00  0.00     0.348 HD
ATOM     11  C   UNL A   1      34.554  24.871  25.419  1.00  0.00     0.081 C 
ATOM     12  C   UNL A   1      33.027  22.510  23.244  1.00  0.00     0.076 C 
BRANCH   7  13
ATOM     13  C   UNL A   1      31.367  24.878  25.417  1.00  0.00     0.364 C 
BRANCH  13  14
ATOM     14  C   UNL A   1      31.159  26.337  25.825  1.00  0.00     0.278 C 
ATOM     15  O   UNL A   1      31.422  26.635  27.000  1.00  0.00    -0.268 OA
BRANCH  14  16
ATOM     16  N   UNL A   1      30.876  27.330  24.878  1.00  0.00    -0.334 N 
BRANCH  16  17
ATOM     17  C   UNL A   1      31.387  28.672  25.175  1.00  0.00     0.149 C 
BRANCH  17  18
ATOM     18  C   UNL A   1      32.837  28.855  24.778  1.00  0.00    -0.061 C 
ATOM     19  C   UNL A   1      33.274  29.013  23.516  1.00  0.00     0.009 C 
ATOM     20  C   UNL A   1      33.783  28.951  25.944  1.00  0.00     0.041 C 
ENDBRANCH  17  18
ENDBRANCH  16  17
BRANCH  16  21
ATOM     21  C   UNL A   1      30.081  27.209  23.653  1.00  0.00     0.116 C 
ATOM     22  C   UNL A   1      29.479  28.494  23.101  1.00  0.00     0.027 C 
ENDBRANCH  16  21
ENDBRANCH  14  16
ENDBRANCH  13  14
ENDBRANCH   7  13
ENDBRANCH   3   6
ENDBRANCH   1   2
BRANCH   1  23
ATOM     23  C   UNL A   1      37.100  20.659  24.636  1.00  0.00     0.023 C 
BRANCH  23  24
ATOM     24  C   UNL A   1      38.101  19.549  24.938  1.00  0.00     0.023 C 
BRANCH  24  25
ATOM     25  C   UNL A   1      39.138  19.907  25.994  1.00  0.00     0.116 C 
BRANCH  25  26
ATOM     26  N   UNL A   1      40.389  19.176  25.864  1.00  0.00    -0.352 N 
ATOM     27  C   UNL A   1      41.667  19.633  26.105  1.00  0.00     0.251 C 
ATOM     28  H   UNL A   1      40.314  18.240  25.569  1.00  0.00     0.163 HD
ATOM     29  O   UNL A   1      42.637  18.929  25.880  1.00  0.00    -0.269 OA
BRANCH  27  30
ATOM     30  C   UNL A   1      41.844  21.015  26.600  1.00  0.00     0.039 A 
ATOM     31  C   UNL A   1      41.803  21.246  27.976  1.00  0.00     0.014 A 
ATOM     32  C   UNL A   1      42.114  22.061  25.715  1.00  0.00     0.014 A 
ATOM     33  C   UNL A   1      42.101  22.518  28.468  1.00  0.00     0.010 A 
ATOM     34  C   UNL A   1      42.497  23.302  26.210  1.00  0.00     0.010 A 
ATOM     35  C   UNL A   1      42.487  23.546  27.592  1.00  0.00    -0.014 A 
BRANCH  35  36
ATOM     36  C   UNL A   1      42.870  24.885  28.103  1.00  0.00     0.031 A 
ATOM     37  C   UNL A   1      41.817  25.935  28.335  1.00  0.00     0.074 A 
ATOM     38  C   UNL A   1      44.169  25.177  28.308  1.00  0.00     0.049 A 
ATOM     39  N   UNL A   1      41.957  27.164  28.760  1.00  0.00    -0.248 NA
ATOM     40  C   UNL A   1      40.426  25.566  28.019  1.00  0.00     0.031 C 
ATOM     41  C   UNL A   1      45.294  24.270  28.062  1.00  0.00     0.029 A 
ATOM     42  N   UNL A   1      44.765  26.325  28.769  1.00  0.00    -0.354 N 
ATOM     43  C   UNL A   1      40.683  27.717  28.741  1.00  0.00     0.074 A 
ATOM     44  C   UNL A   1      39.791  26.711  28.212  1.00  0.00     0.031 C 
ATOM     45  C   UNL A   1      46.437  24.885  28.406  1.00  0.00     0.029 A 
ATOM     46  C   UNL A   1      46.133  26.236  28.864  1.00  0.00     0.049 A 
ATOM     47  H   UNL A   1      44.260  27.135  29.009  1.00  0.00     0.167 HD
ATOM     48  C   UNL A   1      40.284  28.945  29.151  1.00  0.00     0.031 A 
ATOM     49  C   UNL A   1      47.040  27.141  29.276  1.00  0.00     0.031 A 
ATOM     50  C   UNL A   1      41.167  29.938  29.702  1.00  0.00     0.049 A 
ATOM     51  C   UNL A   1      46.568  28.490  29.746  1.00  0.00     0.074 A 
ATOM     52  C   UNL A   1      40.848  31.181  30.220  1.00  0.00     0.029 A 
ATOM     53  N   UNL A   1      42.541  29.800  29.804  1.00  0.00    -0.354 N 
ATOM     54  N   UNL A   1      45.347  28.963  29.811  1.00  0.00    -0.248 NA
ATOM     55  C   UNL A   1      47.603  29.423  30.215  1.00  0.00     0.031 C 
ATOM     56  C   UNL A   1      42.038  31.817  30.588  1.00  0.00     0.029 A 
ATOM     57  C   UNL A   1      43.090  30.948  30.352  1.00  0.00     0.049 A 
ATOM     58  H   UNL A   1      43.053  29.005  29.529  1.00  0.00     0.167 HD
ATOM     59  C   UNL A   1      45.464  30.237  30.352  1.00  0.00     0.074 A 
ATOM     60  C   UNL A   1      46.871  30.453  30.617  1.00  0.00     0.031 C 
ATOM     61  C   UNL A   1      44.493  31.148  30.605  1.00  0.00     0.031 A 
BRANCH  48  62
ATOM     62  C   UNL A   1      38.826  29.283  29.014  1.00  0.00    -0.014 A 
ATOM     63  C   UNL A   1      38.295  29.746  27.799  1.00  0.00     0.009 A 
ATOM     64  C   UNL A   1      37.963  29.100  30.106  1.00  0.00     0.009 A 
ATOM     65  C   UNL A   1      36.938  30.054  27.692  1.00  0.00     0.001 A 
ATOM     66  C   UNL A   1      36.601  29.380  29.986  1.00  0.00     0.001 A 
ATOM     67  C   UNL A   1      36.091  29.865  28.784  1.00  0.00     0.000 A 
ENDBRANCH  48  62
BRANCH  49  68
ATOM     68  C   UNL A   1      48.487  26.801  29.284  1.00  0.00    -0.014 A 
ATOM     69  C   UNL A   1      49.307  27.142  28.197  1.00  0.00     0.009 A 
ATOM     70  C   UNL A   1      49.053  26.114  30.369  1.00  0.00     0.009 A 
ATOM     71  C   UNL A   1      50.654  26.774  28.182  1.00  0.00     0.001 A 
ATOM     72  C   UNL A   1      50.407  25.774  30.365  1.00  0.00     0.001 A 
ATOM     73  C   UNL A   1      51.204  26.093  29.267  1.00  0.00     0.000 A 
ENDBRANCH  49  68
BRANCH  61  74
ATOM     74  C   UNL A   1      44.918  32.449  31.226  1.00  0.00    -0.014 A 
ATOM     75  C   UNL A   1      45.257  33.558  30.436  1.00  0.00     0.009 A 
ATOM     76  C   UNL A   1      44.952  32.572  32.624  1.00  0.00     0.009 A 
ATOM     77  C   UNL A   1      45.657  34.754  31.034  1.00  0.00     0.001 A 
ATOM     78  C   UNL A   1      45.322  33.779  33.219  1.00  0.00     0.001 A 
ATOM     79  C   UNL A   1      45.684  34.865  32.424  1.00  0.00     0.000 A 
ENDBRANCH  61  74
ENDBRANCH  35  36
ENDBRANCH  27  30
ENDBRANCH  25  26
ENDBRANCH  24  25
ENDBRANCH  23  24
ENDBRANCH   1  23
TORSDOF 17
ENDMDL
