MODEL 1
REMARK VINA RESULT:     -10.9      0.000      0.000
REMARK SMILES CCN(CC(C)(C)O)C(=O)Nc1ccc(C(=O)NCCCCNC(=O)c2ccc(-c3c4nc(c(-c5ccccc5)c5ccc([nH]5)c(-c5ccccc5)c5nc(c(-c6ccccc6)c6ccc3[nH]6)C=C5)C=C4)cc2)c(O)c1
REMARK SMILES IDX 19 1 18 2 16 3 17 4 15 6 12 7 13 8 76 9 14 10 74 11 11 12
REMARK SMILES IDX 9 13 10 14 3 16 2 17 1 18 4 19 5 20 6 21 7 22 8 23 75 25
REMARK SMILES IDX 20 27 21 28 22 29 23 30 24 31 25 33 26 34 27 35 73 36 28 37
REMARK SMILES IDX 72 38 29 39 30 40 31 41 66 42 32 43 71 44 65 45 67 46 33 47
REMARK SMILES IDX 70 48 64 49 63 50 34 52 56 53 41 54 55 55 42 56 45 57 54 58
REMARK SMILES IDX 68 59 43 60 44 61 53 63 69 64 46 65 35 66 36 67 40 68 37 69
REMARK SMILES IDX 39 70 38 71 57 72 58 73 62 74 59 75 61 76 60 77 47 78 48 79
REMARK SMILES IDX 52 80 49 81 51 82 50 83
REMARK H PARENT 18 5 11 15 8 24 75 26 23 32 67 51 45 62
REMARK Flexibility Score: inf
ROOT
ATOM      1  C   UNL A   1      35.339  21.827  26.201  1.00  0.00     0.116 C 
ENDROOT
BRANCH   1   2
ATOM      2  N   UNL A   1      34.453  20.681  26.139  1.00  0.00    -0.352 N 
ATOM      3  C   UNL A   1      33.212  20.624  25.567  1.00  0.00     0.255 C 
ATOM      4  O   UNL A   1      32.644  19.547  25.418  1.00  0.00    -0.269 OA
ATOM      5  H   UNL A   1      34.781  19.853  26.556  1.00  0.00     0.163 HD
BRANCH   3   6
ATOM      6  C   UNL A   1      32.492  21.882  25.322  1.00  0.00     0.081 A 
ATOM      7  C   UNL A   1      30.759  23.943  24.484  1.00  0.00     0.046 A 
ATOM      8  C   UNL A   1      31.521  23.211  23.607  1.00  0.00     0.027 A 
ATOM      9  C   UNL A   1      30.972  23.700  25.848  1.00  0.00     0.073 A 
ATOM     10  C   UNL A   1      32.355  22.174  23.982  1.00  0.00     0.020 A 
ATOM     11  C   UNL A   1      31.863  22.696  26.264  1.00  0.00     0.130 A 
BRANCH   7  12
ATOM     12  N   UNL A   1      29.867  24.952  24.095  1.00  0.00    -0.308 N 
ATOM     13  C   UNL A   1      29.774  26.284  23.905  1.00  0.00     0.321 C 
ATOM     14  O   UNL A   1      28.596  26.640  23.726  1.00  0.00    -0.248 OA
ATOM     15  H   UNL A   1      28.997  24.541  23.887  1.00  0.00     0.171 HD
BRANCH  13  16
ATOM     16  N   UNL A   1      30.781  27.210  23.824  1.00  0.00    -0.322 N 
BRANCH  16  17
ATOM     17  C   UNL A   1      31.106  27.895  25.089  1.00  0.00     0.118 C 
ATOM     18  C   UNL A   1      31.511  29.352  24.865  1.00  0.00     0.027 C 
ENDBRANCH  16  17
BRANCH  16  19
ATOM     19  C   UNL A   1      31.549  27.734  22.683  1.00  0.00     0.155 C 
BRANCH  19  20
ATOM     20  C   UNL A   1      32.769  26.840  22.211  1.00  0.00     0.077 C 
ATOM     21  C   UNL A   1      33.608  26.171  23.324  1.00  0.00     0.043 C 
ATOM     22  C   UNL A   1      32.280  25.789  21.191  1.00  0.00     0.043 C 
BRANCH  20  23
ATOM     23  O   UNL A   1      33.691  27.690  21.500  1.00  0.00    -0.389 OA
ATOM     24  H   UNL A   1      33.249  28.067  20.723  1.00  0.00     0.211 HD
ENDBRANCH  20  23
ENDBRANCH  19  20
ENDBRANCH  16  19
ENDBRANCH  13  16
ENDBRANCH   7  12
BRANCH  11  25
ATOM     25  O   UNL A   1      32.068  22.572  27.608  1.00  0.00    -0.507 OA
ATOM     26  H   UNL A   1      32.425  23.287  28.095  1.00  0.00     0.293 HD
ENDBRANCH  11  25
ENDBRANCH   3   6
ENDBRANCH   1   2
BRANCH   1  27
ATOM     27  C   UNL A   1      36.300  21.956  25.032  1.00  0.00     0.023 C 
BRANCH  27  28
ATOM     28  C   UNL A   1      37.348  20.858  24.892  1.00  0.00     0.023 C 
BRANCH  28  29
ATOM     29  C   UNL A   1      38.635  21.033  25.685  1.00  0.00     0.116 C 
BRANCH  29  30
ATOM     30  N   UNL A   1      39.535  19.894  25.623  1.00  0.00    -0.352 N 
ATOM     31  C   UNL A   1      40.849  19.803  26.007  1.00  0.00     0.251 C 
ATOM     32  H   UNL A   1      39.146  19.069  25.251  1.00  0.00     0.163 HD
ATOM     33  O   UNL A   1      41.482  18.765  25.833  1.00  0.00    -0.269 OA
BRANCH  31  34
ATOM     34  C   UNL A   1      41.510  20.989  26.579  1.00  0.00     0.039 A 
ATOM     35  C   UNL A   1      42.087  21.913  25.709  1.00  0.00     0.014 A 
ATOM     36  C   UNL A   1      41.470  21.229  27.955  1.00  0.00     0.014 A 
ATOM     37  C   UNL A   1      42.546  23.129  26.212  1.00  0.00     0.010 A 
ATOM     38  C   UNL A   1      41.829  22.481  28.435  1.00  0.00     0.010 A 
ATOM     39  C   UNL A   1      42.373  23.443  27.569  1.00  0.00    -0.014 A 
BRANCH  39  40
ATOM     40  C   UNL A   1      42.760  24.769  28.106  1.00  0.00     0.031 A 
ATOM     41  C   UNL A   1      41.713  25.828  28.307  1.00  0.00     0.074 A 
ATOM     42  C   UNL A   1      44.056  25.040  28.357  1.00  0.00     0.049 A 
ATOM     43  N   UNL A   1      41.854  27.061  28.720  1.00  0.00    -0.248 NA
ATOM     44  C   UNL A   1      40.328  25.463  27.969  1.00  0.00     0.031 C 
ATOM     45  C   UNL A   1      45.173  24.112  28.165  1.00  0.00     0.029 A 
ATOM     46  N   UNL A   1      44.652  26.181  28.833  1.00  0.00    -0.354 N 
ATOM     47  C   UNL A   1      40.583  27.620  28.673  1.00  0.00     0.074 A 
ATOM     48  C   UNL A   1      39.698  26.615  28.128  1.00  0.00     0.031 C 
ATOM     49  C   UNL A   1      46.310  24.704  28.564  1.00  0.00     0.029 A 
ATOM     50  C   UNL A   1      46.011  26.065  28.997  1.00  0.00     0.049 A 
ATOM     51  H   UNL A   1      44.152  27.005  29.037  1.00  0.00     0.167 HD
ATOM     52  C   UNL A   1      40.179  28.847  29.075  1.00  0.00     0.031 A 
ATOM     53  C   UNL A   1      46.913  26.955  29.448  1.00  0.00     0.031 A 
ATOM     54  C   UNL A   1      41.058  29.843  29.624  1.00  0.00     0.049 A 
ATOM     55  C   UNL A   1      46.447  28.323  29.862  1.00  0.00     0.074 A 
ATOM     56  C   UNL A   1      40.745  31.101  30.107  1.00  0.00     0.029 A 
ATOM     57  N   UNL A   1      42.430  29.690  29.763  1.00  0.00    -0.354 N 
ATOM     58  N   UNL A   1      45.232  28.815  29.872  1.00  0.00    -0.248 NA
ATOM     59  C   UNL A   1      47.479  29.255  30.337  1.00  0.00     0.031 C 
ATOM     60  C   UNL A   1      41.935  31.729  30.489  1.00  0.00     0.029 A 
ATOM     61  C   UNL A   1      42.981  30.840  30.301  1.00  0.00     0.049 A 
ATOM     62  H   UNL A   1      42.937  28.883  29.514  1.00  0.00     0.167 HD
ATOM     63  C   UNL A   1      45.348  30.101  30.383  1.00  0.00     0.074 A 
ATOM     64  C   UNL A   1      46.750  30.307  30.682  1.00  0.00     0.031 C 
ATOM     65  C   UNL A   1      44.380  31.028  30.589  1.00  0.00     0.031 A 
BRANCH  52  66
ATOM     66  C   UNL A   1      38.718  29.170  28.923  1.00  0.00    -0.014 A 
ATOM     67  C   UNL A   1      38.207  29.674  27.714  1.00  0.00     0.009 A 
ATOM     68  C   UNL A   1      37.842  28.975  30.000  1.00  0.00     0.009 A 
ATOM     69  C   UNL A   1      36.860  30.025  27.607  1.00  0.00     0.001 A 
ATOM     70  C   UNL A   1      36.488  29.295  29.879  1.00  0.00     0.001 A 
ATOM     71  C   UNL A   1      36.002  29.832  28.687  1.00  0.00     0.000 A 
ENDBRANCH  52  66
BRANCH  53  72
ATOM     72  C   UNL A   1      48.344  26.571  29.569  1.00  0.00    -0.014 A 
ATOM     73  C   UNL A   1      49.231  26.808  28.508  1.00  0.00     0.009 A 
ATOM     74  C   UNL A   1      48.832  25.967  30.739  1.00  0.00     0.009 A 
ATOM     75  C   UNL A   1      50.572  26.428  28.605  1.00  0.00     0.001 A 
ATOM     76  C   UNL A   1      50.179  25.613  30.843  1.00  0.00     0.001 A 
ATOM     77  C   UNL A   1      51.045  25.835  29.775  1.00  0.00     0.000 A 
ENDBRANCH  53  72
BRANCH  65  78
ATOM     78  C   UNL A   1      44.801  32.334  31.200  1.00  0.00    -0.014 A 
ATOM     79  C   UNL A   1      44.857  32.507  32.590  1.00  0.00     0.009 A 
ATOM     80  C   UNL A   1      45.185  33.397  30.365  1.00  0.00     0.009 A 
ATOM     81  C   UNL A   1      45.257  33.730  33.133  1.00  0.00     0.001 A 
ATOM     82  C   UNL A   1      45.614  34.607  30.911  1.00  0.00     0.001 A 
ATOM     83  C   UNL A   1      45.641  34.775  32.294  1.00  0.00     0.000 A 
ENDBRANCH  65  78
ENDBRANCH  39  40
ENDBRANCH  31  34
ENDBRANCH  29  30
ENDBRANCH  28  29
ENDBRANCH  27  28
ENDBRANCH   1  27
TORSDOF 18
ENDMDL
MODEL 2
REMARK VINA RESULT:     -10.7      1.278      6.045
REMARK SMILES CCN(CC(C)(C)O)C(=O)Nc1ccc(C(=O)NCCCCNC(=O)c2ccc(-c3c4nc(c(-c5ccccc5)c5ccc([nH]5)c(-c5ccccc5)c5nc(c(-c6ccccc6)c6ccc3[nH]6)C=C5)C=C4)cc2)c(O)c1
REMARK SMILES IDX 19 1 18 2 16 3 17 4 15 6 12 7 13 8 76 9 14 10 74 11 11 12
REMARK SMILES IDX 9 13 10 14 3 16 2 17 1 18 4 19 5 20 6 21 7 22 8 23 75 25
REMARK SMILES IDX 20 27 21 28 22 29 23 30 24 31 25 33 26 34 27 35 73 36 28 37
REMARK SMILES IDX 72 38 29 39 30 40 31 41 66 42 32 43 71 44 65 45 67 46 33 47
REMARK SMILES IDX 70 48 64 49 63 50 34 52 56 53 41 54 55 55 42 56 45 57 54 58
REMARK SMILES IDX 68 59 43 60 44 61 53 63 69 64 46 65 35 66 36 67 40 68 37 69
REMARK SMILES IDX 39 70 38 71 57 72 58 73 62 74 59 75 61 76 60 77 47 78 48 79
REMARK SMILES IDX 52 80 49 81 51 82 50 83
REMARK H PARENT 18 5 11 15 8 24 75 26 23 32 67 51 45 62
REMARK Flexibility Score: inf
ROOT
ATOM      1  C   UNL A   1      35.786  21.302  25.323  1.00  0.00     0.116 C 
ENDROOT
BRANCH   1   2
ATOM      2  N   UNL A   1      34.933  20.151  25.104  1.00  0.00    -0.352 N 
ATOM      3  C   UNL A   1      33.666  20.145  24.591  1.00  0.00     0.255 C 
ATOM      4  O   UNL A   1      33.124  19.090  24.282  1.00  0.00    -0.269 OA
ATOM      5  H   UNL A   1      35.308  19.276  25.353  1.00  0.00     0.163 HD
BRANCH   3   6
ATOM      6  C   UNL A   1      32.896  21.397  24.604  1.00  0.00     0.081 A 
ATOM      7  C   UNL A   1      31.051  23.499  24.234  1.00  0.00     0.046 A 
ATOM      8  C   UNL A   1      31.767  22.948  23.200  1.00  0.00     0.027 A 
ATOM      9  C   UNL A   1      31.369  23.046  25.522  1.00  0.00     0.073 A 
ATOM     10  C   UNL A   1      32.654  21.897  23.343  1.00  0.00     0.020 A 
ATOM     11  C   UNL A   1      32.314  22.023  25.707  1.00  0.00     0.130 A 
BRANCH   7  12
ATOM     12  N   UNL A   1      30.107  24.522  24.077  1.00  0.00    -0.308 N 
ATOM     13  C   UNL A   1      29.991  25.848  23.865  1.00  0.00     0.321 C 
ATOM     14  O   UNL A   1      28.819  26.237  24.019  1.00  0.00    -0.248 OA
ATOM     15  H   UNL A   1      29.205  24.133  24.147  1.00  0.00     0.171 HD
BRANCH  13  16
ATOM     16  N   UNL A   1      30.950  26.737  23.455  1.00  0.00    -0.322 N 
BRANCH  16  17
ATOM     17  C   UNL A   1      32.124  26.846  24.343  1.00  0.00     0.118 C 
ATOM     18  C   UNL A   1      33.400  26.342  23.670  1.00  0.00     0.027 C 
ENDBRANCH  16  17
BRANCH  16  19
ATOM     19  C   UNL A   1      30.996  27.694  22.337  1.00  0.00     0.155 C 
BRANCH  19  20
ATOM     20  C   UNL A   1      30.290  29.087  22.599  1.00  0.00     0.077 C 
ATOM     21  C   UNL A   1      28.764  29.146  22.357  1.00  0.00     0.043 C 
ATOM     22  C   UNL A   1      30.635  29.587  24.019  1.00  0.00     0.043 C 
BRANCH  20  23
ATOM     23  O   UNL A   1      30.856  30.049  21.687  1.00  0.00    -0.389 OA
ATOM     24  H   UNL A   1      31.102  30.851  22.174  1.00  0.00     0.211 HD
ENDBRANCH  20  23
ENDBRANCH  19  20
ENDBRANCH  16  19
ENDBRANCH  13  16
ENDBRANCH   7  12
BRANCH  11  25
ATOM     25  O   UNL A   1      32.620  21.691  26.996  1.00  0.00    -0.507 OA
ATOM     26  H   UNL A   1      33.138  22.270  27.519  1.00  0.00     0.293 HD
ENDBRANCH  11  25
ENDBRANCH   3   6
ENDBRANCH   1   2
BRANCH   1  27
ATOM     27  C   UNL A   1      37.154  21.219  24.667  1.00  0.00     0.023 C 
BRANCH  27  28
ATOM     28  C   UNL A   1      38.006  20.008  25.029  1.00  0.00     0.023 C 
BRANCH  28  29
ATOM     29  C   UNL A   1      39.255  20.271  25.860  1.00  0.00     0.116 C 
BRANCH  29  30
ATOM     30  N   UNL A   1      40.225  19.190  25.838  1.00  0.00    -0.352 N 
ATOM     31  C   UNL A   1      41.568  19.222  26.117  1.00  0.00     0.251 C 
ATOM     32  H   UNL A   1      39.868  18.307  25.586  1.00  0.00     0.163 HD
ATOM     33  O   UNL A   1      42.258  18.213  25.996  1.00  0.00    -0.269 OA
BRANCH  31  34
ATOM     34  C   UNL A   1      42.186  20.502  26.507  1.00  0.00     0.039 A 
ATOM     35  C   UNL A   1      42.619  21.366  25.502  1.00  0.00     0.014 A 
ATOM     36  C   UNL A   1      42.243  20.881  27.851  1.00  0.00     0.014 A 
ATOM     37  C   UNL A   1      43.027  22.654  25.839  1.00  0.00     0.010 A 
ATOM     38  C   UNL A   1      42.549  22.197  28.171  1.00  0.00     0.010 A 
ATOM     39  C   UNL A   1      42.946  23.096  27.169  1.00  0.00    -0.014 A 
BRANCH  39  40
ATOM     40  C   UNL A   1      43.278  24.493  27.537  1.00  0.00     0.031 A 
ATOM     41  C   UNL A   1      44.710  24.947  27.532  1.00  0.00     0.074 A 
ATOM     42  C   UNL A   1      42.301  25.335  27.931  1.00  0.00     0.049 A 
ATOM     43  N   UNL A   1      45.210  26.109  27.865  1.00  0.00    -0.248 NA
ATOM     44  C   UNL A   1      45.719  23.953  27.129  1.00  0.00     0.031 C 
ATOM     45  C   UNL A   1      40.877  25.003  28.018  1.00  0.00     0.029 A 
ATOM     46  N   UNL A   1      42.362  26.646  28.329  1.00  0.00    -0.354 N 
ATOM     47  C   UNL A   1      46.586  25.978  27.729  1.00  0.00     0.074 A 
ATOM     48  C   UNL A   1      46.847  24.608  27.351  1.00  0.00     0.031 C 
ATOM     49  C   UNL A   1      40.194  26.096  28.397  1.00  0.00     0.029 A 
ATOM     50  C   UNL A   1      41.134  27.189  28.622  1.00  0.00     0.049 A 
ATOM     51  H   UNL A   1      43.205  27.150  28.399  1.00  0.00     0.167 HD
ATOM     52  C   UNL A   1      47.548  26.919  27.875  1.00  0.00     0.031 A 
ATOM     53  C   UNL A   1      40.805  28.431  29.024  1.00  0.00     0.031 A 
ATOM     54  C   UNL A   1      47.287  28.284  28.244  1.00  0.00     0.049 A 
ATOM     55  C   UNL A   1      41.892  29.452  29.208  1.00  0.00     0.074 A 
ATOM     56  C   UNL A   1      48.183  29.330  28.373  1.00  0.00     0.029 A 
ATOM     57  N   UNL A   1      46.031  28.792  28.544  1.00  0.00    -0.354 N 
ATOM     58  N   UNL A   1      43.182  29.331  29.014  1.00  0.00    -0.248 NA
ATOM     59  C   UNL A   1      41.472  30.787  29.658  1.00  0.00     0.031 C 
ATOM     60  C   UNL A   1      47.475  30.458  28.802  1.00  0.00     0.029 A 
ATOM     61  C   UNL A   1      46.131  30.130  28.881  1.00  0.00     0.049 A 
ATOM     62  H   UNL A   1      45.193  28.275  28.521  1.00  0.00     0.167 HD
ATOM     63  C   UNL A   1      43.726  30.580  29.287  1.00  0.00     0.074 A 
ATOM     64  C   UNL A   1      42.622  31.446  29.648  1.00  0.00     0.031 C 
ATOM     65  C   UNL A   1      45.021  30.975  29.240  1.00  0.00     0.031 A 
BRANCH  52  66
ATOM     66  C   UNL A   1      48.969  26.487  27.639  1.00  0.00    -0.014 A 
ATOM     67  C   UNL A   1      49.440  26.214  26.344  1.00  0.00     0.009 A 
ATOM     68  C   UNL A   1      49.846  26.345  28.724  1.00  0.00     0.009 A 
ATOM     69  C   UNL A   1      50.744  25.757  26.146  1.00  0.00     0.001 A 
ATOM     70  C   UNL A   1      51.161  25.920  28.519  1.00  0.00     0.001 A 
ATOM     71  C   UNL A   1      51.604  25.613  27.233  1.00  0.00     0.000 A 
ENDBRANCH  52  66
BRANCH  53  72
ATOM     72  C   UNL A   1      39.379  28.789  29.244  1.00  0.00    -0.014 A 
ATOM     73  C   UNL A   1      38.799  28.633  30.512  1.00  0.00     0.009 A 
ATOM     74  C   UNL A   1      38.591  29.286  28.194  1.00  0.00     0.009 A 
ATOM     75  C   UNL A   1      37.454  28.946  30.721  1.00  0.00     0.001 A 
ATOM     76  C   UNL A   1      37.253  29.623  28.412  1.00  0.00     0.001 A 
ATOM     77  C   UNL A   1      36.684  29.445  29.672  1.00  0.00     0.000 A 
ENDBRANCH  53  72
BRANCH  65  78
ATOM     78  C   UNL A   1      45.310  32.416  29.551  1.00  0.00    -0.014 A 
ATOM     79  C   UNL A   1      45.630  32.833  30.852  1.00  0.00     0.009 A 
ATOM     80  C   UNL A   1      45.300  33.364  28.515  1.00  0.00     0.009 A 
ATOM     81  C   UNL A   1      45.901  34.178  31.114  1.00  0.00     0.001 A 
ATOM     82  C   UNL A   1      45.601  34.701  28.775  1.00  0.00     0.001 A 
ATOM     83  C   UNL A   1      45.892  35.109  30.076  1.00  0.00     0.000 A 
ENDBRANCH  65  78
ENDBRANCH  39  40
ENDBRANCH  31  34
ENDBRANCH  29  30
ENDBRANCH  28  29
ENDBRANCH  27  28
ENDBRANCH   1  27
TORSDOF 18
ENDMDL
MODEL 3
REMARK VINA RESULT:     -10.5      3.808      9.031
REMARK SMILES CCN(CC(C)(C)O)C(=O)Nc1ccc(C(=O)NCCCCNC(=O)c2ccc(-c3c4nc(c(-c5ccccc5)c5ccc([nH]5)c(-c5ccccc5)c5nc(c(-c6ccccc6)c6ccc3[nH]6)C=C5)C=C4)cc2)c(O)c1
REMARK SMILES IDX 19 1 18 2 16 3 17 4 15 6 12 7 13 8 76 9 14 10 74 11 11 12
REMARK SMILES IDX 9 13 10 14 3 16 2 17 1 18 4 19 5 20 6 21 7 22 8 23 75 25
REMARK SMILES IDX 20 27 21 28 22 29 23 30 24 31 25 33 26 34 27 35 73 36 28 37
REMARK SMILES IDX 72 38 29 39 30 40 31 41 66 42 32 43 71 44 65 45 67 46 33 47
REMARK SMILES IDX 70 48 64 49 63 50 34 52 56 53 41 54 55 55 42 56 45 57 54 58
REMARK SMILES IDX 68 59 43 60 44 61 53 63 69 64 46 65 35 66 36 67 40 68 37 69
REMARK SMILES IDX 39 70 38 71 57 72 58 73 62 74 59 75 61 76 60 77 47 78 48 79
REMARK SMILES IDX 52 80 49 81 51 82 50 83
REMARK H PARENT 18 5 11 15 8 24 75 26 23 32 67 51 45 62
REMARK Flexibility Score: inf
ROOT
ATOM      1  C   UNL A   1      31.757  29.578  25.213  1.00  0.00     0.116 C 
ENDROOT
BRANCH   1   2
ATOM      2  N   UNL A   1      32.929  29.716  24.372  1.00  0.00    -0.352 N 
ATOM      3  C   UNL A   1      33.458  28.778  23.529  1.00  0.00     0.255 C 
ATOM      4  O   UNL A   1      34.341  29.082  22.734  1.00  0.00    -0.269 OA
ATOM      5  H   UNL A   1      33.396  30.581  24.411  1.00  0.00     0.163 HD
BRANCH   3   6
ATOM      6  C   UNL A   1      33.097  27.367  23.731  1.00  0.00     0.081 A 
ATOM      7  C   UNL A   1      32.289  24.844  24.698  1.00  0.00     0.046 A 
ATOM      8  C   UNL A   1      33.347  25.539  25.230  1.00  0.00     0.027 A 
ATOM      9  C   UNL A   1      31.692  25.395  23.556  1.00  0.00     0.073 A 
ATOM     10  C   UNL A   1      33.748  26.790  24.801  1.00  0.00     0.020 A 
ATOM     11  C   UNL A   1      32.120  26.637  23.055  1.00  0.00     0.130 A 
BRANCH   7  12
ATOM     12  N   UNL A   1      31.845  23.604  25.176  1.00  0.00    -0.308 N 
ATOM     13  C   UNL A   1      32.097  22.280  25.115  1.00  0.00     0.321 C 
ATOM     14  O   UNL A   1      31.187  21.615  25.639  1.00  0.00    -0.248 OA
ATOM     15  H   UNL A   1      31.073  23.752  25.768  1.00  0.00     0.171 HD
BRANCH  13  16
ATOM     16  N   UNL A   1      33.210  21.642  24.632  1.00  0.00    -0.322 N 
BRANCH  16  17
ATOM     17  C   UNL A   1      33.806  22.247  23.426  1.00  0.00     0.118 C 
ATOM     18  C   UNL A   1      35.230  22.743  23.676  1.00  0.00     0.027 C 
ENDBRANCH  16  17
BRANCH  16  19
ATOM     19  C   UNL A   1      33.881  20.393  25.030  1.00  0.00     0.155 C 
BRANCH  19  20
ATOM     20  C   UNL A   1      33.161  19.056  24.578  1.00  0.00     0.077 C 
ATOM     21  C   UNL A   1      32.345  19.119  23.267  1.00  0.00     0.043 C 
ATOM     22  C   UNL A   1      34.189  17.904  24.525  1.00  0.00     0.043 C 
BRANCH  20  23
ATOM     23  O   UNL A   1      32.211  18.698  25.601  1.00  0.00    -0.389 OA
ATOM     24  H   UNL A   1      31.414  19.243  25.507  1.00  0.00     0.211 HD
ENDBRANCH  20  23
ENDBRANCH  19  20
ENDBRANCH  16  19
ENDBRANCH  13  16
ENDBRANCH   7  12
BRANCH  11  25
ATOM     25  O   UNL A   1      31.537  27.070  21.898  1.00  0.00    -0.507 OA
ATOM     26  H   UNL A   1      30.720  27.527  21.928  1.00  0.00     0.293 HD
ENDBRANCH  11  25
ENDBRANCH   3   6
ENDBRANCH   1   2
BRANCH   1  27
ATOM     27  C   UNL A   1      31.887  30.193  26.596  1.00  0.00     0.023 C 
BRANCH  27  28
ATOM     28  C   UNL A   1      31.659  31.697  26.693  1.00  0.00     0.023 C 
BRANCH  28  29
ATOM     29  C   UNL A   1      32.801  32.529  27.262  1.00  0.00     0.116 C 
BRANCH  29  30
ATOM     30  N   UNL A   1      32.422  33.878  27.645  1.00  0.00    -0.352 N 
ATOM     31  C   UNL A   1      33.038  34.737  28.522  1.00  0.00     0.251 C 
ATOM     32  H   UNL A   1      31.608  34.226  27.216  1.00  0.00     0.163 HD
ATOM     33  O   UNL A   1      32.547  35.835  28.771  1.00  0.00    -0.269 OA
BRANCH  31  34
ATOM     34  C   UNL A   1      34.267  34.299  29.206  1.00  0.00     0.039 A 
ATOM     35  C   UNL A   1      34.146  33.586  30.398  1.00  0.00     0.014 A 
ATOM     36  C   UNL A   1      35.518  34.508  28.621  1.00  0.00     0.014 A 
ATOM     37  C   UNL A   1      35.278  33.000  30.960  1.00  0.00     0.010 A 
ATOM     38  C   UNL A   1      36.623  33.836  29.124  1.00  0.00     0.010 A 
ATOM     39  C   UNL A   1      36.515  33.076  30.300  1.00  0.00    -0.014 A 
BRANCH  39  40
ATOM     40  C   UNL A   1      37.711  32.375  30.824  1.00  0.00     0.031 A 
ATOM     41  C   UNL A   1      38.386  32.879  32.069  1.00  0.00     0.074 A 
ATOM     42  C   UNL A   1      38.224  31.326  30.152  1.00  0.00     0.049 A 
ATOM     43  N   UNL A   1      39.466  32.436  32.660  1.00  0.00    -0.248 NA
ATOM     44  C   UNL A   1      37.785  34.055  32.719  1.00  0.00     0.031 C 
ATOM     45  C   UNL A   1      37.686  30.767  28.909  1.00  0.00     0.029 A 
ATOM     46  N   UNL A   1      39.316  30.541  30.424  1.00  0.00    -0.354 N 
ATOM     47  C   UNL A   1      39.681  33.288  33.735  1.00  0.00     0.074 A 
ATOM     48  C   UNL A   1      38.663  34.312  33.675  1.00  0.00     0.031 C 
ATOM     49  C   UNL A   1      38.421  29.700  28.553  1.00  0.00     0.029 A 
ATOM     50  C   UNL A   1      39.505  29.528  29.515  1.00  0.00     0.049 A 
ATOM     51  H   UNL A   1      39.907  30.689  31.197  1.00  0.00     0.167 HD
ATOM     52  C   UNL A   1      40.622  33.212  34.705  1.00  0.00     0.031 A 
ATOM     53  C   UNL A   1      40.445  28.566  29.465  1.00  0.00     0.031 A 
ATOM     54  C   UNL A   1      41.630  32.189  34.768  1.00  0.00     0.049 A 
ATOM     55  C   UNL A   1      41.498  28.517  30.537  1.00  0.00     0.074 A 
ATOM     56  C   UNL A   1      42.601  31.992  35.733  1.00  0.00     0.029 A 
ATOM     57  N   UNL A   1      41.795  31.188  33.822  1.00  0.00    -0.354 N 
ATOM     58  N   UNL A   1      41.651  29.293  31.582  1.00  0.00    -0.248 NA
ATOM     59  C   UNL A   1      42.504  27.452  30.424  1.00  0.00     0.031 C 
ATOM     60  C   UNL A   1      43.386  30.901  35.343  1.00  0.00     0.029 A 
ATOM     61  C   UNL A   1      42.867  30.384  34.167  1.00  0.00     0.049 A 
ATOM     62  H   UNL A   1      41.233  31.068  33.022  1.00  0.00     0.167 HD
ATOM     63  C   UNL A   1      42.748  28.791  32.269  1.00  0.00     0.074 A 
ATOM     64  C   UNL A   1      43.215  27.637  31.527  1.00  0.00     0.031 C 
ATOM     65  C   UNL A   1      43.318  29.242  33.414  1.00  0.00     0.031 A 
BRANCH  52  66
ATOM     66  C   UNL A   1      40.597  34.276  35.767  1.00  0.00    -0.014 A 
ATOM     67  C   UNL A   1      39.882  34.093  36.963  1.00  0.00     0.009 A 
ATOM     68  C   UNL A   1      41.290  35.479  35.569  1.00  0.00     0.009 A 
ATOM     69  C   UNL A   1      39.819  35.114  37.914  1.00  0.00     0.001 A 
ATOM     70  C   UNL A   1      41.254  36.485  36.538  1.00  0.00     0.001 A 
ATOM     71  C   UNL A   1      40.507  36.306  37.702  1.00  0.00     0.000 A 
ENDBRANCH  52  66
BRANCH  53  72
ATOM     72  C   UNL A   1      40.413  27.547  28.383  1.00  0.00    -0.014 A 
ATOM     73  C   UNL A   1      41.090  27.778  27.176  1.00  0.00     0.009 A 
ATOM     74  C   UNL A   1      39.710  26.344  28.547  1.00  0.00     0.009 A 
ATOM     75  C   UNL A   1      41.046  26.835  26.146  1.00  0.00     0.001 A 
ATOM     76  C   UNL A   1      39.689  25.392  27.525  1.00  0.00     0.001 A 
ATOM     77  C   UNL A   1      40.349  25.641  26.324  1.00  0.00     0.000 A 
ENDBRANCH  53  72
BRANCH  65  78
ATOM     78  C   UNL A   1      44.485  28.464  33.952  1.00  0.00    -0.014 A 
ATOM     79  C   UNL A   1      44.302  27.375  34.816  1.00  0.00     0.009 A 
ATOM     80  C   UNL A   1      45.788  28.806  33.553  1.00  0.00     0.009 A 
ATOM     81  C   UNL A   1      45.404  26.664  35.298  1.00  0.00     0.001 A 
ATOM     82  C   UNL A   1      46.884  28.075  34.011  1.00  0.00     0.001 A 
ATOM     83  C   UNL A   1      46.692  27.010  34.890  1.00  0.00     0.000 A 
ENDBRANCH  65  78
ENDBRANCH  39  40
ENDBRANCH  31  34
ENDBRANCH  29  30
ENDBRANCH  28  29
ENDBRANCH  27  28
ENDBRANCH   1  27
TORSDOF 18
ENDMDL
