MODEL 1
REMARK VINA RESULT:     -11.9      0.000      0.000
REMARK SMILES Cc1cc(C(=O)NCCCCNC(=O)c2ccc(-c3c4nc(c(-c5ccccc5)c5ccc([nH]5)c(-c5ccccc5)c5nc(c(-c6ccccc6)c6ccc3[nH]6)C=C5)C=C4)cc2)ccc1N[C@H](C)c1cc(F)cc(F)c1
REMARK SMILES IDX 9 1 8 2 7 3 5 4 6 5 4 7 1 8 2 9 3 10 65 11 64 12 63 13 66 14
REMARK SMILES IDX 67 16 68 17 69 18 70 19 76 20 71 21 74 22 72 23 73 24 75 25
REMARK SMILES IDX 10 26 11 27 12 28 13 29 14 31 15 32 16 33 62 34 17 35 61 36
REMARK SMILES IDX 18 37 19 38 20 39 55 40 21 41 60 42 54 43 56 44 22 45 59 46
REMARK SMILES IDX 53 47 52 48 23 50 45 51 30 52 44 53 31 54 34 55 43 56 57 57
REMARK SMILES IDX 32 58 33 59 42 61 58 62 35 63 24 64 25 65 29 66 26 67 28 68
REMARK SMILES IDX 27 69 46 70 47 71 51 72 48 73 50 74 49 75 36 76 37 77 41 78
REMARK SMILES IDX 38 79 40 80 39 81
REMARK H PARENT 7 6 66 15 12 30 56 49 34 60
REMARK Flexibility Score: inf
ROOT
ATOM      1  C   UNL A   1      32.880  29.223  27.018  1.00  0.00     0.023 C 
ENDROOT
BRANCH   1   2
ATOM      2  C   UNL A   1      32.005  28.024  27.436  1.00  0.00     0.116 C 
BRANCH   2   3
ATOM      3  N   UNL A   1      31.327  27.404  26.304  1.00  0.00    -0.352 N 
ATOM      4  C   UNL A   1      31.546  26.274  25.547  1.00  0.00     0.251 C 
ATOM      5  O   UNL A   1      30.723  26.038  24.660  1.00  0.00    -0.269 OA
ATOM      6  H   UNL A   1      30.530  27.905  26.016  1.00  0.00     0.163 HD
BRANCH   4   7
ATOM      7  C   UNL A   1      32.690  25.330  25.729  1.00  0.00     0.040 A 
ATOM      8  C   UNL A   1      33.287  22.118  27.712  1.00  0.00     0.046 C 
ATOM      9  C   UNL A   1      33.585  23.262  26.778  1.00  0.00    -0.027 A 
ATOM     10  C   UNL A   1      32.535  24.203  26.557  1.00  0.00     0.019 A 
ATOM     11  C   UNL A   1      34.846  23.469  26.188  1.00  0.00     0.037 A 
ATOM     12  C   UNL A   1      34.972  24.630  25.433  1.00  0.00     0.027 A 
ATOM     13  C   UNL A   1      33.929  25.506  25.157  1.00  0.00     0.016 A 
BRANCH  11  14
ATOM     14  N   UNL A   1      35.916  22.589  26.316  1.00  0.00    -0.378 N 
ATOM     15  H   UNL A   1      35.888  21.942  27.058  1.00  0.00     0.161 HD
BRANCH  14  16
ATOM     16  C   UNL A   1      37.093  22.556  25.418  1.00  0.00     0.106 C 
ATOM     17  C   UNL A   1      37.195  21.162  24.783  1.00  0.00     0.036 C 
BRANCH  16  18
ATOM     18  C   UNL A   1      38.404  22.920  26.106  1.00  0.00    -0.020 A 
ATOM     19  C   UNL A   1      38.475  24.091  26.893  1.00  0.00     0.045 A 
ATOM     20  C   UNL A   1      39.505  22.048  26.117  1.00  0.00     0.045 A 
ATOM     21  C   UNL A   1      39.563  24.304  27.741  1.00  0.00     0.126 A 
ATOM     22  C   UNL A   1      40.599  22.308  26.943  1.00  0.00     0.126 A 
ATOM     23  F   UNL A   1      39.543  25.342  28.587  1.00  0.00    -0.207 F 
ATOM     24  C   UNL A   1      40.627  23.415  27.779  1.00  0.00     0.078 A 
ATOM     25  F   UNL A   1      41.621  21.443  26.970  1.00  0.00    -0.207 F 
ENDBRANCH  16  18
ENDBRANCH  14  16
ENDBRANCH  11  14
ENDBRANCH   4   7
ENDBRANCH   2   3
ENDBRANCH   1   2
BRANCH   1  26
ATOM     26  C   UNL A   1      34.376  29.006  27.280  1.00  0.00     0.023 C 
BRANCH  26  27
ATOM     27  C   UNL A   1      35.103  30.294  27.657  1.00  0.00     0.116 C 
BRANCH  27  28
ATOM     28  N   UNL A   1      34.291  31.505  27.626  1.00  0.00    -0.352 N 
ATOM     29  C   UNL A   1      34.383  32.655  28.401  1.00  0.00     0.251 C 
ATOM     30  H   UNL A   1      33.570  31.508  26.955  1.00  0.00     0.163 HD
ATOM     31  O   UNL A   1      33.552  33.536  28.287  1.00  0.00    -0.269 OA
BRANCH  29  32
ATOM     32  C   UNL A   1      35.586  32.879  29.252  1.00  0.00     0.039 A 
ATOM     33  C   UNL A   1      36.673  33.538  28.662  1.00  0.00     0.014 A 
ATOM     34  C   UNL A   1      35.749  32.233  30.472  1.00  0.00     0.014 A 
ATOM     35  C   UNL A   1      37.959  33.275  29.123  1.00  0.00     0.010 A 
ATOM     36  C   UNL A   1      37.024  31.870  30.856  1.00  0.00     0.010 A 
ATOM     37  C   UNL A   1      38.124  32.315  30.118  1.00  0.00    -0.014 A 
BRANCH  37  38
ATOM     38  C   UNL A   1      39.371  31.581  30.312  1.00  0.00     0.031 A 
ATOM     39  C   UNL A   1      39.587  30.274  29.656  1.00  0.00     0.074 A 
ATOM     40  C   UNL A   1      40.373  32.163  31.013  1.00  0.00     0.049 A 
ATOM     41  N   UNL A   1      40.424  29.379  30.066  1.00  0.00    -0.248 NA
ATOM     42  C   UNL A   1      38.817  29.846  28.492  1.00  0.00     0.031 C 
ATOM     43  C   UNL A   1      41.767  31.728  31.082  1.00  0.00     0.029 A 
ATOM     44  N   UNL A   1      40.296  33.165  31.988  1.00  0.00    -0.354 N 
ATOM     45  C   UNL A   1      40.552  28.450  29.057  1.00  0.00     0.074 A 
ATOM     46  C   UNL A   1      39.447  28.714  28.168  1.00  0.00     0.031 C 
ATOM     47  C   UNL A   1      42.310  32.204  32.214  1.00  0.00     0.029 A 
ATOM     48  C   UNL A   1      41.232  32.815  32.974  1.00  0.00     0.049 A 
ATOM     49  H   UNL A   1      39.705  33.952  31.984  1.00  0.00     0.167 HD
ATOM     50  C   UNL A   1      41.677  27.679  28.994  1.00  0.00     0.031 A 
ATOM     51  C   UNL A   1      40.898  32.486  34.257  1.00  0.00     0.031 A 
ATOM     52  C   UNL A   1      42.528  27.866  30.171  1.00  0.00     0.049 A 
ATOM     53  C   UNL A   1      41.375  31.103  34.664  1.00  0.00     0.074 A 
ATOM     54  C   UNL A   1      43.709  28.560  30.383  1.00  0.00     0.029 A 
ATOM     55  N   UNL A   1      42.039  27.532  31.428  1.00  0.00    -0.354 N 
ATOM     56  N   UNL A   1      41.747  30.187  33.813  1.00  0.00    -0.248 NA
ATOM     57  C   UNL A   1      41.410  30.620  36.044  1.00  0.00     0.031 C 
ATOM     58  C   UNL A   1      43.879  28.717  31.783  1.00  0.00     0.029 A 
ATOM     59  C   UNL A   1      42.822  28.092  32.418  1.00  0.00     0.049 A 
ATOM     60  H   UNL A   1      41.244  26.974  31.591  1.00  0.00     0.167 HD
ATOM     61  C   UNL A   1      42.066  29.036  34.481  1.00  0.00     0.074 A 
ATOM     62  C   UNL A   1      41.843  29.356  35.879  1.00  0.00     0.031 C 
ATOM     63  C   UNL A   1      42.472  27.912  33.821  1.00  0.00     0.031 A 
BRANCH  50  64
ATOM     64  C   UNL A   1      42.158  26.997  27.726  1.00  0.00    -0.014 A 
ATOM     65  C   UNL A   1      41.446  27.184  26.525  1.00  0.00     0.009 A 
ATOM     66  C   UNL A   1      43.238  26.101  27.652  1.00  0.00     0.009 A 
ATOM     67  C   UNL A   1      41.727  26.449  25.363  1.00  0.00     0.001 A 
ATOM     68  C   UNL A   1      43.510  25.340  26.506  1.00  0.00     0.001 A 
ATOM     69  C   UNL A   1      42.742  25.503  25.363  1.00  0.00     0.000 A 
ENDBRANCH  50  64
BRANCH  51  70
ATOM     70  C   UNL A   1      39.644  33.112  34.758  1.00  0.00    -0.014 A 
ATOM     71  C   UNL A   1      38.413  32.627  34.275  1.00  0.00     0.009 A 
ATOM     72  C   UNL A   1      39.646  33.897  35.920  1.00  0.00     0.009 A 
ATOM     73  C   UNL A   1      37.232  32.830  34.996  1.00  0.00     0.001 A 
ATOM     74  C   UNL A   1      38.459  34.105  36.633  1.00  0.00     0.001 A 
ATOM     75  C   UNL A   1      37.261  33.542  36.190  1.00  0.00     0.000 A 
ENDBRANCH  51  70
BRANCH  63  76
ATOM     76  C   UNL A   1      42.642  26.542  34.425  1.00  0.00    -0.014 A 
ATOM     77  C   UNL A   1      41.663  25.890  35.186  1.00  0.00     0.009 A 
ATOM     78  C   UNL A   1      43.794  25.792  34.094  1.00  0.00     0.009 A 
ATOM     79  C   UNL A   1      41.844  24.571  35.626  1.00  0.00     0.001 A 
ATOM     80  C   UNL A   1      43.959  24.464  34.494  1.00  0.00     0.001 A 
ATOM     81  C   UNL A   1      42.984  23.856  35.271  1.00  0.00     0.000 A 
ENDBRANCH  63  76
ENDBRANCH  37  38
ENDBRANCH  29  32
ENDBRANCH  27  28
ENDBRANCH  26  27
ENDBRANCH   1  26
TORSDOF 14
ENDMDL
MODEL 2
REMARK VINA RESULT:     -11.8      4.180      9.129
REMARK SMILES Cc1cc(C(=O)NCCCCNC(=O)c2ccc(-c3c4nc(c(-c5ccccc5)c5ccc([nH]5)c(-c5ccccc5)c5nc(c(-c6ccccc6)c6ccc3[nH]6)C=C5)C=C4)cc2)ccc1N[C@H](C)c1cc(F)cc(F)c1
REMARK SMILES IDX 9 1 8 2 7 3 5 4 6 5 4 7 1 8 2 9 3 10 65 11 64 12 63 13 66 14
REMARK SMILES IDX 67 16 68 17 69 18 70 19 76 20 71 21 74 22 72 23 73 24 75 25
REMARK SMILES IDX 10 26 11 27 12 28 13 29 14 31 15 32 16 33 62 34 17 35 61 36
REMARK SMILES IDX 18 37 19 38 20 39 55 40 21 41 60 42 54 43 56 44 22 45 59 46
REMARK SMILES IDX 53 47 52 48 23 50 45 51 30 52 44 53 31 54 34 55 43 56 57 57
REMARK SMILES IDX 32 58 33 59 42 61 58 62 35 63 24 64 25 65 29 66 26 67 28 68
REMARK SMILES IDX 27 69 46 70 47 71 51 72 48 73 50 74 49 75 36 76 37 77 41 78
REMARK SMILES IDX 38 79 40 80 39 81
REMARK H PARENT 7 6 66 15 12 30 56 49 34 60
REMARK Flexibility Score: inf
ROOT
ATOM      1  C   UNL A   1      37.563  21.225  25.269  1.00  0.00     0.023 C 
ENDROOT
BRANCH   1   2
ATOM      2  C   UNL A   1      36.096  21.487  25.665  1.00  0.00     0.116 C 
BRANCH   2   3
ATOM      3  N   UNL A   1      35.234  20.338  25.412  1.00  0.00    -0.352 N 
ATOM      4  C   UNL A   1      33.940  20.179  24.968  1.00  0.00     0.251 C 
ATOM      5  O   UNL A   1      33.539  19.021  24.841  1.00  0.00    -0.269 OA
ATOM      6  H   UNL A   1      35.680  19.480  25.598  1.00  0.00     0.163 HD
BRANCH   4   7
ATOM      7  C   UNL A   1      33.007  21.298  24.632  1.00  0.00     0.040 A 
ATOM      8  C   UNL A   1      32.876  24.030  21.963  1.00  0.00     0.046 C 
ATOM      9  C   UNL A   1      32.439  23.211  23.150  1.00  0.00    -0.027 A 
ATOM     10  C   UNL A   1      33.285  22.124  23.527  1.00  0.00     0.019 A 
ATOM     11  C   UNL A   1      31.301  23.513  23.921  1.00  0.00     0.037 A 
ATOM     12  C   UNL A   1      31.105  22.712  25.040  1.00  0.00     0.027 A 
ATOM     13  C   UNL A   1      31.885  21.608  25.365  1.00  0.00     0.016 A 
BRANCH  11  14
ATOM     14  N   UNL A   1      30.402  24.527  23.611  1.00  0.00    -0.378 N 
ATOM     15  H   UNL A   1      29.890  24.443  22.774  1.00  0.00     0.161 HD
BRANCH  14  16
ATOM     16  C   UNL A   1      30.157  25.724  24.449  1.00  0.00     0.106 C 
ATOM     17  C   UNL A   1      28.903  26.444  23.936  1.00  0.00     0.036 C 
BRANCH  16  18
ATOM     18  C   UNL A   1      31.336  26.689  24.503  1.00  0.00    -0.020 A 
ATOM     19  C   UNL A   1      31.954  26.966  25.743  1.00  0.00     0.045 A 
ATOM     20  C   UNL A   1      31.937  27.195  23.338  1.00  0.00     0.045 A 
ATOM     21  C   UNL A   1      33.185  27.623  25.786  1.00  0.00     0.126 A 
ATOM     22  C   UNL A   1      33.147  27.885  23.414  1.00  0.00     0.126 A 
ATOM     23  F   UNL A   1      33.825  27.743  26.956  1.00  0.00    -0.207 F 
ATOM     24  C   UNL A   1      33.793  28.080  24.627  1.00  0.00     0.078 A 
ATOM     25  F   UNL A   1      33.723  28.325  22.288  1.00  0.00    -0.207 F 
ENDBRANCH  16  18
ENDBRANCH  14  16
ENDBRANCH  11  14
ENDBRANCH   4   7
ENDBRANCH   2   3
ENDBRANCH   1   2
BRANCH   1  26
ATOM     26  C   UNL A   1      38.515  22.356  25.677  1.00  0.00     0.023 C 
BRANCH  26  27
ATOM     27  C   UNL A   1      39.622  21.887  26.618  1.00  0.00     0.116 C 
BRANCH  27  28
ATOM     28  N   UNL A   1      40.449  20.796  26.117  1.00  0.00    -0.352 N 
ATOM     29  C   UNL A   1      41.834  20.677  26.079  1.00  0.00     0.251 C 
ATOM     30  H   UNL A   1      39.952  20.028  25.752  1.00  0.00     0.163 HD
ATOM     31  O   UNL A   1      42.349  19.717  25.539  1.00  0.00    -0.269 OA
BRANCH  29  32
ATOM     32  C   UNL A   1      42.680  21.640  26.840  1.00  0.00     0.039 A 
ATOM     33  C   UNL A   1      42.547  21.643  28.236  1.00  0.00     0.014 A 
ATOM     34  C   UNL A   1      43.358  22.674  26.209  1.00  0.00     0.014 A 
ATOM     35  C   UNL A   1      42.803  22.815  28.940  1.00  0.00     0.010 A 
ATOM     36  C   UNL A   1      43.495  23.874  26.878  1.00  0.00     0.010 A 
ATOM     37  C   UNL A   1      43.122  23.964  28.222  1.00  0.00    -0.014 A 
BRANCH  37  38
ATOM     38  C   UNL A   1      42.898  25.310  28.740  1.00  0.00     0.031 A 
ATOM     39  C   UNL A   1      41.737  26.108  28.292  1.00  0.00     0.074 A 
ATOM     40  C   UNL A   1      43.707  25.780  29.720  1.00  0.00     0.049 A 
ATOM     41  N   UNL A   1      41.669  27.397  28.349  1.00  0.00    -0.248 NA
ATOM     42  C   UNL A   1      40.559  25.499  27.682  1.00  0.00     0.031 C 
ATOM     43  C   UNL A   1      43.486  26.960  30.554  1.00  0.00     0.029 A 
ATOM     44  N   UNL A   1      45.018  25.399  30.035  1.00  0.00    -0.354 N 
ATOM     45  C   UNL A   1      40.355  27.744  28.124  1.00  0.00     0.074 A 
ATOM     46  C   UNL A   1      39.742  26.552  27.591  1.00  0.00     0.031 C 
ATOM     47  C   UNL A   1      44.671  27.385  31.021  1.00  0.00     0.029 A 
ATOM     48  C   UNL A   1      45.693  26.585  30.364  1.00  0.00     0.049 A 
ATOM     49  H   UNL A   1      45.389  24.488  30.025  1.00  0.00     0.167 HD
ATOM     50  C   UNL A   1      39.892  28.946  28.579  1.00  0.00     0.031 A 
ATOM     51  C   UNL A   1      46.736  27.092  29.642  1.00  0.00     0.031 A 
ATOM     52  C   UNL A   1      40.973  29.776  29.112  1.00  0.00     0.049 A 
ATOM     53  C   UNL A   1      46.484  28.500  29.134  1.00  0.00     0.074 A 
ATOM     54  C   UNL A   1      41.375  30.094  30.400  1.00  0.00     0.029 A 
ATOM     55  N   UNL A   1      42.002  30.182  28.270  1.00  0.00    -0.354 N 
ATOM     56  N   UNL A   1      45.301  29.047  29.076  1.00  0.00    -0.248 NA
ATOM     57  C   UNL A   1      47.523  29.375  28.593  1.00  0.00     0.031 C 
ATOM     58  C   UNL A   1      42.694  30.613  30.332  1.00  0.00     0.029 A 
ATOM     59  C   UNL A   1      43.078  30.641  29.004  1.00  0.00     0.049 A 
ATOM     60  H   UNL A   1      41.969  30.147  27.286  1.00  0.00     0.167 HD
ATOM     61  C   UNL A   1      45.394  30.295  28.522  1.00  0.00     0.074 A 
ATOM     62  C   UNL A   1      46.808  30.460  28.239  1.00  0.00     0.031 C 
ATOM     63  C   UNL A   1      44.293  31.079  28.330  1.00  0.00     0.031 A 
BRANCH  50  64
ATOM     64  C   UNL A   1      38.424  29.239  28.829  1.00  0.00    -0.014 A 
ATOM     65  C   UNL A   1      37.630  29.748  27.783  1.00  0.00     0.009 A 
ATOM     66  C   UNL A   1      37.779  29.123  30.072  1.00  0.00     0.009 A 
ATOM     67  C   UNL A   1      36.320  30.208  27.989  1.00  0.00     0.001 A 
ATOM     68  C   UNL A   1      36.480  29.604  30.296  1.00  0.00     0.001 A 
ATOM     69  C   UNL A   1      35.754  30.163  29.256  1.00  0.00     0.000 A 
ENDBRANCH  50  64
BRANCH  51  70
ATOM     70  C   UNL A   1      47.542  26.077  28.911  1.00  0.00    -0.014 A 
ATOM     71  C   UNL A   1      47.252  25.841  27.553  1.00  0.00     0.009 A 
ATOM     72  C   UNL A   1      48.768  25.627  29.422  1.00  0.00     0.009 A 
ATOM     73  C   UNL A   1      48.207  25.271  26.706  1.00  0.00     0.001 A 
ATOM     74  C   UNL A   1      49.718  25.048  28.571  1.00  0.00     0.001 A 
ATOM     75  C   UNL A   1      49.451  24.904  27.209  1.00  0.00     0.000 A 
ENDBRANCH  51  70
BRANCH  63  76
ATOM     76  C   UNL A   1      44.247  32.365  27.545  1.00  0.00    -0.014 A 
ATOM     77  C   UNL A   1      44.383  32.443  26.154  1.00  0.00     0.009 A 
ATOM     78  C   UNL A   1      43.899  33.559  28.219  1.00  0.00     0.009 A 
ATOM     79  C   UNL A   1      44.219  33.659  25.475  1.00  0.00     0.001 A 
ATOM     80  C   UNL A   1      43.694  34.763  27.542  1.00  0.00     0.001 A 
ATOM     81  C   UNL A   1      43.864  34.814  26.166  1.00  0.00     0.000 A 
ENDBRANCH  63  76
ENDBRANCH  37  38
ENDBRANCH  29  32
ENDBRANCH  27  28
ENDBRANCH  26  27
ENDBRANCH   1  26
TORSDOF 14
ENDMDL
MODEL 3
REMARK VINA RESULT:     -11.6      1.808      2.792
REMARK SMILES Cc1cc(C(=O)NCCCCNC(=O)c2ccc(-c3c4nc(c(-c5ccccc5)c5ccc([nH]5)c(-c5ccccc5)c5nc(c(-c6ccccc6)c6ccc3[nH]6)C=C5)C=C4)cc2)ccc1N[C@H](C)c1cc(F)cc(F)c1
REMARK SMILES IDX 9 1 8 2 7 3 5 4 6 5 4 7 1 8 2 9 3 10 65 11 64 12 63 13 66 14
REMARK SMILES IDX 67 16 68 17 69 18 70 19 76 20 71 21 74 22 72 23 73 24 75 25
REMARK SMILES IDX 10 26 11 27 12 28 13 29 14 31 15 32 16 33 62 34 17 35 61 36
REMARK SMILES IDX 18 37 19 38 20 39 55 40 21 41 60 42 54 43 56 44 22 45 59 46
REMARK SMILES IDX 53 47 52 48 23 50 45 51 30 52 44 53 31 54 34 55 43 56 57 57
REMARK SMILES IDX 32 58 33 59 42 61 58 62 35 63 24 64 25 65 29 66 26 67 28 68
REMARK SMILES IDX 27 69 46 70 47 71 51 72 48 73 50 74 49 75 36 76 37 77 41 78
REMARK SMILES IDX 38 79 40 80 39 81
REMARK H PARENT 7 6 66 15 12 30 56 49 34 60
REMARK Flexibility Score: inf
ROOT
ATOM      1  C   UNL A   1      33.351  29.340  27.201  1.00  0.00     0.023 C 
ENDROOT
BRANCH   1   2
ATOM      2  C   UNL A   1      33.459  29.506  25.672  1.00  0.00     0.116 C 
BRANCH   2   3
ATOM      3  N   UNL A   1      32.195  29.896  25.060  1.00  0.00    -0.352 N 
ATOM      4  C   UNL A   1      31.214  29.230  24.359  1.00  0.00     0.251 C 
ATOM      5  O   UNL A   1      30.238  29.896  24.009  1.00  0.00    -0.269 OA
ATOM      6  H   UNL A   1      31.996  30.853  25.175  1.00  0.00     0.163 HD
BRANCH   4   7
ATOM      7  C   UNL A   1      31.250  27.778  24.005  1.00  0.00     0.040 A 
ATOM      8  C   UNL A   1      32.544  25.720  21.057  1.00  0.00     0.046 C 
ATOM      9  C   UNL A   1      31.908  26.005  22.393  1.00  0.00    -0.027 A 
ATOM     10  C   UNL A   1      31.841  27.373  22.794  1.00  0.00     0.019 A 
ATOM     11  C   UNL A   1      31.331  25.008  23.202  1.00  0.00     0.037 A 
ATOM     12  C   UNL A   1      30.700  25.463  24.355  1.00  0.00     0.027 A 
ATOM     13  C   UNL A   1      30.700  26.785  24.783  1.00  0.00     0.016 A 
BRANCH  11  14
ATOM     14  N   UNL A   1      31.379  23.649  22.911  1.00  0.00    -0.378 N 
ATOM     15  H   UNL A   1      30.532  23.200  22.688  1.00  0.00     0.161 HD
BRANCH  14  16
ATOM     16  C   UNL A   1      32.613  22.829  22.911  1.00  0.00     0.106 C 
ATOM     17  C   UNL A   1      32.226  21.346  22.977  1.00  0.00     0.036 C 
BRANCH  16  18
ATOM     18  C   UNL A   1      33.581  23.173  24.038  1.00  0.00    -0.020 A 
ATOM     19  C   UNL A   1      33.197  22.948  25.379  1.00  0.00     0.045 A 
ATOM     20  C   UNL A   1      34.909  23.559  23.787  1.00  0.00     0.045 A 
ATOM     21  C   UNL A   1      34.146  22.997  26.401  1.00  0.00     0.126 A 
ATOM     22  C   UNL A   1      35.826  23.640  24.834  1.00  0.00     0.126 A 
ATOM     23  F   UNL A   1      33.794  22.635  27.642  1.00  0.00    -0.207 F 
ATOM     24  C   UNL A   1      35.465  23.335  26.139  1.00  0.00     0.078 A 
ATOM     25  F   UNL A   1      37.097  23.971  24.568  1.00  0.00    -0.207 F 
ENDBRANCH  16  18
ENDBRANCH  14  16
ENDBRANCH  11  14
ENDBRANCH   4   7
ENDBRANCH   2   3
ENDBRANCH   1   2
BRANCH   1  26
ATOM     26  C   UNL A   1      34.597  29.818  27.956  1.00  0.00     0.023 C 
BRANCH  26  27
ATOM     27  C   UNL A   1      35.024  31.229  27.559  1.00  0.00     0.116 C 
BRANCH  27  28
ATOM     28  N   UNL A   1      34.099  32.293  27.932  1.00  0.00    -0.352 N 
ATOM     29  C   UNL A   1      34.146  33.173  29.007  1.00  0.00     0.251 C 
ATOM     30  H   UNL A   1      33.325  32.403  27.333  1.00  0.00     0.163 HD
ATOM     31  O   UNL A   1      33.226  33.945  29.204  1.00  0.00    -0.269 OA
BRANCH  29  32
ATOM     32  C   UNL A   1      35.392  33.284  29.818  1.00  0.00     0.039 A 
ATOM     33  C   UNL A   1      36.471  33.968  29.242  1.00  0.00     0.014 A 
ATOM     34  C   UNL A   1      35.589  32.521  30.962  1.00  0.00     0.014 A 
ATOM     35  C   UNL A   1      37.767  33.630  29.616  1.00  0.00     0.010 A 
ATOM     36  C   UNL A   1      36.868  32.090  31.250  1.00  0.00     0.010 A 
ATOM     37  C   UNL A   1      37.947  32.575  30.507  1.00  0.00    -0.014 A 
BRANCH  37  38
ATOM     38  C   UNL A   1      39.179  31.795  30.573  1.00  0.00     0.031 A 
ATOM     39  C   UNL A   1      39.288  30.497  29.873  1.00  0.00     0.074 A 
ATOM     40  C   UNL A   1      40.260  32.325  31.193  1.00  0.00     0.049 A 
ATOM     41  N   UNL A   1      40.125  29.564  30.188  1.00  0.00    -0.248 NA
ATOM     42  C   UNL A   1      38.402  30.124  28.775  1.00  0.00     0.031 C 
ATOM     43  C   UNL A   1      41.638  31.841  31.126  1.00  0.00     0.029 A 
ATOM     44  N   UNL A   1      40.307  33.306  32.191  1.00  0.00    -0.354 N 
ATOM     45  C   UNL A   1      40.128  28.656  29.152  1.00  0.00     0.074 A 
ATOM     46  C   UNL A   1      38.959  28.978  28.372  1.00  0.00     0.031 C 
ATOM     47  C   UNL A   1      42.298  32.271  32.214  1.00  0.00     0.029 A 
ATOM     48  C   UNL A   1      41.314  32.901  33.081  1.00  0.00     0.049 A 
ATOM     49  H   UNL A   1      39.748  34.113  32.256  1.00  0.00     0.167 HD
ATOM     50  C   UNL A   1      41.214  27.848  28.972  1.00  0.00     0.031 A 
ATOM     51  C   UNL A   1      41.085  32.553  34.382  1.00  0.00     0.031 A 
ATOM     52  C   UNL A   1      42.173  27.978  30.071  1.00  0.00     0.049 A 
ATOM     53  C   UNL A   1      41.546  31.145  34.715  1.00  0.00     0.074 A 
ATOM     54  C   UNL A   1      43.393  28.625  30.189  1.00  0.00     0.029 A 
ATOM     55  N   UNL A   1      41.787  27.631  31.360  1.00  0.00    -0.354 N 
ATOM     56  N   UNL A   1      41.807  30.238  33.816  1.00  0.00    -0.248 NA
ATOM     57  C   UNL A   1      41.686  30.629  36.076  1.00  0.00     0.031 C 
ATOM     58  C   UNL A   1      43.694  28.744  31.571  1.00  0.00     0.029 A 
ATOM     59  C   UNL A   1      42.675  28.140  32.286  1.00  0.00     0.049 A 
ATOM     60  H   UNL A   1      40.990  27.097  31.583  1.00  0.00     0.167 HD
ATOM     61  C   UNL A   1      42.142  29.060  34.428  1.00  0.00     0.074 A 
ATOM     62  C   UNL A   1      42.057  29.355  35.847  1.00  0.00     0.031 C 
ATOM     63  C   UNL A   1      42.446  27.940  33.711  1.00  0.00     0.031 A 
BRANCH  50  64
ATOM     64  C   UNL A   1      41.555  27.180  27.652  1.00  0.00    -0.014 A 
ATOM     65  C   UNL A   1      41.478  25.778  27.544  1.00  0.00     0.009 A 
ATOM     66  C   UNL A   1      42.033  27.846  26.511  1.00  0.00     0.009 A 
ATOM     67  C   UNL A   1      41.947  25.085  26.417  1.00  0.00     0.001 A 
ATOM     68  C   UNL A   1      42.530  27.163  25.391  1.00  0.00     0.001 A 
ATOM     69  C   UNL A   1      42.501  25.778  25.351  1.00  0.00     0.000 A 
ENDBRANCH  50  64
BRANCH  51  70
ATOM     70  C   UNL A   1      39.905  33.209  35.006  1.00  0.00    -0.014 A 
ATOM     71  C   UNL A   1      38.653  32.571  34.910  1.00  0.00     0.009 A 
ATOM     72  C   UNL A   1      40.067  34.227  35.957  1.00  0.00     0.009 A 
ATOM     73  C   UNL A   1      37.628  32.866  35.815  1.00  0.00     0.001 A 
ATOM     74  C   UNL A   1      39.034  34.526  36.855  1.00  0.00     0.001 A 
ATOM     75  C   UNL A   1      37.830  33.821  36.806  1.00  0.00     0.000 A 
ENDBRANCH  51  70
BRANCH  63  76
ATOM     76  C   UNL A   1      42.619  26.550  34.270  1.00  0.00    -0.014 A 
ATOM     77  C   UNL A   1      41.691  25.916  35.104  1.00  0.00     0.009 A 
ATOM     78  C   UNL A   1      43.707  25.768  33.818  1.00  0.00     0.009 A 
ATOM     79  C   UNL A   1      41.861  24.581  35.499  1.00  0.00     0.001 A 
ATOM     80  C   UNL A   1      43.858  24.426  34.174  1.00  0.00     0.001 A 
ATOM     81  C   UNL A   1      42.937  23.834  35.025  1.00  0.00     0.000 A 
ENDBRANCH  63  76
ENDBRANCH  37  38
ENDBRANCH  29  32
ENDBRANCH  27  28
ENDBRANCH  26  27
ENDBRANCH   1  26
TORSDOF 14
ENDMDL
