MODEL 1
REMARK VINA RESULT:     -10.0      0.000      0.000
REMARK SMILES C=CC[N@H+](CC(=O)NCCCCNC(=O)c1ccc(-c2c3nc(c(-c4ccccc4)c4ccc([nH]4)c(-c4ccccc4)c4nc(c(-c5ccccc5)c5ccc2[nH]5)C=C4)C=C3)cc1)Cc1ccc([N+](=O)[O-])o1
REMARK SMILES IDX 9 1 8 2 6 3 7 4 5 6 4 7 3 9 2 10 1 11 64 12 65 13 66 14
REMARK SMILES IDX 72 15 67 16 68 17 69 18 70 19 71 20 10 21 11 22 12 23 13 24
REMARK SMILES IDX 14 25 15 27 16 28 17 29 63 30 18 31 62 32 19 33 20 34 21 35
REMARK SMILES IDX 56 36 22 37 61 38 55 39 57 40 23 41 60 42 54 43 53 44 24 46
REMARK SMILES IDX 46 47 31 48 45 49 32 50 35 51 44 52 58 53 33 54 34 55 43 57
REMARK SMILES IDX 59 58 36 59 25 60 26 61 30 62 27 63 29 64 28 65 47 66 48 67
REMARK SMILES IDX 52 68 49 69 51 70 50 71 37 72 38 73 42 74 39 75 41 76 40 77
REMARK H PARENT 8 5 4 8 13 26 57 45 35 56
REMARK Flexibility Score: inf
ROOT
ATOM      1  C   UNL A   1      36.920  22.307  24.565  1.00  0.00     0.116 C 
ENDROOT
BRANCH   1   2
ATOM      2  N   UNL A   1      36.144  23.130  25.468  1.00  0.00    -0.351 N 
ATOM      3  C   UNL A   1      34.790  23.325  25.535  1.00  0.00     0.275 C 
ATOM      4  O   UNL A   1      34.341  24.030  26.444  1.00  0.00    -0.269 OA
ATOM      5  H   UNL A   1      36.670  23.624  26.137  1.00  0.00     0.163 HD
BRANCH   3   6
ATOM      6  C   UNL A   1      33.855  22.697  24.496  1.00  0.00     0.364 C 
BRANCH   6   7
ATOM      7  N   UNL A   1      32.703  22.043  25.122  1.00  0.00    -0.318 N 
ATOM      8  H   UNL A   1      32.701  22.250  26.121  1.00  0.00     0.349 HD
BRANCH   7   9
ATOM      9  C   UNL A   1      31.422  22.689  24.947  1.00  0.00     0.291 C 
BRANCH   9  10
ATOM     10  C   UNL A   1      31.033  23.162  23.580  1.00  0.00     0.025 C 
ATOM     11  C   UNL A   1      30.576  24.390  23.293  1.00  0.00     0.010 C 
ENDBRANCH   9  10
ENDBRANCH   7   9
BRANCH   7  12
ATOM     12  C   UNL A   1      32.848  20.679  25.602  1.00  0.00     0.339 C 
BRANCH  12  13
ATOM     13  C   UNL A   1      32.723  19.611  24.549  1.00  0.00     0.165 A 
ATOM     14  C   UNL A   1      32.201  19.643  23.266  1.00  0.00     0.059 A 
ATOM     15  O   UNL A   1      33.219  18.355  24.805  1.00  0.00    -0.400 OA
ATOM     16  C   UNL A   1      32.448  18.375  22.679  1.00  0.00     0.134 A 
ATOM     17  C   UNL A   1      33.121  17.664  23.639  1.00  0.00     0.433 A 
BRANCH  17  18
ATOM     18  N   UNL A   1      33.715  16.370  23.600  1.00  0.00     0.102 N 
ATOM     19  O   UNL A   1      33.488  15.633  24.569  1.00  0.00    -0.256 OA
ATOM     20  O   UNL A   1      34.381  16.063  22.600  1.00  0.00    -0.256 OA
ENDBRANCH  17  18
ENDBRANCH  12  13
ENDBRANCH   7  12
ENDBRANCH   6   7
ENDBRANCH   3   6
ENDBRANCH   1   2
BRANCH   1  21
ATOM     21  C   UNL A   1      36.827  20.802  24.852  1.00  0.00     0.023 C 
BRANCH  21  22
ATOM     22  C   UNL A   1      38.099  19.972  24.796  1.00  0.00     0.023 C 
BRANCH  22  23
ATOM     23  C   UNL A   1      39.097  20.238  25.899  1.00  0.00     0.116 C 
BRANCH  23  24
ATOM     24  N   UNL A   1      40.151  19.235  25.938  1.00  0.00    -0.352 N 
ATOM     25  C   UNL A   1      41.497  19.430  26.163  1.00  0.00     0.251 C 
ATOM     26  H   UNL A   1      39.867  18.304  25.786  1.00  0.00     0.163 HD
ATOM     27  O   UNL A   1      42.303  18.541  25.970  1.00  0.00    -0.269 OA
BRANCH  25  28
ATOM     28  C   UNL A   1      41.938  20.767  26.619  1.00  0.00     0.039 A 
ATOM     29  C   UNL A   1      42.317  21.723  25.674  1.00  0.00     0.014 A 
ATOM     30  C   UNL A   1      41.900  21.085  27.978  1.00  0.00     0.014 A 
ATOM     31  C   UNL A   1      42.604  23.022  26.097  1.00  0.00     0.010 A 
ATOM     32  C   UNL A   1      42.076  22.400  28.379  1.00  0.00     0.010 A 
ATOM     33  C   UNL A   1      42.456  23.376  27.448  1.00  0.00    -0.014 A 
BRANCH  33  34
ATOM     34  C   UNL A   1      42.737  24.751  27.927  1.00  0.00     0.031 A 
ATOM     35  C   UNL A   1      44.153  25.147  28.249  1.00  0.00     0.074 A 
ATOM     36  C   UNL A   1      41.725  25.617  28.128  1.00  0.00     0.049 A 
ATOM     37  N   UNL A   1      44.607  26.274  28.732  1.00  0.00    -0.248 NA
ATOM     38  C   UNL A   1      45.194  24.127  28.032  1.00  0.00     0.031 C 
ATOM     39  C   UNL A   1      40.306  25.337  27.899  1.00  0.00     0.029 A 
ATOM     40  N   UNL A   1      41.739  26.913  28.578  1.00  0.00    -0.354 N 
ATOM     41  C   UNL A   1      45.974  26.088  28.894  1.00  0.00     0.074 A 
ATOM     42  C   UNL A   1      46.267  24.724  28.523  1.00  0.00     0.031 C 
ATOM     43  C   UNL A   1      39.591  26.441  28.172  1.00  0.00     0.029 A 
ATOM     44  C   UNL A   1      40.493  27.489  28.636  1.00  0.00     0.049 A 
ATOM     45  H   UNL A   1      42.564  27.386  28.835  1.00  0.00     0.167 HD
ATOM     46  C   UNL A   1      46.911  26.982  29.287  1.00  0.00     0.031 A 
ATOM     47  C   UNL A   1      40.122  28.724  29.022  1.00  0.00     0.031 A 
ATOM     48  C   UNL A   1      46.620  28.344  29.642  1.00  0.00     0.049 A 
ATOM     49  C   UNL A   1      41.180  29.696  29.469  1.00  0.00     0.074 A 
ATOM     50  C   UNL A   1      47.500  29.348  29.999  1.00  0.00     0.029 A 
ATOM     51  N   UNL A   1      45.346  28.889  29.681  1.00  0.00    -0.354 N 
ATOM     52  N   UNL A   1      42.478  29.530  29.545  1.00  0.00    -0.248 NA
ATOM     53  C   UNL A   1      40.719  31.032  29.872  1.00  0.00     0.031 C 
ATOM     54  C   UNL A   1      46.752  30.490  30.309  1.00  0.00     0.029 A 
ATOM     55  C   UNL A   1      45.413  30.212  30.081  1.00  0.00     0.049 A 
ATOM     56  H   UNL A   1      44.517  28.408  29.458  1.00  0.00     0.167 HD
ATOM     57  C   UNL A   1      42.993  30.746  29.976  1.00  0.00     0.074 A 
ATOM     58  C   UNL A   1      41.867  31.646  30.126  1.00  0.00     0.031 C 
ATOM     59  C   UNL A   1      44.280  31.090  30.224  1.00  0.00     0.031 A 
BRANCH  46  60
ATOM     60  C   UNL A   1      48.336  26.504  29.355  1.00  0.00    -0.014 A 
ATOM     61  C   UNL A   1      48.854  25.921  30.522  1.00  0.00     0.009 A 
ATOM     62  C   UNL A   1      49.169  26.628  28.232  1.00  0.00     0.009 A 
ATOM     63  C   UNL A   1      50.187  25.508  30.578  1.00  0.00     0.001 A 
ATOM     64  C   UNL A   1      50.492  26.183  28.279  1.00  0.00     0.001 A 
ATOM     65  C   UNL A   1      51.003  25.636  29.455  1.00  0.00     0.000 A 
ENDBRANCH  46  60
BRANCH  47  66
ATOM     66  C   UNL A   1      38.690  29.124  28.980  1.00  0.00    -0.014 A 
ATOM     67  C   UNL A   1      37.886  29.008  30.124  1.00  0.00     0.009 A 
ATOM     68  C   UNL A   1      38.118  29.613  27.796  1.00  0.00     0.009 A 
ATOM     69  C   UNL A   1      36.532  29.347  30.076  1.00  0.00     0.001 A 
ATOM     70  C   UNL A   1      36.770  29.982  27.759  1.00  0.00     0.001 A 
ATOM     71  C   UNL A   1      35.976  29.838  28.896  1.00  0.00     0.000 A 
ENDBRANCH  47  66
BRANCH  59  72
ATOM     72  C   UNL A   1      44.544  32.508  30.643  1.00  0.00    -0.014 A 
ATOM     73  C   UNL A   1      44.617  32.868  31.997  1.00  0.00     0.009 A 
ATOM     74  C   UNL A   1      44.769  33.489  29.664  1.00  0.00     0.009 A 
ATOM     75  C   UNL A   1      44.875  34.191  32.361  1.00  0.00     0.001 A 
ATOM     76  C   UNL A   1      45.058  34.803  30.031  1.00  0.00     0.001 A 
ATOM     77  C   UNL A   1      45.100  35.155  31.378  1.00  0.00     0.000 A 
ENDBRANCH  59  72
ENDBRANCH  33  34
ENDBRANCH  25  28
ENDBRANCH  23  24
ENDBRANCH  22  23
ENDBRANCH  21  22
ENDBRANCH   1  21
TORSDOF 17
ENDMDL
MODEL 2
REMARK VINA RESULT:      -9.8      5.604     10.221
REMARK SMILES C=CC[N@H+](CC(=O)NCCCCNC(=O)c1ccc(-c2c3nc(c(-c4ccccc4)c4ccc([nH]4)c(-c4ccccc4)c4nc(c(-c5ccccc5)c5ccc2[nH]5)C=C4)C=C3)cc1)Cc1ccc([N+](=O)[O-])o1
REMARK SMILES IDX 9 1 8 2 6 3 7 4 5 6 4 7 3 9 2 10 1 11 64 12 65 13 66 14
REMARK SMILES IDX 72 15 67 16 68 17 69 18 70 19 71 20 10 21 11 22 12 23 13 24
REMARK SMILES IDX 14 25 15 27 16 28 17 29 63 30 18 31 62 32 19 33 20 34 21 35
REMARK SMILES IDX 56 36 22 37 61 38 55 39 57 40 23 41 60 42 54 43 53 44 24 46
REMARK SMILES IDX 46 47 31 48 45 49 32 50 35 51 44 52 58 53 33 54 34 55 43 57
REMARK SMILES IDX 59 58 36 59 25 60 26 61 30 62 27 63 29 64 28 65 47 66 48 67
REMARK SMILES IDX 52 68 49 69 51 70 50 71 37 72 38 73 42 74 39 75 41 76 40 77
REMARK H PARENT 8 5 4 8 13 26 57 45 35 56
REMARK Flexibility Score: inf
ROOT
ATOM      1  C   UNL A   1      32.870  29.773  25.492  1.00  0.00     0.116 C 
ENDROOT
BRANCH   1   2
ATOM      2  N   UNL A   1      33.373  28.420  25.596  1.00  0.00    -0.351 N 
ATOM      3  C   UNL A   1      32.790  27.234  25.237  1.00  0.00     0.275 C 
ATOM      4  O   UNL A   1      33.444  26.194  25.360  1.00  0.00    -0.269 OA
ATOM      5  H   UNL A   1      34.275  28.340  25.984  1.00  0.00     0.163 HD
BRANCH   3   6
ATOM      6  C   UNL A   1      31.351  27.196  24.711  1.00  0.00     0.364 C 
BRANCH   6   7
ATOM      7  N   UNL A   1      31.304  27.167  23.247  1.00  0.00    -0.318 N 
ATOM      8  H   UNL A   1      32.256  27.170  22.881  1.00  0.00     0.349 HD
BRANCH   7   9
ATOM      9  C   UNL A   1      31.034  25.885  22.638  1.00  0.00     0.291 C 
BRANCH   9  10
ATOM     10  C   UNL A   1      30.526  24.769  23.499  1.00  0.00     0.025 C 
ATOM     11  C   UNL A   1      31.024  23.523  23.515  1.00  0.00     0.010 C 
ENDBRANCH   9  10
ENDBRANCH   7   9
BRANCH   7  12
ATOM     12  C   UNL A   1      31.229  28.424  22.524  1.00  0.00     0.339 C 
BRANCH  12  13
ATOM     13  C   UNL A   1      29.852  29.026  22.425  1.00  0.00     0.165 A 
ATOM     14  C   UNL A   1      28.662  28.705  23.059  1.00  0.00     0.059 A 
ATOM     15  O   UNL A   1      29.652  30.115  21.610  1.00  0.00    -0.400 OA
ATOM     16  C   UNL A   1      27.705  29.679  22.673  1.00  0.00     0.134 A 
ATOM     17  C   UNL A   1      28.383  30.537  21.847  1.00  0.00     0.433 A 
BRANCH  17  18
ATOM     18  N   UNL A   1      27.980  31.756  21.230  1.00  0.00     0.102 N 
ATOM     19  O   UNL A   1      28.026  32.771  21.940  1.00  0.00    -0.256 OA
ATOM     20  O   UNL A   1      27.645  31.725  20.037  1.00  0.00    -0.256 OA
ENDBRANCH  17  18
ENDBRANCH  12  13
ENDBRANCH   7  12
ENDBRANCH   6   7
ENDBRANCH   3   6
ENDBRANCH   1   2
BRANCH   1  21
ATOM     21  C   UNL A   1      32.013  30.216  26.686  1.00  0.00     0.023 C 
BRANCH  21  22
ATOM     22  C   UNL A   1      31.744  31.700  26.876  1.00  0.00     0.023 C 
BRANCH  22  23
ATOM     23  C   UNL A   1      32.944  32.532  27.263  1.00  0.00     0.116 C 
BRANCH  23  24
ATOM     24  N   UNL A   1      32.588  33.920  27.519  1.00  0.00    -0.352 N 
ATOM     25  C   UNL A   1      33.057  34.743  28.521  1.00  0.00     0.251 C 
ATOM     26  H   UNL A   1      31.934  34.320  26.900  1.00  0.00     0.163 HD
ATOM     27  O   UNL A   1      32.534  35.816  28.751  1.00  0.00    -0.269 OA
BRANCH  25  28
ATOM     28  C   UNL A   1      34.201  34.268  29.330  1.00  0.00     0.039 A 
ATOM     29  C   UNL A   1      33.961  33.504  30.474  1.00  0.00     0.014 A 
ATOM     30  C   UNL A   1      35.507  34.524  28.906  1.00  0.00     0.014 A 
ATOM     31  C   UNL A   1      35.041  32.947  31.160  1.00  0.00     0.010 A 
ATOM     32  C   UNL A   1      36.567  33.879  29.523  1.00  0.00     0.010 A 
ATOM     33  C   UNL A   1      36.349  33.105  30.671  1.00  0.00    -0.014 A 
BRANCH  33  34
ATOM     34  C   UNL A   1      37.516  32.512  31.367  1.00  0.00     0.031 A 
ATOM     35  C   UNL A   1      38.228  31.339  30.748  1.00  0.00     0.074 A 
ATOM     36  C   UNL A   1      37.896  32.981  32.571  1.00  0.00     0.049 A 
ATOM     37  N   UNL A   1      39.230  30.640  31.215  1.00  0.00    -0.248 NA
ATOM     38  C   UNL A   1      37.725  30.868  29.446  1.00  0.00     0.031 C 
ATOM     39  C   UNL A   1      37.257  34.081  33.296  1.00  0.00     0.029 A 
ATOM     40  N   UNL A   1      38.915  32.586  33.399  1.00  0.00    -0.354 N 
ATOM     41  C   UNL A   1      39.458  29.641  30.277  1.00  0.00     0.074 A 
ATOM     42  C   UNL A   1      38.452  29.781  29.250  1.00  0.00     0.031 C 
ATOM     43  C   UNL A   1      37.923  34.297  34.443  1.00  0.00     0.029 A 
ATOM     44  C   UNL A   1      39.005  33.326  34.553  1.00  0.00     0.049 A 
ATOM     45  H   UNL A   1      39.525  31.842  33.187  1.00  0.00     0.167 HD
ATOM     46  C   UNL A   1      40.436  28.707  30.254  1.00  0.00     0.031 A 
ATOM     47  C   UNL A   1      39.865  33.229  35.584  1.00  0.00     0.031 A 
ATOM     48  C   UNL A   1      41.446  28.578  31.269  1.00  0.00     0.049 A 
ATOM     49  C   UNL A   1      40.937  32.172  35.543  1.00  0.00     0.074 A 
ATOM     50  C   UNL A   1      42.516  27.704  31.315  1.00  0.00     0.029 A 
ATOM     51  N   UNL A   1      41.505  29.351  32.418  1.00  0.00    -0.354 N 
ATOM     52  N   UNL A   1      41.186  31.283  34.613  1.00  0.00    -0.248 NA
ATOM     53  C   UNL A   1      41.852  32.117  36.692  1.00  0.00     0.031 C 
ATOM     54  C   UNL A   1      43.193  27.911  32.521  1.00  0.00     0.029 A 
ATOM     55  C   UNL A   1      42.582  28.958  33.194  1.00  0.00     0.049 A 
ATOM     56  H   UNL A   1      40.876  30.072  32.648  1.00  0.00     0.167 HD
ATOM     57  C   UNL A   1      42.304  30.582  35.049  1.00  0.00     0.074 A 
ATOM     58  C   UNL A   1      42.693  31.163  36.318  1.00  0.00     0.031 C 
ATOM     59  C   UNL A   1      42.951  29.550  34.453  1.00  0.00     0.031 A 
BRANCH  46  60
ATOM     60  C   UNL A   1      40.453  27.752  29.091  1.00  0.00    -0.014 A 
ATOM     61  C   UNL A   1      41.277  27.977  27.976  1.00  0.00     0.009 A 
ATOM     62  C   UNL A   1      39.645  26.605  29.116  1.00  0.00     0.009 A 
ATOM     63  C   UNL A   1      41.261  27.096  26.892  1.00  0.00     0.001 A 
ATOM     64  C   UNL A   1      39.655  25.707  28.046  1.00  0.00     0.001 A 
ATOM     65  C   UNL A   1      40.453  25.960  26.931  1.00  0.00     0.000 A 
ENDBRANCH  46  60
BRANCH  47  66
ATOM     66  C   UNL A   1      39.769  34.171  36.731  1.00  0.00    -0.014 A 
ATOM     67  C   UNL A   1      39.026  33.830  37.871  1.00  0.00     0.009 A 
ATOM     68  C   UNL A   1      40.412  35.418  36.690  1.00  0.00     0.009 A 
ATOM     69  C   UNL A   1      38.903  34.729  38.933  1.00  0.00     0.001 A 
ATOM     70  C   UNL A   1      40.314  36.303  37.767  1.00  0.00     0.001 A 
ATOM     71  C   UNL A   1      39.551  35.962  38.882  1.00  0.00     0.000 A 
ENDBRANCH  47  66
BRANCH  59  72
ATOM     72  C   UNL A   1      44.170  29.013  35.147  1.00  0.00    -0.014 A 
ATOM     73  C   UNL A   1      45.444  29.553  34.911  1.00  0.00     0.009 A 
ATOM     74  C   UNL A   1      44.032  27.979  36.087  1.00  0.00     0.009 A 
ATOM     75  C   UNL A   1      46.559  29.042  35.577  1.00  0.00     0.001 A 
ATOM     76  C   UNL A   1      45.144  27.493  36.775  1.00  0.00     0.001 A 
ATOM     77  C   UNL A   1      46.407  28.018  36.511  1.00  0.00     0.000 A 
ENDBRANCH  59  72
ENDBRANCH  33  34
ENDBRANCH  25  28
ENDBRANCH  23  24
ENDBRANCH  22  23
ENDBRANCH  21  22
ENDBRANCH   1  21
TORSDOF 17
ENDMDL
MODEL 3
REMARK VINA RESULT:      -9.8      5.356     10.425
REMARK SMILES C=CC[N@H+](CC(=O)NCCCCNC(=O)c1ccc(-c2c3nc(c(-c4ccccc4)c4ccc([nH]4)c(-c4ccccc4)c4nc(c(-c5ccccc5)c5ccc2[nH]5)C=C4)C=C3)cc1)Cc1ccc([N+](=O)[O-])o1
REMARK SMILES IDX 9 1 8 2 6 3 7 4 5 6 4 7 3 9 2 10 1 11 64 12 65 13 66 14
REMARK SMILES IDX 72 15 67 16 68 17 69 18 70 19 71 20 10 21 11 22 12 23 13 24
REMARK SMILES IDX 14 25 15 27 16 28 17 29 63 30 18 31 62 32 19 33 20 34 21 35
REMARK SMILES IDX 56 36 22 37 61 38 55 39 57 40 23 41 60 42 54 43 53 44 24 46
REMARK SMILES IDX 46 47 31 48 45 49 32 50 35 51 44 52 58 53 33 54 34 55 43 57
REMARK SMILES IDX 59 58 36 59 25 60 26 61 30 62 27 63 29 64 28 65 47 66 48 67
REMARK SMILES IDX 52 68 49 69 51 70 50 71 37 72 38 73 42 74 39 75 41 76 40 77
REMARK H PARENT 8 5 4 8 13 26 57 45 35 56
REMARK Flexibility Score: inf
ROOT
ATOM      1  C   UNL A   1      32.238  29.980  25.398  1.00  0.00     0.116 C 
ENDROOT
BRANCH   1   2
ATOM      2  N   UNL A   1      32.776  28.696  25.792  1.00  0.00    -0.351 N 
ATOM      3  C   UNL A   1      32.343  27.431  25.493  1.00  0.00     0.275 C 
ATOM      4  O   UNL A   1      33.009  26.471  25.892  1.00  0.00    -0.269 OA
ATOM      5  H   UNL A   1      33.578  28.738  26.363  1.00  0.00     0.163 HD
BRANCH   3   6
ATOM      6  C   UNL A   1      31.053  27.213  24.695  1.00  0.00     0.364 C 
BRANCH   6   7
ATOM      7  N   UNL A   1      31.319  27.007  23.270  1.00  0.00    -0.318 N 
ATOM      8  H   UNL A   1      32.303  27.200  23.080  1.00  0.00     0.349 HD
BRANCH   7   9
ATOM      9  C   UNL A   1      31.465  25.637  22.834  1.00  0.00     0.291 C 
BRANCH   9  10
ATOM     10  C   UNL A   1      30.611  24.582  23.469  1.00  0.00     0.025 C 
ATOM     11  C   UNL A   1      31.036  23.695  24.380  1.00  0.00     0.010 C 
ENDBRANCH   9  10
ENDBRANCH   7   9
BRANCH   7  12
ATOM     12  C   UNL A   1      31.126  28.118  22.354  1.00  0.00     0.339 C 
BRANCH  12  13
ATOM     13  C   UNL A   1      29.758  28.747  22.388  1.00  0.00     0.165 A 
ATOM     14  C   UNL A   1      28.621  28.434  23.116  1.00  0.00     0.059 A 
ATOM     15  O   UNL A   1      29.511  29.858  21.617  1.00  0.00    -0.400 OA
ATOM     16  C   UNL A   1      27.655  29.434  22.837  1.00  0.00     0.134 A 
ATOM     17  C   UNL A   1      28.276  30.298  21.973  1.00  0.00     0.433 A 
BRANCH  17  18
ATOM     18  N   UNL A   1      27.846  31.539  21.420  1.00  0.00     0.102 N 
ATOM     19  O   UNL A   1      27.722  32.480  22.216  1.00  0.00    -0.256 OA
ATOM     20  O   UNL A   1      27.658  31.599  20.196  1.00  0.00    -0.256 OA
ENDBRANCH  17  18
ENDBRANCH  12  13
ENDBRANCH   7  12
ENDBRANCH   6   7
ENDBRANCH   3   6
ENDBRANCH   1   2
BRANCH   1  21
ATOM     21  C   UNL A   1      31.425  30.682  26.494  1.00  0.00     0.023 C 
BRANCH  21  22
ATOM     22  C   UNL A   1      31.429  32.202  26.542  1.00  0.00     0.023 C 
BRANCH  22  23
ATOM     23  C   UNL A   1      32.604  32.825  27.258  1.00  0.00     0.116 C 
BRANCH  23  24
ATOM     24  N   UNL A   1      32.351  34.212  27.621  1.00  0.00    -0.352 N 
ATOM     25  C   UNL A   1      32.953  34.949  28.620  1.00  0.00     0.251 C 
ATOM     26  H   UNL A   1      31.668  34.680  27.088  1.00  0.00     0.163 HD
ATOM     27  O   UNL A   1      32.513  36.031  28.955  1.00  0.00    -0.269 OA
BRANCH  25  28
ATOM     28  C   UNL A   1      34.135  34.368  29.294  1.00  0.00     0.039 A 
ATOM     29  C   UNL A   1      33.958  33.592  30.441  1.00  0.00     0.014 A 
ATOM     30  C   UNL A   1      35.405  34.539  28.738  1.00  0.00     0.014 A 
ATOM     31  C   UNL A   1      35.058  32.938  30.997  1.00  0.00     0.010 A 
ATOM     32  C   UNL A   1      36.472  33.800  29.226  1.00  0.00     0.010 A 
ATOM     33  C   UNL A   1      36.316  33.013  30.376  1.00  0.00    -0.014 A 
BRANCH  33  34
ATOM     34  C   UNL A   1      37.501  32.316  30.932  1.00  0.00     0.031 A 
ATOM     35  C   UNL A   1      38.127  32.823  32.204  1.00  0.00     0.074 A 
ATOM     36  C   UNL A   1      38.048  31.278  30.270  1.00  0.00     0.049 A 
ATOM     37  N   UNL A   1      39.196  32.397  32.826  1.00  0.00    -0.248 NA
ATOM     38  C   UNL A   1      37.485  33.985  32.843  1.00  0.00     0.031 C 
ATOM     39  C   UNL A   1      37.562  30.725  29.004  1.00  0.00     0.029 A 
ATOM     40  N   UNL A   1      39.138  30.504  30.574  1.00  0.00    -0.354 N 
ATOM     41  C   UNL A   1      39.361  33.250  33.910  1.00  0.00     0.074 A 
ATOM     42  C   UNL A   1      38.328  34.255  33.826  1.00  0.00     0.031 C 
ATOM     43  C   UNL A   1      38.329  29.677  28.660  1.00  0.00     0.029 A 
ATOM     44  C   UNL A   1      39.382  29.512  29.656  1.00  0.00     0.049 A 
ATOM     45  H   UNL A   1      39.694  30.647  31.375  1.00  0.00     0.167 HD
ATOM     46  C   UNL A   1      40.274  33.186  34.907  1.00  0.00     0.031 A 
ATOM     47  C   UNL A   1      40.349  28.576  29.622  1.00  0.00     0.031 A 
ATOM     48  C   UNL A   1      41.293  32.177  34.997  1.00  0.00     0.049 A 
ATOM     49  C   UNL A   1      41.362  28.533  30.735  1.00  0.00     0.074 A 
ATOM     50  C   UNL A   1      42.232  31.986  35.994  1.00  0.00     0.029 A 
ATOM     51  N   UNL A   1      41.502  31.186  34.050  1.00  0.00    -0.354 N 
ATOM     52  N   UNL A   1      41.461  29.300  31.794  1.00  0.00    -0.248 NA
ATOM     53  C   UNL A   1      42.390  27.486  30.650  1.00  0.00     0.031 C 
ATOM     54  C   UNL A   1      43.046  30.911  35.623  1.00  0.00     0.029 A 
ATOM     55  C   UNL A   1      42.572  30.394  34.427  1.00  0.00     0.049 A 
ATOM     56  H   UNL A   1      40.969  31.064  33.232  1.00  0.00     0.167 HD
ATOM     57  C   UNL A   1      42.541  28.811  32.517  1.00  0.00     0.074 A 
ATOM     58  C   UNL A   1      43.053  27.671  31.784  1.00  0.00     0.031 C 
ATOM     59  C   UNL A   1      43.064  29.263  33.683  1.00  0.00     0.031 A 
BRANCH  46  60
ATOM     60  C   UNL A   1      40.206  34.245  35.975  1.00  0.00    -0.014 A 
ATOM     61  C   UNL A   1      40.862  35.477  35.821  1.00  0.00     0.009 A 
ATOM     62  C   UNL A   1      39.466  34.012  37.144  1.00  0.00     0.009 A 
ATOM     63  C   UNL A   1      40.813  36.438  36.833  1.00  0.00     0.001 A 
ATOM     64  C   UNL A   1      39.390  34.987  38.140  1.00  0.00     0.001 A 
ATOM     65  C   UNL A   1      40.073  36.194  37.989  1.00  0.00     0.000 A 
ENDBRANCH  46  60
BRANCH  47  66
ATOM     66  C   UNL A   1      40.394  27.585  28.514  1.00  0.00    -0.014 A 
ATOM     67  C   UNL A   1      39.748  26.346  28.642  1.00  0.00     0.009 A 
ATOM     68  C   UNL A   1      41.089  27.867  27.328  1.00  0.00     0.009 A 
ATOM     69  C   UNL A   1      39.821  25.399  27.617  1.00  0.00     0.001 A 
ATOM     70  C   UNL A   1      41.134  26.930  26.292  1.00  0.00     0.001 A 
ATOM     71  C   UNL A   1      40.509  25.693  26.442  1.00  0.00     0.000 A 
ENDBRANCH  47  66
BRANCH  59  72
ATOM     72  C   UNL A   1      44.222  28.499  34.258  1.00  0.00    -0.014 A 
ATOM     73  C   UNL A   1      44.024  27.401  35.109  1.00  0.00     0.009 A 
ATOM     74  C   UNL A   1      45.533  28.858  33.903  1.00  0.00     0.009 A 
ATOM     75  C   UNL A   1      45.117  26.701  35.622  1.00  0.00     0.001 A 
ATOM     76  C   UNL A   1      46.622  28.136  34.391  1.00  0.00     0.001 A 
ATOM     77  C   UNL A   1      46.413  27.065  35.258  1.00  0.00     0.000 A 
ENDBRANCH  59  72
ENDBRANCH  33  34
ENDBRANCH  25  28
ENDBRANCH  23  24
ENDBRANCH  22  23
ENDBRANCH  21  22
ENDBRANCH   1  21
TORSDOF 17
ENDMDL
