MODEL 1
REMARK VINA RESULT:     -11.8      0.000      0.000
REMARK SMILES O=C(NCCCCNC(=O)[C@@H]1CN(C(=O)CCC(F)(F)F)C[C@H]1c1ccc2c(c1)OCO2)c1ccc(-c2c3nc(c(-c4ccccc4)c4ccc([nH]4)c(-c4ccccc4)c4nc(c(-c5ccccc5)c5ccc2[nH]5)C=C4)C=C3)cc1
REMARK SMILES IDX 6 1 5 2 4 3 3 4 1 5 2 6 33 8 34 9 80 10 35 11 79 12 36 13
REMARK SMILES IDX 37 14 38 15 73 16 39 17 78 18 72 19 74 20 40 21 77 22 71 23
REMARK SMILES IDX 70 24 41 26 63 27 48 28 62 29 49 30 52 31 61 32 75 33 50 34
REMARK SMILES IDX 51 35 60 37 76 38 53 39 42 40 43 41 47 42 44 43 46 44 45 45
REMARK SMILES IDX 64 46 65 47 69 48 66 49 68 50 67 51 54 52 55 53 59 54 56 55
REMARK SMILES IDX 58 56 57 57 7 58 8 59 9 60 10 62 11 63 12 64 23 65 13 66
REMARK SMILES IDX 22 67 24 68 25 69 29 70 26 71 28 72 27 73 30 74 32 75 31 76
REMARK SMILES IDX 14 77 15 78 16 79 17 80 18 81 19 82 20 83 21 84
REMARK H PARENT 3 7 74 25 52 36 8 61
REMARK Flexibility Score: inf
ROOT
ATOM      1  C   UNL A   1      39.009  22.463  26.394  1.00  0.00     0.023 C 
ENDROOT
BRANCH   1   2
ATOM      2  C   UNL A   1      39.255  21.204  25.561  1.00  0.00     0.023 C 
BRANCH   2   3
ATOM      3  C   UNL A   1      39.536  19.946  26.368  1.00  0.00     0.116 C 
BRANCH   3   4
ATOM      4  N   UNL A   1      40.722  19.237  25.919  1.00  0.00    -0.352 N 
ATOM      5  O   UNL A   1      42.894  19.008  25.343  1.00  0.00    -0.269 OA
ATOM      6  C   UNL A   1      42.023  19.683  25.874  1.00  0.00     0.251 C 
ATOM      7  H   UNL A   1      40.575  18.316  25.604  1.00  0.00     0.163 HD
BRANCH   6   8
ATOM      8  C   UNL A   1      42.350  21.005  26.446  1.00  0.00     0.039 A 
ATOM      9  C   UNL A   1      42.300  21.212  27.827  1.00  0.00     0.014 A 
ATOM     10  C   UNL A   1      42.699  22.050  25.586  1.00  0.00     0.014 A 
ATOM     11  C   UNL A   1      42.469  22.493  28.337  1.00  0.00     0.010 A 
ATOM     12  C   UNL A   1      42.945  23.322  26.108  1.00  0.00     0.010 A 
ATOM     13  C   UNL A   1      42.804  23.557  27.484  1.00  0.00    -0.014 A 
BRANCH  13  14
ATOM     14  C   UNL A   1      43.073  24.893  28.067  1.00  0.00     0.031 A 
ATOM     15  C   UNL A   1      44.464  25.316  28.442  1.00  0.00     0.074 A 
ATOM     16  C   UNL A   1      42.037  25.735  28.239  1.00  0.00     0.049 A 
ATOM     17  N   UNL A   1      44.867  26.456  28.944  1.00  0.00    -0.248 NA
ATOM     18  C   UNL A   1      45.540  24.336  28.235  1.00  0.00     0.031 C 
ATOM     19  C   UNL A   1      40.639  25.429  27.921  1.00  0.00     0.029 A 
ATOM     20  N   UNL A   1      41.998  27.023  28.706  1.00  0.00    -0.354 N 
ATOM     21  C   UNL A   1      46.236  26.324  29.133  1.00  0.00     0.074 A 
ATOM     22  C   UNL A   1      46.594  24.988  28.709  1.00  0.00     0.031 C 
ATOM     23  C   UNL A   1      39.887  26.512  28.162  1.00  0.00     0.029 A 
ATOM     24  C   UNL A   1      40.737  27.566  28.702  1.00  0.00     0.049 A 
ATOM     25  H   UNL A   1      42.796  27.511  29.011  1.00  0.00     0.167 HD
ATOM     26  C   UNL A   1      47.113  27.237  29.617  1.00  0.00     0.031 A 
ATOM     27  C   UNL A   1      40.305  28.773  29.105  1.00  0.00     0.031 A 
ATOM     28  C   UNL A   1      46.753  28.567  30.035  1.00  0.00     0.049 A 
ATOM     29  C   UNL A   1      41.294  29.757  29.650  1.00  0.00     0.074 A 
ATOM     30  C   UNL A   1      47.577  29.578  30.501  1.00  0.00     0.029 A 
ATOM     31  N   UNL A   1      45.461  29.070  30.044  1.00  0.00    -0.354 N 
ATOM     32  N   UNL A   1      42.592  29.630  29.788  1.00  0.00    -0.248 NA
ATOM     33  C   UNL A   1      40.760  31.050  30.097  1.00  0.00     0.031 C 
ATOM     34  C   UNL A   1      46.777  30.676  30.835  1.00  0.00     0.029 A 
ATOM     35  C   UNL A   1      45.461  30.366  30.532  1.00  0.00     0.049 A 
ATOM     36  H   UNL A   1      44.662  28.578  29.747  1.00  0.00     0.167 HD
ATOM     37  C   UNL A   1      43.032  30.827  30.330  1.00  0.00     0.074 A 
ATOM     38  C   UNL A   1      41.867  31.677  30.475  1.00  0.00     0.031 C 
ATOM     39  C   UNL A   1      44.290  31.190  30.682  1.00  0.00     0.031 A 
BRANCH  26  40
ATOM     40  C   UNL A   1      48.550  26.817  29.748  1.00  0.00    -0.014 A 
ATOM     41  C   UNL A   1      49.479  27.058  28.724  1.00  0.00     0.009 A 
ATOM     42  C   UNL A   1      48.989  26.208  30.935  1.00  0.00     0.009 A 
ATOM     43  C   UNL A   1      50.812  26.670  28.875  1.00  0.00     0.001 A 
ATOM     44  C   UNL A   1      50.328  25.843  31.091  1.00  0.00     0.001 A 
ATOM     45  C   UNL A   1      51.236  26.067  30.059  1.00  0.00     0.000 A 
ENDBRANCH  26  40
BRANCH  27  46
ATOM     46  C   UNL A   1      38.860  29.099  29.017  1.00  0.00    -0.014 A 
ATOM     47  C   UNL A   1      38.026  28.961  30.135  1.00  0.00     0.009 A 
ATOM     48  C   UNL A   1      38.318  29.589  27.818  1.00  0.00     0.009 A 
ATOM     49  C   UNL A   1      36.673  29.295  30.051  1.00  0.00     0.001 A 
ATOM     50  C   UNL A   1      36.972  29.948  27.744  1.00  0.00     0.001 A 
ATOM     51  C   UNL A   1      36.149  29.795  28.859  1.00  0.00     0.000 A 
ENDBRANCH  27  46
BRANCH  39  52
ATOM     52  C   UNL A   1      44.462  32.569  31.246  1.00  0.00    -0.014 A 
ATOM     53  C   UNL A   1      44.699  33.669  30.407  1.00  0.00     0.009 A 
ATOM     54  C   UNL A   1      44.367  32.773  32.631  1.00  0.00     0.009 A 
ATOM     55  C   UNL A   1      44.869  34.944  30.949  1.00  0.00     0.001 A 
ATOM     56  C   UNL A   1      44.514  34.053  33.167  1.00  0.00     0.001 A 
ATOM     57  C   UNL A   1      44.773  35.135  32.328  1.00  0.00     0.000 A 
ENDBRANCH  39  52
ENDBRANCH  13  14
ENDBRANCH   6   8
ENDBRANCH   3   4
ENDBRANCH   2   3
ENDBRANCH   1   2
BRANCH   1  58
ATOM     58  C   UNL A   1      37.837  23.328  25.922  1.00  0.00     0.116 C 
BRANCH  58  59
ATOM     59  N   UNL A   1      37.653  23.238  24.483  1.00  0.00    -0.356 N 
ATOM     60  C   UNL A   1      36.542  23.073  23.721  1.00  0.00     0.225 C 
ATOM     61  H   UNL A   1      38.488  23.310  23.967  1.00  0.00     0.163 HD
ATOM     62  O   UNL A   1      36.713  22.986  22.501  1.00  0.00    -0.275 OA
BRANCH  60  63
ATOM     63  C   UNL A   1      35.131  23.049  24.287  1.00  0.00     0.107 C 
ATOM     64  C   UNL A   1      34.712  21.618  24.576  1.00  0.00     0.133 C 
ATOM     65  C   UNL A   1      34.025  23.687  23.422  1.00  0.00     0.053 C 
ATOM     66  N   UNL A   1      33.334  21.497  24.151  1.00  0.00    -0.341 N 
ATOM     67  C   UNL A   1      32.831  22.731  23.576  1.00  0.00     0.128 C 
BRANCH  65  68
ATOM     68  C   UNL A   1      33.808  25.164  23.736  1.00  0.00    -0.038 A 
ATOM     69  C   UNL A   1      33.467  26.046  22.674  1.00  0.00     0.008 A 
ATOM     70  C   UNL A   1      33.899  25.692  25.033  1.00  0.00     0.054 A 
ATOM     71  C   UNL A   1      33.279  27.416  22.882  1.00  0.00     0.051 A 
ATOM     72  C   UNL A   1      33.718  27.051  25.209  1.00  0.00     0.166 A 
ATOM     73  C   UNL A   1      33.424  27.890  24.163  1.00  0.00     0.165 A 
ATOM     74  O   UNL A   1      33.809  27.713  26.393  1.00  0.00    -0.454 OA
ATOM     75  O   UNL A   1      33.298  29.185  24.554  1.00  0.00    -0.454 OA
ATOM     76  C   UNL A   1      33.591  29.071  25.961  1.00  0.00     0.468 C 
ENDBRANCH  65  68
BRANCH  66  77
ATOM     77  C   UNL A   1      32.508  20.406  24.285  1.00  0.00     0.222 C 
ATOM     78  O   UNL A   1      31.785  20.254  25.271  1.00  0.00    -0.275 OA
BRANCH  77  79
ATOM     79  C   UNL A   1      32.512  19.362  23.186  1.00  0.00     0.109 C 
BRANCH  79  80
ATOM     80  C   UNL A   1      32.523  17.944  23.741  1.00  0.00     0.125 C 
BRANCH  80  81
ATOM     81  C   UNL A   1      33.888  17.303  23.656  1.00  0.00     0.389 C 
ATOM     82  F   UNL A   1      34.837  18.121  24.163  1.00  0.00    -0.171 F 
ATOM     83  F   UNL A   1      33.923  16.155  24.365  1.00  0.00    -0.171 F 
ATOM     84  F   UNL A   1      34.237  17.010  22.387  1.00  0.00    -0.171 F 
ENDBRANCH  80  81
ENDBRANCH  79  80
ENDBRANCH  77  79
ENDBRANCH  66  77
ENDBRANCH  60  63
ENDBRANCH  58  59
ENDBRANCH   1  58
TORSDOF 16
ENDMDL
MODEL 2
REMARK VINA RESULT:     -11.7      2.619      4.549
REMARK SMILES O=C(NCCCCNC(=O)[C@@H]1CN(C(=O)CCC(F)(F)F)C[C@H]1c1ccc2c(c1)OCO2)c1ccc(-c2c3nc(c(-c4ccccc4)c4ccc([nH]4)c(-c4ccccc4)c4nc(c(-c5ccccc5)c5ccc2[nH]5)C=C4)C=C3)cc1
REMARK SMILES IDX 6 1 5 2 4 3 3 4 1 5 2 6 33 8 34 9 80 10 35 11 79 12 36 13
REMARK SMILES IDX 37 14 38 15 73 16 39 17 78 18 72 19 74 20 40 21 77 22 71 23
REMARK SMILES IDX 70 24 41 26 63 27 48 28 62 29 49 30 52 31 61 32 75 33 50 34
REMARK SMILES IDX 51 35 60 37 76 38 53 39 42 40 43 41 47 42 44 43 46 44 45 45
REMARK SMILES IDX 64 46 65 47 69 48 66 49 68 50 67 51 54 52 55 53 59 54 56 55
REMARK SMILES IDX 58 56 57 57 7 58 8 59 9 60 10 62 11 63 12 64 23 65 13 66
REMARK SMILES IDX 22 67 24 68 25 69 29 70 26 71 28 72 27 73 30 74 32 75 31 76
REMARK SMILES IDX 14 77 15 78 16 79 17 80 18 81 19 82 20 83 21 84
REMARK H PARENT 3 7 74 25 52 36 8 61
REMARK Flexibility Score: inf
ROOT
ATOM      1  C   UNL A   1      36.234  20.361  24.901  1.00  0.00     0.023 C 
ENDROOT
BRANCH   1   2
ATOM      2  C   UNL A   1      37.497  19.500  24.918  1.00  0.00     0.023 C 
BRANCH   2   3
ATOM      3  C   UNL A   1      38.673  20.103  25.671  1.00  0.00     0.116 C 
BRANCH   3   4
ATOM      4  N   UNL A   1      39.840  19.237  25.687  1.00  0.00    -0.352 N 
ATOM      5  O   UNL A   1      42.036  18.738  25.865  1.00  0.00    -0.269 OA
ATOM      6  C   UNL A   1      41.135  19.549  26.029  1.00  0.00     0.251 C 
ATOM      7  H   UNL A   1      39.682  18.303  25.418  1.00  0.00     0.163 HD
BRANCH   6   8
ATOM      8  C   UNL A   1      41.433  20.892  26.568  1.00  0.00     0.039 A 
ATOM      9  C   UNL A   1      41.851  21.920  25.720  1.00  0.00     0.014 A 
ATOM     10  C   UNL A   1      41.302  21.117  27.941  1.00  0.00     0.014 A 
ATOM     11  C   UNL A   1      42.264  23.132  26.259  1.00  0.00     0.010 A 
ATOM     12  C   UNL A   1      41.645  22.362  28.473  1.00  0.00     0.010 A 
ATOM     13  C   UNL A   1      42.154  23.368  27.638  1.00  0.00    -0.014 A 
BRANCH  13  14
ATOM     14  C   UNL A   1      42.512  24.703  28.174  1.00  0.00     0.031 A 
ATOM     15  C   UNL A   1      43.930  25.049  28.524  1.00  0.00     0.074 A 
ATOM     16  C   UNL A   1      41.533  25.615  28.323  1.00  0.00     0.049 A 
ATOM     17  N   UNL A   1      44.408  26.178  28.984  1.00  0.00    -0.248 NA
ATOM     18  C   UNL A   1      44.940  23.996  28.343  1.00  0.00     0.031 C 
ATOM     19  C   UNL A   1      40.115  25.387  28.026  1.00  0.00     0.029 A 
ATOM     20  N   UNL A   1      41.579  26.918  28.746  1.00  0.00    -0.354 N 
ATOM     21  C   UNL A   1      45.768  25.966  29.168  1.00  0.00     0.074 A 
ATOM     22  C   UNL A   1      46.038  24.596  28.787  1.00  0.00     0.031 C 
ATOM     23  C   UNL A   1      39.436  26.524  28.235  1.00  0.00     0.029 A 
ATOM     24  C   UNL A   1      40.355  27.539  28.732  1.00  0.00     0.049 A 
ATOM     25  H   UNL A   1      42.409  27.364  29.029  1.00  0.00     0.167 HD
ATOM     26  C   UNL A   1      46.705  26.837  29.614  1.00  0.00     0.031 A 
ATOM     27  C   UNL A   1      40.004  28.785  29.097  1.00  0.00     0.031 A 
ATOM     28  C   UNL A   1      46.434  28.200  29.989  1.00  0.00     0.049 A 
ATOM     29  C   UNL A   1      41.059  29.722  29.601  1.00  0.00     0.074 A 
ATOM     30  C   UNL A   1      47.325  29.172  30.415  1.00  0.00     0.029 A 
ATOM     31  N   UNL A   1      45.177  28.785  29.990  1.00  0.00    -0.354 N 
ATOM     32  N   UNL A   1      42.347  29.517  29.734  1.00  0.00    -0.248 NA
ATOM     33  C   UNL A   1      40.612  31.060  30.008  1.00  0.00     0.031 C 
ATOM     34  C   UNL A   1      46.599  30.329  30.716  1.00  0.00     0.029 A 
ATOM     35  C   UNL A   1      45.264  30.093  30.433  1.00  0.00     0.049 A 
ATOM     36  H   UNL A   1      44.345  28.335  29.715  1.00  0.00     0.167 HD
ATOM     37  C   UNL A   1      42.867  30.701  30.233  1.00  0.00     0.074 A 
ATOM     38  C   UNL A   1      41.759  31.628  30.356  1.00  0.00     0.031 C 
ATOM     39  C   UNL A   1      44.148  30.995  30.563  1.00  0.00     0.031 A 
BRANCH  26  40
ATOM     40  C   UNL A   1      48.115  26.331  29.750  1.00  0.00    -0.014 A 
ATOM     41  C   UNL A   1      49.042  26.462  28.705  1.00  0.00     0.009 A 
ATOM     42  C   UNL A   1      48.530  25.752  30.960  1.00  0.00     0.009 A 
ATOM     43  C   UNL A   1      50.350  25.997  28.860  1.00  0.00     0.001 A 
ATOM     44  C   UNL A   1      49.845  25.308  31.119  1.00  0.00     0.001 A 
ATOM     45  C   UNL A   1      50.750  25.424  30.067  1.00  0.00     0.000 A 
ENDBRANCH  26  40
BRANCH  27  46
ATOM     46  C   UNL A   1      38.582  29.199  29.008  1.00  0.00    -0.014 A 
ATOM     47  C   UNL A   1      37.730  29.075  30.114  1.00  0.00     0.009 A 
ATOM     48  C   UNL A   1      38.082  29.757  27.821  1.00  0.00     0.009 A 
ATOM     49  C   UNL A   1      36.400  29.491  30.030  1.00  0.00     0.001 A 
ATOM     50  C   UNL A   1      36.760  30.198  27.748  1.00  0.00     0.001 A 
ATOM     51  C   UNL A   1      35.918  30.058  28.850  1.00  0.00     0.000 A 
ENDBRANCH  27  46
BRANCH  39  52
ATOM     52  C   UNL A   1      44.413  32.378  31.078  1.00  0.00    -0.014 A 
ATOM     53  C   UNL A   1      44.818  33.406  30.214  1.00  0.00     0.009 A 
ATOM     54  C   UNL A   1      44.235  32.660  32.441  1.00  0.00     0.009 A 
ATOM     55  C   UNL A   1      45.071  34.686  30.712  1.00  0.00     0.001 A 
ATOM     56  C   UNL A   1      44.466  33.946  32.931  1.00  0.00     0.001 A 
ATOM     57  C   UNL A   1      44.892  34.955  32.069  1.00  0.00     0.000 A 
ENDBRANCH  39  52
ENDBRANCH  13  14
ENDBRANCH   6   8
ENDBRANCH   3   4
ENDBRANCH   2   3
ENDBRANCH   1   2
BRANCH   1  58
ATOM     58  C   UNL A   1      36.454  21.835  25.255  1.00  0.00     0.116 C 
BRANCH  58  59
ATOM     59  N   UNL A   1      35.798  22.187  26.503  1.00  0.00    -0.356 N 
ATOM     60  C   UNL A   1      34.541  22.619  26.776  1.00  0.00     0.225 C 
ATOM     61  H   UNL A   1      36.372  22.094  27.298  1.00  0.00     0.163 HD
ATOM     62  O   UNL A   1      34.288  22.886  27.955  1.00  0.00    -0.275 OA
BRANCH  60  63
ATOM     63  C   UNL A   1      33.446  22.731  25.727  1.00  0.00     0.107 C 
ATOM     64  C   UNL A   1      32.852  24.129  25.744  1.00  0.00     0.133 C 
ATOM     65  C   UNL A   1      32.276  21.732  25.834  1.00  0.00     0.053 C 
ATOM     66  N   UNL A   1      31.421  23.972  25.594  1.00  0.00    -0.341 N 
ATOM     67  C   UNL A   1      31.032  22.576  25.513  1.00  0.00     0.128 C 
BRANCH  65  68
ATOM     68  C   UNL A   1      32.511  20.459  25.026  1.00  0.00    -0.038 A 
ATOM     69  C   UNL A   1      32.317  20.499  23.618  1.00  0.00     0.008 A 
ATOM     70  C   UNL A   1      32.942  19.255  25.604  1.00  0.00     0.054 A 
ATOM     71  C   UNL A   1      32.488  19.365  22.817  1.00  0.00     0.051 A 
ATOM     72  C   UNL A   1      33.094  18.149  24.790  1.00  0.00     0.166 A 
ATOM     73  C   UNL A   1      32.867  18.200  23.437  1.00  0.00     0.165 A 
ATOM     74  O   UNL A   1      33.469  16.909  25.205  1.00  0.00    -0.454 OA
ATOM     75  O   UNL A   1      33.063  17.000  22.830  1.00  0.00    -0.454 OA
ATOM     76  C   UNL A   1      33.399  16.176  23.965  1.00  0.00     0.468 C 
ENDBRANCH  65  68
BRANCH  66  77
ATOM     77  C   UNL A   1      30.476  24.963  25.478  1.00  0.00     0.222 C 
ATOM     78  O   UNL A   1      29.892  25.425  26.459  1.00  0.00    -0.275 OA
BRANCH  77  79
ATOM     79  C   UNL A   1      30.142  25.481  24.092  1.00  0.00     0.109 C 
BRANCH  79  80
ATOM     80  C   UNL A   1      29.855  26.976  24.091  1.00  0.00     0.125 C 
BRANCH  80  81
ATOM     81  C   UNL A   1      31.112  27.804  24.211  1.00  0.00     0.389 C 
ATOM     82  F   UNL A   1      31.027  28.924  23.459  1.00  0.00    -0.171 F 
ATOM     83  F   UNL A   1      31.312  28.189  25.490  1.00  0.00    -0.171 F 
ATOM     84  F   UNL A   1      32.210  27.128  23.814  1.00  0.00    -0.171 F 
ENDBRANCH  80  81
ENDBRANCH  79  80
ENDBRANCH  77  79
ENDBRANCH  66  77
ENDBRANCH  60  63
ENDBRANCH  58  59
ENDBRANCH   1  58
TORSDOF 16
ENDMDL
MODEL 3
REMARK VINA RESULT:     -11.6      2.674      7.281
REMARK SMILES O=C(NCCCCNC(=O)[C@@H]1CN(C(=O)CCC(F)(F)F)C[C@H]1c1ccc2c(c1)OCO2)c1ccc(-c2c3nc(c(-c4ccccc4)c4ccc([nH]4)c(-c4ccccc4)c4nc(c(-c5ccccc5)c5ccc2[nH]5)C=C4)C=C3)cc1
REMARK SMILES IDX 6 1 5 2 4 3 3 4 1 5 2 6 33 8 34 9 80 10 35 11 79 12 36 13
REMARK SMILES IDX 37 14 38 15 73 16 39 17 78 18 72 19 74 20 40 21 77 22 71 23
REMARK SMILES IDX 70 24 41 26 63 27 48 28 62 29 49 30 52 31 61 32 75 33 50 34
REMARK SMILES IDX 51 35 60 37 76 38 53 39 42 40 43 41 47 42 44 43 46 44 45 45
REMARK SMILES IDX 64 46 65 47 69 48 66 49 68 50 67 51 54 52 55 53 59 54 56 55
REMARK SMILES IDX 58 56 57 57 7 58 8 59 9 60 10 62 11 63 12 64 23 65 13 66
REMARK SMILES IDX 22 67 24 68 25 69 29 70 26 71 28 72 27 73 30 74 32 75 31 76
REMARK SMILES IDX 14 77 15 78 16 79 17 80 18 81 19 82 20 83 21 84
REMARK H PARENT 3 7 74 25 52 36 8 61
REMARK Flexibility Score: inf
ROOT
ATOM      1  C   UNL A   1      36.560  20.418  25.003  1.00  0.00     0.023 C 
ENDROOT
BRANCH   1   2
ATOM      2  C   UNL A   1      37.837  19.593  24.844  1.00  0.00     0.023 C 
BRANCH   2   3
ATOM      3  C   UNL A   1      38.994  20.025  25.730  1.00  0.00     0.116 C 
BRANCH   3   4
ATOM      4  N   UNL A   1      40.034  19.016  25.838  1.00  0.00    -0.352 N 
ATOM      5  O   UNL A   1      42.148  18.244  26.032  1.00  0.00    -0.269 OA
ATOM      6  C   UNL A   1      41.372  19.188  26.104  1.00  0.00     0.251 C 
ATOM      7  H   UNL A   1      39.741  18.085  25.702  1.00  0.00     0.163 HD
BRANCH   6   8
ATOM      8  C   UNL A   1      41.870  20.536  26.448  1.00  0.00     0.039 A 
ATOM      9  C   UNL A   1      41.948  20.944  27.781  1.00  0.00     0.014 A 
ATOM     10  C   UNL A   1      42.250  21.401  25.419  1.00  0.00     0.014 A 
ATOM     11  C   UNL A   1      42.280  22.259  28.079  1.00  0.00     0.010 A 
ATOM     12  C   UNL A   1      42.659  22.702  25.725  1.00  0.00     0.010 A 
ATOM     13  C   UNL A   1      42.650  23.146  27.056  1.00  0.00    -0.014 A 
BRANCH  13  14
ATOM     14  C   UNL A   1      43.091  24.516  27.411  1.00  0.00     0.031 A 
ATOM     15  C   UNL A   1      42.111  25.561  27.859  1.00  0.00     0.074 A 
ATOM     16  C   UNL A   1      44.405  24.802  27.342  1.00  0.00     0.049 A 
ATOM     17  N   UNL A   1      42.340  26.798  28.223  1.00  0.00    -0.248 NA
ATOM     18  C   UNL A   1      40.692  25.176  27.897  1.00  0.00     0.031 C 
ATOM     19  C   UNL A   1      45.450  23.868  26.910  1.00  0.00     0.029 A 
ATOM     20  N   UNL A   1      45.090  25.949  27.649  1.00  0.00    -0.354 N 
ATOM     21  C   UNL A   1      41.097  27.345  28.512  1.00  0.00     0.074 A 
ATOM     22  C   UNL A   1      40.114  26.312  28.266  1.00  0.00     0.031 C 
ATOM     23  C   UNL A   1      46.645  24.466  27.020  1.00  0.00     0.029 A 
ATOM     24  C   UNL A   1      46.446  25.837  27.473  1.00  0.00     0.049 A 
ATOM     25  H   UNL A   1      44.651  26.771  27.965  1.00  0.00     0.167 HD
ATOM     26  C   UNL A   1      40.805  28.595  28.945  1.00  0.00     0.031 A 
ATOM     27  C   UNL A   1      47.426  26.742  27.641  1.00  0.00     0.031 A 
ATOM     28  C   UNL A   1      41.786  29.618  29.192  1.00  0.00     0.049 A 
ATOM     29  C   UNL A   1      47.072  28.122  28.106  1.00  0.00     0.074 A 
ATOM     30  C   UNL A   1      41.591  30.904  29.671  1.00  0.00     0.029 A 
ATOM     31  N   UNL A   1      43.149  29.477  28.975  1.00  0.00    -0.354 N 
ATOM     32  N   UNL A   1      45.895  28.612  28.411  1.00  0.00    -0.248 NA
ATOM     33  C   UNL A   1      48.181  29.074  28.248  1.00  0.00     0.031 C 
ATOM     34  C   UNL A   1      42.830  31.553  29.699  1.00  0.00     0.029 A 
ATOM     35  C   UNL A   1      43.802  30.658  29.284  1.00  0.00     0.049 A 
ATOM     36  H   UNL A   1      43.586  28.657  28.650  1.00  0.00     0.167 HD
ATOM     37  C   UNL A   1      46.120  29.926  28.787  1.00  0.00     0.074 A 
ATOM     38  C   UNL A   1      47.549  30.151  28.695  1.00  0.00     0.031 C 
ATOM     39  C   UNL A   1      45.223  30.867  29.172  1.00  0.00     0.031 A 
BRANCH  26  40
ATOM     40  C   UNL A   1      39.356  28.937  29.151  1.00  0.00    -0.014 A 
ATOM     41  C   UNL A   1      38.575  29.468  28.113  1.00  0.00     0.009 A 
ATOM     42  C   UNL A   1      38.753  28.682  30.394  1.00  0.00     0.009 A 
ATOM     43  C   UNL A   1      37.227  29.764  28.325  1.00  0.00     0.001 A 
ATOM     44  C   UNL A   1      37.399  28.959  30.595  1.00  0.00     0.001 A 
ATOM     45  C   UNL A   1      36.640  29.507  29.563  1.00  0.00     0.000 A 
ENDBRANCH  26  40
BRANCH  27  46
ATOM     46  C   UNL A   1      48.830  26.362  27.349  1.00  0.00    -0.014 A 
ATOM     47  C   UNL A   1      49.666  25.878  28.365  1.00  0.00     0.009 A 
ATOM     48  C   UNL A   1      49.328  26.448  26.039  1.00  0.00     0.009 A 
ATOM     49  C   UNL A   1      50.978  25.497  28.076  1.00  0.00     0.001 A 
ATOM     50  C   UNL A   1      50.630  26.042  25.748  1.00  0.00     0.001 A 
ATOM     51  C   UNL A   1      51.457  25.573  26.768  1.00  0.00     0.000 A 
ENDBRANCH  27  46
BRANCH  39  52
ATOM     52  C   UNL A   1      45.770  32.217  29.529  1.00  0.00    -0.014 A 
ATOM     53  C   UNL A   1      46.173  32.509  30.841  1.00  0.00     0.009 A 
ATOM     54  C   UNL A   1      45.901  33.200  28.537  1.00  0.00     0.009 A 
ATOM     55  C   UNL A   1      46.669  33.775  31.160  1.00  0.00     0.001 A 
ATOM     56  C   UNL A   1      46.420  34.457  28.854  1.00  0.00     0.001 A 
ATOM     57  C   UNL A   1      46.795  34.745  30.165  1.00  0.00     0.000 A 
ENDBRANCH  39  52
ENDBRANCH  13  14
ENDBRANCH   6   8
ENDBRANCH   3   4
ENDBRANCH   2   3
ENDBRANCH   1   2
BRANCH   1  58
ATOM     58  C   UNL A   1      36.776  21.850  25.503  1.00  0.00     0.116 C 
BRANCH  58  59
ATOM     59  N   UNL A   1      35.803  22.212  26.519  1.00  0.00    -0.356 N 
ATOM     60  C   UNL A   1      34.500  22.583  26.434  1.00  0.00     0.225 C 
ATOM     61  H   UNL A   1      36.153  22.184  27.439  1.00  0.00     0.163 HD
ATOM     62  O   UNL A   1      33.936  22.881  27.492  1.00  0.00    -0.275 OA
BRANCH  60  63
ATOM     63  C   UNL A   1      33.713  22.592  25.133  1.00  0.00     0.107 C 
ATOM     64  C   UNL A   1      33.393  24.021  24.730  1.00  0.00     0.133 C 
ATOM     65  C   UNL A   1      32.389  21.802  25.117  1.00  0.00     0.053 C 
ATOM     66  N   UNL A   1      32.030  24.018  24.242  1.00  0.00    -0.341 N 
ATOM     67  C   UNL A   1      31.425  22.701  24.327  1.00  0.00     0.128 C 
BRANCH  65  68
ATOM     68  C   UNL A   1      32.568  20.359  24.655  1.00  0.00    -0.038 A 
ATOM     69  C   UNL A   1      32.379  20.054  23.279  1.00  0.00     0.008 A 
ATOM     70  C   UNL A   1      32.944  19.319  25.519  1.00  0.00     0.054 A 
ATOM     71  C   UNL A   1      32.501  18.750  22.787  1.00  0.00     0.051 A 
ATOM     72  C   UNL A   1      33.049  18.039  25.009  1.00  0.00     0.166 A 
ATOM     73  C   UNL A   1      32.826  17.761  23.683  1.00  0.00     0.165 A 
ATOM     74  O   UNL A   1      33.367  16.928  25.725  1.00  0.00    -0.454 OA
ATOM     75  O   UNL A   1      32.971  16.440  23.397  1.00  0.00    -0.454 OA
ATOM     76  C   UNL A   1      33.267  15.913  24.706  1.00  0.00     0.468 C 
ENDBRANCH  65  68
BRANCH  66  77
ATOM     77  C   UNL A   1      31.332  25.069  23.697  1.00  0.00     0.222 C 
ATOM     78  O   UNL A   1      31.436  25.374  22.508  1.00  0.00    -0.275 OA
BRANCH  77  79
ATOM     79  C   UNL A   1      30.425  25.877  24.604  1.00  0.00     0.109 C 
BRANCH  79  80
ATOM     80  C   UNL A   1      31.109  27.130  25.133  1.00  0.00     0.125 C 
BRANCH  80  81
ATOM     81  C   UNL A   1      31.692  26.928  26.511  1.00  0.00     0.389 C 
ATOM     82  F   UNL A   1      31.133  27.778  27.402  1.00  0.00    -0.171 F 
ATOM     83  F   UNL A   1      31.461  25.673  26.951  1.00  0.00    -0.171 F 
ATOM     84  F   UNL A   1      33.026  27.130  26.537  1.00  0.00    -0.171 F 
ENDBRANCH  80  81
ENDBRANCH  79  80
ENDBRANCH  77  79
ENDBRANCH  66  77
ENDBRANCH  60  63
ENDBRANCH  58  59
ENDBRANCH   1  58
TORSDOF 16
ENDMDL
