MODEL 1
REMARK VINA RESULT:     -10.9      0.000      0.000
REMARK SMILES COc1cc2c[nH]nc2cc1C(=O)NCCCCNC(=O)c1ccc(-c2c3nc(c(-c4ccccc4)c4ccc([nH]4)c(-c4ccccc4)c4nc(c(-c5ccccc5)c5ccc2[nH]5)C=C4)C=C3)cc1
REMARK SMILES IDX 17 1 16 2 15 3 14 4 12 5 13 6 11 8 3 9 4 10 5 11 10 12 6 13
REMARK SMILES IDX 9 14 7 15 8 16 2 18 1 19 18 20 19 21 20 22 21 24 22 25 23 26
REMARK SMILES IDX 69 27 24 28 68 29 25 30 26 31 27 32 62 33 28 34 67 35 61 36
REMARK SMILES IDX 63 37 29 38 66 39 60 40 59 41 30 43 52 44 37 45 51 46 38 47
REMARK SMILES IDX 41 48 50 49 64 50 39 51 40 52 49 54 65 55 42 56 31 57 32 58
REMARK SMILES IDX 36 59 33 60 35 61 34 62 53 63 54 64 58 65 55 66 57 67 56 68
REMARK SMILES IDX 43 69 44 70 48 71 45 72 47 73 46 74
REMARK H PARENT 14 7 7 17 19 23 63 42 41 53
REMARK Flexibility Score: inf
ROOT
ATOM      1  C   UNL A   1      37.243  20.752  24.778  1.00  0.00     0.023 C 
ENDROOT
BRANCH   1   2
ATOM      2  C   UNL A   1      36.083  21.738  24.945  1.00  0.00     0.023 C 
BRANCH   2   3
ATOM      3  C   UNL A   1      35.113  21.449  26.086  1.00  0.00     0.116 C 
BRANCH   3   4
ATOM      4  N   UNL A   1      34.151  20.402  25.808  1.00  0.00    -0.352 N 
ATOM      5  C   UNL A   1      32.863  20.496  25.336  1.00  0.00     0.255 C 
ATOM      6  O   UNL A   1      32.253  19.452  25.106  1.00  0.00    -0.269 OA
ATOM      7  H   UNL A   1      34.466  19.486  25.983  1.00  0.00     0.163 HD
BRANCH   5   8
ATOM      8  C   UNL A   1      32.152  21.794  25.161  1.00  0.00     0.084 A 
ATOM      9  C   UNL A   1      32.199  22.585  23.958  1.00  0.00     0.132 A 
ATOM     10  C   UNL A   1      31.611  23.866  23.824  1.00  0.00     0.059 A 
ATOM     11  C   UNL A   1      30.895  24.206  24.962  1.00  0.00     0.023 A 
ATOM     12  C   UNL A   1      31.374  22.180  26.288  1.00  0.00     0.048 A 
ATOM     13  C   UNL A   1      30.195  25.365  25.142  1.00  0.00     0.114 A 
ATOM     14  C   UNL A   1      30.739  23.424  26.157  1.00  0.00     0.093 A 
ATOM     15  N   UNL A   1      29.636  25.236  26.382  1.00  0.00    -0.285 N 
ATOM     16  N   UNL A   1      29.947  24.089  27.015  1.00  0.00    -0.176 NA
ATOM     17  H   UNL A   1      29.055  25.924  26.778  1.00  0.00     0.189 HD
BRANCH   9  18
ATOM     18  O   UNL A   1      32.869  22.169  22.829  1.00  0.00    -0.496 OA
ATOM     19  C   UNL A   1      33.281  23.277  22.028  1.00  0.00     0.278 C 
ENDBRANCH   9  18
ENDBRANCH   5   8
ENDBRANCH   3   4
ENDBRANCH   2   3
ENDBRANCH   1   2
BRANCH   1  20
ATOM     20  C   UNL A   1      38.462  20.965  25.671  1.00  0.00     0.116 C 
BRANCH  20  21
ATOM     21  N   UNL A   1      39.436  19.885  25.614  1.00  0.00    -0.352 N 
ATOM     22  C   UNL A   1      40.763  19.851  25.986  1.00  0.00     0.251 C 
ATOM     23  H   UNL A   1      39.090  19.039  25.249  1.00  0.00     0.163 HD
ATOM     24  O   UNL A   1      41.428  18.847  25.786  1.00  0.00    -0.269 OA
BRANCH  22  25
ATOM     25  C   UNL A   1      41.401  21.045  26.587  1.00  0.00     0.039 A 
ATOM     26  C   UNL A   1      41.982  21.991  25.736  1.00  0.00     0.014 A 
ATOM     27  C   UNL A   1      41.418  21.248  27.967  1.00  0.00     0.014 A 
ATOM     28  C   UNL A   1      42.479  23.187  26.262  1.00  0.00     0.010 A 
ATOM     29  C   UNL A   1      41.834  22.475  28.481  1.00  0.00     0.010 A 
ATOM     30  C   UNL A   1      42.355  23.464  27.633  1.00  0.00    -0.014 A 
BRANCH  30  31
ATOM     31  C   UNL A   1      42.732  24.788  28.194  1.00  0.00     0.031 A 
ATOM     32  C   UNL A   1      41.693  25.855  28.398  1.00  0.00     0.074 A 
ATOM     33  C   UNL A   1      44.028  25.060  28.448  1.00  0.00     0.049 A 
ATOM     34  N   UNL A   1      41.845  27.089  28.810  1.00  0.00    -0.248 NA
ATOM     35  C   UNL A   1      40.304  25.496  28.074  1.00  0.00     0.031 C 
ATOM     36  C   UNL A   1      45.145  24.132  28.260  1.00  0.00     0.029 A 
ATOM     37  N   UNL A   1      44.625  26.204  28.917  1.00  0.00    -0.354 N 
ATOM     38  C   UNL A   1      40.579  27.658  28.775  1.00  0.00     0.074 A 
ATOM     39  C   UNL A   1      39.679  26.651  28.253  1.00  0.00     0.031 C 
ATOM     40  C   UNL A   1      46.283  24.729  28.647  1.00  0.00     0.029 A 
ATOM     41  C   UNL A   1      45.985  26.095  29.067  1.00  0.00     0.049 A 
ATOM     42  H   UNL A   1      44.124  27.026  29.125  1.00  0.00     0.167 HD
ATOM     43  C   UNL A   1      40.190  28.897  29.160  1.00  0.00     0.031 A 
ATOM     44  C   UNL A   1      46.895  26.992  29.494  1.00  0.00     0.031 A 
ATOM     45  C   UNL A   1      41.077  29.900  29.686  1.00  0.00     0.049 A 
ATOM     46  C   UNL A   1      46.446  28.370  29.887  1.00  0.00     0.074 A 
ATOM     47  C   UNL A   1      40.770  31.167  30.153  1.00  0.00     0.029 A 
ATOM     48  N   UNL A   1      42.450  29.751  29.810  1.00  0.00    -0.354 N 
ATOM     49  N   UNL A   1      45.235  28.871  29.905  1.00  0.00    -0.248 NA
ATOM     50  C   UNL A   1      47.493  29.304  30.324  1.00  0.00     0.031 C 
ATOM     51  C   UNL A   1      41.963  31.800  30.518  1.00  0.00     0.029 A 
ATOM     52  C   UNL A   1      43.006  30.910  30.325  1.00  0.00     0.049 A 
ATOM     53  H   UNL A   1      42.955  28.941  29.569  1.00  0.00     0.167 HD
ATOM     54  C   UNL A   1      45.370  30.167  30.384  1.00  0.00     0.074 A 
ATOM     55  C   UNL A   1      46.778  30.372  30.653  1.00  0.00     0.031 C 
ATOM     56  C   UNL A   1      44.410  31.102  30.587  1.00  0.00     0.031 A 
BRANCH  43  57
ATOM     57  C   UNL A   1      38.731  29.232  29.013  1.00  0.00    -0.014 A 
ATOM     58  C   UNL A   1      38.218  29.728  27.803  1.00  0.00     0.009 A 
ATOM     59  C   UNL A   1      37.858  29.047  30.095  1.00  0.00     0.009 A 
ATOM     60  C   UNL A   1      36.871  30.078  27.696  1.00  0.00     0.001 A 
ATOM     61  C   UNL A   1      36.505  29.368  29.975  1.00  0.00     0.001 A 
ATOM     62  C   UNL A   1      36.015  29.896  28.781  1.00  0.00     0.000 A 
ENDBRANCH  43  57
BRANCH  44  63
ATOM     63  C   UNL A   1      48.325  26.604  29.607  1.00  0.00    -0.014 A 
ATOM     64  C   UNL A   1      48.811  26.048  30.801  1.00  0.00     0.009 A 
ATOM     65  C   UNL A   1      49.210  26.788  28.534  1.00  0.00     0.009 A 
ATOM     66  C   UNL A   1      50.158  25.704  30.926  1.00  0.00     0.001 A 
ATOM     67  C   UNL A   1      50.552  26.418  28.653  1.00  0.00     0.001 A 
ATOM     68  C   UNL A   1      51.026  25.884  29.851  1.00  0.00     0.000 A 
ENDBRANCH  44  63
BRANCH  56  69
ATOM     69  C   UNL A   1      44.847  32.419  31.163  1.00  0.00    -0.014 A 
ATOM     70  C   UNL A   1      45.201  33.496  30.336  1.00  0.00     0.009 A 
ATOM     71  C   UNL A   1      44.871  32.593  32.556  1.00  0.00     0.009 A 
ATOM     72  C   UNL A   1      45.601  34.712  30.895  1.00  0.00     0.001 A 
ATOM     73  C   UNL A   1      45.245  33.817  33.110  1.00  0.00     0.001 A 
ATOM     74  C   UNL A   1      45.618  34.873  32.280  1.00  0.00     0.000 A 
ENDBRANCH  56  69
ENDBRANCH  30  31
ENDBRANCH  22  25
ENDBRANCH  20  21
ENDBRANCH   1  20
TORSDOF 12
ENDMDL
MODEL 2
REMARK VINA RESULT:     -10.8      0.337      6.207
REMARK SMILES COc1cc2c[nH]nc2cc1C(=O)NCCCCNC(=O)c1ccc(-c2c3nc(c(-c4ccccc4)c4ccc([nH]4)c(-c4ccccc4)c4nc(c(-c5ccccc5)c5ccc2[nH]5)C=C4)C=C3)cc1
REMARK SMILES IDX 17 1 16 2 15 3 14 4 12 5 13 6 11 8 3 9 4 10 5 11 10 12 6 13
REMARK SMILES IDX 9 14 7 15 8 16 2 18 1 19 18 20 19 21 20 22 21 24 22 25 23 26
REMARK SMILES IDX 69 27 24 28 68 29 25 30 26 31 27 32 62 33 28 34 67 35 61 36
REMARK SMILES IDX 63 37 29 38 66 39 60 40 59 41 30 43 52 44 37 45 51 46 38 47
REMARK SMILES IDX 41 48 50 49 64 50 39 51 40 52 49 54 65 55 42 56 31 57 32 58
REMARK SMILES IDX 36 59 33 60 35 61 34 62 53 63 54 64 58 65 55 66 57 67 56 68
REMARK SMILES IDX 43 69 44 70 48 71 45 72 47 73 46 74
REMARK H PARENT 14 7 7 17 19 23 63 42 41 53
REMARK Flexibility Score: inf
ROOT
ATOM      1  C   UNL A   1      37.441  20.230  24.956  1.00  0.00     0.023 C 
ENDROOT
BRANCH   1   2
ATOM      2  C   UNL A   1      36.363  21.303  24.788  1.00  0.00     0.023 C 
BRANCH   2   3
ATOM      3  C   UNL A   1      35.270  21.332  25.851  1.00  0.00     0.116 C 
BRANCH   3   4
ATOM      4  N   UNL A   1      34.230  20.338  25.672  1.00  0.00    -0.352 N 
ATOM      5  C   UNL A   1      32.903  20.503  25.355  1.00  0.00     0.255 C 
ATOM      6  O   UNL A   1      32.219  19.494  25.182  1.00  0.00    -0.269 OA
ATOM      7  H   UNL A   1      34.517  19.405  25.797  1.00  0.00     0.163 HD
BRANCH   5   8
ATOM      8  C   UNL A   1      32.242  21.837  25.281  1.00  0.00     0.084 A 
ATOM      9  C   UNL A   1      32.520  22.822  24.267  1.00  0.00     0.132 A 
ATOM     10  C   UNL A   1      31.972  24.127  24.254  1.00  0.00     0.059 A 
ATOM     11  C   UNL A   1      31.054  24.292  25.279  1.00  0.00     0.023 A 
ATOM     12  C   UNL A   1      31.265  22.050  26.293  1.00  0.00     0.048 A 
ATOM     13  C   UNL A   1      30.336  25.427  25.527  1.00  0.00     0.114 A 
ATOM     14  C   UNL A   1      30.670  23.321  26.268  1.00  0.00     0.093 A 
ATOM     15  N   UNL A   1      29.550  25.107  26.598  1.00  0.00    -0.285 N 
ATOM     16  N   UNL A   1      29.731  23.857  27.065  1.00  0.00    -0.176 NA
ATOM     17  H   UNL A   1      28.906  25.737  26.994  1.00  0.00     0.189 HD
BRANCH   9  18
ATOM     18  O   UNL A   1      33.392  22.583  23.228  1.00  0.00    -0.496 OA
ATOM     19  C   UNL A   1      33.018  23.307  22.056  1.00  0.00     0.278 C 
ENDBRANCH   9  18
ENDBRANCH   5   8
ENDBRANCH   3   4
ENDBRANCH   2   3
ENDBRANCH   1   2
BRANCH   1  20
ATOM     20  C   UNL A   1      38.724  20.646  25.670  1.00  0.00     0.116 C 
BRANCH  20  21
ATOM     21  N   UNL A   1      39.766  19.631  25.660  1.00  0.00    -0.352 N 
ATOM     22  C   UNL A   1      41.090  19.698  26.039  1.00  0.00     0.251 C 
ATOM     23  H   UNL A   1      39.479  18.750  25.327  1.00  0.00     0.163 HD
ATOM     24  O   UNL A   1      41.821  18.733  25.881  1.00  0.00    -0.269 OA
BRANCH  22  25
ATOM     25  C   UNL A   1      41.645  20.954  26.594  1.00  0.00     0.039 A 
ATOM     26  C   UNL A   1      42.140  21.915  25.707  1.00  0.00     0.014 A 
ATOM     27  C   UNL A   1      41.668  21.197  27.967  1.00  0.00     0.014 A 
ATOM     28  C   UNL A   1      42.553  23.160  26.191  1.00  0.00     0.010 A 
ATOM     29  C   UNL A   1      41.998  22.466  28.440  1.00  0.00     0.010 A 
ATOM     30  C   UNL A   1      42.429  23.466  27.555  1.00  0.00    -0.014 A 
BRANCH  30  31
ATOM     31  C   UNL A   1      42.714  24.831  28.072  1.00  0.00     0.031 A 
ATOM     32  C   UNL A   1      44.109  25.219  28.477  1.00  0.00     0.074 A 
ATOM     33  C   UNL A   1      41.700  25.702  28.250  1.00  0.00     0.049 A 
ATOM     34  N   UNL A   1      44.533  26.337  29.011  1.00  0.00    -0.248 NA
ATOM     35  C   UNL A   1      45.160  24.210  28.280  1.00  0.00     0.031 C 
ATOM     36  C   UNL A   1      40.293  25.446  27.935  1.00  0.00     0.029 A 
ATOM     37  N   UNL A   1      41.699  26.982  28.746  1.00  0.00    -0.354 N 
ATOM     38  C   UNL A   1      45.893  26.158  29.232  1.00  0.00     0.074 A 
ATOM     39  C   UNL A   1      46.211  24.807  28.822  1.00  0.00     0.031 C 
ATOM     40  C   UNL A   1      39.573  26.545  28.207  1.00  0.00     0.029 A 
ATOM     41  C   UNL A   1      40.457  27.568  28.758  1.00  0.00     0.049 A 
ATOM     42  H   UNL A   1      42.512  27.437  29.064  1.00  0.00     0.167 HD
ATOM     43  C   UNL A   1      46.801  27.040  29.712  1.00  0.00     0.031 A 
ATOM     44  C   UNL A   1      40.069  28.791  29.166  1.00  0.00     0.031 A 
ATOM     45  C   UNL A   1      46.494  28.387  30.114  1.00  0.00     0.049 A 
ATOM     46  C   UNL A   1      41.088  29.742  29.723  1.00  0.00     0.074 A 
ATOM     47  C   UNL A   1      47.355  29.373  30.563  1.00  0.00     0.029 A 
ATOM     48  N   UNL A   1      45.220  28.936  30.120  1.00  0.00    -0.354 N 
ATOM     49  N   UNL A   1      42.381  29.577  29.868  1.00  0.00    -0.248 NA
ATOM     50  C   UNL A   1      40.594  31.053  30.168  1.00  0.00     0.031 C 
ATOM     51  C   UNL A   1      46.597  30.504  30.884  1.00  0.00     0.029 A 
ATOM     52  C   UNL A   1      45.270  30.238  30.587  1.00  0.00     0.049 A 
ATOM     53  H   UNL A   1      44.402  28.468  29.835  1.00  0.00     0.167 HD
ATOM     54  C   UNL A   1      42.858  30.771  30.390  1.00  0.00     0.074 A 
ATOM     55  C   UNL A   1      41.719  31.655  30.529  1.00  0.00     0.031 C 
ATOM     56  C   UNL A   1      44.129  31.107  30.722  1.00  0.00     0.031 A 
BRANCH  43  57
ATOM     57  C   UNL A   1      48.222  26.560  29.833  1.00  0.00    -0.014 A 
ATOM     58  C   UNL A   1      48.671  25.904  30.990  1.00  0.00     0.009 A 
ATOM     59  C   UNL A   1      49.122  26.762  28.776  1.00  0.00     0.009 A 
ATOM     60  C   UNL A   1      50.004  25.505  31.107  1.00  0.00     0.001 A 
ATOM     61  C   UNL A   1      50.446  26.334  28.882  1.00  0.00     0.001 A 
ATOM     62  C   UNL A   1      50.889  25.719  30.052  1.00  0.00     0.000 A 
ENDBRANCH  43  57
BRANCH  44  63
ATOM     63  C   UNL A   1      38.648  29.204  29.031  1.00  0.00    -0.014 A 
ATOM     64  C   UNL A   1      38.168  29.682  27.802  1.00  0.00     0.009 A 
ATOM     65  C   UNL A   1      37.767  29.128  30.121  1.00  0.00     0.009 A 
ATOM     66  C   UNL A   1      36.841  30.096  27.672  1.00  0.00     0.001 A 
ATOM     67  C   UNL A   1      36.433  29.518  29.981  1.00  0.00     0.001 A 
ATOM     68  C   UNL A   1      35.973  30.009  28.759  1.00  0.00     0.000 A 
ENDBRANCH  44  63
BRANCH  56  69
ATOM     69  C   UNL A   1      44.359  32.502  31.230  1.00  0.00    -0.014 A 
ATOM     70  C   UNL A   1      44.318  32.795  32.602  1.00  0.00     0.009 A 
ATOM     71  C   UNL A   1      44.656  33.531  30.322  1.00  0.00     0.009 A 
ATOM     72  C   UNL A   1      44.539  34.099  33.052  1.00  0.00     0.001 A 
ATOM     73  C   UNL A   1      44.902  34.827  30.777  1.00  0.00     0.001 A 
ATOM     74  C   UNL A   1      44.835  35.112  32.139  1.00  0.00     0.000 A 
ENDBRANCH  56  69
ENDBRANCH  30  31
ENDBRANCH  22  25
ENDBRANCH  20  21
ENDBRANCH   1  20
TORSDOF 12
ENDMDL
MODEL 3
REMARK VINA RESULT:     -10.8      2.824      7.432
REMARK SMILES COc1cc2c[nH]nc2cc1C(=O)NCCCCNC(=O)c1ccc(-c2c3nc(c(-c4ccccc4)c4ccc([nH]4)c(-c4ccccc4)c4nc(c(-c5ccccc5)c5ccc2[nH]5)C=C4)C=C3)cc1
REMARK SMILES IDX 17 1 16 2 15 3 14 4 12 5 13 6 11 8 3 9 4 10 5 11 10 12 6 13
REMARK SMILES IDX 9 14 7 15 8 16 2 18 1 19 18 20 19 21 20 22 21 24 22 25 23 26
REMARK SMILES IDX 69 27 24 28 68 29 25 30 26 31 27 32 62 33 28 34 67 35 61 36
REMARK SMILES IDX 63 37 29 38 66 39 60 40 59 41 30 43 52 44 37 45 51 46 38 47
REMARK SMILES IDX 41 48 50 49 64 50 39 51 40 52 49 54 65 55 42 56 31 57 32 58
REMARK SMILES IDX 36 59 33 60 35 61 34 62 53 63 54 64 58 65 55 66 57 67 56 68
REMARK SMILES IDX 43 69 44 70 48 71 45 72 47 73 46 74
REMARK H PARENT 14 7 7 17 19 23 63 42 41 53
REMARK Flexibility Score: inf
ROOT
ATOM      1  C   UNL A   1      31.880  28.269  27.648  1.00  0.00     0.023 C 
ENDROOT
BRANCH   1   2
ATOM      2  C   UNL A   1      31.346  27.171  26.726  1.00  0.00     0.023 C 
BRANCH   2   3
ATOM      3  C   UNL A   1      32.362  26.527  25.788  1.00  0.00     0.116 C 
BRANCH   3   4
ATOM      4  N   UNL A   1      31.825  25.472  24.952  1.00  0.00    -0.352 N 
ATOM      5  C   UNL A   1      31.038  25.557  23.827  1.00  0.00     0.255 C 
ATOM      6  O   UNL A   1      30.761  24.514  23.234  1.00  0.00    -0.269 OA
ATOM      7  H   UNL A   1      32.058  24.557  25.231  1.00  0.00     0.163 HD
BRANCH   5   8
ATOM      8  C   UNL A   1      30.451  26.836  23.339  1.00  0.00     0.084 A 
ATOM      9  C   UNL A   1      31.210  27.884  22.705  1.00  0.00     0.132 A 
ATOM     10  C   UNL A   1      30.675  29.141  22.334  1.00  0.00     0.059 A 
ATOM     11  C   UNL A   1      29.308  29.187  22.561  1.00  0.00     0.023 A 
ATOM     12  C   UNL A   1      29.043  26.926  23.517  1.00  0.00     0.048 A 
ATOM     13  C   UNL A   1      28.494  30.250  22.290  1.00  0.00     0.114 A 
ATOM     14  C   UNL A   1      28.482  28.146  23.107  1.00  0.00     0.093 A 
ATOM     15  N   UNL A   1      27.245  29.821  22.641  1.00  0.00    -0.285 N 
ATOM     16  N   UNL A   1      27.207  28.569  23.138  1.00  0.00    -0.176 NA
ATOM     17  H   UNL A   1      26.442  30.380  22.540  1.00  0.00     0.189 HD
BRANCH   9  18
ATOM     18  O   UNL A   1      32.556  27.761  22.440  1.00  0.00    -0.496 OA
ATOM     19  C   UNL A   1      33.306  28.810  23.054  1.00  0.00     0.278 C 
ENDBRANCH   9  18
ENDBRANCH   5   8
ENDBRANCH   3   4
ENDBRANCH   2   3
ENDBRANCH   1   2
BRANCH   1  20
ATOM     20  C   UNL A   1      33.227  28.887  27.279  1.00  0.00     0.116 C 
BRANCH  20  21
ATOM     21  N   UNL A   1      33.375  30.276  27.686  1.00  0.00    -0.352 N 
ATOM     22  C   UNL A   1      34.457  30.947  28.213  1.00  0.00     0.251 C 
ATOM     23  H   UNL A   1      32.568  30.828  27.565  1.00  0.00     0.163 HD
ATOM     24  O   UNL A   1      34.345  32.113  28.556  1.00  0.00    -0.269 OA
BRANCH  22  25
ATOM     25  C   UNL A   1      35.747  30.246  28.412  1.00  0.00     0.039 A 
ATOM     26  C   UNL A   1      36.670  30.235  27.361  1.00  0.00     0.014 A 
ATOM     27  C   UNL A   1      36.059  29.620  29.618  1.00  0.00     0.014 A 
ATOM     28  C   UNL A   1      37.943  29.694  27.560  1.00  0.00     0.010 A 
ATOM     29  C   UNL A   1      37.354  29.158  29.843  1.00  0.00     0.010 A 
ATOM     30  C   UNL A   1      38.315  29.204  28.822  1.00  0.00    -0.014 A 
BRANCH  30  31
ATOM     31  C   UNL A   1      39.708  28.766  29.103  1.00  0.00     0.031 A 
ATOM     32  C   UNL A   1      40.682  29.699  29.769  1.00  0.00     0.074 A 
ATOM     33  C   UNL A   1      40.123  27.552  28.689  1.00  0.00     0.049 A 
ATOM     34  N   UNL A   1      41.952  29.517  30.032  1.00  0.00    -0.248 NA
ATOM     35  C   UNL A   1      40.167  31.017  30.171  1.00  0.00     0.031 C 
ATOM     36  C   UNL A   1      39.296  26.561  27.997  1.00  0.00     0.029 A 
ATOM     37  N   UNL A   1      41.351  26.947  28.786  1.00  0.00    -0.354 N 
ATOM     38  C   UNL A   1      42.391  30.702  30.609  1.00  0.00     0.074 A 
ATOM     39  C   UNL A   1      41.265  31.612  30.610  1.00  0.00     0.031 C 
ATOM     40  C   UNL A   1      40.028  25.459  27.769  1.00  0.00     0.029 A 
ATOM     41  C   UNL A   1      41.385  25.680  28.256  1.00  0.00     0.049 A 
ATOM     42  H   UNL A   1      42.134  27.380  29.197  1.00  0.00     0.167 HD
ATOM     43  C   UNL A   1      43.612  31.003  31.112  1.00  0.00     0.031 A 
ATOM     44  C   UNL A   1      42.396  24.794  28.168  1.00  0.00     0.031 A 
ATOM     45  C   UNL A   1      44.733  30.101  31.121  1.00  0.00     0.049 A 
ATOM     46  C   UNL A   1      43.749  25.161  28.705  1.00  0.00     0.074 A 
ATOM     47  C   UNL A   1      45.995  30.296  31.655  1.00  0.00     0.029 A 
ATOM     48  N   UNL A   1      44.727  28.832  30.562  1.00  0.00    -0.354 N 
ATOM     49  N   UNL A   1      44.130  26.264  29.303  1.00  0.00    -0.248 NA
ATOM     50  C   UNL A   1      44.811  24.155  28.560  1.00  0.00     0.031 C 
ATOM     51  C   UNL A   1      46.767  29.162  31.380  1.00  0.00     0.029 A 
ATOM     52  C   UNL A   1      45.969  28.241  30.719  1.00  0.00     0.049 A 
ATOM     53  H   UNL A   1      43.954  28.413  30.120  1.00  0.00     0.167 HD
ATOM     54  C   UNL A   1      45.465  26.072  29.632  1.00  0.00     0.074 A 
ATOM     55  C   UNL A   1      45.825  24.745  29.176  1.00  0.00     0.031 C 
ATOM     56  C   UNL A   1      46.316  26.920  30.260  1.00  0.00     0.031 A 
BRANCH  43  57
ATOM     57  C   UNL A   1      43.793  32.380  31.689  1.00  0.00    -0.014 A 
ATOM     58  C   UNL A   1      43.541  32.638  33.046  1.00  0.00     0.009 A 
ATOM     59  C   UNL A   1      44.224  33.432  30.868  1.00  0.00     0.009 A 
ATOM     60  C   UNL A   1      43.668  33.931  33.557  1.00  0.00     0.001 A 
ATOM     61  C   UNL A   1      44.382  34.718  31.388  1.00  0.00     0.001 A 
ATOM     62  C   UNL A   1      44.091  34.969  32.729  1.00  0.00     0.000 A 
ENDBRANCH  43  57
BRANCH  44  63
ATOM     63  C   UNL A   1      42.158  23.452  27.577  1.00  0.00    -0.014 A 
ATOM     64  C   UNL A   1      42.515  23.198  26.243  1.00  0.00     0.009 A 
ATOM     65  C   UNL A   1      41.573  22.423  28.331  1.00  0.00     0.009 A 
ATOM     66  C   UNL A   1      42.272  21.948  25.671  1.00  0.00     0.001 A 
ATOM     67  C   UNL A   1      41.356  21.166  27.763  1.00  0.00     0.001 A 
ATOM     68  C   UNL A   1      41.697  20.931  26.432  1.00  0.00     0.000 A 
ENDBRANCH  44  63
BRANCH  56  69
ATOM     69  C   UNL A   1      47.709  26.423  30.526  1.00  0.00    -0.014 A 
ATOM     70  C   UNL A   1      48.730  26.568  29.574  1.00  0.00     0.009 A 
ATOM     71  C   UNL A   1      48.009  25.830  31.763  1.00  0.00     0.009 A 
ATOM     72  C   UNL A   1      50.018  26.100  29.846  1.00  0.00     0.001 A 
ATOM     73  C   UNL A   1      49.302  25.388  32.041  1.00  0.00     0.001 A 
ATOM     74  C   UNL A   1      50.304  25.515  31.080  1.00  0.00     0.000 A 
ENDBRANCH  56  69
ENDBRANCH  30  31
ENDBRANCH  22  25
ENDBRANCH  20  21
ENDBRANCH   1  20
TORSDOF 12
ENDMDL
