MODEL 1
REMARK VINA RESULT:     -12.5      0.000      0.000
REMARK SMILES O=C(NCCCCNC(=O)c1ccc(-c2c3nc(c(-c4ccccc4)c4ccc([nH]4)c(-c4ccccc4)c4nc(c(-c5ccccc5)c5ccc2[nH]5)C=C4)C=C3)cc1)C1=Cc2cc(S(F)(F)(F)(F)F)ccc2O[C@@H]1C(F)(F)F
REMARK SMILES IDX 6 1 5 2 4 3 3 4 1 5 2 6 59 8 60 9 74 10 61 11 73 12 62 13
REMARK SMILES IDX 72 14 63 15 71 16 70 17 75 18 76 19 77 20 78 21 64 22 65 23
REMARK SMILES IDX 66 24 67 25 68 26 69 27 7 28 8 29 9 30 10 32 11 33 12 34
REMARK SMILES IDX 58 35 13 36 57 37 14 38 15 39 16 40 51 41 17 42 56 43 50 44
REMARK SMILES IDX 52 45 18 46 55 47 49 48 48 49 19 51 41 52 26 53 40 54 27 55
REMARK SMILES IDX 30 56 39 57 53 58 28 59 29 60 38 62 54 63 31 64 20 65 21 66
REMARK SMILES IDX 25 67 22 68 24 69 23 70 42 71 43 72 47 73 44 74 46 75 45 76
REMARK SMILES IDX 32 77 33 78 37 79 34 80 36 81 35 82
REMARK H PARENT 3 7 8 31 52 50 30 61
REMARK Flexibility Score: inf
ROOT
ATOM      1  C   UNL A   1      33.827  30.586  27.536  1.00  0.00     0.023 C 
ENDROOT
BRANCH   1   2
ATOM      2  C   UNL A   1      34.812  29.455  27.299  1.00  0.00     0.023 C 
BRANCH   2   3
ATOM      3  C   UNL A   1      34.124  28.334  26.536  1.00  0.00     0.116 C 
BRANCH   3   4
ATOM      4  N   UNL A   1      32.922  27.910  27.269  1.00  0.00    -0.352 N 
ATOM      5  O   UNL A   1      30.706  27.059  27.168  1.00  0.00    -0.270 OA
ATOM      6  C   UNL A   1      31.745  27.426  26.534  1.00  0.00     0.251 C 
ATOM      7  H   UNL A   1      32.906  27.951  28.253  1.00  0.00     0.163 HD
BRANCH   6   8
ATOM      8  C   UNL A   1      31.771  27.363  25.015  1.00  0.00     0.067 C 
ATOM      9  C   UNL A   1      32.403  26.336  24.387  1.00  0.00     0.025 C 
ATOM     10  C   UNL A   1      31.090  28.449  24.198  1.00  0.00     0.314 C 
ATOM     11  C   UNL A   1      33.085  25.250  25.205  1.00  0.00     0.019 A 
ATOM     12  O   UNL A   1      31.259  25.109  26.719  1.00  0.00    -0.475 OA
ATOM     13  C   UNL A   1      34.386  24.962  24.825  1.00  0.00     0.036 A 
ATOM     14  C   UNL A   1      32.533  24.673  26.265  1.00  0.00     0.128 A 
ATOM     15  C   UNL A   1      34.930  23.824  25.467  1.00  0.00     0.107 A 
ATOM     16  C   UNL A   1      33.181  23.659  26.926  1.00  0.00     0.048 A 
ATOM     17  C   UNL A   1      34.445  23.280  26.568  1.00  0.00     0.028 A 
BRANCH  10  18
ATOM     18  C   UNL A   1      30.008  27.827  23.330  1.00  0.00     0.429 C 
ATOM     19  F   UNL A   1      29.074  28.737  23.067  1.00  0.00    -0.167 F 
ATOM     20  F   UNL A   1      30.544  27.399  22.191  1.00  0.00    -0.167 F 
ATOM     21  F   UNL A   1      29.458  26.801  23.975  1.00  0.00    -0.167 F 
ENDBRANCH  10  18
BRANCH  15  22
ATOM     22  S   UNL A   1      36.395  23.060  24.725  1.00  0.00     0.310 S 
ATOM     23  F   UNL A   1      36.535  22.047  25.937  1.00  0.00    -0.094 F 
ATOM     24  F   UNL A   1      37.306  24.054  25.539  1.00  0.00    -0.094 F 
ATOM     25  F   UNL A   1      37.645  22.385  24.095  1.00  0.00    -0.094 F 
ATOM     26  F   UNL A   1      35.473  21.984  24.026  1.00  0.00    -0.094 F 
ATOM     27  F   UNL A   1      35.122  23.662  25.445  1.00  0.00    -0.094 F 
ENDBRANCH  15  22
ENDBRANCH   6   8
ENDBRANCH   3   4
ENDBRANCH   2   3
ENDBRANCH   1   2
BRANCH   1  28
ATOM     28  C   UNL A   1      34.584  31.846  27.921  1.00  0.00     0.116 C 
BRANCH  28  29
ATOM     29  N   UNL A   1      34.284  32.189  29.320  1.00  0.00    -0.352 N 
ATOM     30  C   UNL A   1      35.253  31.870  30.378  1.00  0.00     0.251 C 
ATOM     31  H   UNL A   1      33.434  32.631  29.547  1.00  0.00     0.163 HD
ATOM     32  O   UNL A   1      34.994  32.167  31.586  1.00  0.00    -0.269 OA
BRANCH  30  33
ATOM     33  C   UNL A   1      36.565  31.188  30.027  1.00  0.00     0.039 A 
ATOM     34  C   UNL A   1      37.311  31.503  28.902  1.00  0.00     0.014 A 
ATOM     35  C   UNL A   1      37.013  30.323  30.929  1.00  0.00     0.014 A 
ATOM     36  C   UNL A   1      38.399  30.629  28.673  1.00  0.00     0.010 A 
ATOM     37  C   UNL A   1      38.158  29.601  30.698  1.00  0.00     0.010 A 
ATOM     38  C   UNL A   1      38.913  29.819  29.580  1.00  0.00    -0.014 A 
BRANCH  38  39
ATOM     39  C   UNL A   1      40.272  29.163  29.389  1.00  0.00     0.031 A 
ATOM     40  C   UNL A   1      41.360  30.025  29.527  1.00  0.00     0.074 A 
ATOM     41  C   UNL A   1      40.379  27.832  29.025  1.00  0.00     0.049 A 
ATOM     42  N   UNL A   1      42.653  29.734  29.375  1.00  0.00    -0.248 NA
ATOM     43  C   UNL A   1      41.246  31.448  29.880  1.00  0.00     0.031 C 
ATOM     44  C   UNL A   1      39.286  26.953  28.892  1.00  0.00     0.029 A 
ATOM     45  N   UNL A   1      41.525  27.126  28.732  1.00  0.00    -0.354 N 
ATOM     46  C   UNL A   1      43.401  30.814  29.609  1.00  0.00     0.074 A 
ATOM     47  C   UNL A   1      42.505  31.935  29.930  1.00  0.00     0.031 C 
ATOM     48  C   UNL A   1      39.764  25.739  28.512  1.00  0.00     0.029 A 
ATOM     49  C   UNL A   1      41.164  25.837  28.403  1.00  0.00     0.049 A 
ATOM     50  H   UNL A   1      42.443  27.480  28.753  1.00  0.00     0.167 HD
ATOM     51  C   UNL A   1      44.792  30.910  29.568  1.00  0.00     0.031 A 
ATOM     52  C   UNL A   1      41.995  24.795  28.025  1.00  0.00     0.031 A 
ATOM     53  C   UNL A   1      45.625  29.854  29.231  1.00  0.00     0.049 A 
ATOM     54  C   UNL A   1      43.383  24.905  27.927  1.00  0.00     0.074 A 
ATOM     55  C   UNL A   1      47.030  29.931  29.192  1.00  0.00     0.029 A 
ATOM     56  N   UNL A   1      45.263  28.573  28.878  1.00  0.00    -0.354 N 
ATOM     57  N   UNL A   1      44.132  25.975  28.197  1.00  0.00    -0.248 NA
ATOM     58  C   UNL A   1      44.270  23.816  27.495  1.00  0.00     0.031 C 
ATOM     59  C   UNL A   1      47.510  28.717  28.812  1.00  0.00     0.029 A 
ATOM     60  C   UNL A   1      46.410  27.861  28.607  1.00  0.00     0.049 A 
ATOM     61  H   UNL A   1      44.343  28.227  28.829  1.00  0.00     0.167 HD
ATOM     62  C   UNL A   1      45.422  25.693  28.006  1.00  0.00     0.074 A 
ATOM     63  C   UNL A   1      45.529  24.302  27.544  1.00  0.00     0.031 C 
ATOM     64  C   UNL A   1      46.515  26.540  28.200  1.00  0.00     0.031 A 
BRANCH  51  65
ATOM     65  C   UNL A   1      45.430  32.246  29.910  1.00  0.00    -0.014 A 
ATOM     66  C   UNL A   1      45.912  32.525  31.179  1.00  0.00     0.009 A 
ATOM     67  C   UNL A   1      45.631  33.081  28.898  1.00  0.00     0.009 A 
ATOM     68  C   UNL A   1      46.351  33.860  31.344  1.00  0.00     0.001 A 
ATOM     69  C   UNL A   1      46.190  34.318  29.112  1.00  0.00     0.001 A 
ATOM     70  C   UNL A   1      46.634  34.684  30.352  1.00  0.00     0.000 A 
ENDBRANCH  51  65
BRANCH  52  71
ATOM     71  C   UNL A   1      41.357  23.454  27.697  1.00  0.00    -0.014 A 
ATOM     72  C   UNL A   1      41.641  22.351  28.485  1.00  0.00     0.009 A 
ATOM     73  C   UNL A   1      40.662  23.336  26.573  1.00  0.00     0.009 A 
ATOM     74  C   UNL A   1      41.391  21.112  27.848  1.00  0.00     0.001 A 
ATOM     75  C   UNL A   1      40.335  22.097  26.078  1.00  0.00     0.001 A 
ATOM     76  C   UNL A   1      40.636  20.960  26.775  1.00  0.00     0.000 A 
ENDBRANCH  52  71
BRANCH  64  77
ATOM     77  C   UNL A   1      47.906  25.978  27.952  1.00  0.00    -0.014 A 
ATOM     78  C   UNL A   1      48.629  25.331  28.939  1.00  0.00     0.009 A 
ATOM     79  C   UNL A   1      48.367  26.072  26.710  1.00  0.00     0.009 A 
ATOM     80  C   UNL A   1      49.972  25.064  28.585  1.00  0.00     0.001 A 
ATOM     81  C   UNL A   1      49.644  25.666  26.405  1.00  0.00     0.001 A 
ATOM     82  C   UNL A   1      50.436  25.072  27.348  1.00  0.00     0.000 A 
ENDBRANCH  64  77
ENDBRANCH  38  39
ENDBRANCH  30  33
ENDBRANCH  28  29
ENDBRANCH   1  28
TORSDOF 13
ENDMDL
MODEL 2
REMARK VINA RESULT:     -12.5      2.663      3.515
REMARK SMILES O=C(NCCCCNC(=O)c1ccc(-c2c3nc(c(-c4ccccc4)c4ccc([nH]4)c(-c4ccccc4)c4nc(c(-c5ccccc5)c5ccc2[nH]5)C=C4)C=C3)cc1)C1=Cc2cc(S(F)(F)(F)(F)F)ccc2O[C@@H]1C(F)(F)F
REMARK SMILES IDX 6 1 5 2 4 3 3 4 1 5 2 6 59 8 60 9 74 10 61 11 73 12 62 13
REMARK SMILES IDX 72 14 63 15 71 16 70 17 75 18 76 19 77 20 78 21 64 22 65 23
REMARK SMILES IDX 66 24 67 25 68 26 69 27 7 28 8 29 9 30 10 32 11 33 12 34
REMARK SMILES IDX 58 35 13 36 57 37 14 38 15 39 16 40 51 41 17 42 56 43 50 44
REMARK SMILES IDX 52 45 18 46 55 47 49 48 48 49 19 51 41 52 26 53 40 54 27 55
REMARK SMILES IDX 30 56 39 57 53 58 28 59 29 60 38 62 54 63 31 64 20 65 21 66
REMARK SMILES IDX 25 67 22 68 24 69 23 70 42 71 43 72 47 73 44 74 46 75 45 76
REMARK SMILES IDX 32 77 33 78 37 79 34 80 36 81 35 82
REMARK H PARENT 3 7 8 31 52 50 30 61
REMARK Flexibility Score: inf
ROOT
ATOM      1  C   UNL A   1      32.991  27.735  26.120  1.00  0.00     0.023 C 
ENDROOT
BRANCH   1   2
ATOM      2  C   UNL A   1      33.664  26.977  24.989  1.00  0.00     0.023 C 
BRANCH   2   3
ATOM      3  C   UNL A   1      33.858  25.525  25.396  1.00  0.00     0.116 C 
BRANCH   3   4
ATOM      4  N   UNL A   1      34.275  24.740  24.225  1.00  0.00    -0.352 N 
ATOM      5  O   UNL A   1      33.843  22.900  22.785  1.00  0.00    -0.270 OA
ATOM      6  C   UNL A   1      33.482  23.579  23.797  1.00  0.00     0.251 C 
ATOM      7  H   UNL A   1      35.087  24.992  23.727  1.00  0.00     0.163 HD
BRANCH   6   8
ATOM      8  C   UNL A   1      32.229  23.190  24.566  1.00  0.00     0.067 C 
ATOM      9  C   UNL A   1      32.123  21.947  25.108  1.00  0.00     0.025 C 
ATOM     10  C   UNL A   1      31.096  24.189  24.727  1.00  0.00     0.314 C 
ATOM     11  C   UNL A   1      33.256  20.948  24.946  1.00  0.00     0.019 A 
ATOM     12  O   UNL A   1      34.904  22.592  25.423  1.00  0.00    -0.475 OA
ATOM     13  C   UNL A   1      32.871  19.694  24.500  1.00  0.00     0.036 A 
ATOM     14  C   UNL A   1      34.536  21.254  25.121  1.00  0.00     0.128 A 
ATOM     15  C   UNL A   1      33.906  18.729  24.542  1.00  0.00     0.107 A 
ATOM     16  C   UNL A   1      35.507  20.288  25.013  1.00  0.00     0.048 A 
ATOM     17  C   UNL A   1      35.192  19.013  24.634  1.00  0.00     0.028 A 
BRANCH  10  18
ATOM     18  C   UNL A   1      30.859  24.453  26.205  1.00  0.00     0.429 C 
ATOM     19  F   UNL A   1      30.471  25.714  26.373  1.00  0.00    -0.167 F 
ATOM     20  F   UNL A   1      29.914  23.634  26.657  1.00  0.00    -0.167 F 
ATOM     21  F   UNL A   1      31.987  24.244  26.879  1.00  0.00    -0.167 F 
ENDBRANCH  10  18
BRANCH  15  22
ATOM     22  S   UNL A   1      33.432  16.983  24.463  1.00  0.00     0.310 S 
ATOM     23  F   UNL A   1      34.914  16.520  24.785  1.00  0.00    -0.094 F 
ATOM     24  F   UNL A   1      33.829  16.961  22.939  1.00  0.00    -0.094 F 
ATOM     25  F   UNL A   1      33.038  15.481  24.411  1.00  0.00    -0.094 F 
ATOM     26  F   UNL A   1      33.172  16.989  26.021  1.00  0.00    -0.094 F 
ATOM     27  F   UNL A   1      33.936  18.479  24.556  1.00  0.00    -0.094 F 
ENDBRANCH  15  22
ENDBRANCH   6   8
ENDBRANCH   3   4
ENDBRANCH   2   3
ENDBRANCH   1   2
BRANCH   1  28
ATOM     28  C   UNL A   1      34.050  28.389  26.992  1.00  0.00     0.116 C 
BRANCH  28  29
ATOM     29  N   UNL A   1      33.605  29.738  27.374  1.00  0.00    -0.352 N 
ATOM     30  C   UNL A   1      34.512  30.630  28.110  1.00  0.00     0.251 C 
ATOM     31  H   UNL A   1      32.699  30.043  27.137  1.00  0.00     0.163 HD
ATOM     32  O   UNL A   1      34.128  31.795  28.440  1.00  0.00    -0.269 OA
BRANCH  30  33
ATOM     33  C   UNL A   1      35.910  30.159  28.475  1.00  0.00     0.039 A 
ATOM     34  C   UNL A   1      36.234  29.619  29.710  1.00  0.00     0.014 A 
ATOM     35  C   UNL A   1      36.799  30.205  27.491  1.00  0.00     0.014 A 
ATOM     36  C   UNL A   1      37.620  29.414  29.900  1.00  0.00     0.010 A 
ATOM     37  C   UNL A   1      38.110  29.860  27.714  1.00  0.00     0.010 A 
ATOM     38  C   UNL A   1      38.512  29.375  28.927  1.00  0.00    -0.014 A 
BRANCH  38  39
ATOM     39  C   UNL A   1      39.912  28.821  29.145  1.00  0.00     0.031 A 
ATOM     40  C   UNL A   1      40.816  29.725  29.704  1.00  0.00     0.074 A 
ATOM     41  C   UNL A   1      40.247  27.544  28.733  1.00  0.00     0.049 A 
ATOM     42  N   UNL A   1      42.109  29.525  29.965  1.00  0.00    -0.248 NA
ATOM     43  C   UNL A   1      40.469  31.094  30.111  1.00  0.00     0.031 C 
ATOM     44  C   UNL A   1      39.339  26.623  28.176  1.00  0.00     0.029 A 
ATOM     45  N   UNL A   1      41.484  26.939  28.780  1.00  0.00    -0.354 N 
ATOM     46  C   UNL A   1      42.642  30.617  30.518  1.00  0.00     0.074 A 
ATOM     47  C   UNL A   1      41.596  31.644  30.613  1.00  0.00     0.031 C 
ATOM     48  C   UNL A   1      40.019  25.484  27.880  1.00  0.00     0.029 A 
ATOM     49  C   UNL A   1      41.365  25.673  28.249  1.00  0.00     0.049 A 
ATOM     50  H   UNL A   1      42.312  27.341  29.132  1.00  0.00     0.167 HD
ATOM     51  C   UNL A   1      43.958  30.795  30.947  1.00  0.00     0.031 A 
ATOM     52  C   UNL A   1      42.361  24.724  28.085  1.00  0.00     0.031 A 
ATOM     53  C   UNL A   1      44.944  29.830  30.822  1.00  0.00     0.049 A 
ATOM     54  C   UNL A   1      43.691  24.923  28.461  1.00  0.00     0.074 A 
ATOM     55  C   UNL A   1      46.274  29.991  31.257  1.00  0.00     0.029 A 
ATOM     56  N   UNL A   1      44.831  28.574  30.269  1.00  0.00    -0.354 N 
ATOM     57  N   UNL A   1      44.214  26.001  29.048  1.00  0.00    -0.248 NA
ATOM     58  C   UNL A   1      44.762  23.938  28.261  1.00  0.00     0.031 C 
ATOM     59  C   UNL A   1      46.956  28.852  30.961  1.00  0.00     0.029 A 
ATOM     60  C   UNL A   1      46.062  27.961  30.337  1.00  0.00     0.049 A 
ATOM     61  H   UNL A   1      44.010  28.183  29.890  1.00  0.00     0.167 HD
ATOM     62  C   UNL A   1      45.517  25.814  29.272  1.00  0.00     0.074 A 
ATOM     63  C   UNL A   1      45.890  24.488  28.763  1.00  0.00     0.031 C 
ATOM     64  C   UNL A   1      46.409  26.697  29.884  1.00  0.00     0.031 A 
BRANCH  51  65
ATOM     65  C   UNL A   1      44.330  32.123  31.587  1.00  0.00    -0.014 A 
ATOM     66  C   UNL A   1      44.741  33.211  30.834  1.00  0.00     0.009 A 
ATOM     67  C   UNL A   1      44.106  32.233  32.891  1.00  0.00     0.009 A 
ATOM     68  C   UNL A   1      45.169  34.315  31.609  1.00  0.00     0.001 A 
ATOM     69  C   UNL A   1      44.423  33.390  33.560  1.00  0.00     0.001 A 
ATOM     70  C   UNL A   1      44.889  34.486  32.888  1.00  0.00     0.000 A 
ENDBRANCH  51  65
BRANCH  52  71
ATOM     71  C   UNL A   1      41.985  23.391  27.459  1.00  0.00    -0.014 A 
ATOM     72  C   UNL A   1      41.533  22.360  28.266  1.00  0.00     0.009 A 
ATOM     73  C   UNL A   1      42.243  23.195  26.172  1.00  0.00     0.009 A 
ATOM     74  C   UNL A   1      41.659  21.077  27.682  1.00  0.00     0.001 A 
ATOM     75  C   UNL A   1      42.216  21.930  25.637  1.00  0.00     0.001 A 
ATOM     76  C   UNL A   1      41.835  20.856  26.391  1.00  0.00     0.000 A 
ENDBRANCH  52  71
BRANCH  64  77
ATOM     77  C   UNL A   1      47.849  26.245  30.066  1.00  0.00    -0.014 A 
ATOM     78  C   UNL A   1      48.786  26.335  29.050  1.00  0.00     0.009 A 
ATOM     79  C   UNL A   1      48.188  25.826  31.279  1.00  0.00     0.009 A 
ATOM     80  C   UNL A   1      50.006  25.680  29.335  1.00  0.00     0.001 A 
ATOM     81  C   UNL A   1      49.443  25.322  31.520  1.00  0.00     0.001 A 
ATOM     82  C   UNL A   1      50.401  25.325  30.545  1.00  0.00     0.000 A 
ENDBRANCH  64  77
ENDBRANCH  38  39
ENDBRANCH  30  33
ENDBRANCH  28  29
ENDBRANCH   1  28
TORSDOF 13
ENDMDL
MODEL 3
REMARK VINA RESULT:     -12.4      4.080      8.589
REMARK SMILES O=C(NCCCCNC(=O)c1ccc(-c2c3nc(c(-c4ccccc4)c4ccc([nH]4)c(-c4ccccc4)c4nc(c(-c5ccccc5)c5ccc2[nH]5)C=C4)C=C3)cc1)C1=Cc2cc(S(F)(F)(F)(F)F)ccc2O[C@@H]1C(F)(F)F
REMARK SMILES IDX 6 1 5 2 4 3 3 4 1 5 2 6 59 8 60 9 74 10 61 11 73 12 62 13
REMARK SMILES IDX 72 14 63 15 71 16 70 17 75 18 76 19 77 20 78 21 64 22 65 23
REMARK SMILES IDX 66 24 67 25 68 26 69 27 7 28 8 29 9 30 10 32 11 33 12 34
REMARK SMILES IDX 58 35 13 36 57 37 14 38 15 39 16 40 51 41 17 42 56 43 50 44
REMARK SMILES IDX 52 45 18 46 55 47 49 48 48 49 19 51 41 52 26 53 40 54 27 55
REMARK SMILES IDX 30 56 39 57 53 58 28 59 29 60 38 62 54 63 31 64 20 65 21 66
REMARK SMILES IDX 25 67 22 68 24 69 23 70 42 71 43 72 47 73 44 74 46 75 45 76
REMARK SMILES IDX 32 77 33 78 37 79 34 80 36 81 35 82
REMARK H PARENT 3 7 8 31 52 50 30 61
REMARK Flexibility Score: inf
ROOT
ATOM      1  C   UNL A   1      38.511  22.418  25.731  1.00  0.00     0.023 C 
ENDROOT
BRANCH   1   2
ATOM      2  C   UNL A   1      37.965  23.787  26.100  1.00  0.00     0.023 C 
BRANCH   2   3
ATOM      3  C   UNL A   1      36.495  23.866  25.721  1.00  0.00     0.116 C 
BRANCH   3   4
ATOM      4  N   UNL A   1      36.354  23.692  24.268  1.00  0.00    -0.352 N 
ATOM      5  O   UNL A   1      34.976  23.026  22.451  1.00  0.00    -0.270 OA
ATOM      6  C   UNL A   1      35.097  23.176  23.707  1.00  0.00     0.251 C 
ATOM      7  H   UNL A   1      37.103  23.919  23.671  1.00  0.00     0.163 HD
BRANCH   6   8
ATOM      8  C   UNL A   1      33.942  22.824  24.630  1.00  0.00     0.067 C 
ATOM      9  C   UNL A   1      33.125  23.804  25.102  1.00  0.00     0.025 C 
ATOM     10  C   UNL A   1      33.699  21.377  25.026  1.00  0.00     0.314 C 
ATOM     11  C   UNL A   1      33.368  25.252  24.706  1.00  0.00     0.019 A 
ATOM     12  O   UNL A   1      33.756  24.668  22.436  1.00  0.00    -0.475 OA
ATOM     13  C   UNL A   1      33.393  26.150  25.761  1.00  0.00     0.036 A 
ATOM     14  C   UNL A   1      33.633  25.639  23.465  1.00  0.00     0.128 A 
ATOM     15  C   UNL A   1      33.426  27.506  25.357  1.00  0.00     0.107 A 
ATOM     16  C   UNL A   1      33.787  26.971  23.166  1.00  0.00     0.048 A 
ATOM     17  C   UNL A   1      33.764  27.920  24.150  1.00  0.00     0.028 A 
BRANCH  10  18
ATOM     18  C   UNL A   1      32.314  20.952  24.568  1.00  0.00     0.429 C 
ATOM     19  F   UNL A   1      32.150  21.278  23.289  1.00  0.00    -0.167 F 
ATOM     20  F   UNL A   1      32.183  19.635  24.710  1.00  0.00    -0.167 F 
ATOM     21  F   UNL A   1      31.394  21.570  25.304  1.00  0.00    -0.167 F 
ENDBRANCH  10  18
BRANCH  15  22
ATOM     22  S   UNL A   1      32.973  28.760  26.582  1.00  0.00     0.310 S 
ATOM     23  F   UNL A   1      32.558  27.648  27.633  1.00  0.00    -0.094 F 
ATOM     24  F   UNL A   1      31.490  28.716  26.053  1.00  0.00    -0.094 F 
ATOM     25  F   UNL A   1      32.592  29.825  27.648  1.00  0.00    -0.094 F 
ATOM     26  F   UNL A   1      34.430  28.687  27.188  1.00  0.00    -0.094 F 
ATOM     27  F   UNL A   1      33.348  27.596  25.579  1.00  0.00    -0.094 F 
ENDBRANCH  15  22
ENDBRANCH   6   8
ENDBRANCH   3   4
ENDBRANCH   2   3
ENDBRANCH   1   2
BRANCH   1  28
ATOM     28  C   UNL A   1      39.717  22.102  26.599  1.00  0.00     0.116 C 
BRANCH  28  29
ATOM     29  N   UNL A   1      40.933  22.112  25.771  1.00  0.00    -0.352 N 
ATOM     30  C   UNL A   1      41.867  23.243  25.853  1.00  0.00     0.251 C 
ATOM     31  H   UNL A   1      41.119  21.362  25.162  1.00  0.00     0.163 HD
ATOM     32  O   UNL A   1      42.918  23.252  25.137  1.00  0.00    -0.269 OA
BRANCH  30  33
ATOM     33  C   UNL A   1      41.579  24.401  26.794  1.00  0.00     0.039 A 
ATOM     34  C   UNL A   1      41.018  24.240  28.051  1.00  0.00     0.014 A 
ATOM     35  C   UNL A   1      41.992  25.590  26.373  1.00  0.00     0.014 A 
ATOM     36  C   UNL A   1      40.671  25.456  28.684  1.00  0.00     0.010 A 
ATOM     37  C   UNL A   1      41.738  26.722  27.109  1.00  0.00     0.010 A 
ATOM     38  C   UNL A   1      41.135  26.642  28.334  1.00  0.00    -0.014 A 
BRANCH  38  39
ATOM     39  C   UNL A   1      41.003  27.854  29.242  1.00  0.00     0.031 A 
ATOM     40  C   UNL A   1      41.942  27.914  30.273  1.00  0.00     0.074 A 
ATOM     41  C   UNL A   1      39.970  28.761  29.081  1.00  0.00     0.049 A 
ATOM     42  N   UNL A   1      42.037  28.836  31.234  1.00  0.00    -0.248 NA
ATOM     43  C   UNL A   1      43.019  26.933  30.466  1.00  0.00     0.031 C 
ATOM     44  C   UNL A   1      39.025  28.711  28.038  1.00  0.00     0.029 A 
ATOM     45  N   UNL A   1      39.669  29.848  29.871  1.00  0.00    -0.354 N 
ATOM     46  C   UNL A   1      43.076  28.569  32.027  1.00  0.00     0.074 A 
ATOM     47  C   UNL A   1      43.719  27.337  31.549  1.00  0.00     0.031 C 
ATOM     48  C   UNL A   1      38.159  29.745  28.204  1.00  0.00     0.029 A 
ATOM     49  C   UNL A   1      38.550  30.461  29.352  1.00  0.00     0.049 A 
ATOM     50  H   UNL A   1      40.168  30.138  30.669  1.00  0.00     0.167 HD
ATOM     51  C   UNL A   1      43.514  29.305  33.130  1.00  0.00     0.031 A 
ATOM     52  C   UNL A   1      37.891  31.578  29.840  1.00  0.00     0.031 A 
ATOM     53  C   UNL A   1      42.880  30.448  33.591  1.00  0.00     0.049 A 
ATOM     54  C   UNL A   1      38.294  32.281  30.977  1.00  0.00     0.074 A 
ATOM     55  C   UNL A   1      43.312  31.206  34.696  1.00  0.00     0.029 A 
ATOM     56  N   UNL A   1      41.746  31.046  33.087  1.00  0.00    -0.354 N 
ATOM     57  N   UNL A   1      39.356  32.036  31.747  1.00  0.00    -0.248 NA
ATOM     58  C   UNL A   1      37.585  33.447  31.522  1.00  0.00     0.031 C 
ATOM     59  C   UNL A   1      42.446  32.241  34.863  1.00  0.00     0.029 A 
ATOM     60  C   UNL A   1      41.458  32.146  33.864  1.00  0.00     0.049 A 
ATOM     61  H   UNL A   1      41.231  30.739  32.306  1.00  0.00     0.167 HD
ATOM     62  C   UNL A   1      39.426  32.935  32.732  1.00  0.00     0.074 A 
ATOM     63  C   UNL A   1      38.284  33.851  32.605  1.00  0.00     0.031 C 
ATOM     64  C   UNL A   1      40.399  33.029  33.729  1.00  0.00     0.031 A 
BRANCH  51  65
ATOM     65  C   UNL A   1      44.754  28.826  33.865  1.00  0.00    -0.014 A 
ATOM     66  C   UNL A   1      46.019  29.302  33.560  1.00  0.00     0.009 A 
ATOM     67  C   UNL A   1      44.551  28.033  34.911  1.00  0.00     0.009 A 
ATOM     68  C   UNL A   1      47.062  28.648  34.257  1.00  0.00     0.001 A 
ATOM     69  C   UNL A   1      45.612  27.539  35.630  1.00  0.00     0.001 A 
ATOM     70  C   UNL A   1      46.894  27.921  35.346  1.00  0.00     0.000 A 
ENDBRANCH  51  65
BRANCH  52  71
ATOM     71  C   UNL A   1      36.660  32.066  29.095  1.00  0.00    -0.014 A 
ATOM     72  C   UNL A   1      36.767  33.137  28.223  1.00  0.00     0.009 A 
ATOM     73  C   UNL A   1      35.477  31.551  29.411  1.00  0.00     0.009 A 
ATOM     74  C   UNL A   1      35.537  33.786  27.958  1.00  0.00     0.001 A 
ATOM     75  C   UNL A   1      34.316  32.163  29.004  1.00  0.00     0.001 A 
ATOM     76  C   UNL A   1      34.348  33.260  28.189  1.00  0.00     0.000 A 
ENDBRANCH  52  71
BRANCH  64  77
ATOM     77  C   UNL A   1      40.290  34.171  34.726  1.00  0.00    -0.014 A 
ATOM     78  C   UNL A   1      40.824  35.424  34.477  1.00  0.00     0.009 A 
ATOM     79  C   UNL A   1      39.585  33.929  35.825  1.00  0.00     0.009 A 
ATOM     80  C   UNL A   1      40.805  36.288  35.597  1.00  0.00     0.001 A 
ATOM     81  C   UNL A   1      39.497  34.871  36.821  1.00  0.00     0.001 A 
ATOM     82  C   UNL A   1      40.053  36.111  36.668  1.00  0.00     0.000 A 
ENDBRANCH  64  77
ENDBRANCH  38  39
ENDBRANCH  30  33
ENDBRANCH  28  29
ENDBRANCH   1  28
TORSDOF 13
ENDMDL
