MODEL 1
REMARK VINA RESULT:     -12.6      0.000      0.000
REMARK SMILES Cc1ccnc(C(=O)c2[nH]c3ccc(C(C)(C)C)cc3c2CC(=O)NCCCCNC(=O)c2ccc(-c3c4nc(c(-c5ccccc5)c5ccc([nH]5)c(-c5ccccc5)c5nc(c(-c6ccccc6)c6ccc3[nH]6)C=C5)C=C4)cc2)c1
REMARK SMILES IDX 27 1 26 2 25 3 23 4 24 5 22 7 21 8 9 9 10 10 11 11 20 13
REMARK SMILES IDX 12 14 19 15 13 16 14 17 7 18 8 19 6 20 1 21 2 22 3 23 81 24
REMARK SMILES IDX 4 25 5 26 15 27 16 28 17 29 18 30 28 31 29 32 30 33 31 34
REMARK SMILES IDX 32 36 33 37 34 38 80 39 35 40 79 41 36 42 37 43 38 44 73 45
REMARK SMILES IDX 39 46 78 47 72 48 74 49 40 50 77 51 71 52 70 53 41 55 63 56
REMARK SMILES IDX 48 57 62 58 49 59 52 60 61 61 75 62 50 63 51 64 60 66 76 67
REMARK SMILES IDX 53 68 42 69 43 70 47 71 44 72 46 73 45 74 64 75 65 76 69 77
REMARK SMILES IDX 66 78 68 79 67 80 54 81 55 82 59 83 56 84 58 85 57 86
REMARK H PARENT 25 6 10 12 30 35 74 54 52 65
REMARK Flexibility Score: inf
ROOT
ATOM      1  C   UNL A   1      37.371  21.041  24.747  1.00  0.00     0.023 C 
ENDROOT
BRANCH   1   2
ATOM      2  C   UNL A   1      37.565  22.178  25.750  1.00  0.00     0.116 C 
BRANCH   2   3
ATOM      3  N   UNL A   1      36.346  22.527  26.449  1.00  0.00    -0.356 N 
ATOM      4  C   UNL A   1      35.271  23.245  26.008  1.00  0.00     0.224 C 
ATOM      5  O   UNL A   1      34.273  23.287  26.732  1.00  0.00    -0.275 OA
ATOM      6  H   UNL A   1      36.284  22.201  27.376  1.00  0.00     0.163 HD
BRANCH   4   7
ATOM      7  C   UNL A   1      35.249  23.859  24.615  1.00  0.00     0.138 C 
BRANCH   7   8
ATOM      8  C   UNL A   1      34.074  23.473  23.761  1.00  0.00    -0.002 A 
ATOM      9  C   UNL A   1      33.292  24.310  22.971  1.00  0.00     0.093 A 
ATOM     10  N   UNL A   1      32.399  23.514  22.289  1.00  0.00    -0.352 N 
ATOM     11  C   UNL A   1      32.507  22.207  22.690  1.00  0.00     0.046 A 
ATOM     12  H   UNL A   1      31.769  23.839  21.606  1.00  0.00     0.167 HD
ATOM     13  C   UNL A   1      33.530  22.151  23.629  1.00  0.00     0.004 A 
ATOM     14  C   UNL A   1      31.800  21.076  22.278  1.00  0.00     0.027 A 
ATOM     15  C   UNL A   1      33.850  20.893  24.190  1.00  0.00     0.015 A 
ATOM     16  C   UNL A   1      32.154  19.842  22.842  1.00  0.00     0.006 A 
ATOM     17  C   UNL A   1      33.173  19.718  23.797  1.00  0.00    -0.042 A 
BRANCH   9  18
ATOM     18  C   UNL A   1      33.401  25.744  22.758  1.00  0.00     0.227 C 
ATOM     19  O   UNL A   1      33.875  26.190  21.720  1.00  0.00    -0.285 OA
BRANCH  18  20
ATOM     20  C   UNL A   1      32.877  26.673  23.830  1.00  0.00     0.113 A 
ATOM     21  C   UNL A   1      33.979  28.579  26.922  1.00  0.00     0.044 C 
ATOM     22  C   UNL A   1      33.142  28.020  25.811  1.00  0.00    -0.047 A 
ATOM     23  C   UNL A   1      31.778  28.307  25.746  1.00  0.00     0.023 A 
ATOM     24  C   UNL A   1      33.703  27.207  24.821  1.00  0.00     0.036 A 
ATOM     25  C   UNL A   1      31.033  27.755  24.718  1.00  0.00     0.112 A 
ATOM     26  N   UNL A   1      31.546  26.937  23.776  1.00  0.00    -0.253 NA
ENDBRANCH  18  20
ENDBRANCH   9  18
BRANCH  17  27
ATOM     27  C   UNL A   1      33.593  18.362  24.396  1.00  0.00    -0.013 C 
ATOM     28  C   UNL A   1      32.902  18.176  25.763  1.00  0.00     0.016 C 
ATOM     29  C   UNL A   1      33.174  17.213  23.453  1.00  0.00     0.016 C 
ATOM     30  C   UNL A   1      35.116  18.227  24.626  1.00  0.00     0.016 C 
ENDBRANCH  17  27
ENDBRANCH   7   8
ENDBRANCH   4   7
ENDBRANCH   2   3
ENDBRANCH   1   2
BRANCH   1  31
ATOM     31  C   UNL A   1      38.214  19.790  24.998  1.00  0.00     0.023 C 
BRANCH  31  32
ATOM     32  C   UNL A   1      39.248  19.905  26.113  1.00  0.00     0.116 C 
BRANCH  32  33
ATOM     33  N   UNL A   1      40.351  18.967  25.980  1.00  0.00    -0.352 N 
ATOM     34  C   UNL A   1      41.700  19.202  26.081  1.00  0.00     0.251 C 
ATOM     35  H   UNL A   1      40.095  18.035  25.792  1.00  0.00     0.163 HD
ATOM     36  O   UNL A   1      42.501  18.301  25.853  1.00  0.00    -0.269 OA
BRANCH  34  37
ATOM     37  C   UNL A   1      42.193  20.555  26.419  1.00  0.00     0.039 A 
ATOM     38  C   UNL A   1      42.551  21.414  25.376  1.00  0.00     0.014 A 
ATOM     39  C   UNL A   1      42.301  20.980  27.747  1.00  0.00     0.014 A 
ATOM     40  C   UNL A   1      42.951  22.722  25.658  1.00  0.00     0.010 A 
ATOM     41  C   UNL A   1      42.652  22.299  28.026  1.00  0.00     0.010 A 
ATOM     42  C   UNL A   1      42.971  23.182  26.983  1.00  0.00    -0.014 A 
BRANCH  42  43
ATOM     43  C   UNL A   1      43.308  24.589  27.301  1.00  0.00     0.031 A 
ATOM     44  C   UNL A   1      44.734  25.055  27.260  1.00  0.00     0.074 A 
ATOM     45  C   UNL A   1      42.334  25.431  27.693  1.00  0.00     0.049 A 
ATOM     46  N   UNL A   1      45.227  26.226  27.577  1.00  0.00    -0.248 NA
ATOM     47  C   UNL A   1      45.738  24.072  26.825  1.00  0.00     0.031 C 
ATOM     48  C   UNL A   1      40.914  25.095  27.805  1.00  0.00     0.029 A 
ATOM     49  N   UNL A   1      42.399  26.745  28.081  1.00  0.00    -0.354 N 
ATOM     50  C   UNL A   1      46.599  26.113  27.408  1.00  0.00     0.074 A 
ATOM     51  C   UNL A   1      46.864  24.756  26.978  1.00  0.00     0.031 C 
ATOM     52  C   UNL A   1      40.238  26.183  28.210  1.00  0.00     0.029 A 
ATOM     53  C   UNL A   1      41.180  27.279  28.414  1.00  0.00     0.049 A 
ATOM     54  H   UNL A   1      43.240  27.256  28.117  1.00  0.00     0.167 HD
ATOM     55  C   UNL A   1      47.555  27.055  27.586  1.00  0.00     0.031 A 
ATOM     56  C   UNL A   1      40.855  28.513  28.840  1.00  0.00     0.031 A 
ATOM     57  C   UNL A   1      47.300  28.412  27.987  1.00  0.00     0.049 A 
ATOM     58  C   UNL A   1      41.931  29.542  29.023  1.00  0.00     0.074 A 
ATOM     59  C   UNL A   1      48.199  29.455  28.127  1.00  0.00     0.029 A 
ATOM     60  N   UNL A   1      46.050  28.912  28.312  1.00  0.00    -0.354 N 
ATOM     61  N   UNL A   1      43.220  29.431  28.817  1.00  0.00    -0.248 NA
ATOM     62  C   UNL A   1      41.503  30.865  29.500  1.00  0.00     0.031 C 
ATOM     63  C   UNL A   1      47.493  30.584  28.561  1.00  0.00     0.029 A 
ATOM     64  C   UNL A   1      46.155  30.246  28.666  1.00  0.00     0.049 A 
ATOM     65  H   UNL A   1      45.212  28.397  28.293  1.00  0.00     0.167 HD
ATOM     66  C   UNL A   1      43.757  30.674  29.121  1.00  0.00     0.074 A 
ATOM     67  C   UNL A   1      42.654  31.524  29.524  1.00  0.00     0.031 C 
ATOM     68  C   UNL A   1      45.049  31.075  29.067  1.00  0.00     0.031 A 
BRANCH  55  69
ATOM     69  C   UNL A   1      48.975  26.632  27.356  1.00  0.00    -0.014 A 
ATOM     70  C   UNL A   1      49.784  26.209  28.421  1.00  0.00     0.009 A 
ATOM     71  C   UNL A   1      49.508  26.655  26.058  1.00  0.00     0.009 A 
ATOM     72  C   UNL A   1      51.113  25.846  28.195  1.00  0.00     0.001 A 
ATOM     73  C   UNL A   1      50.832  26.277  25.833  1.00  0.00     0.001 A 
ATOM     74  C   UNL A   1      51.635  25.880  26.902  1.00  0.00     0.000 A 
ENDBRANCH  55  69
BRANCH  56  75
ATOM     75  C   UNL A   1      39.436  28.851  29.098  1.00  0.00    -0.014 A 
ATOM     76  C   UNL A   1      38.887  28.645  30.372  1.00  0.00     0.009 A 
ATOM     77  C   UNL A   1      38.631  29.388  28.083  1.00  0.00     0.009 A 
ATOM     78  C   UNL A   1      37.552  28.963  30.624  1.00  0.00     0.001 A 
ATOM     79  C   UNL A   1      37.299  29.718  28.342  1.00  0.00     0.001 A 
ATOM     80  C   UNL A   1      36.760  29.502  29.610  1.00  0.00     0.000 A 
ENDBRANCH  56  75
BRANCH  68  81
ATOM     81  C   UNL A   1      45.331  32.501  29.431  1.00  0.00    -0.014 A 
ATOM     82  C   UNL A   1      45.645  32.857  30.750  1.00  0.00     0.009 A 
ATOM     83  C   UNL A   1      45.308  33.491  28.438  1.00  0.00     0.009 A 
ATOM     84  C   UNL A   1      45.911  34.190  31.073  1.00  0.00     0.001 A 
ATOM     85  C   UNL A   1      45.587  34.819  28.761  1.00  0.00     0.001 A 
ATOM     86  C   UNL A   1      45.883  35.169  30.079  1.00  0.00     0.000 A 
ENDBRANCH  68  81
ENDBRANCH  42  43
ENDBRANCH  34  37
ENDBRANCH  32  33
ENDBRANCH  31  32
ENDBRANCH   1  31
TORSDOF 15
ENDMDL
MODEL 2
REMARK VINA RESULT:     -12.5      0.424      5.651
REMARK SMILES Cc1ccnc(C(=O)c2[nH]c3ccc(C(C)(C)C)cc3c2CC(=O)NCCCCNC(=O)c2ccc(-c3c4nc(c(-c5ccccc5)c5ccc([nH]5)c(-c5ccccc5)c5nc(c(-c6ccccc6)c6ccc3[nH]6)C=C5)C=C4)cc2)c1
REMARK SMILES IDX 27 1 26 2 25 3 23 4 24 5 22 7 21 8 9 9 10 10 11 11 20 13
REMARK SMILES IDX 12 14 19 15 13 16 14 17 7 18 8 19 6 20 1 21 2 22 3 23 81 24
REMARK SMILES IDX 4 25 5 26 15 27 16 28 17 29 18 30 28 31 29 32 30 33 31 34
REMARK SMILES IDX 32 36 33 37 34 38 80 39 35 40 79 41 36 42 37 43 38 44 73 45
REMARK SMILES IDX 39 46 78 47 72 48 74 49 40 50 77 51 71 52 70 53 41 55 63 56
REMARK SMILES IDX 48 57 62 58 49 59 52 60 61 61 75 62 50 63 51 64 60 66 76 67
REMARK SMILES IDX 53 68 42 69 43 70 47 71 44 72 46 73 45 74 64 75 65 76 69 77
REMARK SMILES IDX 66 78 68 79 67 80 54 81 55 82 59 83 56 84 58 85 57 86
REMARK H PARENT 25 6 10 12 30 35 74 54 52 65
REMARK Flexibility Score: inf
ROOT
ATOM      1  C   UNL A   1      37.423  21.319  24.687  1.00  0.00     0.023 C 
ENDROOT
BRANCH   1   2
ATOM      2  C   UNL A   1      37.533  22.412  25.751  1.00  0.00     0.116 C 
BRANCH   2   3
ATOM      3  N   UNL A   1      36.276  22.681  26.416  1.00  0.00    -0.356 N 
ATOM      4  C   UNL A   1      35.177  23.348  25.953  1.00  0.00     0.224 C 
ATOM      5  O   UNL A   1      34.156  23.322  26.645  1.00  0.00    -0.275 OA
ATOM      6  H   UNL A   1      36.203  22.335  27.334  1.00  0.00     0.163 HD
BRANCH   4   7
ATOM      7  C   UNL A   1      35.165  23.986  24.571  1.00  0.00     0.138 C 
BRANCH   7   8
ATOM      8  C   UNL A   1      34.010  23.597  23.693  1.00  0.00    -0.002 A 
ATOM      9  C   UNL A   1      33.242  24.431  22.885  1.00  0.00     0.093 A 
ATOM     10  N   UNL A   1      32.365  23.633  22.186  1.00  0.00    -0.352 N 
ATOM     11  C   UNL A   1      32.468  22.326  22.591  1.00  0.00     0.046 A 
ATOM     12  H   UNL A   1      31.749  23.955  21.489  1.00  0.00     0.167 HD
ATOM     13  C   UNL A   1      33.471  22.273  23.551  1.00  0.00     0.004 A 
ATOM     14  C   UNL A   1      31.772  21.193  22.165  1.00  0.00     0.027 A 
ATOM     15  C   UNL A   1      33.782  21.017  24.121  1.00  0.00     0.015 A 
ATOM     16  C   UNL A   1      32.116  19.960  22.738  1.00  0.00     0.006 A 
ATOM     17  C   UNL A   1      33.116  19.840  23.715  1.00  0.00    -0.042 A 
BRANCH   9  18
ATOM     18  C   UNL A   1      33.353  25.864  22.673  1.00  0.00     0.227 C 
ATOM     19  O   UNL A   1      33.785  26.311  21.617  1.00  0.00    -0.285 OA
BRANCH  18  20
ATOM     20  C   UNL A   1      32.882  26.794  23.769  1.00  0.00     0.113 A 
ATOM     21  C   UNL A   1      34.116  28.630  26.853  1.00  0.00     0.044 C 
ATOM     22  C   UNL A   1      33.236  28.108  25.758  1.00  0.00    -0.047 A 
ATOM     23  C   UNL A   1      31.879  28.432  25.732  1.00  0.00     0.023 A 
ATOM     24  C   UNL A   1      33.748  27.293  24.743  1.00  0.00     0.036 A 
ATOM     25  C   UNL A   1      31.092  27.913  24.718  1.00  0.00     0.112 A 
ATOM     26  N   UNL A   1      31.558  27.094  23.754  1.00  0.00    -0.253 NA
ENDBRANCH  18  20
ENDBRANCH   9  18
BRANCH  17  27
ATOM     27  C   UNL A   1      33.526  18.486  24.325  1.00  0.00    -0.013 C 
ATOM     28  C   UNL A   1      32.785  18.288  25.664  1.00  0.00     0.016 C 
ATOM     29  C   UNL A   1      33.153  17.337  23.363  1.00  0.00     0.016 C 
ATOM     30  C   UNL A   1      35.040  18.364  24.612  1.00  0.00     0.016 C 
ENDBRANCH  17  27
ENDBRANCH   7   8
ENDBRANCH   4   7
ENDBRANCH   2   3
ENDBRANCH   1   2
BRANCH   1  31
ATOM     31  C   UNL A   1      38.161  20.017  25.001  1.00  0.00     0.023 C 
BRANCH  31  32
ATOM     32  C   UNL A   1      39.241  20.115  26.072  1.00  0.00     0.116 C 
BRANCH  32  33
ATOM     33  N   UNL A   1      40.265  19.089  25.957  1.00  0.00    -0.352 N 
ATOM     34  C   UNL A   1      41.625  19.208  26.104  1.00  0.00     0.251 C 
ATOM     35  H   UNL A   1      39.939  18.185  25.745  1.00  0.00     0.163 HD
ATOM     36  O   UNL A   1      42.355  18.246  25.886  1.00  0.00    -0.269 OA
BRANCH  34  37
ATOM     37  C   UNL A   1      42.218  20.510  26.481  1.00  0.00     0.039 A 
ATOM     38  C   UNL A   1      42.713  21.335  25.467  1.00  0.00     0.014 A 
ATOM     39  C   UNL A   1      42.286  20.920  27.816  1.00  0.00     0.014 A 
ATOM     40  C   UNL A   1      43.213  22.601  25.782  1.00  0.00     0.010 A 
ATOM     41  C   UNL A   1      42.739  22.200  28.125  1.00  0.00     0.010 A 
ATOM     42  C   UNL A   1      43.197  23.053  27.111  1.00  0.00    -0.014 A 
BRANCH  42  43
ATOM     43  C   UNL A   1      43.642  24.423  27.458  1.00  0.00     0.031 A 
ATOM     44  C   UNL A   1      42.646  25.453  27.904  1.00  0.00     0.074 A 
ATOM     45  C   UNL A   1      44.937  24.758  27.305  1.00  0.00     0.049 A 
ATOM     46  N   UNL A   1      42.838  26.719  28.177  1.00  0.00    -0.248 NA
ATOM     47  C   UNL A   1      41.251  25.008  28.042  1.00  0.00     0.031 C 
ATOM     48  C   UNL A   1      45.999  23.859  26.850  1.00  0.00     0.029 A 
ATOM     49  N   UNL A   1      45.574  25.955  27.509  1.00  0.00    -0.354 N 
ATOM     50  C   UNL A   1      41.586  27.228  28.492  1.00  0.00     0.074 A 
ATOM     51  C   UNL A   1      40.639  26.141  28.358  1.00  0.00     0.031 C 
ATOM     52  C   UNL A   1      47.162  24.531  26.833  1.00  0.00     0.029 A 
ATOM     53  C   UNL A   1      46.920  25.911  27.245  1.00  0.00     0.049 A 
ATOM     54  H   UNL A   1      45.111  26.768  27.816  1.00  0.00     0.167 HD
ATOM     55  C   UNL A   1      41.253  28.486  28.866  1.00  0.00     0.031 A 
ATOM     56  C   UNL A   1      47.856  26.874  27.322  1.00  0.00     0.031 A 
ATOM     57  C   UNL A   1      42.189  29.565  29.028  1.00  0.00     0.049 A 
ATOM     58  C   UNL A   1      47.464  28.258  27.746  1.00  0.00     0.074 A 
ATOM     59  C   UNL A   1      41.951  30.856  29.469  1.00  0.00     0.029 A 
ATOM     60  N   UNL A   1      43.543  29.477  28.752  1.00  0.00    -0.354 N 
ATOM     61  N   UNL A   1      46.282  28.712  28.082  1.00  0.00    -0.248 NA
ATOM     62  C   UNL A   1      48.537  29.260  27.799  1.00  0.00     0.031 C 
ATOM     63  C   UNL A   1      43.163  31.557  29.439  1.00  0.00     0.029 A 
ATOM     64  C   UNL A   1      44.154  30.694  29.001  1.00  0.00     0.049 A 
ATOM     65  H   UNL A   1      44.003  28.670  28.429  1.00  0.00     0.167 HD
ATOM     66  C   UNL A   1      46.471  30.049  28.404  1.00  0.00     0.074 A 
ATOM     67  C   UNL A   1      47.881  30.332  28.226  1.00  0.00     0.031 C 
ATOM     68  C   UNL A   1      45.555  30.958  28.815  1.00  0.00     0.031 A 
BRANCH  55  69
ATOM     69  C   UNL A   1      39.799  28.757  29.114  1.00  0.00    -0.014 A 
ATOM     70  C   UNL A   1      39.224  28.512  30.370  1.00  0.00     0.009 A 
ATOM     71  C   UNL A   1      38.998  29.266  28.081  1.00  0.00     0.009 A 
ATOM     72  C   UNL A   1      37.862  28.743  30.577  1.00  0.00     0.001 A 
ATOM     73  C   UNL A   1      37.641  29.510  28.296  1.00  0.00     0.001 A 
ATOM     74  C   UNL A   1      37.073  29.241  29.541  1.00  0.00     0.000 A 
ENDBRANCH  55  69
BRANCH  56  75
ATOM     75  C   UNL A   1      49.269  26.551  27.015  1.00  0.00    -0.014 A 
ATOM     76  C   UNL A   1      50.106  26.041  28.019  1.00  0.00     0.009 A 
ATOM     77  C   UNL A   1      49.782  26.736  25.723  1.00  0.00     0.009 A 
ATOM     78  C   UNL A   1      51.437  25.731  27.737  1.00  0.00     0.001 A 
ATOM     79  C   UNL A   1      51.111  26.413  25.441  1.00  0.00     0.001 A 
ATOM     80  C   UNL A   1      51.937  25.915  26.447  1.00  0.00     0.000 A 
ENDBRANCH  56  75
BRANCH  68  81
ATOM     81  C   UNL A   1      46.061  32.336  29.119  1.00  0.00    -0.014 A 
ATOM     82  C   UNL A   1      46.530  32.663  30.400  1.00  0.00     0.009 A 
ATOM     83  C   UNL A   1      46.092  33.307  28.107  1.00  0.00     0.009 A 
ATOM     84  C   UNL A   1      47.003  33.949  30.667  1.00  0.00     0.001 A 
ATOM     85  C   UNL A   1      46.577  34.587  28.374  1.00  0.00     0.001 A 
ATOM     86  C   UNL A   1      47.027  34.909  29.655  1.00  0.00     0.000 A 
ENDBRANCH  68  81
ENDBRANCH  42  43
ENDBRANCH  34  37
ENDBRANCH  32  33
ENDBRANCH  31  32
ENDBRANCH   1  31
TORSDOF 15
ENDMDL
MODEL 3
REMARK VINA RESULT:     -12.4      1.422      1.882
REMARK SMILES Cc1ccnc(C(=O)c2[nH]c3ccc(C(C)(C)C)cc3c2CC(=O)NCCCCNC(=O)c2ccc(-c3c4nc(c(-c5ccccc5)c5ccc([nH]5)c(-c5ccccc5)c5nc(c(-c6ccccc6)c6ccc3[nH]6)C=C5)C=C4)cc2)c1
REMARK SMILES IDX 27 1 26 2 25 3 23 4 24 5 22 7 21 8 9 9 10 10 11 11 20 13
REMARK SMILES IDX 12 14 19 15 13 16 14 17 7 18 8 19 6 20 1 21 2 22 3 23 81 24
REMARK SMILES IDX 4 25 5 26 15 27 16 28 17 29 18 30 28 31 29 32 30 33 31 34
REMARK SMILES IDX 32 36 33 37 34 38 80 39 35 40 79 41 36 42 37 43 38 44 73 45
REMARK SMILES IDX 39 46 78 47 72 48 74 49 40 50 77 51 71 52 70 53 41 55 63 56
REMARK SMILES IDX 48 57 62 58 49 59 52 60 61 61 75 62 50 63 51 64 60 66 76 67
REMARK SMILES IDX 53 68 42 69 43 70 47 71 44 72 46 73 45 74 64 75 65 76 69 77
REMARK SMILES IDX 66 78 68 79 67 80 54 81 55 82 59 83 56 84 58 85 57 86
REMARK H PARENT 25 6 10 12 30 35 74 54 52 65
REMARK Flexibility Score: inf
ROOT
ATOM      1  C   UNL A   1      39.226  22.739  26.671  1.00  0.00     0.023 C 
ENDROOT
BRANCH   1   2
ATOM      2  C   UNL A   1      38.005  23.480  26.126  1.00  0.00     0.116 C 
BRANCH   2   3
ATOM      3  N   UNL A   1      37.812  23.280  24.705  1.00  0.00    -0.356 N 
ATOM      4  C   UNL A   1      36.660  23.334  23.973  1.00  0.00     0.224 C 
ATOM      5  O   UNL A   1      36.758  23.282  22.744  1.00  0.00    -0.275 OA
ATOM      6  H   UNL A   1      38.627  23.076  24.194  1.00  0.00     0.163 HD
BRANCH   4   7
ATOM      7  C   UNL A   1      35.313  23.585  24.636  1.00  0.00     0.138 C 
BRANCH   7   8
ATOM      8  C   UNL A   1      34.112  23.217  23.812  1.00  0.00    -0.002 A 
ATOM      9  C   UNL A   1      33.313  24.069  23.054  1.00  0.00     0.093 A 
ATOM     10  N   UNL A   1      32.395  23.287  22.388  1.00  0.00    -0.352 N 
ATOM     11  C   UNL A   1      32.505  21.975  22.772  1.00  0.00     0.046 A 
ATOM     12  H   UNL A   1      31.749  23.624  21.727  1.00  0.00     0.167 HD
ATOM     13  C   UNL A   1      33.554  21.900  23.680  1.00  0.00     0.004 A 
ATOM     14  C   UNL A   1      31.778  20.854  22.367  1.00  0.00     0.027 A 
ATOM     15  C   UNL A   1      33.880  20.634  24.218  1.00  0.00     0.015 A 
ATOM     16  C   UNL A   1      32.139  19.611  22.907  1.00  0.00     0.006 A 
ATOM     17  C   UNL A   1      33.184  19.468  23.831  1.00  0.00    -0.042 A 
BRANCH   9  18
ATOM     18  C   UNL A   1      33.427  25.504  22.854  1.00  0.00     0.227 C 
ATOM     19  O   UNL A   1      34.027  25.958  21.886  1.00  0.00    -0.285 OA
BRANCH  18  20
ATOM     20  C   UNL A   1      32.751  26.425  23.845  1.00  0.00     0.113 A 
ATOM     21  C   UNL A   1      33.392  28.318  27.071  1.00  0.00     0.044 C 
ATOM     22  C   UNL A   1      32.725  27.762  25.849  1.00  0.00    -0.047 A 
ATOM     23  C   UNL A   1      31.383  28.043  25.592  1.00  0.00     0.023 A 
ATOM     24  C   UNL A   1      33.425  26.957  24.945  1.00  0.00     0.036 A 
ATOM     25  C   UNL A   1      30.794  27.494  24.466  1.00  0.00     0.112 A 
ATOM     26  N   UNL A   1      31.440  26.684  23.603  1.00  0.00    -0.253 NA
ENDBRANCH  18  20
ENDBRANCH   9  18
BRANCH  17  27
ATOM     27  C   UNL A   1      33.611  18.103  24.403  1.00  0.00    -0.013 C 
ATOM     28  C   UNL A   1      35.138  18.102  24.624  1.00  0.00     0.016 C 
ATOM     29  C   UNL A   1      32.902  17.848  25.751  1.00  0.00     0.016 C 
ATOM     30  C   UNL A   1      33.276  16.909  23.481  1.00  0.00     0.016 C 
ENDBRANCH  17  27
ENDBRANCH   7   8
ENDBRANCH   4   7
ENDBRANCH   2   3
ENDBRANCH   1   2
BRANCH   1  31
ATOM     31  C   UNL A   1      39.523  21.388  26.018  1.00  0.00     0.023 C 
BRANCH  31  32
ATOM     32  C   UNL A   1      40.408  20.447  26.826  1.00  0.00     0.116 C 
BRANCH  32  33
ATOM     33  N   UNL A   1      41.548  19.940  26.080  1.00  0.00    -0.352 N 
ATOM     34  C   UNL A   1      42.719  20.579  25.754  1.00  0.00     0.251 C 
ATOM     35  H   UNL A   1      41.470  19.011  25.764  1.00  0.00     0.163 HD
ATOM     36  O   UNL A   1      43.546  20.022  25.037  1.00  0.00    -0.269 OA
BRANCH  34  37
ATOM     37  C   UNL A   1      42.967  21.958  26.227  1.00  0.00     0.039 A 
ATOM     38  C   UNL A   1      42.984  22.992  25.286  1.00  0.00     0.014 A 
ATOM     39  C   UNL A   1      43.178  22.236  27.581  1.00  0.00     0.014 A 
ATOM     40  C   UNL A   1      43.143  24.314  25.709  1.00  0.00     0.010 A 
ATOM     41  C   UNL A   1      43.287  23.558  28.007  1.00  0.00     0.010 A 
ATOM     42  C   UNL A   1      43.262  24.606  27.076  1.00  0.00    -0.014 A 
BRANCH  42  43
ATOM     43  C   UNL A   1      43.345  26.006  27.555  1.00  0.00     0.031 A 
ATOM     44  C   UNL A   1      44.679  26.664  27.748  1.00  0.00     0.074 A 
ATOM     45  C   UNL A   1      42.216  26.662  27.882  1.00  0.00     0.049 A 
ATOM     46  N   UNL A   1      44.950  27.852  28.228  1.00  0.00    -0.248 NA
ATOM     47  C   UNL A   1      45.864  25.878  27.371  1.00  0.00     0.031 C 
ATOM     48  C   UNL A   1      40.858  26.126  27.770  1.00  0.00     0.029 A 
ATOM     49  N   UNL A   1      42.037  27.925  28.385  1.00  0.00    -0.354 N 
ATOM     50  C   UNL A   1      46.334  27.945  28.237  1.00  0.00     0.074 A 
ATOM     51  C   UNL A   1      46.849  26.689  27.734  1.00  0.00     0.031 C 
ATOM     52  C   UNL A   1      39.984  27.063  28.171  1.00  0.00     0.029 A 
ATOM     53  C   UNL A   1      40.720  28.250  28.594  1.00  0.00     0.049 A 
ATOM     54  H   UNL A   1      42.781  28.540  28.578  1.00  0.00     0.167 HD
ATOM     55  C   UNL A   1      47.110  28.985  28.624  1.00  0.00     0.031 A 
ATOM     56  C   UNL A   1      40.166  29.378  29.076  1.00  0.00     0.031 A 
ATOM     57  C   UNL A   1      46.610  30.245  29.100  1.00  0.00     0.049 A 
ATOM     58  C   UNL A   1      41.046  30.519  29.490  1.00  0.00     0.074 A 
ATOM     59  C   UNL A   1      47.320  31.381  29.450  1.00  0.00     0.029 A 
ATOM     60  N   UNL A   1      45.269  30.534  29.294  1.00  0.00    -0.354 N 
ATOM     61  N   UNL A   1      42.353  30.607  29.452  1.00  0.00    -0.248 NA
ATOM     62  C   UNL A   1      40.372  31.715  30.016  1.00  0.00     0.031 C 
ATOM     63  C   UNL A   1      46.407  32.352  29.878  1.00  0.00     0.029 A 
ATOM     64  C   UNL A   1      45.130  31.826  29.772  1.00  0.00     0.049 A 
ATOM     65  H   UNL A   1      44.526  29.914  29.117  1.00  0.00     0.167 HD
ATOM     66  C   UNL A   1      42.658  31.874  29.932  1.00  0.00     0.074 A 
ATOM     67  C   UNL A   1      41.400  32.519  30.251  1.00  0.00     0.031 C 
ATOM     68  C   UNL A   1      43.874  32.450  30.087  1.00  0.00     0.031 A 
BRANCH  55  69
ATOM     69  C   UNL A   1      48.595  28.786  28.553  1.00  0.00    -0.014 A 
ATOM     70  C   UNL A   1      49.311  29.098  27.388  1.00  0.00     0.009 A 
ATOM     71  C   UNL A   1      49.285  28.284  29.667  1.00  0.00     0.009 A 
ATOM     72  C   UNL A   1      50.689  28.880  27.328  1.00  0.00     0.001 A 
ATOM     73  C   UNL A   1      50.665  28.082  29.610  1.00  0.00     0.001 A 
ATOM     74  C   UNL A   1      51.363  28.373  28.439  1.00  0.00     0.000 A 
ENDBRANCH  55  69
BRANCH  56  75
ATOM     75  C   UNL A   1      38.692  29.490  29.166  1.00  0.00    -0.014 A 
ATOM     76  C   UNL A   1      38.042  29.222  30.380  1.00  0.00     0.009 A 
ATOM     77  C   UNL A   1      37.932  29.877  28.052  1.00  0.00     0.009 A 
ATOM     78  C   UNL A   1      36.653  29.328  30.474  1.00  0.00     0.001 A 
ATOM     79  C   UNL A   1      36.545  29.995  28.153  1.00  0.00     0.001 A 
ATOM     80  C   UNL A   1      35.907  29.718  29.361  1.00  0.00     0.000 A 
ENDBRANCH  56  75
BRANCH  68  81
ATOM     81  C   UNL A   1      43.894  33.855  30.607  1.00  0.00    -0.014 A 
ATOM     82  C   UNL A   1      43.996  34.113  31.981  1.00  0.00     0.009 A 
ATOM     83  C   UNL A   1      43.837  34.931  29.708  1.00  0.00     0.009 A 
ATOM     84  C   UNL A   1      44.020  35.428  32.449  1.00  0.00     0.001 A 
ATOM     85  C   UNL A   1      43.874  36.244  30.178  1.00  0.00     0.001 A 
ATOM     86  C   UNL A   1      43.960  36.492  31.549  1.00  0.00     0.000 A 
ENDBRANCH  68  81
ENDBRANCH  42  43
ENDBRANCH  34  37
ENDBRANCH  32  33
ENDBRANCH  31  32
ENDBRANCH   1  31
TORSDOF 15
ENDMDL
