MODEL 1
REMARK VINA RESULT:     -12.7      0.000      0.000
REMARK SMILES C[N@H+]1CCO[C@H](c2noc(-c3ccccc3C(=O)NCCCCNC(=O)c3ccc(-c4c5nc(c(-c6ccccc6)c6ccc([nH]6)c(-c6ccccc6)c6nc(c(-c7ccccc7)c7ccc4[nH]7)C=C6)C=C5)cc3)n2)C1
REMARK SMILES IDX 21 1 20 2 19 3 17 4 18 5 16 7 11 8 12 9 13 10 15 11 14 12
REMARK SMILES IDX 10 13 7 14 8 15 75 16 9 17 6 18 1 19 2 20 3 21 76 22 4 24
REMARK SMILES IDX 5 25 22 26 23 27 24 28 25 29 26 31 27 32 28 33 74 34 29 35
REMARK SMILES IDX 73 36 30 37 31 38 32 39 67 40 33 41 72 42 66 43 68 44 34 45
REMARK SMILES IDX 71 46 65 47 64 48 35 50 57 51 42 52 56 53 43 54 46 55 55 56
REMARK SMILES IDX 69 57 44 58 45 59 54 61 70 62 47 63 36 64 37 65 41 66 38 67
REMARK SMILES IDX 40 68 39 69 58 70 59 71 63 72 60 73 62 74 61 75 48 76 49 77
REMARK SMILES IDX 53 78 50 79 52 80 51 81
REMARK H PARENT 19 6 2 23 24 30 68 49 46 60
REMARK Flexibility Score: inf
ROOT
ATOM      1  C   UNL A   1      36.601  22.216  24.567  1.00  0.00     0.023 C 
ENDROOT
BRANCH   1   2
ATOM      2  C   UNL A   1      36.149  21.079  25.488  1.00  0.00     0.116 C 
BRANCH   2   3
ATOM      3  N   UNL A   1      35.321  21.446  26.627  1.00  0.00    -0.352 N 
ATOM      4  C   UNL A   1      34.168  22.204  26.727  1.00  0.00     0.252 C 
ATOM      5  O   UNL A   1      33.563  22.166  27.803  1.00  0.00    -0.269 OA
ATOM      6  H   UNL A   1      35.642  21.089  27.487  1.00  0.00     0.163 HD
BRANCH   4   7
ATOM      7  C   UNL A   1      33.670  23.171  25.692  1.00  0.00     0.052 A 
ATOM      8  C   UNL A   1      33.084  22.864  24.452  1.00  0.00     0.053 A 
ATOM      9  C   UNL A   1      32.702  23.907  23.580  1.00  0.00     0.015 A 
ATOM     10  C   UNL A   1      32.803  25.241  23.965  1.00  0.00     0.001 A 
ATOM     11  C   UNL A   1      33.719  24.527  26.080  1.00  0.00     0.014 A 
ATOM     12  C   UNL A   1      33.282  25.550  25.231  1.00  0.00     0.001 A 
BRANCH   8  13
ATOM     13  C   UNL A   1      32.722  21.518  24.086  1.00  0.00     0.258 A 
ATOM     14  C   UNL A   1      32.470  19.462  23.874  1.00  0.00     0.206 A 
ATOM     15  N   UNL A   1      32.145  19.926  22.657  1.00  0.00    -0.059 NA
ATOM     16  N   UNL A   1      32.794  20.422  24.794  1.00  0.00    -0.189 NA
ATOM     17  O   UNL A   1      32.300  21.311  22.802  1.00  0.00    -0.334 OA
BRANCH  14  18
ATOM     18  C   UNL A   1      32.742  18.027  24.155  1.00  0.00     0.245 C 
ATOM     19  C   UNL A   1      32.174  15.370  25.763  1.00  0.00     0.332 C 
ATOM     20  N   UNL A   1      33.215  16.358  26.050  1.00  0.00    -0.333 N 
ATOM     21  C   UNL A   1      34.467  16.056  25.330  1.00  0.00     0.290 C 
ATOM     22  C   UNL A   1      32.787  17.736  25.679  1.00  0.00     0.303 C 
ATOM     23  H   UNL A   1      33.379  16.309  27.056  1.00  0.00     0.348 HD
ATOM     24  C   UNL A   1      34.336  16.336  23.841  1.00  0.00     0.222 C 
ATOM     25  O   UNL A   1      34.016  17.686  23.563  1.00  0.00    -0.358 OA
ENDBRANCH  14  18
ENDBRANCH   8  13
ENDBRANCH   4   7
ENDBRANCH   2   3
ENDBRANCH   1   2
BRANCH   1  26
ATOM     26  C   UNL A   1      37.421  23.388  25.141  1.00  0.00     0.023 C 
BRANCH  26  27
ATOM     27  C   UNL A   1      38.365  23.165  26.341  1.00  0.00     0.116 C 
BRANCH  27  28
ATOM     28  N   UNL A   1      39.791  23.337  26.083  1.00  0.00    -0.352 N 
ATOM     29  C   UNL A   1      40.651  24.318  26.534  1.00  0.00     0.251 C 
ATOM     30  H   UNL A   1      40.199  22.654  25.504  1.00  0.00     0.163 HD
ATOM     31  O   UNL A   1      41.865  24.248  26.290  1.00  0.00    -0.269 OA
BRANCH  29  32
ATOM     32  C   UNL A   1      40.163  25.456  27.341  1.00  0.00     0.039 A 
ATOM     33  C   UNL A   1      39.377  25.282  28.469  1.00  0.00     0.014 A 
ATOM     34  C   UNL A   1      40.430  26.753  26.927  1.00  0.00     0.014 A 
ATOM     35  C   UNL A   1      39.014  26.407  29.234  1.00  0.00     0.010 A 
ATOM     36  C   UNL A   1      40.215  27.853  27.751  1.00  0.00     0.010 A 
ATOM     37  C   UNL A   1      39.536  27.694  28.952  1.00  0.00    -0.014 A 
BRANCH  37  38
ATOM     38  C   UNL A   1      39.513  28.790  29.973  1.00  0.00     0.031 A 
ATOM     39  C   UNL A   1      38.492  29.908  30.005  1.00  0.00     0.074 A 
ATOM     40  C   UNL A   1      40.559  28.859  30.827  1.00  0.00     0.049 A 
ATOM     41  N   UNL A   1      38.402  30.912  30.849  1.00  0.00    -0.248 NA
ATOM     42  C   UNL A   1      37.493  29.960  28.927  1.00  0.00     0.031 C 
ATOM     43  C   UNL A   1      41.736  27.986  30.794  1.00  0.00     0.029 A 
ATOM     44  N   UNL A   1      40.797  29.679  31.903  1.00  0.00    -0.354 N 
ATOM     45  C   UNL A   1      37.390  31.738  30.367  1.00  0.00     0.074 A 
ATOM     46  C   UNL A   1      36.928  31.144  29.132  1.00  0.00     0.031 C 
ATOM     47  C   UNL A   1      42.495  28.221  31.869  1.00  0.00     0.029 A 
ATOM     48  C   UNL A   1      41.905  29.312  32.630  1.00  0.00     0.049 A 
ATOM     49  H   UNL A   1      40.231  30.452  32.130  1.00  0.00     0.167 HD
ATOM     50  C   UNL A   1      36.875  32.872  30.910  1.00  0.00     0.031 A 
ATOM     51  C   UNL A   1      42.392  29.774  33.795  1.00  0.00     0.031 A 
ATOM     52  C   UNL A   1      37.282  33.421  32.180  1.00  0.00     0.049 A 
ATOM     53  C   UNL A   1      41.692  30.901  34.482  1.00  0.00     0.074 A 
ATOM     54  C   UNL A   1      36.719  34.468  32.890  1.00  0.00     0.029 A 
ATOM     55  N   UNL A   1      38.349  32.958  32.935  1.00  0.00    -0.354 N 
ATOM     56  N   UNL A   1      40.651  31.586  34.080  1.00  0.00    -0.248 NA
ATOM     57  C   UNL A   1      42.228  31.315  35.785  1.00  0.00     0.031 C 
ATOM     58  C   UNL A   1      37.465  34.660  34.059  1.00  0.00     0.029 A 
ATOM     59  C   UNL A   1      38.465  33.703  34.098  1.00  0.00     0.049 A 
ATOM     60  H   UNL A   1      38.937  32.210  32.682  1.00  0.00     0.167 HD
ATOM     61  C   UNL A   1      40.403  32.513  35.080  1.00  0.00     0.074 A 
ATOM     62  C   UNL A   1      41.383  32.280  36.122  1.00  0.00     0.031 C 
ATOM     63  C   UNL A   1      39.451  33.477  35.122  1.00  0.00     0.031 A 
BRANCH  50  64
ATOM     64  C   UNL A   1      35.788  33.594  30.148  1.00  0.00    -0.014 A 
ATOM     65  C   UNL A   1      35.953  33.958  28.801  1.00  0.00     0.009 A 
ATOM     66  C   UNL A   1      34.557  33.866  30.770  1.00  0.00     0.009 A 
ATOM     67  C   UNL A   1      34.936  34.628  28.113  1.00  0.00     0.001 A 
ATOM     68  C   UNL A   1      33.529  34.504  30.069  1.00  0.00     0.001 A 
ATOM     69  C   UNL A   1      33.725  34.897  28.747  1.00  0.00     0.000 A 
ENDBRANCH  50  64
BRANCH  51  70
ATOM     70  C   UNL A   1      43.562  29.095  34.406  1.00  0.00    -0.014 A 
ATOM     71  C   UNL A   1      43.370  27.963  35.214  1.00  0.00     0.009 A 
ATOM     72  C   UNL A   1      44.869  29.511  34.114  1.00  0.00     0.009 A 
ATOM     73  C   UNL A   1      44.466  27.267  35.726  1.00  0.00     0.001 A 
ATOM     74  C   UNL A   1      45.963  28.795  34.604  1.00  0.00     0.001 A 
ATOM     75  C   UNL A   1      45.760  27.677  35.412  1.00  0.00     0.000 A 
ENDBRANCH  51  70
BRANCH  63  76
ATOM     76  C   UNL A   1      39.424  34.348  36.343  1.00  0.00    -0.014 A 
ATOM     77  C   UNL A   1      40.052  35.604  36.350  1.00  0.00     0.009 A 
ATOM     78  C   UNL A   1      38.744  33.918  37.492  1.00  0.00     0.009 A 
ATOM     79  C   UNL A   1      40.028  36.397  37.498  1.00  0.00     0.001 A 
ATOM     80  C   UNL A   1      38.701  34.724  38.630  1.00  0.00     0.001 A 
ATOM     81  C   UNL A   1      39.350  35.958  38.636  1.00  0.00     0.000 A 
ENDBRANCH  63  76
ENDBRANCH  37  38
ENDBRANCH  29  32
ENDBRANCH  27  28
ENDBRANCH  26  27
ENDBRANCH   1  26
TORSDOF 13
ENDMDL
MODEL 2
REMARK VINA RESULT:     -12.7      5.454     10.593
REMARK SMILES C[N@H+]1CCO[C@H](c2noc(-c3ccccc3C(=O)NCCCCNC(=O)c3ccc(-c4c5nc(c(-c6ccccc6)c6ccc([nH]6)c(-c6ccccc6)c6nc(c(-c7ccccc7)c7ccc4[nH]7)C=C6)C=C5)cc3)n2)C1
REMARK SMILES IDX 21 1 20 2 19 3 17 4 18 5 16 7 11 8 12 9 13 10 15 11 14 12
REMARK SMILES IDX 10 13 7 14 8 15 75 16 9 17 6 18 1 19 2 20 3 21 76 22 4 24
REMARK SMILES IDX 5 25 22 26 23 27 24 28 25 29 26 31 27 32 28 33 74 34 29 35
REMARK SMILES IDX 73 36 30 37 31 38 32 39 67 40 33 41 72 42 66 43 68 44 34 45
REMARK SMILES IDX 71 46 65 47 64 48 35 50 57 51 42 52 56 53 43 54 46 55 55 56
REMARK SMILES IDX 69 57 44 58 45 59 54 61 70 62 47 63 36 64 37 65 41 66 38 67
REMARK SMILES IDX 40 68 39 69 58 70 59 71 63 72 60 73 62 74 61 75 48 76 49 77
REMARK SMILES IDX 53 78 50 79 52 80 51 81
REMARK H PARENT 19 6 2 23 24 30 68 49 46 60
REMARK Flexibility Score: inf
ROOT
ATOM      1  C   UNL A   1      32.399  30.974  26.727  1.00  0.00     0.023 C 
ENDROOT
BRANCH   1   2
ATOM      2  C   UNL A   1      31.911  30.125  25.549  1.00  0.00     0.116 C 
BRANCH   2   3
ATOM      3  N   UNL A   1      32.920  29.666  24.607  1.00  0.00    -0.352 N 
ATOM      4  C   UNL A   1      33.233  28.407  24.126  1.00  0.00     0.252 C 
ATOM      5  O   UNL A   1      34.006  28.349  23.165  1.00  0.00    -0.269 OA
ATOM      6  H   UNL A   1      33.487  30.385  24.246  1.00  0.00     0.163 HD
BRANCH   4   7
ATOM      7  C   UNL A   1      32.825  27.108  24.758  1.00  0.00     0.052 A 
ATOM      8  C   UNL A   1      31.533  26.556  24.810  1.00  0.00     0.053 A 
ATOM      9  C   UNL A   1      31.321  25.331  25.481  1.00  0.00     0.015 A 
ATOM     10  C   UNL A   1      32.386  24.605  26.009  1.00  0.00     0.001 A 
ATOM     11  C   UNL A   1      33.893  26.333  25.258  1.00  0.00     0.014 A 
ATOM     12  C   UNL A   1      33.678  25.092  25.868  1.00  0.00     0.001 A 
BRANCH   8  13
ATOM     13  C   UNL A   1      30.426  27.120  24.081  1.00  0.00     0.258 A 
ATOM     14  C   UNL A   1      29.042  28.306  23.075  1.00  0.00     0.206 A 
ATOM     15  N   UNL A   1      28.297  27.269  23.487  1.00  0.00    -0.059 NA
ATOM     16  N   UNL A   1      30.372  28.228  23.390  1.00  0.00    -0.189 NA
ATOM     17  O   UNL A   1      29.229  26.462  24.151  1.00  0.00    -0.334 OA
BRANCH  14  18
ATOM     18  C   UNL A   1      28.462  29.579  22.569  1.00  0.00     0.245 C 
ATOM     19  C   UNL A   1      27.948  31.648  20.239  1.00  0.00     0.332 C 
ATOM     20  N   UNL A   1      29.018  31.704  21.236  1.00  0.00    -0.333 N 
ATOM     21  C   UNL A   1      28.601  32.443  22.443  1.00  0.00     0.290 C 
ATOM     22  C   UNL A   1      29.457  30.343  21.654  1.00  0.00     0.303 C 
ATOM     23  H   UNL A   1      29.794  32.192  20.788  1.00  0.00     0.348 HD
ATOM     24  C   UNL A   1      27.605  31.646  23.270  1.00  0.00     0.222 C 
ATOM     25  O   UNL A   1      28.125  30.404  23.706  1.00  0.00    -0.358 OA
ENDBRANCH  14  18
ENDBRANCH   8  13
ENDBRANCH   4   7
ENDBRANCH   2   3
ENDBRANCH   1   2
BRANCH   1  26
ATOM     26  C   UNL A   1      33.661  30.553  27.505  1.00  0.00     0.023 C 
BRANCH  26  27
ATOM     27  C   UNL A   1      34.625  31.621  28.062  1.00  0.00     0.116 C 
BRANCH  27  28
ATOM     28  N   UNL A   1      34.733  31.701  29.515  1.00  0.00    -0.352 N 
ATOM     29  C   UNL A   1      35.694  31.170  30.353  1.00  0.00     0.251 C 
ATOM     30  H   UNL A   1      34.018  32.208  29.963  1.00  0.00     0.163 HD
ATOM     31  O   UNL A   1      35.677  31.426  31.566  1.00  0.00    -0.269 OA
BRANCH  29  32
ATOM     32  C   UNL A   1      36.779  30.314  29.831  1.00  0.00     0.039 A 
ATOM     33  C   UNL A   1      37.331  30.500  28.573  1.00  0.00     0.014 A 
ATOM     34  C   UNL A   1      37.224  29.237  30.584  1.00  0.00     0.014 A 
ATOM     35  C   UNL A   1      38.416  29.698  28.173  1.00  0.00     0.010 A 
ATOM     36  C   UNL A   1      38.389  28.545  30.271  1.00  0.00     0.010 A 
ATOM     37  C   UNL A   1      39.039  28.793  29.069  1.00  0.00    -0.014 A 
BRANCH  37  38
ATOM     38  C   UNL A   1      40.418  28.264  28.817  1.00  0.00     0.031 A 
ATOM     39  C   UNL A   1      40.719  26.865  28.322  1.00  0.00     0.074 A 
ATOM     40  C   UNL A   1      41.456  29.042  29.197  1.00  0.00     0.049 A 
ATOM     41  N   UNL A   1      41.888  26.312  28.087  1.00  0.00    -0.248 NA
ATOM     42  C   UNL A   1      39.589  25.941  28.137  1.00  0.00     0.031 C 
ATOM     43  C   UNL A   1      41.339  30.330  29.887  1.00  0.00     0.029 A 
ATOM     44  N   UNL A   1      42.811  28.883  29.039  1.00  0.00    -0.354 N 
ATOM     45  C   UNL A   1      41.637  24.975  27.794  1.00  0.00     0.074 A 
ATOM     46  C   UNL A   1      40.210  24.786  27.927  1.00  0.00     0.031 C 
ATOM     47  C   UNL A   1      42.544  30.903  29.969  1.00  0.00     0.029 A 
ATOM     48  C   UNL A   1      43.534  29.993  29.409  1.00  0.00     0.049 A 
ATOM     49  H   UNL A   1      43.223  28.058  28.696  1.00  0.00     0.167 HD
ATOM     50  C   UNL A   1      42.506  23.998  27.424  1.00  0.00     0.031 A 
ATOM     51  C   UNL A   1      44.844  30.275  29.295  1.00  0.00     0.031 A 
ATOM     52  C   UNL A   1      43.918  24.206  27.216  1.00  0.00     0.049 A 
ATOM     53  C   UNL A   1      45.760  29.256  28.700  1.00  0.00     0.074 A 
ATOM     54  C   UNL A   1      44.854  23.328  26.692  1.00  0.00     0.029 A 
ATOM     55  N   UNL A   1      44.596  25.379  27.510  1.00  0.00    -0.354 N 
ATOM     56  N   UNL A   1      45.483  28.040  28.299  1.00  0.00    -0.248 NA
ATOM     57  C   UNL A   1      47.165  29.647  28.535  1.00  0.00     0.031 C 
ATOM     58  C   UNL A   1      46.104  23.958  26.701  1.00  0.00     0.029 A 
ATOM     59  C   UNL A   1      45.938  25.244  27.188  1.00  0.00     0.049 A 
ATOM     60  H   UNL A   1      44.186  26.187  27.891  1.00  0.00     0.167 HD
ATOM     61  C   UNL A   1      46.679  27.518  27.832  1.00  0.00     0.074 A 
ATOM     62  C   UNL A   1      47.676  28.562  27.969  1.00  0.00     0.031 C 
ATOM     63  C   UNL A   1      46.927  26.279  27.341  1.00  0.00     0.031 A 
BRANCH  50  64
ATOM     64  C   UNL A   1      41.958  22.609  27.194  1.00  0.00    -0.014 A 
ATOM     65  C   UNL A   1      41.392  22.238  25.963  1.00  0.00     0.009 A 
ATOM     66  C   UNL A   1      42.058  21.638  28.205  1.00  0.00     0.009 A 
ATOM     67  C   UNL A   1      40.888  20.949  25.768  1.00  0.00     0.001 A 
ATOM     68  C   UNL A   1      41.584  20.339  27.996  1.00  0.00     0.001 A 
ATOM     69  C   UNL A   1      40.987  20.001  26.784  1.00  0.00     0.000 A 
ENDBRANCH  50  64
BRANCH  51  70
ATOM     70  C   UNL A   1      45.326  31.623  29.685  1.00  0.00    -0.014 A 
ATOM     71  C   UNL A   1      45.242  32.687  28.774  1.00  0.00     0.009 A 
ATOM     72  C   UNL A   1      45.783  31.875  30.988  1.00  0.00     0.009 A 
ATOM     73  C   UNL A   1      45.615  33.976  29.156  1.00  0.00     0.001 A 
ATOM     74  C   UNL A   1      46.127  33.171  31.375  1.00  0.00     0.001 A 
ATOM     75  C   UNL A   1      46.047  34.219  30.459  1.00  0.00     0.000 A 
ENDBRANCH  51  70
BRANCH  63  76
ATOM     76  C   UNL A   1      48.335  25.991  26.911  1.00  0.00    -0.014 A 
ATOM     77  C   UNL A   1      48.817  26.431  25.669  1.00  0.00     0.009 A 
ATOM     78  C   UNL A   1      49.195  25.289  27.768  1.00  0.00     0.009 A 
ATOM     79  C   UNL A   1      50.126  26.144  25.279  1.00  0.00     0.001 A 
ATOM     80  C   UNL A   1      50.511  25.025  27.386  1.00  0.00     0.001 A 
ATOM     81  C   UNL A   1      50.972  25.444  26.139  1.00  0.00     0.000 A 
ENDBRANCH  63  76
ENDBRANCH  37  38
ENDBRANCH  29  32
ENDBRANCH  27  28
ENDBRANCH  26  27
ENDBRANCH   1  26
TORSDOF 13
ENDMDL
MODEL 3
REMARK VINA RESULT:     -12.6      3.504      5.237
REMARK SMILES C[N@H+]1CCO[C@H](c2noc(-c3ccccc3C(=O)NCCCCNC(=O)c3ccc(-c4c5nc(c(-c6ccccc6)c6ccc([nH]6)c(-c6ccccc6)c6nc(c(-c7ccccc7)c7ccc4[nH]7)C=C6)C=C5)cc3)n2)C1
REMARK SMILES IDX 21 1 20 2 19 3 17 4 18 5 16 7 11 8 12 9 13 10 15 11 14 12
REMARK SMILES IDX 10 13 7 14 8 15 75 16 9 17 6 18 1 19 2 20 3 21 76 22 4 24
REMARK SMILES IDX 5 25 22 26 23 27 24 28 25 29 26 31 27 32 28 33 74 34 29 35
REMARK SMILES IDX 73 36 30 37 31 38 32 39 67 40 33 41 72 42 66 43 68 44 34 45
REMARK SMILES IDX 71 46 65 47 64 48 35 50 57 51 42 52 56 53 43 54 46 55 55 56
REMARK SMILES IDX 69 57 44 58 45 59 54 61 70 62 47 63 36 64 37 65 41 66 38 67
REMARK SMILES IDX 40 68 39 69 58 70 59 71 63 72 60 73 62 74 61 75 48 76 49 77
REMARK SMILES IDX 53 78 50 79 52 80 51 81
REMARK H PARENT 19 6 2 23 24 30 68 49 46 60
REMARK Flexibility Score: inf
ROOT
ATOM      1  C   UNL A   1      36.801  22.632  24.323  1.00  0.00     0.023 C 
ENDROOT
BRANCH   1   2
ATOM      2  C   UNL A   1      36.040  23.400  25.408  1.00  0.00     0.116 C 
BRANCH   2   3
ATOM      3  N   UNL A   1      35.365  22.607  26.423  1.00  0.00    -0.352 N 
ATOM      4  C   UNL A   1      34.026  22.343  26.653  1.00  0.00     0.252 C 
ATOM      5  O   UNL A   1      33.761  21.455  27.468  1.00  0.00    -0.269 OA
ATOM      6  H   UNL A   1      35.974  22.179  27.067  1.00  0.00     0.163 HD
BRANCH   4   7
ATOM      7  C   UNL A   1      32.876  23.137  26.103  1.00  0.00     0.052 A 
ATOM      8  C   UNL A   1      32.023  22.778  25.045  1.00  0.00     0.053 A 
ATOM      9  C   UNL A   1      31.006  23.667  24.631  1.00  0.00     0.015 A 
ATOM     10  C   UNL A   1      30.766  24.855  25.318  1.00  0.00     0.001 A 
ATOM     11  C   UNL A   1      32.584  24.322  26.812  1.00  0.00     0.014 A 
ATOM     12  C   UNL A   1      31.536  25.166  26.431  1.00  0.00     0.001 A 
BRANCH   8  13
ATOM     13  C   UNL A   1      32.051  21.467  24.446  1.00  0.00     0.258 A 
ATOM     14  C   UNL A   1      32.231  19.449  23.971  1.00  0.00     0.206 A 
ATOM     15  N   UNL A   1      32.332  20.045  22.772  1.00  0.00    -0.059 NA
ATOM     16  N   UNL A   1      32.017  20.296  25.024  1.00  0.00    -0.189 NA
ATOM     17  O   UNL A   1      32.196  21.402  23.088  1.00  0.00    -0.334 OA
BRANCH  14  18
ATOM     18  C   UNL A   1      32.598  18.028  24.209  1.00  0.00     0.245 C 
ATOM     19  C   UNL A   1      32.305  15.332  25.828  1.00  0.00     0.332 C 
ATOM     20  N   UNL A   1      33.316  16.370  26.036  1.00  0.00    -0.333 N 
ATOM     21  C   UNL A   1      34.515  16.138  25.207  1.00  0.00     0.290 C 
ATOM     22  C   UNL A   1      32.789  17.728  25.720  1.00  0.00     0.303 C 
ATOM     23  H   UNL A   1      33.569  16.322  27.024  1.00  0.00     0.348 HD
ATOM     24  C   UNL A   1      34.242  16.422  23.739  1.00  0.00     0.222 C 
ATOM     25  O   UNL A   1      33.832  17.756  23.507  1.00  0.00    -0.358 OA
ENDBRANCH  14  18
ENDBRANCH   8  13
ENDBRANCH   4   7
ENDBRANCH   2   3
ENDBRANCH   1   2
BRANCH   1  26
ATOM     26  C   UNL A   1      37.419  21.257  24.646  1.00  0.00     0.023 C 
BRANCH  26  27
ATOM     27  C   UNL A   1      38.519  21.130  25.720  1.00  0.00     0.116 C 
BRANCH  27  28
ATOM     28  N   UNL A   1      39.439  20.006  25.574  1.00  0.00    -0.352 N 
ATOM     29  C   UNL A   1      40.768  19.910  25.935  1.00  0.00     0.251 C 
ATOM     30  H   UNL A   1      39.056  19.200  25.159  1.00  0.00     0.163 HD
ATOM     31  O   UNL A   1      41.370  18.831  25.824  1.00  0.00    -0.269 OA
BRANCH  29  32
ATOM     32  C   UNL A   1      41.499  21.068  26.490  1.00  0.00     0.039 A 
ATOM     33  C   UNL A   1      42.067  22.042  25.684  1.00  0.00     0.014 A 
ATOM     34  C   UNL A   1      41.695  21.161  27.860  1.00  0.00     0.014 A 
ATOM     35  C   UNL A   1      42.680  23.158  26.284  1.00  0.00     0.010 A 
ATOM     36  C   UNL A   1      42.153  22.326  28.466  1.00  0.00     0.010 A 
ATOM     37  C   UNL A   1      42.619  23.375  27.683  1.00  0.00    -0.014 A 
BRANCH  37  38
ATOM     38  C   UNL A   1      42.873  24.725  28.279  1.00  0.00     0.031 A 
ATOM     39  C   UNL A   1      41.797  25.756  28.552  1.00  0.00     0.074 A 
ATOM     40  C   UNL A   1      44.163  25.094  28.444  1.00  0.00     0.049 A 
ATOM     41  N   UNL A   1      41.927  26.963  29.057  1.00  0.00    -0.248 NA
ATOM     42  C   UNL A   1      40.419  25.438  28.148  1.00  0.00     0.031 C 
ATOM     43  C   UNL A   1      45.327  24.303  28.033  1.00  0.00     0.029 A 
ATOM     44  N   UNL A   1      44.719  26.209  29.021  1.00  0.00    -0.354 N 
ATOM     45  C   UNL A   1      40.673  27.561  28.968  1.00  0.00     0.074 A 
ATOM     46  C   UNL A   1      39.806  26.602  28.319  1.00  0.00     0.031 C 
ATOM     47  C   UNL A   1      46.443  24.884  28.487  1.00  0.00     0.029 A 
ATOM     48  C   UNL A   1      46.086  26.127  29.154  1.00  0.00     0.049 A 
ATOM     49  H   UNL A   1      44.193  26.990  29.309  1.00  0.00     0.167 HD
ATOM     50  C   UNL A   1      40.270  28.782  29.406  1.00  0.00     0.031 A 
ATOM     51  C   UNL A   1      46.966  26.939  29.764  1.00  0.00     0.031 A 
ATOM     52  C   UNL A   1      41.115  29.705  30.124  1.00  0.00     0.049 A 
ATOM     53  C   UNL A   1      46.474  28.190  30.417  1.00  0.00     0.074 A 
ATOM     54  C   UNL A   1      40.766  30.893  30.746  1.00  0.00     0.029 A 
ATOM     55  N   UNL A   1      42.476  29.538  30.324  1.00  0.00    -0.354 N 
ATOM     56  N   UNL A   1      45.258  28.676  30.444  1.00  0.00    -0.248 NA
ATOM     57  C   UNL A   1      47.469  29.000  31.130  1.00  0.00     0.031 C 
ATOM     58  C   UNL A   1      41.922  31.460  31.294  1.00  0.00     0.029 A 
ATOM     59  C   UNL A   1      42.983  30.603  31.052  1.00  0.00     0.049 A 
ATOM     60  H   UNL A   1      43.005  28.775  29.997  1.00  0.00     0.167 HD
ATOM     61  C   UNL A   1      45.339  29.850  31.176  1.00  0.00     0.074 A 
ATOM     62  C   UNL A   1      46.718  29.984  31.603  1.00  0.00     0.031 C 
ATOM     63  C   UNL A   1      44.357  30.739  31.460  1.00  0.00     0.031 A 
BRANCH  50  64
ATOM     64  C   UNL A   1      38.839  29.193  29.148  1.00  0.00    -0.014 A 
ATOM     65  C   UNL A   1      38.428  29.674  27.894  1.00  0.00     0.009 A 
ATOM     66  C   UNL A   1      37.874  29.046  30.159  1.00  0.00     0.009 A 
ATOM     67  C   UNL A   1      37.100  30.051  27.675  1.00  0.00     0.001 A 
ATOM     68  C   UNL A   1      36.539  29.391  29.927  1.00  0.00     0.001 A 
ATOM     69  C   UNL A   1      36.157  29.907  28.690  1.00  0.00     0.000 A 
ENDBRANCH  50  64
BRANCH  51  70
ATOM     70  C   UNL A   1      48.389  26.527  29.846  1.00  0.00    -0.014 A 
ATOM     71  C   UNL A   1      49.309  26.993  28.893  1.00  0.00     0.009 A 
ATOM     72  C   UNL A   1      48.853  25.748  30.916  1.00  0.00     0.009 A 
ATOM     73  C   UNL A   1      50.664  26.681  29.007  1.00  0.00     0.001 A 
ATOM     74  C   UNL A   1      50.214  25.461  31.043  1.00  0.00     0.001 A 
ATOM     75  C   UNL A   1      51.116  25.924  30.086  1.00  0.00     0.000 A 
ENDBRANCH  51  70
BRANCH  63  76
ATOM     76  C   UNL A   1      44.743  31.936  32.277  1.00  0.00    -0.014 A 
ATOM     77  C   UNL A   1      44.683  31.905  33.679  1.00  0.00     0.009 A 
ATOM     78  C   UNL A   1      45.193  33.101  31.639  1.00  0.00     0.009 A 
ATOM     79  C   UNL A   1      45.035  33.031  34.425  1.00  0.00     0.001 A 
ATOM     80  C   UNL A   1      45.568  34.217  32.388  1.00  0.00     0.001 A 
ATOM     81  C   UNL A   1      45.480  34.184  33.779  1.00  0.00     0.000 A 
ENDBRANCH  63  76
ENDBRANCH  37  38
ENDBRANCH  29  32
ENDBRANCH  27  28
ENDBRANCH  26  27
ENDBRANCH   1  26
TORSDOF 13
ENDMDL
