MODEL 1
REMARK VINA RESULT:     -11.3      0.000      0.000
REMARK SMILES Cc1cc(C)c2c(O[C@@H](C)C(=O)NCCCCNC(=O)c3ccc(-c4c5nc(c(-c6ccccc6)c6ccc([nH]6)c(-c6ccccc6)c6nc(c(-c7ccccc7)c7ccc4[nH]7)C=C6)C=C5)cc3)nsc2n1
REMARK SMILES IDX 15 1 14 2 13 3 11 4 12 5 9 7 10 8 8 9 7 10 1 11 2 12 3 13
REMARK SMILES IDX 72 14 4 15 71 16 5 17 6 18 70 19 69 20 16 21 17 22 18 23
REMARK SMILES IDX 19 24 20 26 21 27 22 28 68 29 23 30 67 31 24 32 25 33 26 34
REMARK SMILES IDX 61 35 27 36 66 37 60 38 62 39 28 40 65 41 59 42 58 43 29 45
REMARK SMILES IDX 51 46 36 47 50 48 37 49 40 50 49 51 63 52 38 53 39 54 48 56
REMARK SMILES IDX 64 57 41 58 30 59 31 60 35 61 32 62 34 63 33 64 52 65 53 66
REMARK SMILES IDX 57 67 54 68 56 69 55 70 42 71 43 72 47 73 44 74 46 75 45 76
REMARK H PARENT 13 6 18 25 62 44 40 55
REMARK Flexibility Score: inf
ROOT
ATOM      1  C   UNL A   1      41.503  20.307  26.435  1.00  0.00     0.023 C 
ENDROOT
BRANCH   1   2
ATOM      2  C   UNL A   1      40.010  20.562  26.207  1.00  0.00     0.116 C 
BRANCH   2   3
ATOM      3  N   UNL A   1      39.632  21.908  25.837  1.00  0.00    -0.353 N 
ATOM      4  C   UNL A   1      38.352  22.386  25.733  1.00  0.00     0.260 C 
ATOM      5  O   UNL A   1      38.117  23.470  26.278  1.00  0.00    -0.271 OA
ATOM      6  H   UNL A   1      40.362  22.540  25.641  1.00  0.00     0.163 HD
BRANCH   4   7
ATOM      7  C   UNL A   1      37.277  21.699  24.832  1.00  0.00     0.260 C 
ATOM      8  C   UNL A   1      36.812  22.489  23.603  1.00  0.00     0.064 C 
BRANCH   7   9
ATOM      9  O   UNL A   1      36.349  20.762  25.276  1.00  0.00    -0.463 OA
BRANCH   9  10
ATOM     10  C   UNL A   1      35.009  20.837  25.134  1.00  0.00     0.235 A 
ATOM     11  C   UNL A   1      30.047  23.060  26.770  1.00  0.00     0.067 C 
ATOM     12  C   UNL A   1      31.401  22.668  26.257  1.00  0.00     0.039 A 
ATOM     13  C   UNL A   1      32.473  23.542  26.327  1.00  0.00     0.027 A 
ATOM     14  N   UNL A   1      31.505  21.437  25.757  1.00  0.00    -0.240 NA
ATOM     15  C   UNL A   1      33.781  23.137  25.964  1.00  0.00    -0.034 A 
ATOM     16  C   UNL A   1      32.743  21.071  25.385  1.00  0.00     0.147 A 
ATOM     17  C   UNL A   1      34.831  24.204  26.144  1.00  0.00     0.045 C 
ATOM     18  C   UNL A   1      33.945  21.793  25.480  1.00  0.00     0.078 A 
ATOM     19  S   UNL A   1      32.994  19.530  24.725  1.00  0.00    -0.012 S 
ATOM     20  N   UNL A   1      34.622  19.656  24.653  1.00  0.00    -0.153 NA
ENDBRANCH   9  10
ENDBRANCH   7   9
ENDBRANCH   4   7
ENDBRANCH   2   3
ENDBRANCH   1   2
BRANCH   1  21
ATOM     21  C   UNL A   1      41.977  18.922  25.949  1.00  0.00     0.023 C 
BRANCH  21  22
ATOM     22  C   UNL A   1      43.490  18.704  25.998  1.00  0.00     0.116 C 
BRANCH  22  23
ATOM     23  N   UNL A   1      44.175  18.695  24.715  1.00  0.00    -0.352 N 
ATOM     24  C   UNL A   1      44.550  19.796  23.956  1.00  0.00     0.251 C 
ATOM     25  H   UNL A   1      44.398  17.811  24.342  1.00  0.00     0.163 HD
ATOM     26  O   UNL A   1      44.848  19.680  22.779  1.00  0.00    -0.269 OA
BRANCH  24  27
ATOM     27  C   UNL A   1      44.590  21.139  24.591  1.00  0.00     0.039 A 
ATOM     28  C   UNL A   1      43.684  22.140  24.228  1.00  0.00     0.014 A 
ATOM     29  C   UNL A   1      45.569  21.409  25.544  1.00  0.00     0.014 A 
ATOM     30  C   UNL A   1      43.710  23.362  24.905  1.00  0.00     0.010 A 
ATOM     31  C   UNL A   1      45.559  22.581  26.262  1.00  0.00     0.010 A 
ATOM     32  C   UNL A   1      44.633  23.565  25.943  1.00  0.00    -0.014 A 
BRANCH  32  33
ATOM     33  C   UNL A   1      44.505  24.702  26.849  1.00  0.00     0.031 A 
ATOM     34  C   UNL A   1      45.550  25.755  26.679  1.00  0.00     0.074 A 
ATOM     35  C   UNL A   1      43.393  24.972  27.565  1.00  0.00     0.049 A 
ATOM     36  N   UNL A   1      46.385  26.186  27.565  1.00  0.00    -0.248 NA
ATOM     37  C   UNL A   1      45.742  26.341  25.342  1.00  0.00     0.031 C 
ATOM     38  C   UNL A   1      42.121  24.244  27.589  1.00  0.00     0.029 A 
ATOM     39  N   UNL A   1      43.129  26.069  28.326  1.00  0.00    -0.354 N 
ATOM     40  C   UNL A   1      47.126  27.193  26.951  1.00  0.00     0.074 A 
ATOM     41  C   UNL A   1      46.773  27.163  25.553  1.00  0.00     0.031 C 
ATOM     42  C   UNL A   1      41.163  25.037  28.122  1.00  0.00     0.029 A 
ATOM     43  C   UNL A   1      41.784  26.256  28.613  1.00  0.00     0.049 A 
ATOM     44  H   UNL A   1      43.832  26.679  28.646  1.00  0.00     0.167 HD
ATOM     45  C   UNL A   1      47.850  28.096  27.669  1.00  0.00     0.031 A 
ATOM     46  C   UNL A   1      41.221  27.353  29.176  1.00  0.00     0.031 A 
ATOM     47  C   UNL A   1      47.986  27.700  29.044  1.00  0.00     0.049 A 
ATOM     48  C   UNL A   1      42.301  28.103  29.862  1.00  0.00     0.074 A 
ATOM     49  C   UNL A   1      48.542  26.613  29.689  1.00  0.00     0.029 A 
ATOM     50  N   UNL A   1      47.144  28.290  29.958  1.00  0.00    -0.354 N 
ATOM     51  N   UNL A   1      42.921  27.654  30.915  1.00  0.00    -0.248 NA
ATOM     52  C   UNL A   1      42.997  29.147  29.127  1.00  0.00     0.031 C 
ATOM     53  C   UNL A   1      47.632  26.316  30.744  1.00  0.00     0.029 A 
ATOM     54  C   UNL A   1      46.621  27.279  30.723  1.00  0.00     0.049 A 
ATOM     55  H   UNL A   1      46.955  29.252  30.047  1.00  0.00     0.167 HD
ATOM     56  C   UNL A   1      44.246  28.018  30.726  1.00  0.00     0.074 A 
ATOM     57  C   UNL A   1      44.212  29.032  29.672  1.00  0.00     0.031 C 
ATOM     58  C   UNL A   1      45.266  27.262  31.228  1.00  0.00     0.031 A 
BRANCH  45  59
ATOM     59  C   UNL A   1      48.145  29.504  27.225  1.00  0.00    -0.014 A 
ATOM     60  C   UNL A   1      49.474  29.965  27.273  1.00  0.00     0.009 A 
ATOM     61  C   UNL A   1      47.144  30.471  27.026  1.00  0.00     0.009 A 
ATOM     62  C   UNL A   1      49.775  31.330  27.193  1.00  0.00     0.001 A 
ATOM     63  C   UNL A   1      47.445  31.830  26.903  1.00  0.00     0.001 A 
ATOM     64  C   UNL A   1      48.759  32.263  27.015  1.00  0.00     0.000 A 
ENDBRANCH  45  59
BRANCH  46  65
ATOM     65  C   UNL A   1      39.864  27.908  28.987  1.00  0.00    -0.014 A 
ATOM     66  C   UNL A   1      38.936  27.919  30.041  1.00  0.00     0.009 A 
ATOM     67  C   UNL A   1      39.560  28.666  27.841  1.00  0.00     0.009 A 
ATOM     68  C   UNL A   1      37.769  28.691  29.965  1.00  0.00     0.001 A 
ATOM     69  C   UNL A   1      38.393  29.434  27.763  1.00  0.00     0.001 A 
ATOM     70  C   UNL A   1      37.505  29.458  28.833  1.00  0.00     0.000 A 
ENDBRANCH  46  65
BRANCH  58  71
ATOM     71  C   UNL A   1      44.921  26.120  32.156  1.00  0.00    -0.014 A 
ATOM     72  C   UNL A   1      44.565  24.841  31.688  1.00  0.00     0.009 A 
ATOM     73  C   UNL A   1      45.152  26.281  33.529  1.00  0.00     0.009 A 
ATOM     74  C   UNL A   1      44.426  23.765  32.571  1.00  0.00     0.001 A 
ATOM     75  C   UNL A   1      45.035  25.202  34.408  1.00  0.00     0.001 A 
ATOM     76  C   UNL A   1      44.670  23.945  33.930  1.00  0.00     0.000 A 
ENDBRANCH  58  71
ENDBRANCH  32  33
ENDBRANCH  24  27
ENDBRANCH  22  23
ENDBRANCH  21  22
ENDBRANCH   1  21
TORSDOF 13
ENDMDL
MODEL 2
REMARK VINA RESULT:     -10.9      3.090      8.446
REMARK SMILES Cc1cc(C)c2c(O[C@@H](C)C(=O)NCCCCNC(=O)c3ccc(-c4c5nc(c(-c6ccccc6)c6ccc([nH]6)c(-c6ccccc6)c6nc(c(-c7ccccc7)c7ccc4[nH]7)C=C6)C=C5)cc3)nsc2n1
REMARK SMILES IDX 15 1 14 2 13 3 11 4 12 5 9 7 10 8 8 9 7 10 1 11 2 12 3 13
REMARK SMILES IDX 72 14 4 15 71 16 5 17 6 18 70 19 69 20 16 21 17 22 18 23
REMARK SMILES IDX 19 24 20 26 21 27 22 28 68 29 23 30 67 31 24 32 25 33 26 34
REMARK SMILES IDX 61 35 27 36 66 37 60 38 62 39 28 40 65 41 59 42 58 43 29 45
REMARK SMILES IDX 51 46 36 47 50 48 37 49 40 50 49 51 63 52 38 53 39 54 48 56
REMARK SMILES IDX 64 57 41 58 30 59 31 60 35 61 32 62 34 63 33 64 52 65 53 66
REMARK SMILES IDX 57 67 54 68 56 69 55 70 42 71 43 72 47 73 44 74 46 75 45 76
REMARK H PARENT 13 6 18 25 62 44 40 55
REMARK Flexibility Score: inf
ROOT
ATOM      1  C   UNL A   1      31.852  27.882  27.085  1.00  0.00     0.023 C 
ENDROOT
BRANCH   1   2
ATOM      2  C   UNL A   1      31.151  27.064  25.995  1.00  0.00     0.116 C 
BRANCH   2   3
ATOM      3  N   UNL A   1      30.402  25.908  26.433  1.00  0.00    -0.353 N 
ATOM      4  C   UNL A   1      30.741  24.598  26.218  1.00  0.00     0.260 C 
ATOM      5  O   UNL A   1      30.683  23.840  27.193  1.00  0.00    -0.271 OA
ATOM      6  H   UNL A   1      29.570  26.078  26.933  1.00  0.00     0.163 HD
BRANCH   4   7
ATOM      7  C   UNL A   1      31.020  24.034  24.788  1.00  0.00     0.260 C 
ATOM      8  C   UNL A   1      30.336  24.758  23.623  1.00  0.00     0.064 C 
BRANCH   7   9
ATOM      9  O   UNL A   1      31.349  22.712  24.507  1.00  0.00    -0.463 OA
BRANCH   9  10
ATOM     10  C   UNL A   1      32.431  22.044  24.961  1.00  0.00     0.235 A 
ATOM     11  C   UNL A   1      38.073  21.675  25.476  1.00  0.00     0.067 C 
ATOM     12  C   UNL A   1      36.597  21.936  25.478  1.00  0.00     0.039 A 
ATOM     13  C   UNL A   1      36.099  23.228  25.520  1.00  0.00     0.027 A 
ATOM     14  N   UNL A   1      35.809  20.862  25.420  1.00  0.00    -0.240 NA
ATOM     15  C   UNL A   1      34.713  23.491  25.393  1.00  0.00    -0.034 A 
ATOM     16  C   UNL A   1      34.494  21.118  25.334  1.00  0.00     0.147 A 
ATOM     17  C   UNL A   1      34.356  24.956  25.417  1.00  0.00     0.045 C 
ATOM     18  C   UNL A   1      33.836  22.358  25.263  1.00  0.00     0.078 A 
ATOM     19  S   UNL A   1      33.396  19.828  25.264  1.00  0.00    -0.012 S 
ATOM     20  N   UNL A   1      32.077  20.760  25.015  1.00  0.00    -0.153 NA
ENDBRANCH   9  10
ENDBRANCH   7   9
ENDBRANCH   4   7
ENDBRANCH   2   3
ENDBRANCH   1   2
BRANCH   1  21
ATOM     21  C   UNL A   1      32.670  29.071  26.539  1.00  0.00     0.023 C 
BRANCH  21  22
ATOM     22  C   UNL A   1      33.554  29.773  27.571  1.00  0.00     0.116 C 
BRANCH  22  23
ATOM     23  N   UNL A   1      33.864  31.168  27.300  1.00  0.00    -0.352 N 
ATOM     24  C   UNL A   1      34.983  31.876  27.720  1.00  0.00     0.251 C 
ATOM     25  H   UNL A   1      33.208  31.667  26.760  1.00  0.00     0.163 HD
ATOM     26  O   UNL A   1      35.005  33.095  27.692  1.00  0.00    -0.269 OA
BRANCH  24  27
ATOM     27  C   UNL A   1      36.173  31.134  28.211  1.00  0.00     0.039 A 
ATOM     28  C   UNL A   1      36.303  29.757  28.009  1.00  0.00     0.014 A 
ATOM     29  C   UNL A   1      37.160  31.823  28.911  1.00  0.00     0.014 A 
ATOM     30  C   UNL A   1      37.473  29.114  28.422  1.00  0.00     0.010 A 
ATOM     31  C   UNL A   1      38.343  31.215  29.259  1.00  0.00     0.010 A 
ATOM     32  C   UNL A   1      38.503  29.857  29.020  1.00  0.00    -0.014 A 
BRANCH  32  33
ATOM     33  C   UNL A   1      39.833  29.284  29.202  1.00  0.00     0.031 A 
ATOM     34  C   UNL A   1      40.185  28.964  30.617  1.00  0.00     0.074 A 
ATOM     35  C   UNL A   1      40.579  28.781  28.197  1.00  0.00     0.049 A 
ATOM     36  N   UNL A   1      41.179  29.419  31.304  1.00  0.00    -0.248 NA
ATOM     37  C   UNL A   1      39.278  28.094  31.385  1.00  0.00     0.031 C 
ATOM     38  C   UNL A   1      40.247  28.680  26.773  1.00  0.00     0.029 A 
ATOM     39  N   UNL A   1      41.761  28.111  28.280  1.00  0.00    -0.354 N 
ATOM     40  C   UNL A   1      41.113  28.802  32.551  1.00  0.00     0.074 A 
ATOM     41  C   UNL A   1      39.859  28.092  32.587  1.00  0.00     0.031 C 
ATOM     42  C   UNL A   1      41.077  27.790  26.183  1.00  0.00     0.029 A 
ATOM     43  C   UNL A   1      42.087  27.382  27.146  1.00  0.00     0.049 A 
ATOM     44  H   UNL A   1      42.336  28.140  29.079  1.00  0.00     0.167 HD
ATOM     45  C   UNL A   1      42.178  28.776  33.400  1.00  0.00     0.031 A 
ATOM     46  C   UNL A   1      43.089  26.477  27.024  1.00  0.00     0.031 A 
ATOM     47  C   UNL A   1      43.212  29.687  32.990  1.00  0.00     0.049 A 
ATOM     48  C   UNL A   1      44.058  26.741  28.115  1.00  0.00     0.074 A 
ATOM     49  C   UNL A   1      43.281  31.053  32.807  1.00  0.00     0.029 A 
ATOM     50  N   UNL A   1      44.286  29.160  32.311  1.00  0.00    -0.354 N 
ATOM     51  N   UNL A   1      44.787  27.818  28.175  1.00  0.00    -0.248 NA
ATOM     52  C   UNL A   1      43.903  26.023  29.371  1.00  0.00     0.031 C 
ATOM     53  C   UNL A   1      44.067  31.219  31.628  1.00  0.00     0.029 A 
ATOM     54  C   UNL A   1      44.485  29.953  31.211  1.00  0.00     0.049 A 
ATOM     55  H   UNL A   1      44.810  28.367  32.566  1.00  0.00     0.167 HD
ATOM     56  C   UNL A   1      44.805  28.157  29.520  1.00  0.00     0.074 A 
ATOM     57  C   UNL A   1      44.345  26.958  30.218  1.00  0.00     0.031 C 
ATOM     58  C   UNL A   1      44.908  29.460  29.920  1.00  0.00     0.031 A 
BRANCH  45  59
ATOM     59  C   UNL A   1      42.445  27.688  34.406  1.00  0.00    -0.014 A 
ATOM     60  C   UNL A   1      43.062  26.500  33.972  1.00  0.00     0.009 A 
ATOM     61  C   UNL A   1      41.873  27.675  35.691  1.00  0.00     0.009 A 
ATOM     62  C   UNL A   1      43.045  25.341  34.758  1.00  0.00     0.001 A 
ATOM     63  C   UNL A   1      41.892  26.531  36.494  1.00  0.00     0.001 A 
ATOM     64  C   UNL A   1      42.453  25.356  36.016  1.00  0.00     0.000 A 
ENDBRANCH  45  59
BRANCH  46  65
ATOM     65  C   UNL A   1      43.166  25.276  26.167  1.00  0.00    -0.014 A 
ATOM     66  C   UNL A   1      44.225  25.102  25.261  1.00  0.00     0.009 A 
ATOM     67  C   UNL A   1      42.334  24.169  26.419  1.00  0.00     0.009 A 
ATOM     68  C   UNL A   1      44.464  23.857  24.663  1.00  0.00     0.001 A 
ATOM     69  C   UNL A   1      42.570  22.927  25.820  1.00  0.00     0.001 A 
ATOM     70  C   UNL A   1      43.646  22.768  24.953  1.00  0.00     0.000 A 
ENDBRANCH  46  65
BRANCH  58  71
ATOM     71  C   UNL A   1      45.193  30.510  28.871  1.00  0.00    -0.014 A 
ATOM     72  C   UNL A   1      46.497  30.934  28.553  1.00  0.00     0.009 A 
ATOM     73  C   UNL A   1      44.140  30.935  28.049  1.00  0.00     0.009 A 
ATOM     74  C   UNL A   1      46.734  31.773  27.459  1.00  0.00     0.001 A 
ATOM     75  C   UNL A   1      44.380  31.755  26.943  1.00  0.00     0.001 A 
ATOM     76  C   UNL A   1      45.676  32.176  26.650  1.00  0.00     0.000 A 
ENDBRANCH  58  71
ENDBRANCH  32  33
ENDBRANCH  24  27
ENDBRANCH  22  23
ENDBRANCH  21  22
ENDBRANCH   1  21
TORSDOF 13
ENDMDL
MODEL 3
REMARK VINA RESULT:     -10.7      3.603      8.709
REMARK SMILES Cc1cc(C)c2c(O[C@@H](C)C(=O)NCCCCNC(=O)c3ccc(-c4c5nc(c(-c6ccccc6)c6ccc([nH]6)c(-c6ccccc6)c6nc(c(-c7ccccc7)c7ccc4[nH]7)C=C6)C=C5)cc3)nsc2n1
REMARK SMILES IDX 15 1 14 2 13 3 11 4 12 5 9 7 10 8 8 9 7 10 1 11 2 12 3 13
REMARK SMILES IDX 72 14 4 15 71 16 5 17 6 18 70 19 69 20 16 21 17 22 18 23
REMARK SMILES IDX 19 24 20 26 21 27 22 28 68 29 23 30 67 31 24 32 25 33 26 34
REMARK SMILES IDX 61 35 27 36 66 37 60 38 62 39 28 40 65 41 59 42 58 43 29 45
REMARK SMILES IDX 51 46 36 47 50 48 37 49 40 50 49 51 63 52 38 53 39 54 48 56
REMARK SMILES IDX 64 57 41 58 30 59 31 60 35 61 32 62 34 63 33 64 52 65 53 66
REMARK SMILES IDX 57 67 54 68 56 69 55 70 42 71 43 72 47 73 44 74 46 75 45 76
REMARK H PARENT 13 6 18 25 62 44 40 55
REMARK Flexibility Score: inf
ROOT
ATOM      1  C   UNL A   1      32.634  29.168  25.867  1.00  0.00     0.023 C 
ENDROOT
BRANCH   1   2
ATOM      2  C   UNL A   1      31.639  29.304  24.710  1.00  0.00     0.116 C 
BRANCH   2   3
ATOM      3  N   UNL A   1      31.781  28.367  23.618  1.00  0.00    -0.353 N 
ATOM      4  C   UNL A   1      30.798  27.552  23.122  1.00  0.00     0.260 C 
ATOM      5  O   UNL A   1      30.664  27.526  21.894  1.00  0.00    -0.271 OA
ATOM      6  H   UNL A   1      32.667  28.310  23.192  1.00  0.00     0.163 HD
BRANCH   4   7
ATOM      7  C   UNL A   1      29.995  26.567  24.030  1.00  0.00     0.260 C 
ATOM      8  C   UNL A   1      28.469  26.599  23.888  1.00  0.00     0.064 C 
BRANCH   7   9
ATOM      9  O   UNL A   1      30.431  26.088  25.262  1.00  0.00    -0.463 OA
BRANCH   9  10
ATOM     10  C   UNL A   1      30.773  24.814  25.547  1.00  0.00     0.235 A 
ATOM     11  C   UNL A   1      32.578  19.733  23.767  1.00  0.00     0.067 C 
ATOM     12  C   UNL A   1      32.300  21.144  24.194  1.00  0.00     0.039 A 
ATOM     13  C   UNL A   1      32.839  22.219  23.506  1.00  0.00     0.027 A 
ATOM     14  N   UNL A   1      31.500  21.292  25.249  1.00  0.00    -0.240 NA
ATOM     15  C   UNL A   1      32.481  23.553  23.821  1.00  0.00    -0.034 A 
ATOM     16  C   UNL A   1      31.191  22.560  25.563  1.00  0.00     0.147 A 
ATOM     17  C   UNL A   1      33.130  24.592  22.942  1.00  0.00     0.045 C 
ATOM     18  C   UNL A   1      31.568  23.749  24.915  1.00  0.00     0.078 A 
ATOM     19  S   UNL A   1      30.187  22.870  26.894  1.00  0.00    -0.012 S 
ATOM     20  N   UNL A   1      30.080  24.480  26.636  1.00  0.00    -0.153 NA
ENDBRANCH   9  10
ENDBRANCH   7   9
ENDBRANCH   4   7
ENDBRANCH   2   3
ENDBRANCH   1   2
BRANCH   1  21
ATOM     21  C   UNL A   1      32.594  30.346  26.863  1.00  0.00     0.023 C 
BRANCH  21  22
ATOM     22  C   UNL A   1      33.960  30.809  27.369  1.00  0.00     0.116 C 
BRANCH  22  23
ATOM     23  N   UNL A   1      33.945  31.714  28.508  1.00  0.00    -0.352 N 
ATOM     24  C   UNL A   1      34.895  31.811  29.516  1.00  0.00     0.251 C 
ATOM     25  H   UNL A   1      33.175  32.325  28.572  1.00  0.00     0.163 HD
ATOM     26  O   UNL A   1      34.647  32.383  30.564  1.00  0.00    -0.269 OA
BRANCH  24  27
ATOM     27  C   UNL A   1      36.237  31.207  29.312  1.00  0.00     0.039 A 
ATOM     28  C   UNL A   1      37.380  32.002  29.193  1.00  0.00     0.014 A 
ATOM     29  C   UNL A   1      36.348  29.822  29.210  1.00  0.00     0.014 A 
ATOM     30  C   UNL A   1      38.630  31.388  29.077  1.00  0.00     0.010 A 
ATOM     31  C   UNL A   1      37.577  29.208  29.166  1.00  0.00     0.010 A 
ATOM     32  C   UNL A   1      38.724  29.988  29.095  1.00  0.00    -0.014 A 
BRANCH  32  33
ATOM     33  C   UNL A   1      40.013  29.324  29.261  1.00  0.00     0.031 A 
ATOM     34  C   UNL A   1      40.358  28.980  30.673  1.00  0.00     0.074 A 
ATOM     35  C   UNL A   1      40.712  28.772  28.248  1.00  0.00     0.049 A 
ATOM     36  N   UNL A   1      41.389  29.366  31.348  1.00  0.00    -0.248 NA
ATOM     37  C   UNL A   1      39.402  28.175  31.451  1.00  0.00     0.031 C 
ATOM     38  C   UNL A   1      40.357  28.694  26.827  1.00  0.00     0.029 A 
ATOM     39  N   UNL A   1      41.845  28.022  28.318  1.00  0.00    -0.354 N 
ATOM     40  C   UNL A   1      41.295  28.754  32.595  1.00  0.00     0.074 A 
ATOM     41  C   UNL A   1      39.995  28.132  32.646  1.00  0.00     0.031 C 
ATOM     42  C   UNL A   1      41.117  27.749  26.229  1.00  0.00     0.029 A 
ATOM     43  C   UNL A   1      42.107  27.273  27.180  1.00  0.00     0.049 A 
ATOM     44  H   UNL A   1      42.430  28.011  29.110  1.00  0.00     0.167 HD
ATOM     45  C   UNL A   1      42.366  28.654  33.432  1.00  0.00     0.031 A 
ATOM     46  C   UNL A   1      43.043  26.301  27.048  1.00  0.00     0.031 A 
ATOM     47  C   UNL A   1      43.455  29.493  33.010  1.00  0.00     0.049 A 
ATOM     48  C   UNL A   1      44.041  26.497  28.127  1.00  0.00     0.074 A 
ATOM     49  C   UNL A   1      43.616  30.851  32.825  1.00  0.00     0.029 A 
ATOM     50  N   UNL A   1      44.482  28.893  32.319  1.00  0.00    -0.354 N 
ATOM     51  N   UNL A   1      44.843  27.521  28.178  1.00  0.00    -0.248 NA
ATOM     52  C   UNL A   1      43.850  25.791  29.385  1.00  0.00     0.031 C 
ATOM     53  C   UNL A   1      44.398  30.962  31.638  1.00  0.00     0.029 A 
ATOM     54  C   UNL A   1      44.723  29.671  31.216  1.00  0.00     0.049 A 
ATOM     55  H   UNL A   1      44.953  28.065  32.569  1.00  0.00     0.167 HD
ATOM     56  C   UNL A   1      44.899  27.858  29.523  1.00  0.00     0.074 A 
ATOM     57  C   UNL A   1      44.366  26.693  30.227  1.00  0.00     0.031 C 
ATOM     58  C   UNL A   1      45.097  29.150  29.921  1.00  0.00     0.031 A 
BRANCH  45  59
ATOM     59  C   UNL A   1      42.568  27.551  34.436  1.00  0.00    -0.014 A 
ATOM     60  C   UNL A   1      43.255  26.389  34.036  1.00  0.00     0.009 A 
ATOM     61  C   UNL A   1      41.881  27.492  35.661  1.00  0.00     0.009 A 
ATOM     62  C   UNL A   1      43.198  25.212  34.792  1.00  0.00     0.001 A 
ATOM     63  C   UNL A   1      41.857  26.331  36.439  1.00  0.00     0.001 A 
ATOM     64  C   UNL A   1      42.492  25.182  35.990  1.00  0.00     0.000 A 
ENDBRANCH  45  59
BRANCH  46  65
ATOM     65  C   UNL A   1      43.027  25.098  26.190  1.00  0.00    -0.014 A 
ATOM     66  C   UNL A   1      44.019  24.891  25.217  1.00  0.00     0.009 A 
ATOM     67  C   UNL A   1      42.180  24.017  26.498  1.00  0.00     0.009 A 
ATOM     68  C   UNL A   1      44.181  23.639  24.608  1.00  0.00     0.001 A 
ATOM     69  C   UNL A   1      42.339  22.769  25.887  1.00  0.00     0.001 A 
ATOM     70  C   UNL A   1      43.350  22.576  24.953  1.00  0.00     0.000 A 
ENDBRANCH  46  65
BRANCH  58  71
ATOM     71  C   UNL A   1      45.441  30.178  28.868  1.00  0.00    -0.014 A 
ATOM     72  C   UNL A   1      46.767  30.497  28.521  1.00  0.00     0.009 A 
ATOM     73  C   UNL A   1      44.407  30.691  28.072  1.00  0.00     0.009 A 
ATOM     74  C   UNL A   1      47.046  31.320  27.424  1.00  0.00     0.001 A 
ATOM     75  C   UNL A   1      44.687  31.494  26.963  1.00  0.00     0.001 A 
ATOM     76  C   UNL A   1      46.005  31.810  26.641  1.00  0.00     0.000 A 
ENDBRANCH  58  71
ENDBRANCH  32  33
ENDBRANCH  24  27
ENDBRANCH  22  23
ENDBRANCH  21  22
ENDBRANCH   1  21
TORSDOF 13
ENDMDL
