MODEL 1
REMARK VINA RESULT:     -12.8      0.000      0.000
REMARK SMILES CS(=O)(=O)c1ccc(C(=O)N2C[C@@H](C(=O)NCCCCNC(=O)c3ccc(-c4c5nc(c(-c6ccccc6)c6ccc([nH]6)c(-c6ccccc6)c6nc(c(-c7ccccc7)c7ccc4[nH]7)C=C6)C=C5)cc3)[C@H](c3ccncc3)C2)cc1
REMARK SMILES IDX 18 1 17 2 16 3 14 4 15 5 13 7 11 8 12 9 79 10 72 11 9 12
REMARK SMILES IDX 10 13 8 14 5 15 6 16 81 17 7 18 80 19 2 20 1 21 3 22 4 23
REMARK SMILES IDX 73 24 74 25 78 26 75 27 77 28 76 29 19 30 20 31 21 32 22 33
REMARK SMILES IDX 23 35 24 36 25 37 71 38 26 39 70 40 27 41 28 42 29 43 64 44
REMARK SMILES IDX 30 45 69 46 63 47 65 48 31 49 68 50 62 51 61 52 32 54 54 55
REMARK SMILES IDX 39 56 53 57 40 58 43 59 52 60 66 61 41 62 42 63 51 65 67 66
REMARK SMILES IDX 44 67 33 68 34 69 38 70 35 71 37 72 36 73 55 74 56 75 60 76
REMARK SMILES IDX 57 77 59 78 58 79 45 80 46 81 50 82 47 83 49 84 48 85
REMARK H PARENT 16 6 21 34 65 53 43 64
REMARK Flexibility Score: inf
ROOT
ATOM      1  C   UNL A   1      31.754  30.477  26.618  1.00  0.00     0.023 C 
ENDROOT
BRANCH   1   2
ATOM      2  C   UNL A   1      33.180  30.000  26.338  1.00  0.00     0.116 C 
BRANCH   2   3
ATOM      3  N   UNL A   1      33.399  29.872  24.910  1.00  0.00    -0.356 N 
ATOM      4  C   UNL A   1      32.889  29.024  23.986  1.00  0.00     0.225 C 
ATOM      5  O   UNL A   1      33.342  29.115  22.841  1.00  0.00    -0.275 OA
ATOM      6  H   UNL A   1      34.039  30.525  24.544  1.00  0.00     0.163 HD
BRANCH   4   7
ATOM      7  C   UNL A   1      31.776  28.038  24.272  1.00  0.00     0.107 C 
ATOM      8  N   UNL A   1      31.228  25.808  24.530  1.00  0.00    -0.337 N 
ATOM      9  C   UNL A   1      32.341  26.708  24.739  1.00  0.00     0.134 C 
ATOM     10  C   UNL A   1      30.527  26.173  23.315  1.00  0.00     0.129 C 
ATOM     11  C   UNL A   1      30.762  27.699  23.143  1.00  0.00     0.053 C 
BRANCH   8  12
ATOM     12  C   UNL A   1      30.833  24.717  25.280  1.00  0.00     0.253 C 
ATOM     13  O   UNL A   1      29.992  24.812  26.172  1.00  0.00    -0.269 OA
BRANCH  12  14
ATOM     14  C   UNL A   1      31.529  23.410  25.106  1.00  0.00     0.040 A 
ATOM     15  C   UNL A   1      32.496  20.802  24.773  1.00  0.00     0.067 A 
ATOM     16  C   UNL A   1      32.079  21.531  23.658  1.00  0.00     0.021 A 
ATOM     17  C   UNL A   1      32.442  21.367  26.050  1.00  0.00     0.021 A 
ATOM     18  C   UNL A   1      31.592  22.834  23.829  1.00  0.00     0.015 A 
ATOM     19  C   UNL A   1      31.942  22.658  26.215  1.00  0.00     0.015 A 
BRANCH  15  20
ATOM     20  S   UNL A   1      33.037  19.114  24.629  1.00  0.00     0.175 S 
ATOM     21  C   UNL A   1      32.436  18.527  23.070  1.00  0.00     0.163 C 
ATOM     22  O   UNL A   1      32.336  18.361  25.655  1.00  0.00    -0.224 OA
ATOM     23  O   UNL A   1      34.484  19.147  24.581  1.00  0.00    -0.224 OA
ENDBRANCH  15  20
ENDBRANCH  12  14
ENDBRANCH   8  12
BRANCH  11  24
ATOM     24  C   UNL A   1      29.552  28.627  23.148  1.00  0.00    -0.039 A 
ATOM     25  C   UNL A   1      28.266  28.065  23.071  1.00  0.00     0.024 A 
ATOM     26  C   UNL A   1      29.626  30.014  23.311  1.00  0.00     0.024 A 
ATOM     27  C   UNL A   1      27.151  28.888  23.140  1.00  0.00     0.111 A 
ATOM     28  C   UNL A   1      28.452  30.755  23.374  1.00  0.00     0.111 A 
ATOM     29  N   UNL A   1      27.217  30.223  23.293  1.00  0.00    -0.265 NA
ENDBRANCH  11  24
ENDBRANCH   4   7
ENDBRANCH   2   3
ENDBRANCH   1   2
BRANCH   1  30
ATOM     30  C   UNL A   1      31.598  32.002  26.628  1.00  0.00     0.023 C 
BRANCH  30  31
ATOM     31  C   UNL A   1      32.724  32.759  27.328  1.00  0.00     0.116 C 
BRANCH  31  32
ATOM     32  N   UNL A   1      32.372  34.131  27.660  1.00  0.00    -0.352 N 
ATOM     33  C   UNL A   1      32.962  34.957  28.587  1.00  0.00     0.251 C 
ATOM     34  H   UNL A   1      31.618  34.517  27.158  1.00  0.00     0.163 HD
ATOM     35  O   UNL A   1      32.492  36.060  28.836  1.00  0.00    -0.269 OA
BRANCH  33  36
ATOM     36  C   UNL A   1      34.151  34.471  29.312  1.00  0.00     0.039 A 
ATOM     37  C   UNL A   1      33.978  33.847  30.549  1.00  0.00     0.014 A 
ATOM     38  C   UNL A   1      35.419  34.573  28.732  1.00  0.00     0.014 A 
ATOM     39  C   UNL A   1      35.073  33.249  31.174  1.00  0.00     0.010 A 
ATOM     40  C   UNL A   1      36.496  33.929  29.329  1.00  0.00     0.010 A 
ATOM     41  C   UNL A   1      36.330  33.250  30.547  1.00  0.00    -0.014 A 
BRANCH  41  42
ATOM     42  C   UNL A   1      37.482  32.520  31.127  1.00  0.00     0.031 A 
ATOM     43  C   UNL A   1      38.141  33.024  32.377  1.00  0.00     0.074 A 
ATOM     44  C   UNL A   1      37.988  31.456  30.475  1.00  0.00     0.049 A 
ATOM     45  N   UNL A   1      39.220  32.586  32.974  1.00  0.00    -0.248 NA
ATOM     46  C   UNL A   1      37.520  34.188  33.028  1.00  0.00     0.031 C 
ATOM     47  C   UNL A   1      37.460  30.890  29.231  1.00  0.00     0.029 A 
ATOM     48  N   UNL A   1      39.075  30.669  30.762  1.00  0.00    -0.354 N 
ATOM     49  C   UNL A   1      39.419  33.432  34.057  1.00  0.00     0.074 A 
ATOM     50  C   UNL A   1      38.372  34.430  34.015  1.00  0.00     0.031 C 
ATOM     51  C   UNL A   1      38.214  29.838  28.872  1.00  0.00     0.029 A 
ATOM     52  C   UNL A   1      39.299  29.680  29.834  1.00  0.00     0.049 A 
ATOM     53  H   UNL A   1      39.641  30.800  31.557  1.00  0.00     0.167 HD
ATOM     54  C   UNL A   1      40.379  33.373  35.010  1.00  0.00     0.031 A 
ATOM     55  C   UNL A   1      40.278  28.759  29.760  1.00  0.00     0.031 A 
ATOM     56  C   UNL A   1      41.411  32.374  35.061  1.00  0.00     0.049 A 
ATOM     57  C   UNL A   1      41.342  28.727  30.820  1.00  0.00     0.074 A 
ATOM     58  C   UNL A   1      42.390  32.195  36.022  1.00  0.00     0.029 A 
ATOM     59  N   UNL A   1      41.598  31.386  34.107  1.00  0.00    -0.354 N 
ATOM     60  N   UNL A   1      41.480  29.496  31.872  1.00  0.00    -0.248 NA
ATOM     61  C   UNL A   1      42.382  27.699  30.681  1.00  0.00     0.031 C 
ATOM     62  C   UNL A   1      43.198  31.123  35.626  1.00  0.00     0.029 A 
ATOM     63  C   UNL A   1      42.695  30.609  34.442  1.00  0.00     0.049 A 
ATOM     64  H   UNL A   1      41.037  31.257  33.309  1.00  0.00     0.167 HD
ATOM     65  C   UNL A   1      42.609  29.032  32.532  1.00  0.00     0.074 A 
ATOM     66  C   UNL A   1      43.110  27.908  31.770  1.00  0.00     0.031 C 
ATOM     67  C   UNL A   1      43.180  29.497  33.670  1.00  0.00     0.031 A 
BRANCH  54  68
ATOM     68  C   UNL A   1      40.356  34.432  36.075  1.00  0.00    -0.014 A 
ATOM     69  C   UNL A   1      41.095  35.618  35.934  1.00  0.00     0.009 A 
ATOM     70  C   UNL A   1      39.564  34.255  37.220  1.00  0.00     0.009 A 
ATOM     71  C   UNL A   1      41.068  36.590  36.936  1.00  0.00     0.001 A 
ATOM     72  C   UNL A   1      39.519  35.241  38.208  1.00  0.00     0.001 A 
ATOM     73  C   UNL A   1      40.277  36.402  38.069  1.00  0.00     0.000 A 
ENDBRANCH  54  68
BRANCH  55  74
ATOM     74  C   UNL A   1      40.295  27.783  28.640  1.00  0.00    -0.014 A 
ATOM     75  C   UNL A   1      40.966  28.088  27.447  1.00  0.00     0.009 A 
ATOM     76  C   UNL A   1      39.641  26.547  28.757  1.00  0.00     0.009 A 
ATOM     77  C   UNL A   1      40.963  27.183  26.383  1.00  0.00     0.001 A 
ATOM     78  C   UNL A   1      39.660  25.635  27.701  1.00  0.00     0.001 A 
ATOM     79  C   UNL A   1      40.314  25.956  26.512  1.00  0.00     0.000 A 
ENDBRANCH  55  74
BRANCH  67  80
ATOM     80  C   UNL A   1      44.396  28.774  34.170  1.00  0.00    -0.014 A 
ATOM     81  C   UNL A   1      45.686  29.185  33.802  1.00  0.00     0.009 A 
ATOM     82  C   UNL A   1      44.250  27.698  35.059  1.00  0.00     0.009 A 
ATOM     83  C   UNL A   1      46.807  28.514  34.294  1.00  0.00     0.001 A 
ATOM     84  C   UNL A   1      45.372  27.045  35.569  1.00  0.00     0.001 A 
ATOM     85  C   UNL A   1      46.649  27.449  35.182  1.00  0.00     0.000 A 
ENDBRANCH  67  80
ENDBRANCH  41  42
ENDBRANCH  33  36
ENDBRANCH  31  32
ENDBRANCH  30  31
ENDBRANCH   1  30
TORSDOF 15
ENDMDL
MODEL 2
REMARK VINA RESULT:     -12.6      4.259      9.664
REMARK SMILES CS(=O)(=O)c1ccc(C(=O)N2C[C@@H](C(=O)NCCCCNC(=O)c3ccc(-c4c5nc(c(-c6ccccc6)c6ccc([nH]6)c(-c6ccccc6)c6nc(c(-c7ccccc7)c7ccc4[nH]7)C=C6)C=C5)cc3)[C@H](c3ccncc3)C2)cc1
REMARK SMILES IDX 18 1 17 2 16 3 14 4 15 5 13 7 11 8 12 9 79 10 72 11 9 12
REMARK SMILES IDX 10 13 8 14 5 15 6 16 81 17 7 18 80 19 2 20 1 21 3 22 4 23
REMARK SMILES IDX 73 24 74 25 78 26 75 27 77 28 76 29 19 30 20 31 21 32 22 33
REMARK SMILES IDX 23 35 24 36 25 37 71 38 26 39 70 40 27 41 28 42 29 43 64 44
REMARK SMILES IDX 30 45 69 46 63 47 65 48 31 49 68 50 62 51 61 52 32 54 54 55
REMARK SMILES IDX 39 56 53 57 40 58 43 59 52 60 66 61 41 62 42 63 51 65 67 66
REMARK SMILES IDX 44 67 33 68 34 69 38 70 35 71 37 72 36 73 55 74 56 75 60 76
REMARK SMILES IDX 57 77 59 78 58 79 45 80 46 81 50 82 47 83 49 84 48 85
REMARK H PARENT 16 6 21 34 65 53 43 64
REMARK Flexibility Score: inf
ROOT
ATOM      1  C   UNL A   1      38.821  22.855  26.152  1.00  0.00     0.023 C 
ENDROOT
BRANCH   1   2
ATOM      2  C   UNL A   1      37.486  23.552  25.884  1.00  0.00     0.116 C 
BRANCH   2   3
ATOM      3  N   UNL A   1      37.138  23.452  24.479  1.00  0.00    -0.356 N 
ATOM      4  C   UNL A   1      36.005  23.056  23.851  1.00  0.00     0.225 C 
ATOM      5  O   UNL A   1      36.046  23.003  22.618  1.00  0.00    -0.275 OA
ATOM      6  H   UNL A   1      37.860  23.723  23.868  1.00  0.00     0.163 HD
BRANCH   4   7
ATOM      7  C   UNL A   1      34.710  22.742  24.570  1.00  0.00     0.107 C 
ATOM      8  N   UNL A   1      33.246  23.402  26.231  1.00  0.00    -0.337 N 
ATOM      9  C   UNL A   1      34.176  23.972  25.282  1.00  0.00     0.134 C 
ATOM     10  C   UNL A   1      33.778  22.156  26.747  1.00  0.00     0.129 C 
ATOM     11  C   UNL A   1      34.692  21.597  25.622  1.00  0.00     0.053 C 
BRANCH   8  12
ATOM     12  C   UNL A   1      32.039  23.900  26.681  1.00  0.00     0.253 C 
ATOM     13  O   UNL A   1      31.466  23.428  27.662  1.00  0.00    -0.269 OA
BRANCH  12  14
ATOM     14  C   UNL A   1      31.333  24.949  25.892  1.00  0.00     0.040 A 
ATOM     15  C   UNL A   1      30.295  26.904  24.174  1.00  0.00     0.067 A 
ATOM     16  C   UNL A   1      30.108  25.552  23.875  1.00  0.00     0.021 A 
ATOM     17  C   UNL A   1      30.988  27.285  25.325  1.00  0.00     0.021 A 
ATOM     18  C   UNL A   1      30.632  24.578  24.735  1.00  0.00     0.015 A 
ATOM     19  C   UNL A   1      31.521  26.311  26.168  1.00  0.00     0.015 A 
BRANCH  15  20
ATOM     20  S   UNL A   1      29.732  28.184  23.074  1.00  0.00     0.175 S 
ATOM     21  C   UNL A   1      30.229  29.721  23.800  1.00  0.00     0.163 C 
ATOM     22  O   UNL A   1      28.280  28.158  23.110  1.00  0.00    -0.224 OA
ATOM     23  O   UNL A   1      30.455  28.008  21.832  1.00  0.00    -0.224 OA
ENDBRANCH  15  20
ENDBRANCH  12  14
ENDBRANCH   8  12
BRANCH  11  24
ATOM     24  C   UNL A   1      34.344  20.245  25.006  1.00  0.00    -0.039 A 
ATOM     25  C   UNL A   1      33.077  20.072  24.424  1.00  0.00     0.024 A 
ATOM     26  C   UNL A   1      35.238  19.176  24.904  1.00  0.00     0.024 A 
ATOM     27  C   UNL A   1      32.765  18.870  23.802  1.00  0.00     0.111 A 
ATOM     28  C   UNL A   1      34.837  18.013  24.256  1.00  0.00     0.111 A 
ATOM     29  N   UNL A   1      33.621  17.837  23.704  1.00  0.00    -0.265 NA
ENDBRANCH  11  24
ENDBRANCH   4   7
ENDBRANCH   2   3
ENDBRANCH   1   2
BRANCH   1  30
ATOM     30  C   UNL A   1      38.890  21.418  25.620  1.00  0.00     0.023 C 
BRANCH  30  31
ATOM     31  C   UNL A   1      39.443  20.393  26.608  1.00  0.00     0.116 C 
BRANCH  31  32
ATOM     32  N   UNL A   1      40.489  19.556  26.039  1.00  0.00    -0.352 N 
ATOM     33  C   UNL A   1      41.821  19.856  25.881  1.00  0.00     0.251 C 
ATOM     34  H   UNL A   1      40.208  18.665  25.729  1.00  0.00     0.163 HD
ATOM     35  O   UNL A   1      42.571  19.090  25.287  1.00  0.00    -0.269 OA
BRANCH  33  36
ATOM     36  C   UNL A   1      42.325  21.139  26.403  1.00  0.00     0.039 A 
ATOM     37  C   UNL A   1      42.662  22.149  25.499  1.00  0.00     0.014 A 
ATOM     38  C   UNL A   1      42.394  21.360  27.781  1.00  0.00     0.014 A 
ATOM     39  C   UNL A   1      42.995  23.416  25.980  1.00  0.00     0.010 A 
ATOM     40  C   UNL A   1      42.671  22.637  28.256  1.00  0.00     0.010 A 
ATOM     41  C   UNL A   1      42.960  23.678  27.359  1.00  0.00    -0.014 A 
BRANCH  41  42
ATOM     42  C   UNL A   1      43.188  25.043  27.891  1.00  0.00     0.031 A 
ATOM     43  C   UNL A   1      44.562  25.460  28.327  1.00  0.00     0.074 A 
ATOM     44  C   UNL A   1      42.141  25.870  28.065  1.00  0.00     0.049 A 
ATOM     45  N   UNL A   1      44.940  26.568  28.913  1.00  0.00    -0.248 NA
ATOM     46  C   UNL A   1      45.650  24.497  28.096  1.00  0.00     0.031 C 
ATOM     47  C   UNL A   1      40.750  25.569  27.715  1.00  0.00     0.029 A 
ATOM     48  N   UNL A   1      42.082  27.134  28.598  1.00  0.00    -0.354 N 
ATOM     49  C   UNL A   1      46.303  26.426  29.139  1.00  0.00     0.074 A 
ATOM     50  C   UNL A   1      46.679  25.113  28.662  1.00  0.00     0.031 C 
ATOM     51  C   UNL A   1      39.980  26.623  28.027  1.00  0.00     0.029 A 
ATOM     52  C   UNL A   1      40.811  27.656  28.635  1.00  0.00     0.049 A 
ATOM     53  H   UNL A   1      42.874  27.620  28.922  1.00  0.00     0.167 HD
ATOM     54  C   UNL A   1      47.166  27.317  29.682  1.00  0.00     0.031 A 
ATOM     55  C   UNL A   1      40.365  28.831  29.117  1.00  0.00     0.031 A 
ATOM     56  C   UNL A   1      46.796  28.627  30.145  1.00  0.00     0.049 A 
ATOM     57  C   UNL A   1      41.340  29.794  29.733  1.00  0.00     0.074 A 
ATOM     58  C   UNL A   1      47.611  29.624  30.652  1.00  0.00     0.029 A 
ATOM     59  N   UNL A   1      45.501  29.120  30.158  1.00  0.00    -0.354 N 
ATOM     60  N   UNL A   1      42.637  29.670  29.882  1.00  0.00    -0.248 NA
ATOM     61  C   UNL A   1      40.791  31.057  30.241  1.00  0.00     0.031 C 
ATOM     62  C   UNL A   1      46.801  30.706  31.013  1.00  0.00     0.029 A 
ATOM     63  C   UNL A   1      45.490  30.399  30.689  1.00  0.00     0.049 A 
ATOM     64  H   UNL A   1      44.707  28.634  29.838  1.00  0.00     0.167 HD
ATOM     65  C   UNL A   1      43.060  30.847  30.484  1.00  0.00     0.074 A 
ATOM     66  C   UNL A   1      41.887  31.677  30.658  1.00  0.00     0.031 C 
ATOM     67  C   UNL A   1      44.312  31.208  30.858  1.00  0.00     0.031 A 
BRANCH  54  68
ATOM     68  C   UNL A   1      48.601  26.892  29.812  1.00  0.00    -0.014 A 
ATOM     69  C   UNL A   1      49.525  27.133  28.782  1.00  0.00     0.009 A 
ATOM     70  C   UNL A   1      49.041  26.269  30.990  1.00  0.00     0.009 A 
ATOM     71  C   UNL A   1      50.854  26.727  28.916  1.00  0.00     0.001 A 
ATOM     72  C   UNL A   1      50.377  25.887  31.130  1.00  0.00     0.001 A 
ATOM     73  C   UNL A   1      51.279  26.108  30.091  1.00  0.00     0.000 A 
ENDBRANCH  54  68
BRANCH  55  74
ATOM     74  C   UNL A   1      38.921  29.167  29.034  1.00  0.00    -0.014 A 
ATOM     75  C   UNL A   1      38.088  28.994  30.150  1.00  0.00     0.009 A 
ATOM     76  C   UNL A   1      38.367  29.659  27.842  1.00  0.00     0.009 A 
ATOM     77  C   UNL A   1      36.725  29.284  30.066  1.00  0.00     0.001 A 
ATOM     78  C   UNL A   1      37.009  29.972  27.770  1.00  0.00     0.001 A 
ATOM     79  C   UNL A   1      36.187  29.778  28.879  1.00  0.00     0.000 A 
ENDBRANCH  55  74
BRANCH  67  80
ATOM     80  C   UNL A   1      44.477  32.568  31.471  1.00  0.00    -0.014 A 
ATOM     81  C   UNL A   1      44.689  33.701  30.671  1.00  0.00     0.009 A 
ATOM     82  C   UNL A   1      44.372  32.723  32.861  1.00  0.00     0.009 A 
ATOM     83  C   UNL A   1      44.819  34.962  31.257  1.00  0.00     0.001 A 
ATOM     84  C   UNL A   1      44.477  33.987  33.442  1.00  0.00     0.001 A 
ATOM     85  C   UNL A   1      44.706  35.104  32.641  1.00  0.00     0.000 A 
ENDBRANCH  67  80
ENDBRANCH  41  42
ENDBRANCH  33  36
ENDBRANCH  31  32
ENDBRANCH  30  31
ENDBRANCH   1  30
TORSDOF 15
ENDMDL
MODEL 3
REMARK VINA RESULT:     -12.5      0.892      5.777
REMARK SMILES CS(=O)(=O)c1ccc(C(=O)N2C[C@@H](C(=O)NCCCCNC(=O)c3ccc(-c4c5nc(c(-c6ccccc6)c6ccc([nH]6)c(-c6ccccc6)c6nc(c(-c7ccccc7)c7ccc4[nH]7)C=C6)C=C5)cc3)[C@H](c3ccncc3)C2)cc1
REMARK SMILES IDX 18 1 17 2 16 3 14 4 15 5 13 7 11 8 12 9 79 10 72 11 9 12
REMARK SMILES IDX 10 13 8 14 5 15 6 16 81 17 7 18 80 19 2 20 1 21 3 22 4 23
REMARK SMILES IDX 73 24 74 25 78 26 75 27 77 28 76 29 19 30 20 31 21 32 22 33
REMARK SMILES IDX 23 35 24 36 25 37 71 38 26 39 70 40 27 41 28 42 29 43 64 44
REMARK SMILES IDX 30 45 69 46 63 47 65 48 31 49 68 50 62 51 61 52 32 54 54 55
REMARK SMILES IDX 39 56 53 57 40 58 43 59 52 60 66 61 41 62 42 63 51 65 67 66
REMARK SMILES IDX 44 67 33 68 34 69 38 70 35 71 37 72 36 73 55 74 56 75 60 76
REMARK SMILES IDX 57 77 59 78 58 79 45 80 46 81 50 82 47 83 49 84 48 85
REMARK H PARENT 16 6 21 34 65 53 43 64
REMARK Flexibility Score: inf
ROOT
ATOM      1  C   UNL A   1      31.398  30.804  25.872  1.00  0.00     0.023 C 
ENDROOT
BRANCH   1   2
ATOM      2  C   UNL A   1      32.723  30.100  26.171  1.00  0.00     0.116 C 
BRANCH   2   3
ATOM      3  N   UNL A   1      33.404  29.759  24.936  1.00  0.00    -0.356 N 
ATOM      4  C   UNL A   1      33.231  28.747  24.054  1.00  0.00     0.225 C 
ATOM      5  O   UNL A   1      34.038  28.682  23.121  1.00  0.00    -0.275 OA
ATOM      6  H   UNL A   1      34.127  30.382  24.694  1.00  0.00     0.163 HD
BRANCH   4   7
ATOM      7  C   UNL A   1      32.089  27.755  24.123  1.00  0.00     0.107 C 
ATOM      8  N   UNL A   1      31.513  25.521  24.252  1.00  0.00    -0.337 N 
ATOM      9  C   UNL A   1      32.566  26.421  24.669  1.00  0.00     0.134 C 
ATOM     10  C   UNL A   1      31.040  25.900  22.935  1.00  0.00     0.129 C 
ATOM     11  C   UNL A   1      31.296  27.429  22.826  1.00  0.00     0.053 C 
BRANCH   8  12
ATOM     12  C   UNL A   1      30.994  24.420  24.905  1.00  0.00     0.253 C 
ATOM     13  O   UNL A   1      30.098  24.524  25.742  1.00  0.00    -0.269 OA
BRANCH  12  14
ATOM     14  C   UNL A   1      31.613  23.080  24.701  1.00  0.00     0.040 A 
ATOM     15  C   UNL A   1      32.429  20.428  24.314  1.00  0.00     0.067 A 
ATOM     16  C   UNL A   1      32.037  21.197  23.216  1.00  0.00     0.021 A 
ATOM     17  C   UNL A   1      32.424  20.975  25.599  1.00  0.00     0.021 A 
ATOM     18  C   UNL A   1      31.626  22.523  23.415  1.00  0.00     0.015 A 
ATOM     19  C   UNL A   1      31.999  22.288  25.793  1.00  0.00     0.015 A 
BRANCH  15  20
ATOM     20  S   UNL A   1      32.873  18.715  24.136  1.00  0.00     0.175 S 
ATOM     21  C   UNL A   1      32.443  18.256  22.480  1.00  0.00     0.163 C 
ATOM     22  O   UNL A   1      31.997  17.962  25.017  1.00  0.00    -0.224 OA
ATOM     23  O   UNL A   1      34.313  18.646  24.272  1.00  0.00    -0.224 OA
ENDBRANCH  15  20
ENDBRANCH  12  14
ENDBRANCH   8  12
BRANCH  11  24
ATOM     24  C   UNL A   1      30.101  28.354  22.624  1.00  0.00    -0.039 A 
ATOM     25  C   UNL A   1      28.834  27.929  23.058  1.00  0.00     0.024 A 
ATOM     26  C   UNL A   1      30.189  29.649  22.107  1.00  0.00     0.024 A 
ATOM     27  C   UNL A   1      27.745  28.783  22.942  1.00  0.00     0.111 A 
ATOM     28  C   UNL A   1      29.044  30.433  22.035  1.00  0.00     0.111 A 
ATOM     29  N   UNL A   1      27.824  30.029  22.442  1.00  0.00    -0.265 NA
ENDBRANCH  11  24
ENDBRANCH   4   7
ENDBRANCH   2   3
ENDBRANCH   1   2
BRANCH   1  30
ATOM     30  C   UNL A   1      31.267  32.186  26.523  1.00  0.00     0.023 C 
BRANCH  30  31
ATOM     31  C   UNL A   1      32.591  32.844  26.907  1.00  0.00     0.116 C 
BRANCH  31  32
ATOM     32  N   UNL A   1      32.420  34.072  27.668  1.00  0.00    -0.352 N 
ATOM     33  C   UNL A   1      33.188  34.537  28.709  1.00  0.00     0.251 C 
ATOM     34  H   UNL A   1      31.662  34.641  27.403  1.00  0.00     0.163 HD
ATOM     35  O   UNL A   1      32.864  35.544  29.328  1.00  0.00    -0.269 OA
BRANCH  33  36
ATOM     36  C   UNL A   1      34.389  33.777  29.098  1.00  0.00     0.039 A 
ATOM     37  C   UNL A   1      35.645  34.270  28.739  1.00  0.00     0.014 A 
ATOM     38  C   UNL A   1      34.270  32.621  29.874  1.00  0.00     0.014 A 
ATOM     39  C   UNL A   1      36.793  33.645  29.229  1.00  0.00     0.010 A 
ATOM     40  C   UNL A   1      35.412  32.033  30.405  1.00  0.00     0.010 A 
ATOM     41  C   UNL A   1      36.682  32.548  30.099  1.00  0.00    -0.014 A 
BRANCH  41  42
ATOM     42  C   UNL A   1      37.876  31.940  30.731  1.00  0.00     0.031 A 
ATOM     43  C   UNL A   1      38.644  30.869  30.014  1.00  0.00     0.074 A 
ATOM     44  C   UNL A   1      38.213  32.291  31.986  1.00  0.00     0.049 A 
ATOM     45  N   UNL A   1      39.647  30.145  30.443  1.00  0.00    -0.248 NA
ATOM     46  C   UNL A   1      38.213  30.551  28.644  1.00  0.00     0.031 C 
ATOM     47  C   UNL A   1      37.525  33.294  32.803  1.00  0.00     0.029 A 
ATOM     48  N   UNL A   1      39.213  31.828  32.804  1.00  0.00    -0.354 N 
ATOM     49  C   UNL A   1      39.953  29.275  29.406  1.00  0.00     0.074 A 
ATOM     50  C   UNL A   1      39.007  29.533  28.341  1.00  0.00     0.031 C 
ATOM     51  C   UNL A   1      38.133  33.381  33.997  1.00  0.00     0.029 A 
ATOM     52  C   UNL A   1      39.225  32.416  34.046  1.00  0.00     0.049 A 
ATOM     53  H   UNL A   1      39.862  31.140  32.526  1.00  0.00     0.167 HD
ATOM     54  C   UNL A   1      40.942  28.353  29.340  1.00  0.00     0.031 A 
ATOM     55  C   UNL A   1      40.019  32.191  35.110  1.00  0.00     0.031 A 
ATOM     56  C   UNL A   1      41.890  28.105  30.392  1.00  0.00     0.049 A 
ATOM     57  C   UNL A   1      41.097  31.149  35.017  1.00  0.00     0.074 A 
ATOM     58  C   UNL A   1      42.967  27.235  30.393  1.00  0.00     0.029 A 
ATOM     59  N   UNL A   1      41.872  28.726  31.631  1.00  0.00    -0.354 N 
ATOM     60  N   UNL A   1      41.413  30.376  34.006  1.00  0.00    -0.248 NA
ATOM     61  C   UNL A   1      41.929  30.951  36.212  1.00  0.00     0.031 C 
ATOM     62  C   UNL A   1      43.575  27.299  31.652  1.00  0.00     0.029 A 
ATOM     63  C   UNL A   1      42.904  28.239  32.416  1.00  0.00     0.049 A 
ATOM     64  H   UNL A   1      41.222  29.409  31.911  1.00  0.00     0.167 HD
ATOM     65  C   UNL A   1      42.491  29.616  34.435  1.00  0.00     0.074 A 
ATOM     66  C   UNL A   1      42.785  30.029  35.792  1.00  0.00     0.031 C 
ATOM     67  C   UNL A   1      43.178  28.659  33.764  1.00  0.00     0.031 A 
BRANCH  54  68
ATOM     68  C   UNL A   1      41.039  27.537  28.083  1.00  0.00    -0.014 A 
ATOM     69  C   UNL A   1      40.369  26.309  27.961  1.00  0.00     0.009 A 
ATOM     70  C   UNL A   1      41.786  28.016  26.995  1.00  0.00     0.009 A 
ATOM     71  C   UNL A   1      40.475  25.560  26.787  1.00  0.00     0.001 A 
ATOM     72  C   UNL A   1      41.868  27.276  25.814  1.00  0.00     0.001 A 
ATOM     73  C   UNL A   1      41.221  26.046  25.714  1.00  0.00     0.000 A 
ENDBRANCH  54  68
BRANCH  55  74
ATOM     74  C   UNL A   1      39.828  32.973  36.357  1.00  0.00    -0.014 A 
ATOM     75  C   UNL A   1      38.877  32.571  37.306  1.00  0.00     0.009 A 
ATOM     76  C   UNL A   1      40.591  34.125  36.604  1.00  0.00     0.009 A 
ATOM     77  C   UNL A   1      38.677  33.320  38.468  1.00  0.00     0.001 A 
ATOM     78  C   UNL A   1      40.406  34.857  37.778  1.00  0.00     0.001 A 
ATOM     79  C   UNL A   1      39.445  34.459  38.705  1.00  0.00     0.000 A 
ENDBRANCH  55  74
BRANCH  67  80
ATOM     80  C   UNL A   1      44.328  28.013  34.480  1.00  0.00    -0.014 A 
ATOM     81  C   UNL A   1      44.150  26.836  35.223  1.00  0.00     0.009 A 
ATOM     82  C   UNL A   1      45.614  28.563  34.369  1.00  0.00     0.009 A 
ATOM     83  C   UNL A   1      45.235  26.237  35.864  1.00  0.00     0.001 A 
ATOM     84  C   UNL A   1      46.702  27.948  34.990  1.00  0.00     0.001 A 
ATOM     85  C   UNL A   1      46.511  26.789  35.742  1.00  0.00     0.000 A 
ENDBRANCH  67  80
ENDBRANCH  41  42
ENDBRANCH  33  36
ENDBRANCH  31  32
ENDBRANCH  30  31
ENDBRANCH   1  30
TORSDOF 15
ENDMDL
