MODEL 1
REMARK VINA RESULT:     -11.3      0.000      0.000
REMARK SMILES O=C(NCCCCNC(=O)[C@@H]1CCC[N@@H+](Cc2ccc(F)cc2Cl)C1)c1ccc(-c2c3nc(c(-c4ccccc4)c4ccc([nH]4)c(-c4ccccc4)c4nc(c(-c5ccccc5)c5ccc2[nH]5)C=C4)C=C3)cc1
REMARK SMILES IDX 5 1 4 2 3 3 1 4 2 5 26 7 27 8 73 9 28 10 72 11 29 12 30 13
REMARK SMILES IDX 31 14 66 15 32 16 71 17 65 18 67 19 33 20 70 21 64 22 63 23
REMARK SMILES IDX 34 25 56 26 41 27 55 28 42 29 45 30 54 31 68 32 43 33 44 34
REMARK SMILES IDX 53 36 69 37 46 38 35 39 36 40 40 41 37 42 39 43 38 44 57 45
REMARK SMILES IDX 58 46 62 47 59 48 61 49 60 50 47 51 48 52 52 53 49 54 51 55
REMARK SMILES IDX 50 56 6 57 7 58 8 59 9 60 10 62 11 63 12 64 25 65 13 66
REMARK SMILES IDX 15 67 14 68 16 70 17 71 18 72 23 73 19 74 22 75 24 76 20 77
REMARK SMILES IDX 21 78
REMARK H PARENT 3 6 67 24 45 35 8 61 15 69
REMARK Flexibility Score: inf
ROOT
ATOM      1  C   UNL A   1      37.714  20.832  25.002  1.00  0.00     0.023 C 
ENDROOT
BRANCH   1   2
ATOM      2  C   UNL A   1      38.990  20.951  25.824  1.00  0.00     0.116 C 
BRANCH   2   3
ATOM      3  N   UNL A   1      39.902  19.821  25.701  1.00  0.00    -0.352 N 
ATOM      4  O   UNL A   1      41.923  18.792  25.853  1.00  0.00    -0.269 OA
ATOM      5  C   UNL A   1      41.238  19.786  26.044  1.00  0.00     0.251 C 
ATOM      6  H   UNL A   1      39.523  18.990  25.332  1.00  0.00     0.163 HD
BRANCH   5   7
ATOM      7  C   UNL A   1      41.834  21.015  26.604  1.00  0.00     0.039 A 
ATOM      8  C   UNL A   1      41.825  21.218  27.985  1.00  0.00     0.014 A 
ATOM      9  C   UNL A   1      42.278  22.013  25.735  1.00  0.00     0.014 A 
ATOM     10  C   UNL A   1      42.100  22.481  28.486  1.00  0.00     0.010 A 
ATOM     11  C   UNL A   1      42.639  23.259  26.251  1.00  0.00     0.010 A 
ATOM     12  C   UNL A   1      42.509  23.516  27.626  1.00  0.00    -0.014 A 
BRANCH  12  13
ATOM     13  C   UNL A   1      42.827  24.845  28.200  1.00  0.00     0.031 A 
ATOM     14  C   UNL A   1      44.241  25.240  28.524  1.00  0.00     0.074 A 
ATOM     15  C   UNL A   1      41.820  25.720  28.379  1.00  0.00     0.049 A 
ATOM     16  N   UNL A   1      44.684  26.373  29.010  1.00  0.00    -0.248 NA
ATOM     17  C   UNL A   1      45.293  24.241  28.277  1.00  0.00     0.031 C 
ATOM     18  C   UNL A   1      40.408  25.450  28.090  1.00  0.00     0.029 A 
ATOM     19  N   UNL A   1      41.829  27.020  28.811  1.00  0.00    -0.354 N 
ATOM     20  C   UNL A   1      46.058  26.216  29.152  1.00  0.00     0.074 A 
ATOM     21  C   UNL A   1      46.375  24.874  28.712  1.00  0.00     0.031 C 
ATOM     22  C   UNL A   1      39.698  26.569  28.293  1.00  0.00     0.029 A 
ATOM     23  C   UNL A   1      40.589  27.608  28.792  1.00  0.00     0.049 A 
ATOM     24  H   UNL A   1      42.644  27.486  29.106  1.00  0.00     0.167 HD
ATOM     25  C   UNL A   1      46.968  27.110  29.607  1.00  0.00     0.031 A 
ATOM     26  C   UNL A   1      40.204  28.845  29.151  1.00  0.00     0.031 A 
ATOM     27  C   UNL A   1      46.650  28.447  30.036  1.00  0.00     0.049 A 
ATOM     28  C   UNL A   1      41.229  29.804  29.671  1.00  0.00     0.074 A 
ATOM     29  C   UNL A   1      47.506  29.432  30.501  1.00  0.00     0.029 A 
ATOM     30  N   UNL A   1      45.374  28.989  30.048  1.00  0.00    -0.354 N 
ATOM     31  N   UNL A   1      42.522  29.636  29.801  1.00  0.00    -0.248 NA
ATOM     32  C   UNL A   1      40.740  31.120  30.102  1.00  0.00     0.031 C 
ATOM     33  C   UNL A   1      46.741  30.558  30.830  1.00  0.00     0.029 A 
ATOM     34  C   UNL A   1      45.417  30.288  30.529  1.00  0.00     0.049 A 
ATOM     35  H   UNL A   1      44.559  28.521  29.757  1.00  0.00     0.167 HD
ATOM     36  C   UNL A   1      43.004  30.826  30.327  1.00  0.00     0.074 A 
ATOM     37  C   UNL A   1      41.868  31.714  30.465  1.00  0.00     0.031 C 
ATOM     38  C   UNL A   1      44.273  31.150  30.672  1.00  0.00     0.031 A 
BRANCH  25  39
ATOM     39  C   UNL A   1      48.401  26.662  29.696  1.00  0.00    -0.014 A 
ATOM     40  C   UNL A   1      48.882  25.972  30.818  1.00  0.00     0.009 A 
ATOM     41  C   UNL A   1      49.267  26.888  28.615  1.00  0.00     0.009 A 
ATOM     42  C   UNL A   1      50.208  25.537  30.866  1.00  0.00     0.001 A 
ATOM     43  C   UNL A   1      50.587  26.434  28.655  1.00  0.00     0.001 A 
ATOM     44  C   UNL A   1      51.058  25.764  29.783  1.00  0.00     0.000 A 
ENDBRANCH  25  39
BRANCH  26  45
ATOM     45  C   UNL A   1      38.774  29.226  29.045  1.00  0.00    -0.014 A 
ATOM     46  C   UNL A   1      38.243  29.671  27.827  1.00  0.00     0.009 A 
ATOM     47  C   UNL A   1      37.926  29.109  30.158  1.00  0.00     0.009 A 
ATOM     48  C   UNL A   1      36.890  30.006  27.729  1.00  0.00     0.001 A 
ATOM     49  C   UNL A   1      36.569  29.417  30.049  1.00  0.00     0.001 A 
ATOM     50  C   UNL A   1      36.054  29.871  28.836  1.00  0.00     0.000 A 
ENDBRANCH  26  45
BRANCH  38  51
ATOM     51  C   UNL A   1      44.490  32.530  31.218  1.00  0.00    -0.014 A 
ATOM     52  C   UNL A   1      44.775  33.607  30.364  1.00  0.00     0.009 A 
ATOM     53  C   UNL A   1      44.398  32.756  32.599  1.00  0.00     0.009 A 
ATOM     54  C   UNL A   1      44.998  34.880  30.889  1.00  0.00     0.001 A 
ATOM     55  C   UNL A   1      44.600  34.035  33.118  1.00  0.00     0.001 A 
ATOM     56  C   UNL A   1      44.909  35.093  32.265  1.00  0.00     0.000 A 
ENDBRANCH  38  51
ENDBRANCH  12  13
ENDBRANCH   5   7
ENDBRANCH   2   3
ENDBRANCH   1   2
BRANCH   1  57
ATOM     57  C   UNL A   1      37.172  22.141  24.439  1.00  0.00     0.023 C 
BRANCH  57  58
ATOM     58  C   UNL A   1      37.006  23.257  25.464  1.00  0.00     0.116 C 
BRANCH  58  59
ATOM     59  N   UNL A   1      36.118  22.923  26.548  1.00  0.00    -0.356 N 
ATOM     60  C   UNL A   1      34.769  23.048  26.640  1.00  0.00     0.228 C 
ATOM     61  H   UNL A   1      36.556  22.545  27.344  1.00  0.00     0.163 HD
ATOM     62  O   UNL A   1      34.247  22.616  27.675  1.00  0.00    -0.275 OA
BRANCH  60  63
ATOM     63  C   UNL A   1      33.893  23.734  25.584  1.00  0.00     0.133 C 
ATOM     64  C   UNL A   1      32.667  24.521  26.063  1.00  0.00     0.025 C 
ATOM     65  C   UNL A   1      33.638  22.831  24.379  1.00  0.00     0.276 C 
ATOM     66  C   UNL A   1      31.289  23.913  25.769  1.00  0.00     0.062 C 
ATOM     67  N   UNL A   1      32.402  22.062  24.505  1.00  0.00    -0.330 N 
ATOM     68  C   UNL A   1      31.233  22.938  24.593  1.00  0.00     0.262 C 
ATOM     69  H   UNL A   1      32.441  21.561  25.393  1.00  0.00     0.348 HD
BRANCH  67  70
ATOM     70  C   UNL A   1      32.288  20.988  23.494  1.00  0.00     0.300 C 
BRANCH  70  71
ATOM     71  C   UNL A   1      32.460  19.569  24.001  1.00  0.00     0.025 A 
ATOM     72  C   UNL A   1      32.595  19.348  25.387  1.00  0.00     0.014 A 
ATOM     73  C   UNL A   1      32.566  18.464  23.135  1.00  0.00     0.052 A 
ATOM     74  C   UNL A   1      32.901  18.080  25.880  1.00  0.00     0.040 A 
ATOM     75  C   UNL A   1      32.861  17.194  23.633  1.00  0.00     0.060 A 
ATOM     76  Cl  UNL A   1      32.363  18.603  21.424  1.00  0.00    -0.084 Cl
ATOM     77  C   UNL A   1      33.043  17.019  24.997  1.00  0.00     0.124 A 
ATOM     78  F   UNL A   1      33.364  15.808  25.470  1.00  0.00    -0.207 F 
ENDBRANCH  70  71
ENDBRANCH  67  70
ENDBRANCH  60  63
ENDBRANCH  58  59
ENDBRANCH  57  58
ENDBRANCH   1  57
TORSDOF 13
ENDMDL
MODEL 2
REMARK VINA RESULT:     -11.3      4.974      9.550
REMARK SMILES O=C(NCCCCNC(=O)[C@@H]1CCC[N@@H+](Cc2ccc(F)cc2Cl)C1)c1ccc(-c2c3nc(c(-c4ccccc4)c4ccc([nH]4)c(-c4ccccc4)c4nc(c(-c5ccccc5)c5ccc2[nH]5)C=C4)C=C3)cc1
REMARK SMILES IDX 5 1 4 2 3 3 1 4 2 5 26 7 27 8 73 9 28 10 72 11 29 12 30 13
REMARK SMILES IDX 31 14 66 15 32 16 71 17 65 18 67 19 33 20 70 21 64 22 63 23
REMARK SMILES IDX 34 25 56 26 41 27 55 28 42 29 45 30 54 31 68 32 43 33 44 34
REMARK SMILES IDX 53 36 69 37 46 38 35 39 36 40 40 41 37 42 39 43 38 44 57 45
REMARK SMILES IDX 58 46 62 47 59 48 61 49 60 50 47 51 48 52 52 53 49 54 51 55
REMARK SMILES IDX 50 56 6 57 7 58 8 59 9 60 10 62 11 63 12 64 25 65 13 66
REMARK SMILES IDX 15 67 14 68 16 70 17 71 18 72 23 73 19 74 22 75 24 76 20 77
REMARK SMILES IDX 21 78
REMARK H PARENT 3 6 67 24 45 35 8 61 15 69
REMARK Flexibility Score: inf
ROOT
ATOM      1  C   UNL A   1      32.019  31.390  26.870  1.00  0.00     0.023 C 
ENDROOT
BRANCH   1   2
ATOM      2  C   UNL A   1      33.100  32.358  27.331  1.00  0.00     0.116 C 
BRANCH   2   3
ATOM      3  N   UNL A   1      32.613  33.676  27.718  1.00  0.00    -0.352 N 
ATOM      4  O   UNL A   1      32.674  35.618  28.896  1.00  0.00    -0.269 OA
ATOM      5  C   UNL A   1      33.197  34.552  28.609  1.00  0.00     0.251 C 
ATOM      6  H   UNL A   1      31.775  33.974  27.296  1.00  0.00     0.163 HD
BRANCH   5   7
ATOM      7  C   UNL A   1      34.459  34.136  29.253  1.00  0.00     0.039 A 
ATOM      8  C   UNL A   1      35.673  34.373  28.609  1.00  0.00     0.014 A 
ATOM      9  C   UNL A   1      34.406  33.393  30.434  1.00  0.00     0.014 A 
ATOM     10  C   UNL A   1      36.815  33.724  29.054  1.00  0.00     0.010 A 
ATOM     11  C   UNL A   1      35.575  32.812  30.930  1.00  0.00     0.010 A 
ATOM     12  C   UNL A   1      36.779  32.936  30.218  1.00  0.00    -0.014 A 
BRANCH  12  13
ATOM     13  C   UNL A   1      38.026  32.284  30.683  1.00  0.00     0.031 A 
ATOM     14  C   UNL A   1      38.536  31.022  30.043  1.00  0.00     0.074 A 
ATOM     15  C   UNL A   1      38.729  32.877  31.666  1.00  0.00     0.049 A 
ATOM     16  N   UNL A   1      39.621  30.343  30.320  1.00  0.00    -0.248 NA
ATOM     17  C   UNL A   1      37.729  30.445  28.956  1.00  0.00     0.031 C 
ATOM     18  C   UNL A   1      38.337  34.110  32.355  1.00  0.00     0.029 A 
ATOM     19  N   UNL A   1      39.932  32.548  32.232  1.00  0.00    -0.354 N 
ATOM     20  C   UNL A   1      39.614  29.247  29.465  1.00  0.00     0.074 A 
ATOM     21  C   UNL A   1      38.412  29.345  28.665  1.00  0.00     0.031 C 
ATOM     22  C   UNL A   1      39.310  34.465  33.206  1.00  0.00     0.029 A 
ATOM     23  C   UNL A   1      40.357  33.452  33.172  1.00  0.00     0.049 A 
ATOM     24  H   UNL A   1      40.441  31.741  31.988  1.00  0.00     0.167 HD
ATOM     25  C   UNL A   1      40.528  28.253  29.358  1.00  0.00     0.031 A 
ATOM     26  C   UNL A   1      41.461  33.462  33.938  1.00  0.00     0.031 A 
ATOM     27  C   UNL A   1      41.728  28.164  30.150  1.00  0.00     0.049 A 
ATOM     28  C   UNL A   1      42.443  32.338  33.814  1.00  0.00     0.074 A 
ATOM     29  C   UNL A   1      42.723  27.200  30.104  1.00  0.00     0.029 A 
ATOM     30  N   UNL A   1      42.099  29.074  31.127  1.00  0.00    -0.354 N 
ATOM     31  N   UNL A   1      42.418  31.310  33.002  1.00  0.00    -0.248 NA
ATOM     32  C   UNL A   1      43.600  32.372  34.717  1.00  0.00     0.031 C 
ATOM     33  C   UNL A   1      43.676  27.509  31.082  1.00  0.00     0.029 A 
ATOM     34  C   UNL A   1      43.297  28.687  31.704  1.00  0.00     0.049 A 
ATOM     35  H   UNL A   1      41.587  29.878  31.373  1.00  0.00     0.167 HD
ATOM     36  C   UNL A   1      43.556  30.573  33.294  1.00  0.00     0.074 A 
ATOM     37  C   UNL A   1      44.263  31.288  34.338  1.00  0.00     0.031 C 
ATOM     38  C   UNL A   1      43.975  29.405  32.751  1.00  0.00     0.031 A 
BRANCH  25  39
ATOM     39  C   UNL A   1      40.254  27.157  28.366  1.00  0.00    -0.014 A 
ATOM     40  C   UNL A   1      40.780  27.201  27.066  1.00  0.00     0.009 A 
ATOM     41  C   UNL A   1      39.502  26.038  28.757  1.00  0.00     0.009 A 
ATOM     42  C   UNL A   1      40.538  26.157  26.170  1.00  0.00     0.001 A 
ATOM     43  C   UNL A   1      39.280  24.986  27.867  1.00  0.00     0.001 A 
ATOM     44  C   UNL A   1      39.793  25.049  26.572  1.00  0.00     0.000 A 
ENDBRANCH  25  39
BRANCH  26  45
ATOM     45  C   UNL A   1      41.674  34.569  34.903  1.00  0.00    -0.014 A 
ATOM     46  C   UNL A   1      41.169  34.484  36.207  1.00  0.00     0.009 A 
ATOM     47  C   UNL A   1      42.415  35.701  34.530  1.00  0.00     0.009 A 
ATOM     48  C   UNL A   1      41.393  35.520  37.118  1.00  0.00     0.001 A 
ATOM     49  C   UNL A   1      42.662  36.720  35.450  1.00  0.00     0.001 A 
ATOM     50  C   UNL A   1      42.144  36.632  36.741  1.00  0.00     0.000 A 
ENDBRANCH  26  45
BRANCH  38  51
ATOM     51  C   UNL A   1      45.264  28.844  33.275  1.00  0.00    -0.014 A 
ATOM     52  C   UNL A   1      46.492  29.198  32.696  1.00  0.00     0.009 A 
ATOM     53  C   UNL A   1      45.249  27.960  34.363  1.00  0.00     0.009 A 
ATOM     54  C   UNL A   1      47.681  28.650  33.178  1.00  0.00     0.001 A 
ATOM     55  C   UNL A   1      46.441  27.431  34.857  1.00  0.00     0.001 A 
ATOM     56  C   UNL A   1      47.655  27.768  34.259  1.00  0.00     0.000 A 
ENDBRANCH  38  51
ENDBRANCH  12  13
ENDBRANCH   5   7
ENDBRANCH   2   3
ENDBRANCH   1   2
BRANCH   1  57
ATOM     57  C   UNL A   1      32.288  29.919  27.167  1.00  0.00     0.023 C 
BRANCH  57  58
ATOM     58  C   UNL A   1      33.714  29.460  26.886  1.00  0.00     0.116 C 
BRANCH  58  59
ATOM     59  N   UNL A   1      34.010  29.308  25.485  1.00  0.00    -0.356 N 
ATOM     60  C   UNL A   1      33.713  28.290  24.636  1.00  0.00     0.228 C 
ATOM     61  H   UNL A   1      34.503  30.057  25.079  1.00  0.00     0.163 HD
ATOM     62  O   UNL A   1      34.033  28.451  23.452  1.00  0.00    -0.275 OA
BRANCH  60  63
ATOM     63  C   UNL A   1      33.075  26.965  25.070  1.00  0.00     0.133 C 
ATOM     64  C   UNL A   1      33.646  25.664  24.492  1.00  0.00     0.025 C 
ATOM     65  C   UNL A   1      31.550  27.040  25.080  1.00  0.00     0.276 C 
ATOM     66  C   UNL A   1      32.781  24.915  23.470  1.00  0.00     0.062 C 
ATOM     67  N   UNL A   1      30.958  26.594  23.821  1.00  0.00    -0.330 N 
ATOM     68  C   UNL A   1      31.279  25.193  23.544  1.00  0.00     0.262 C 
ATOM     69  H   UNL A   1      31.392  27.131  23.070  1.00  0.00     0.348 HD
BRANCH  67  70
ATOM     70  C   UNL A   1      29.520  26.924  23.712  1.00  0.00     0.300 C 
BRANCH  70  71
ATOM     71  C   UNL A   1      29.181  28.207  22.977  1.00  0.00     0.025 A 
ATOM     72  C   UNL A   1      30.200  28.888  22.281  1.00  0.00     0.014 A 
ATOM     73  C   UNL A   1      27.900  28.789  23.024  1.00  0.00     0.052 A 
ATOM     74  C   UNL A   1      29.964  30.141  21.718  1.00  0.00     0.040 A 
ATOM     75  C   UNL A   1      27.664  30.039  22.448  1.00  0.00     0.060 A 
ATOM     76  Cl  UNL A   1      26.559  28.021  23.798  1.00  0.00    -0.084 Cl
ATOM     77  C   UNL A   1      28.702  30.709  21.818  1.00  0.00     0.124 A 
ATOM     78  F   UNL A   1      28.484  31.925  21.301  1.00  0.00    -0.207 F 
ENDBRANCH  70  71
ENDBRANCH  67  70
ENDBRANCH  60  63
ENDBRANCH  58  59
ENDBRANCH  57  58
ENDBRANCH   1  57
TORSDOF 13
ENDMDL
MODEL 3
REMARK VINA RESULT:     -11.3      5.440      9.886
REMARK SMILES O=C(NCCCCNC(=O)[C@@H]1CCC[N@@H+](Cc2ccc(F)cc2Cl)C1)c1ccc(-c2c3nc(c(-c4ccccc4)c4ccc([nH]4)c(-c4ccccc4)c4nc(c(-c5ccccc5)c5ccc2[nH]5)C=C4)C=C3)cc1
REMARK SMILES IDX 5 1 4 2 3 3 1 4 2 5 26 7 27 8 73 9 28 10 72 11 29 12 30 13
REMARK SMILES IDX 31 14 66 15 32 16 71 17 65 18 67 19 33 20 70 21 64 22 63 23
REMARK SMILES IDX 34 25 56 26 41 27 55 28 42 29 45 30 54 31 68 32 43 33 44 34
REMARK SMILES IDX 53 36 69 37 46 38 35 39 36 40 40 41 37 42 39 43 38 44 57 45
REMARK SMILES IDX 58 46 62 47 59 48 61 49 60 50 47 51 48 52 52 53 49 54 51 55
REMARK SMILES IDX 50 56 6 57 7 58 8 59 9 60 10 62 11 63 12 64 25 65 13 66
REMARK SMILES IDX 15 67 14 68 16 70 17 71 18 72 23 73 19 74 22 75 24 76 20 77
REMARK SMILES IDX 21 78
REMARK H PARENT 3 6 67 24 45 35 8 61 15 69
REMARK Flexibility Score: inf
ROOT
ATOM      1  C   UNL A   1      31.404  32.034  26.816  1.00  0.00     0.023 C 
ENDROOT
BRANCH   1   2
ATOM      2  C   UNL A   1      32.628  32.937  26.876  1.00  0.00     0.116 C 
BRANCH   2   3
ATOM      3  N   UNL A   1      32.451  34.151  27.664  1.00  0.00    -0.352 N 
ATOM      4  O   UNL A   1      32.985  35.616  29.317  1.00  0.00    -0.269 OA
ATOM      5  C   UNL A   1      33.255  34.602  28.690  1.00  0.00     0.251 C 
ATOM      6  H   UNL A   1      31.673  34.710  27.438  1.00  0.00     0.163 HD
BRANCH   5   7
ATOM      7  C   UNL A   1      34.433  33.788  29.048  1.00  0.00     0.039 A 
ATOM      8  C   UNL A   1      34.264  32.618  29.790  1.00  0.00     0.014 A 
ATOM      9  C   UNL A   1      35.709  34.271  28.752  1.00  0.00     0.014 A 
ATOM     10  C   UNL A   1      35.369  32.025  30.381  1.00  0.00     0.010 A 
ATOM     11  C   UNL A   1      36.827  33.619  29.275  1.00  0.00     0.010 A 
ATOM     12  C   UNL A   1      36.662  32.517  30.131  1.00  0.00    -0.014 A 
BRANCH  12  13
ATOM     13  C   UNL A   1      37.823  31.837  30.753  1.00  0.00     0.031 A 
ATOM     14  C   UNL A   1      38.238  32.132  32.168  1.00  0.00     0.074 A 
ATOM     15  C   UNL A   1      38.474  30.902  30.036  1.00  0.00     0.049 A 
ATOM     16  N   UNL A   1      39.217  31.606  32.861  1.00  0.00    -0.248 NA
ATOM     17  C   UNL A   1      37.463  33.147  32.899  1.00  0.00     0.031 C 
ATOM     18  C   UNL A   1      38.153  30.525  28.656  1.00  0.00     0.029 A 
ATOM     19  N   UNL A   1      39.513  30.076  30.374  1.00  0.00    -0.354 N 
ATOM     20  C   UNL A   1      39.193  32.241  34.097  1.00  0.00     0.074 A 
ATOM     21  C   UNL A   1      38.111  33.201  34.056  1.00  0.00     0.031 C 
ATOM     22  C   UNL A   1      38.937  29.501  28.289  1.00  0.00     0.029 A 
ATOM     23  C   UNL A   1      39.857  29.199  29.377  1.00  0.00     0.049 A 
ATOM     24  H   UNL A   1      39.968  30.109  31.247  1.00  0.00     0.167 HD
ATOM     25  C   UNL A   1      40.001  32.040  35.167  1.00  0.00     0.031 A 
ATOM     26  C   UNL A   1      40.820  28.261  29.333  1.00  0.00     0.031 A 
ATOM     27  C   UNL A   1      41.072  31.077  35.206  1.00  0.00     0.049 A 
ATOM     28  C   UNL A   1      41.711  28.077  30.522  1.00  0.00     0.074 A 
ATOM     29  C   UNL A   1      41.937  30.791  36.250  1.00  0.00     0.029 A 
ATOM     30  N   UNL A   1      41.420  30.241  34.158  1.00  0.00    -0.354 N 
ATOM     31  N   UNL A   1      41.676  28.689  31.680  1.00  0.00    -0.248 NA
ATOM     32  C   UNL A   1      42.781  27.079  30.394  1.00  0.00     0.031 C 
ATOM     33  C   UNL A   1      42.833  29.807  35.817  1.00  0.00     0.029 A 
ATOM     34  C   UNL A   1      42.499  29.452  34.522  1.00  0.00     0.049 A 
ATOM     35  H   UNL A   1      40.968  30.212  33.284  1.00  0.00     0.167 HD
ATOM     36  C   UNL A   1      42.716  28.149  32.421  1.00  0.00     0.074 A 
ATOM     37  C   UNL A   1      43.345  27.142  31.592  1.00  0.00     0.031 C 
ATOM     38  C   UNL A   1      43.118  28.465  33.676  1.00  0.00     0.031 A 
BRANCH  25  39
ATOM     39  C   UNL A   1      39.779  32.900  36.379  1.00  0.00    -0.014 A 
ATOM     40  C   UNL A   1      40.453  34.120  36.542  1.00  0.00     0.009 A 
ATOM     41  C   UNL A   1      38.840  32.509  37.347  1.00  0.00     0.009 A 
ATOM     42  C   UNL A   1      40.208  34.919  37.661  1.00  0.00     0.001 A 
ATOM     43  C   UNL A   1      38.581  33.320  38.453  1.00  0.00     0.001 A 
ATOM     44  C   UNL A   1      39.269  34.521  38.613  1.00  0.00     0.000 A 
ENDBRANCH  25  39
BRANCH  26  45
ATOM     45  C   UNL A   1      40.992  27.447  28.105  1.00  0.00    -0.014 A 
ATOM     46  C   UNL A   1      40.333  26.217  27.967  1.00  0.00     0.009 A 
ATOM     47  C   UNL A   1      41.791  27.916  27.050  1.00  0.00     0.009 A 
ATOM     48  C   UNL A   1      40.482  25.466  26.798  1.00  0.00     0.001 A 
ATOM     49  C   UNL A   1      41.913  27.177  25.872  1.00  0.00     0.001 A 
ATOM     50  C   UNL A   1      41.265  25.950  25.751  1.00  0.00     0.000 A 
ENDBRANCH  26  45
BRANCH  38  51
ATOM     51  C   UNL A   1      44.287  27.698  34.220  1.00  0.00    -0.014 A 
ATOM     52  C   UNL A   1      45.599  28.163  34.045  1.00  0.00     0.009 A 
ATOM     53  C   UNL A   1      44.071  26.504  34.922  1.00  0.00     0.009 A 
ATOM     54  C   UNL A   1      46.678  27.427  34.534  1.00  0.00     0.001 A 
ATOM     55  C   UNL A   1      45.151  25.781  35.430  1.00  0.00     0.001 A 
ATOM     56  C   UNL A   1      46.453  26.238  35.229  1.00  0.00     0.000 A 
ENDBRANCH  38  51
ENDBRANCH  12  13
ENDBRANCH   5   7
ENDBRANCH   2   3
ENDBRANCH   1   2
BRANCH   1  57
ATOM     57  C   UNL A   1      31.694  30.537  26.811  1.00  0.00     0.023 C 
BRANCH  57  58
ATOM     58  C   UNL A   1      33.174  30.173  26.800  1.00  0.00     0.116 C 
BRANCH  58  59
ATOM     59  N   UNL A   1      33.650  29.712  25.521  1.00  0.00    -0.356 N 
ATOM     60  C   UNL A   1      33.493  28.507  24.915  1.00  0.00     0.228 C 
ATOM     61  H   UNL A   1      34.167  30.373  25.006  1.00  0.00     0.163 HD
ATOM     62  O   UNL A   1      33.956  28.403  23.772  1.00  0.00    -0.275 OA
BRANCH  60  63
ATOM     63  C   UNL A   1      32.846  27.286  25.579  1.00  0.00     0.133 C 
ATOM     64  C   UNL A   1      33.517  25.920  25.390  1.00  0.00     0.025 C 
ATOM     65  C   UNL A   1      31.329  27.278  25.405  1.00  0.00     0.276 C 
ATOM     66  C   UNL A   1      32.799  24.908  24.487  1.00  0.00     0.062 C 
ATOM     67  N   UNL A   1      30.902  26.520  24.231  1.00  0.00    -0.330 N 
ATOM     68  C   UNL A   1      31.292  25.112  24.331  1.00  0.00     0.262 C 
ATOM     69  H   UNL A   1      31.406  26.891  23.426  1.00  0.00     0.348 HD
BRANCH  67  70
ATOM     70  C   UNL A   1      29.478  26.737  23.893  1.00  0.00     0.300 C 
BRANCH  70  71
ATOM     71  C   UNL A   1      29.158  28.006  23.126  1.00  0.00     0.025 A 
ATOM     72  C   UNL A   1      30.195  28.677  22.447  1.00  0.00     0.014 A 
ATOM     73  C   UNL A   1      27.875  28.586  23.126  1.00  0.00     0.052 A 
ATOM     74  C   UNL A   1      29.972  29.920  21.856  1.00  0.00     0.040 A 
ATOM     75  C   UNL A   1      27.653  29.824  22.522  1.00  0.00     0.060 A 
ATOM     76  Cl  UNL A   1      26.514  27.828  23.876  1.00  0.00    -0.084 Cl
ATOM     77  C   UNL A   1      28.707  30.486  21.910  1.00  0.00     0.124 A 
ATOM     78  F   UNL A   1      28.502  31.692  21.366  1.00  0.00    -0.207 F 
ENDBRANCH  70  71
ENDBRANCH  67  70
ENDBRANCH  60  63
ENDBRANCH  58  59
ENDBRANCH  57  58
ENDBRANCH   1  57
TORSDOF 13
ENDMDL
