MODEL 1
REMARK VINA RESULT:     -12.4      0.000      0.000
REMARK SMILES CC[NH+]1CCC2(CC1)OC[C@@H](C(=O)NCCCCNC(=O)c1ccc(-c3c4nc(c(-c5ccccc5)c5ccc([nH]5)c(-c5ccccc5)c5nc(c(-c6ccccc6)c6ccc3[nH]6)C=C5)C=C4)cc1)N2C(=O)c1ccc(Cl)c([N+](=O)[O-])c1
REMARK SMILES IDX 16 1 15 2 14 3 12 4 13 5 11 7 3 8 4 9 8 10 5 12 7 13 6 14
REMARK SMILES IDX 9 15 70 16 10 17 2 18 1 19 71 20 72 21 73 22 74 23 82 24
REMARK SMILES IDX 75 25 78 26 76 27 77 28 79 29 80 30 81 31 17 32 18 33 19 34
REMARK SMILES IDX 20 35 21 37 22 38 23 39 69 40 24 41 68 42 25 43 26 44 27 45
REMARK SMILES IDX 62 46 28 47 67 48 61 49 63 50 29 51 66 52 60 53 59 54 30 56
REMARK SMILES IDX 52 57 37 58 51 59 38 60 41 61 50 62 64 63 39 64 40 65 49 67
REMARK SMILES IDX 65 68 42 69 31 70 32 71 36 72 33 73 35 74 34 75 53 76 54 77
REMARK SMILES IDX 58 78 55 79 57 80 56 81 43 82 44 83 48 84 45 85 47 86 46 87
REMARK H PARENT 14 6 3 11 19 36 63 55 41 66
REMARK Flexibility Score: inf
ROOT
ATOM      1  C   UNL A   1      36.508  20.571  25.001  1.00  0.00     0.023 C 
ENDROOT
BRANCH   1   2
ATOM      2  C   UNL A   1      36.664  21.933  25.655  1.00  0.00     0.116 C 
BRANCH   2   3
ATOM      3  N   UNL A   1      35.686  22.115  26.699  1.00  0.00    -0.354 N 
ATOM      4  C   UNL A   1      34.603  22.939  26.739  1.00  0.00     0.245 C 
ATOM      5  O   UNL A   1      33.852  22.816  27.713  1.00  0.00    -0.273 OA
ATOM      6  H   UNL A   1      35.821  21.561  27.502  1.00  0.00     0.163 HD
BRANCH   4   7
ATOM      7  C   UNL A   1      34.166  23.784  25.527  1.00  0.00     0.203 C 
ATOM      8  N   UNL A   1      30.520  26.577  23.231  1.00  0.00    -0.335 N 
ATOM      9  C   UNL A   1      31.618  25.806  22.652  1.00  0.00     0.267 C 
ATOM     10  C   UNL A   1      30.438  26.667  24.682  1.00  0.00     0.267 C 
ATOM     11  H   UNL A   1      29.721  25.973  23.039  1.00  0.00     0.348 HD
ATOM     12  C   UNL A   1      32.928  25.856  23.407  1.00  0.00     0.120 C 
ATOM     13  C   UNL A   1      31.728  26.586  25.474  1.00  0.00     0.120 C 
ATOM     14  C   UNL A   1      32.777  25.632  24.916  1.00  0.00     0.155 C 
ATOM     15  O   UNL A   1      34.018  26.143  25.487  1.00  0.00    -0.352 OA
ATOM     16  N   UNL A   1      32.776  24.216  25.342  1.00  0.00    -0.295 N 
ATOM     17  C   UNL A   1      34.963  25.076  25.589  1.00  0.00     0.198 C 
BRANCH   8  18
ATOM     18  C   UNL A   1      30.278  27.843  22.540  1.00  0.00     0.258 C 
ATOM     19  C   UNL A   1      29.039  28.512  23.125  1.00  0.00     0.071 C 
ENDBRANCH   8  18
BRANCH  16  20
ATOM     20  C   UNL A   1      31.838  23.185  25.272  1.00  0.00     0.257 C 
ATOM     21  O   UNL A   1      30.783  23.217  25.908  1.00  0.00    -0.269 OA
BRANCH  20  22
ATOM     22  C   UNL A   1      31.982  22.007  24.398  1.00  0.00     0.047 A 
ATOM     23  C   UNL A   1      31.801  22.099  23.016  1.00  0.00     0.016 A 
ATOM     24  C   UNL A   1      32.157  20.746  24.969  1.00  0.00     0.101 A 
ATOM     25  C   UNL A   1      31.944  20.967  22.207  1.00  0.00     0.028 A 
ATOM     26  C   UNL A   1      32.423  19.626  24.151  1.00  0.00     0.288 A 
ATOM     27  C   UNL A   1      32.302  19.729  22.760  1.00  0.00     0.118 A 
ATOM     28  Cl  UNL A   1      32.527  18.450  21.624  1.00  0.00    -0.077 Cl
BRANCH  26  29
ATOM     29  N   UNL A   1      32.916  18.416  24.824  1.00  0.00     0.064 N 
ATOM     30  O   UNL A   1      34.063  18.021  24.593  1.00  0.00    -0.258 OA
ATOM     31  O   UNL A   1      32.154  17.877  25.642  1.00  0.00    -0.258 OA
ENDBRANCH  26  29
ENDBRANCH  20  22
ENDBRANCH  16  20
ENDBRANCH   4   7
ENDBRANCH   2   3
ENDBRANCH   1   2
BRANCH   1  32
ATOM     32  C   UNL A   1      37.805  19.820  24.730  1.00  0.00     0.023 C 
BRANCH  32  33
ATOM     33  C   UNL A   1      38.937  20.144  25.685  1.00  0.00     0.116 C 
BRANCH  33  34
ATOM     34  N   UNL A   1      39.940  19.092  25.751  1.00  0.00    -0.352 N 
ATOM     35  C   UNL A   1      41.288  19.200  25.996  1.00  0.00     0.251 C 
ATOM     36  H   UNL A   1      39.606  18.178  25.601  1.00  0.00     0.163 HD
ATOM     37  O   UNL A   1      42.019  18.231  25.866  1.00  0.00    -0.269 OA
BRANCH  35  38
ATOM     38  C   UNL A   1      41.846  20.515  26.379  1.00  0.00     0.039 A 
ATOM     39  C   UNL A   1      42.181  21.423  25.375  1.00  0.00     0.014 A 
ATOM     40  C   UNL A   1      41.998  20.860  27.725  1.00  0.00     0.014 A 
ATOM     41  C   UNL A   1      42.609  22.704  25.725  1.00  0.00     0.010 A 
ATOM     42  C   UNL A   1      42.323  22.167  28.069  1.00  0.00     0.010 A 
ATOM     43  C   UNL A   1      42.647  23.099  27.073  1.00  0.00    -0.014 A 
BRANCH  43  44
ATOM     44  C   UNL A   1      43.034  24.479  27.454  1.00  0.00     0.031 A 
ATOM     45  C   UNL A   1      44.475  24.906  27.395  1.00  0.00     0.074 A 
ATOM     46  C   UNL A   1      42.093  25.338  27.892  1.00  0.00     0.049 A 
ATOM     47  N   UNL A   1      45.004  26.068  27.682  1.00  0.00    -0.248 NA
ATOM     48  C   UNL A   1      45.456  23.887  26.983  1.00  0.00     0.031 C 
ATOM     49  C   UNL A   1      40.669  25.032  28.047  1.00  0.00     0.029 A 
ATOM     50  N   UNL A   1      42.193  26.650  28.282  1.00  0.00    -0.354 N 
ATOM     51  C   UNL A   1      46.373  25.916  27.497  1.00  0.00     0.074 A 
ATOM     52  C   UNL A   1      46.601  24.534  27.138  1.00  0.00     0.031 C 
ATOM     53  C   UNL A   1      40.023  26.136  28.453  1.00  0.00     0.029 A 
ATOM     54  C   UNL A   1      40.989  27.215  28.628  1.00  0.00     0.049 A 
ATOM     55  H   UNL A   1      43.046  27.140  28.310  1.00  0.00     0.167 HD
ATOM     56  C   UNL A   1      47.351  26.848  27.591  1.00  0.00     0.031 A 
ATOM     57  C   UNL A   1      40.697  28.464  29.036  1.00  0.00     0.031 A 
ATOM     58  C   UNL A   1      47.125  28.222  27.946  1.00  0.00     0.049 A 
ATOM     59  C   UNL A   1      41.804  29.477  29.143  1.00  0.00     0.074 A 
ATOM     60  C   UNL A   1      48.041  29.256  28.019  1.00  0.00     0.029 A 
ATOM     61  N   UNL A   1      45.892  28.754  28.291  1.00  0.00    -0.354 N 
ATOM     62  N   UNL A   1      43.082  29.335  28.888  1.00  0.00    -0.248 NA
ATOM     63  C   UNL A   1      41.419  30.826  29.577  1.00  0.00     0.031 C 
ATOM     64  C   UNL A   1      47.372  30.401  28.466  1.00  0.00     0.029 A 
ATOM     65  C   UNL A   1      46.027  30.097  28.602  1.00  0.00     0.049 A 
ATOM     66  H   UNL A   1      45.045  28.251  28.312  1.00  0.00     0.167 HD
ATOM     67  C   UNL A   1      43.649  30.587  29.099  1.00  0.00     0.074 A 
ATOM     68  C   UNL A   1      42.571  31.475  29.482  1.00  0.00     0.031 C 
ATOM     69  C   UNL A   1      44.945  30.967  28.987  1.00  0.00     0.031 A 
BRANCH  56  70
ATOM     70  C   UNL A   1      48.760  26.400  27.309  1.00  0.00    -0.014 A 
ATOM     71  C   UNL A   1      49.285  26.420  26.006  1.00  0.00     0.009 A 
ATOM     72  C   UNL A   1      49.584  25.976  28.363  1.00  0.00     0.009 A 
ATOM     73  C   UNL A   1      50.591  25.988  25.760  1.00  0.00     0.001 A 
ATOM     74  C   UNL A   1      50.899  25.577  28.119  1.00  0.00     0.001 A 
ATOM     75  C   UNL A   1      51.398  25.573  26.818  1.00  0.00     0.000 A 
ENDBRANCH  56  70
BRANCH  57  76
ATOM     76  C   UNL A   1      39.292  28.838  29.348  1.00  0.00    -0.014 A 
ATOM     77  C   UNL A   1      38.778  28.666  30.643  1.00  0.00     0.009 A 
ATOM     78  C   UNL A   1      38.452  29.356  28.350  1.00  0.00     0.009 A 
ATOM     79  C   UNL A   1      37.445  28.973  30.924  1.00  0.00     0.001 A 
ATOM     80  C   UNL A   1      37.128  29.693  28.641  1.00  0.00     0.001 A 
ATOM     81  C   UNL A   1      36.622  29.490  29.924  1.00  0.00     0.000 A 
ENDBRANCH  57  76
BRANCH  69  82
ATOM     82  C   UNL A   1      45.258  32.416  29.240  1.00  0.00    -0.014 A 
ATOM     83  C   UNL A   1      45.701  32.864  30.494  1.00  0.00     0.009 A 
ATOM     84  C   UNL A   1      45.121  33.345  28.196  1.00  0.00     0.009 A 
ATOM     85  C   UNL A   1      45.952  34.221  30.711  1.00  0.00     0.001 A 
ATOM     86  C   UNL A   1      45.407  34.695  28.406  1.00  0.00     0.001 A 
ATOM     87  C   UNL A   1      45.807  35.133  29.666  1.00  0.00     0.000 A 
ENDBRANCH  69  82
ENDBRANCH  43  44
ENDBRANCH  35  38
ENDBRANCH  33  34
ENDBRANCH  32  33
ENDBRANCH   1  32
TORSDOF 15
ENDMDL
MODEL 2
REMARK VINA RESULT:     -12.3      4.777      9.895
REMARK SMILES CC[NH+]1CCC2(CC1)OC[C@@H](C(=O)NCCCCNC(=O)c1ccc(-c3c4nc(c(-c5ccccc5)c5ccc([nH]5)c(-c5ccccc5)c5nc(c(-c6ccccc6)c6ccc3[nH]6)C=C5)C=C4)cc1)N2C(=O)c1ccc(Cl)c([N+](=O)[O-])c1
REMARK SMILES IDX 16 1 15 2 14 3 12 4 13 5 11 7 3 8 4 9 8 10 5 12 7 13 6 14
REMARK SMILES IDX 9 15 70 16 10 17 2 18 1 19 71 20 72 21 73 22 74 23 82 24
REMARK SMILES IDX 75 25 78 26 76 27 77 28 79 29 80 30 81 31 17 32 18 33 19 34
REMARK SMILES IDX 20 35 21 37 22 38 23 39 69 40 24 41 68 42 25 43 26 44 27 45
REMARK SMILES IDX 62 46 28 47 67 48 61 49 63 50 29 51 66 52 60 53 59 54 30 56
REMARK SMILES IDX 52 57 37 58 51 59 38 60 41 61 50 62 64 63 39 64 40 65 49 67
REMARK SMILES IDX 65 68 42 69 31 70 32 71 36 72 33 73 35 74 34 75 53 76 54 77
REMARK SMILES IDX 58 78 55 79 57 80 56 81 43 82 44 83 48 84 45 85 47 86 46 87
REMARK H PARENT 14 6 3 11 19 36 63 55 41 66
REMARK Flexibility Score: inf
ROOT
ATOM      1  C   UNL A   1      31.566  30.502  26.173  1.00  0.00     0.023 C 
ENDROOT
BRANCH   1   2
ATOM      2  C   UNL A   1      32.964  29.936  26.355  1.00  0.00     0.116 C 
BRANCH   2   3
ATOM      3  N   UNL A   1      33.567  29.641  25.078  1.00  0.00    -0.354 N 
ATOM      4  C   UNL A   1      33.724  28.443  24.451  1.00  0.00     0.245 C 
ATOM      5  O   UNL A   1      34.173  28.479  23.299  1.00  0.00    -0.273 OA
ATOM      6  H   UNL A   1      33.915  30.420  24.588  1.00  0.00     0.163 HD
BRANCH   4   7
ATOM      7  C   UNL A   1      33.131  27.136  25.009  1.00  0.00     0.203 C 
ATOM      8  N   UNL A   1      32.072  22.161  24.300  1.00  0.00    -0.335 N 
ATOM      9  C   UNL A   1      31.412  23.152  25.147  1.00  0.00     0.267 C 
ATOM     10  C   UNL A   1      33.270  22.569  23.577  1.00  0.00     0.267 C 
ATOM     11  H   UNL A   1      31.411  22.077  23.528  1.00  0.00     0.348 HD
ATOM     12  C   UNL A   1      32.323  24.139  25.840  1.00  0.00     0.120 C 
ATOM     13  C   UNL A   1      34.134  23.655  24.187  1.00  0.00     0.120 C 
ATOM     14  C   UNL A   1      33.377  24.760  24.914  1.00  0.00     0.155 C 
ATOM     15  O   UNL A   1      34.384  25.302  25.819  1.00  0.00    -0.352 OA
ATOM     16  N   UNL A   1      32.928  25.953  24.165  1.00  0.00    -0.295 N 
ATOM     17  C   UNL A   1      34.072  26.667  26.107  1.00  0.00     0.198 C 
BRANCH   8  18
ATOM     18  C   UNL A   1      32.174  20.844  24.926  1.00  0.00     0.258 C 
ATOM     19  C   UNL A   1      32.680  19.833  23.904  1.00  0.00     0.071 C 
ENDBRANCH   8  18
BRANCH  16  20
ATOM     20  C   UNL A   1      32.097  26.146  23.061  1.00  0.00     0.257 C 
ATOM     21  O   UNL A   1      32.414  25.771  21.931  1.00  0.00    -0.269 OA
BRANCH  20  22
ATOM     22  C   UNL A   1      30.754  26.748  23.144  1.00  0.00     0.047 A 
ATOM     23  C   UNL A   1      29.681  26.057  23.710  1.00  0.00     0.016 A 
ATOM     24  C   UNL A   1      30.510  27.969  22.517  1.00  0.00     0.101 A 
ATOM     25  C   UNL A   1      28.415  26.650  23.779  1.00  0.00     0.028 A 
ATOM     26  C   UNL A   1      29.270  28.623  22.690  1.00  0.00     0.288 A 
ATOM     27  C   UNL A   1      28.208  27.956  23.312  1.00  0.00     0.118 A 
ATOM     28  Cl  UNL A   1      26.616  28.581  23.547  1.00  0.00    -0.077 Cl
BRANCH  26  29
ATOM     29  N   UNL A   1      29.201  30.032  22.280  1.00  0.00     0.064 N 
ATOM     30  O   UNL A   1      29.243  30.914  23.144  1.00  0.00    -0.258 OA
ATOM     31  O   UNL A   1      29.153  30.263  21.062  1.00  0.00    -0.258 OA
ENDBRANCH  26  29
ENDBRANCH  20  22
ENDBRANCH  16  20
ENDBRANCH   4   7
ENDBRANCH   2   3
ENDBRANCH   1   2
BRANCH   1  32
ATOM     32  C   UNL A   1      31.420  31.993  26.445  1.00  0.00     0.023 C 
BRANCH  32  33
ATOM     33  C   UNL A   1      32.533  32.597  27.279  1.00  0.00     0.116 C 
BRANCH  33  34
ATOM     34  N   UNL A   1      32.283  33.987  27.632  1.00  0.00    -0.352 N 
ATOM     35  C   UNL A   1      32.963  34.786  28.521  1.00  0.00     0.251 C 
ATOM     36  H   UNL A   1      31.525  34.412  27.171  1.00  0.00     0.163 HD
ATOM     37  O   UNL A   1      32.531  35.889  28.815  1.00  0.00    -0.269 OA
BRANCH  35  38
ATOM     38  C   UNL A   1      34.203  34.275  29.144  1.00  0.00     0.039 A 
ATOM     39  C   UNL A   1      34.108  33.530  30.320  1.00  0.00     0.014 A 
ATOM     40  C   UNL A   1      35.447  34.497  28.546  1.00  0.00     0.014 A 
ATOM     41  C   UNL A   1      35.258  32.954  30.861  1.00  0.00     0.010 A 
ATOM     42  C   UNL A   1      36.571  33.837  29.027  1.00  0.00     0.010 A 
ATOM     43  C   UNL A   1      36.492  33.070  30.198  1.00  0.00    -0.014 A 
BRANCH  43  44
ATOM     44  C   UNL A   1      37.708  32.405  30.726  1.00  0.00     0.031 A 
ATOM     45  C   UNL A   1      38.393  32.942  31.952  1.00  0.00     0.074 A 
ATOM     46  C   UNL A   1      38.219  31.340  30.079  1.00  0.00     0.049 A 
ATOM     47  N   UNL A   1      39.460  32.494  32.564  1.00  0.00    -0.248 NA
ATOM     48  C   UNL A   1      37.823  34.157  32.558  1.00  0.00     0.031 C 
ATOM     49  C   UNL A   1      37.680  30.755  28.848  1.00  0.00     0.029 A 
ATOM     50  N   UNL A   1      39.305  30.555  30.369  1.00  0.00    -0.354 N 
ATOM     51  C   UNL A   1      39.692  33.375  33.614  1.00  0.00     0.074 A 
ATOM     52  C   UNL A   1      38.697  34.419  33.518  1.00  0.00     0.031 C 
ATOM     53  C   UNL A   1      38.409  29.677  28.518  1.00  0.00     0.029 A 
ATOM     54  C   UNL A   1      39.490  29.519  29.485  1.00  0.00     0.049 A 
ATOM     55  H   UNL A   1      39.897  30.717  31.140  1.00  0.00     0.167 HD
ATOM     56  C   UNL A   1      40.631  33.308  34.587  1.00  0.00     0.031 A 
ATOM     57  C   UNL A   1      40.422  28.549  29.460  1.00  0.00     0.031 A 
ATOM     58  C   UNL A   1      41.620  32.269  34.684  1.00  0.00     0.049 A 
ATOM     59  C   UNL A   1      41.461  28.504  30.546  1.00  0.00     0.074 A 
ATOM     60  C   UNL A   1      42.583  32.083  35.660  1.00  0.00     0.029 A 
ATOM     61  N   UNL A   1      41.774  31.240  33.768  1.00  0.00    -0.354 N 
ATOM     62  N   UNL A   1      41.617  29.301  31.576  1.00  0.00    -0.248 NA
ATOM     63  C   UNL A   1      42.441  27.412  30.473  1.00  0.00     0.031 C 
ATOM     64  C   UNL A   1      43.358  30.974  35.303  1.00  0.00     0.029 A 
ATOM     65  C   UNL A   1      42.833  30.429  34.142  1.00  0.00     0.049 A 
ATOM     66  H   UNL A   1      41.214  31.106  32.969  1.00  0.00     0.167 HD
ATOM     67  C   UNL A   1      42.692  28.787  32.291  1.00  0.00     0.074 A 
ATOM     68  C   UNL A   1      43.134  27.600  31.587  1.00  0.00     0.031 C 
ATOM     69  C   UNL A   1      43.264  29.255  33.428  1.00  0.00     0.031 A 
BRANCH  56  70
ATOM     70  C   UNL A   1      40.631  34.401  35.622  1.00  0.00    -0.014 A 
ATOM     71  C   UNL A   1      41.339  35.597  35.420  1.00  0.00     0.009 A 
ATOM     72  C   UNL A   1      39.892  34.244  36.805  1.00  0.00     0.009 A 
ATOM     73  C   UNL A   1      41.340  36.595  36.398  1.00  0.00     0.001 A 
ATOM     74  C   UNL A   1      39.866  35.257  37.765  1.00  0.00     0.001 A 
ATOM     75  C   UNL A   1      40.598  36.427  37.566  1.00  0.00     0.000 A 
ENDBRANCH  56  70
BRANCH  57  76
ATOM     76  C   UNL A   1      40.403  27.522  28.384  1.00  0.00    -0.014 A 
ATOM     77  C   UNL A   1      41.079  27.743  27.174  1.00  0.00     0.009 A 
ATOM     78  C   UNL A   1      39.696  26.322  28.556  1.00  0.00     0.009 A 
ATOM     79  C   UNL A   1      41.021  26.799  26.146  1.00  0.00     0.001 A 
ATOM     80  C   UNL A   1      39.666  25.365  27.539  1.00  0.00     0.001 A 
ATOM     81  C   UNL A   1      40.318  25.609  26.331  1.00  0.00     0.000 A 
ENDBRANCH  57  76
BRANCH  69  82
ATOM     82  C   UNL A   1      44.400  28.454  34.003  1.00  0.00    -0.014 A 
ATOM     83  C   UNL A   1      44.175  27.412  34.917  1.00  0.00     0.009 A 
ATOM     84  C   UNL A   1      45.716  28.739  33.608  1.00  0.00     0.009 A 
ATOM     85  C   UNL A   1      45.251  26.707  35.461  1.00  0.00     0.001 A 
ATOM     86  C   UNL A   1      46.787  28.009  34.126  1.00  0.00     0.001 A 
ATOM     87  C   UNL A   1      46.553  27.004  35.063  1.00  0.00     0.000 A 
ENDBRANCH  69  82
ENDBRANCH  43  44
ENDBRANCH  35  38
ENDBRANCH  33  34
ENDBRANCH  32  33
ENDBRANCH   1  32
TORSDOF 15
ENDMDL
MODEL 3
REMARK VINA RESULT:     -12.1      4.164      9.068
REMARK SMILES CC[NH+]1CCC2(CC1)OC[C@@H](C(=O)NCCCCNC(=O)c1ccc(-c3c4nc(c(-c5ccccc5)c5ccc([nH]5)c(-c5ccccc5)c5nc(c(-c6ccccc6)c6ccc3[nH]6)C=C5)C=C4)cc1)N2C(=O)c1ccc(Cl)c([N+](=O)[O-])c1
REMARK SMILES IDX 16 1 15 2 14 3 12 4 13 5 11 7 3 8 4 9 8 10 5 12 7 13 6 14
REMARK SMILES IDX 9 15 70 16 10 17 2 18 1 19 71 20 72 21 73 22 74 23 82 24
REMARK SMILES IDX 75 25 78 26 76 27 77 28 79 29 80 30 81 31 17 32 18 33 19 34
REMARK SMILES IDX 20 35 21 37 22 38 23 39 69 40 24 41 68 42 25 43 26 44 27 45
REMARK SMILES IDX 62 46 28 47 67 48 61 49 63 50 29 51 66 52 60 53 59 54 30 56
REMARK SMILES IDX 52 57 37 58 51 59 38 60 41 61 50 62 64 63 39 64 40 65 49 67
REMARK SMILES IDX 65 68 42 69 31 70 32 71 36 72 33 73 35 74 34 75 53 76 54 77
REMARK SMILES IDX 58 78 55 79 57 80 56 81 43 82 44 83 48 84 45 85 47 86 46 87
REMARK H PARENT 14 6 3 11 19 36 63 55 41 66
REMARK Flexibility Score: inf
ROOT
ATOM      1  C   UNL A   1      31.253  30.782  25.726  1.00  0.00     0.023 C 
ENDROOT
BRANCH   1   2
ATOM      2  C   UNL A   1      32.417  29.887  26.118  1.00  0.00     0.116 C 
BRANCH   2   3
ATOM      3  N   UNL A   1      33.254  29.606  24.977  1.00  0.00    -0.354 N 
ATOM      4  C   UNL A   1      33.638  28.406  24.459  1.00  0.00     0.245 C 
ATOM      5  O   UNL A   1      34.268  28.442  23.397  1.00  0.00    -0.273 OA
ATOM      6  H   UNL A   1      33.597  30.397  24.504  1.00  0.00     0.163 HD
BRANCH   4   7
ATOM      7  C   UNL A   1      33.097  27.067  24.994  1.00  0.00     0.203 C 
ATOM      8  N   UNL A   1      32.203  22.076  24.181  1.00  0.00    -0.335 N 
ATOM      9  C   UNL A   1      31.519  23.023  25.058  1.00  0.00     0.267 C 
ATOM     10  C   UNL A   1      33.377  22.542  23.454  1.00  0.00     0.267 C 
ATOM     11  H   UNL A   1      31.536  21.986  23.415  1.00  0.00     0.348 HD
ATOM     12  C   UNL A   1      32.404  24.026  25.764  1.00  0.00     0.120 C 
ATOM     13  C   UNL A   1      34.210  23.643  24.080  1.00  0.00     0.120 C 
ATOM     14  C   UNL A   1      33.424  24.703  24.841  1.00  0.00     0.155 C 
ATOM     15  O   UNL A   1      34.423  25.260  25.746  1.00  0.00    -0.352 OA
ATOM     16  N   UNL A   1      32.925  25.897  24.125  1.00  0.00    -0.295 N 
ATOM     17  C   UNL A   1      34.067  26.606  26.070  1.00  0.00     0.198 C 
BRANCH   8  18
ATOM     18  C   UNL A   1      32.358  20.749  24.775  1.00  0.00     0.258 C 
ATOM     19  C   UNL A   1      33.814  20.309  24.664  1.00  0.00     0.071 C 
ENDBRANCH   8  18
BRANCH  16  20
ATOM     20  C   UNL A   1      32.075  26.086  23.035  1.00  0.00     0.257 C 
ATOM     21  O   UNL A   1      32.377  25.719  21.899  1.00  0.00    -0.269 OA
BRANCH  20  22
ATOM     22  C   UNL A   1      30.727  26.675  23.142  1.00  0.00     0.047 A 
ATOM     23  C   UNL A   1      29.672  25.975  23.732  1.00  0.00     0.016 A 
ATOM     24  C   UNL A   1      30.458  27.891  22.516  1.00  0.00     0.101 A 
ATOM     25  C   UNL A   1      28.402  26.555  23.823  1.00  0.00     0.028 A 
ATOM     26  C   UNL A   1      29.215  28.533  22.711  1.00  0.00     0.288 A 
ATOM     27  C   UNL A   1      28.172  27.857  23.356  1.00  0.00     0.118 A 
ATOM     28  Cl  UNL A   1      26.579  28.466  23.620  1.00  0.00    -0.077 Cl
BRANCH  26  29
ATOM     29  N   UNL A   1      29.124  29.940  22.299  1.00  0.00     0.064 N 
ATOM     30  O   UNL A   1      28.858  30.801  23.144  1.00  0.00    -0.258 OA
ATOM     31  O   UNL A   1      29.373  30.197  21.111  1.00  0.00    -0.258 OA
ENDBRANCH  26  29
ENDBRANCH  20  22
ENDBRANCH  16  20
ENDBRANCH   4   7
ENDBRANCH   2   3
ENDBRANCH   1   2
BRANCH   1  32
ATOM     32  C   UNL A   1      31.171  32.113  26.461  1.00  0.00     0.023 C 
BRANCH  32  33
ATOM     33  C   UNL A   1      32.496  32.628  26.989  1.00  0.00     0.116 C 
BRANCH  33  34
ATOM     34  N   UNL A   1      32.371  33.904  27.677  1.00  0.00    -0.352 N 
ATOM     35  C   UNL A   1      33.181  34.443  28.648  1.00  0.00     0.251 C 
ATOM     36  H   UNL A   1      31.602  34.458  27.409  1.00  0.00     0.163 HD
ATOM     37  O   UNL A   1      32.851  35.463  29.233  1.00  0.00    -0.269 OA
BRANCH  35  38
ATOM     38  C   UNL A   1      34.438  33.749  29.002  1.00  0.00     0.039 A 
ATOM     39  C   UNL A   1      35.597  34.047  28.284  1.00  0.00     0.014 A 
ATOM     40  C   UNL A   1      34.477  32.839  30.063  1.00  0.00     0.014 A 
ATOM     41  C   UNL A   1      36.809  33.479  28.675  1.00  0.00     0.010 A 
ATOM     42  C   UNL A   1      35.700  32.358  30.513  1.00  0.00     0.010 A 
ATOM     43  C   UNL A   1      36.878  32.660  29.816  1.00  0.00    -0.014 A 
BRANCH  43  44
ATOM     44  C   UNL A   1      38.172  32.106  30.281  1.00  0.00     0.031 A 
ATOM     45  C   UNL A   1      38.678  30.800  29.732  1.00  0.00     0.074 A 
ATOM     46  C   UNL A   1      38.875  32.758  31.227  1.00  0.00     0.049 A 
ATOM     47  N   UNL A   1      39.786  30.161  30.013  1.00  0.00    -0.248 NA
ATOM     48  C   UNL A   1      37.817  30.105  28.761  1.00  0.00     0.031 C 
ATOM     49  C   UNL A   1      38.468  34.005  31.879  1.00  0.00     0.029 A 
ATOM     50  N   UNL A   1      40.085  32.465  31.803  1.00  0.00    -0.354 N 
ATOM     51  C   UNL A   1      39.747  28.991  29.263  1.00  0.00     0.074 A 
ATOM     52  C   UNL A   1      38.480  28.975  28.568  1.00  0.00     0.031 C 
ATOM     53  C   UNL A   1      39.432  34.393  32.728  1.00  0.00     0.029 A 
ATOM     54  C   UNL A   1      40.505  33.404  32.714  1.00  0.00     0.049 A 
ATOM     55  H   UNL A   1      40.605  31.657  31.583  1.00  0.00     0.167 HD
ATOM     56  C   UNL A   1      40.692  28.029  29.141  1.00  0.00     0.031 A 
ATOM     57  C   UNL A   1      41.629  33.463  33.451  1.00  0.00     0.031 A 
ATOM     58  C   UNL A   1      41.954  28.045  29.831  1.00  0.00     0.049 A 
ATOM     59  C   UNL A   1      42.657  32.375  33.306  1.00  0.00     0.074 A 
ATOM     60  C   UNL A   1      42.999  27.144  29.737  1.00  0.00     0.029 A 
ATOM     61  N   UNL A   1      42.339  29.013  30.746  1.00  0.00    -0.354 N 
ATOM     62  N   UNL A   1      42.638  31.316  32.533  1.00  0.00    -0.248 NA
ATOM     63  C   UNL A   1      43.870  32.505  34.125  1.00  0.00     0.031 C 
ATOM     64  C   UNL A   1      43.994  27.535  30.640  1.00  0.00     0.029 A 
ATOM     65  C   UNL A   1      43.598  28.717  31.243  1.00  0.00     0.049 A 
ATOM     66  H   UNL A   1      41.798  29.794  31.004  1.00  0.00     0.167 HD
ATOM     67  C   UNL A   1      43.850  30.671  32.748  1.00  0.00     0.074 A 
ATOM     68  C   UNL A   1      44.585  31.470  33.707  1.00  0.00     0.031 C 
ATOM     69  C   UNL A   1      44.314  29.520  32.202  1.00  0.00     0.031 A 
BRANCH  56  70
ATOM     70  C   UNL A   1      40.386  26.872  28.228  1.00  0.00    -0.014 A 
ATOM     71  C   UNL A   1      40.857  26.842  26.905  1.00  0.00     0.009 A 
ATOM     72  C   UNL A   1      39.637  25.784  28.704  1.00  0.00     0.009 A 
ATOM     73  C   UNL A   1      40.552  25.767  26.067  1.00  0.00     0.001 A 
ATOM     74  C   UNL A   1      39.362  24.695  27.875  1.00  0.00     0.001 A 
ATOM     75  C   UNL A   1      39.810  24.692  26.556  1.00  0.00     0.000 A 
ENDBRANCH  56  70
BRANCH  57  76
ATOM     76  C   UNL A   1      41.858  34.606  34.374  1.00  0.00    -0.014 A 
ATOM     77  C   UNL A   1      42.479  35.780  33.918  1.00  0.00     0.009 A 
ATOM     78  C   UNL A   1      41.471  34.525  35.721  1.00  0.00     0.009 A 
ATOM     79  C   UNL A   1      42.737  36.834  34.797  1.00  0.00     0.001 A 
ATOM     80  C   UNL A   1      41.700  35.594  36.590  1.00  0.00     0.001 A 
ATOM     81  C   UNL A   1      42.344  36.742  36.131  1.00  0.00     0.000 A 
ENDBRANCH  57  76
BRANCH  69  82
ATOM     82  C   UNL A   1      45.698  29.083  32.597  1.00  0.00    -0.014 A 
ATOM     83  C   UNL A   1      45.915  28.233  33.692  1.00  0.00     0.009 A 
ATOM     84  C   UNL A   1      46.801  29.521  31.848  1.00  0.00     0.009 A 
ATOM     85  C   UNL A   1      47.213  27.870  34.058  1.00  0.00     0.001 A 
ATOM     86  C   UNL A   1      48.095  29.128  32.193  1.00  0.00     0.001 A 
ATOM     87  C   UNL A   1      48.300  28.315  33.307  1.00  0.00     0.000 A 
ENDBRANCH  69  82
ENDBRANCH  43  44
ENDBRANCH  35  38
ENDBRANCH  33  34
ENDBRANCH  32  33
ENDBRANCH   1  32
TORSDOF 15
ENDMDL
