MODEL 1
REMARK VINA RESULT:     -11.7      0.000      0.000
REMARK SMILES O=C(NCCCCNC(=O)[C@@H]1CCCN(C(=O)Nc2ccccc2)C1)c1ccc(-c2c3nc(c(-c4ccccc4)c4ccc([nH]4)c(-c4ccccc4)c4nc(c(-c5ccccc5)c5ccc2[nH]5)C=C4)C=C3)cc1
REMARK SMILES IDX 5 1 4 2 3 3 1 4 2 5 26 7 27 8 73 9 28 10 72 11 29 12 30 13
REMARK SMILES IDX 31 14 66 15 32 16 71 17 65 18 67 19 33 20 70 21 64 22 63 23
REMARK SMILES IDX 34 25 56 26 41 27 55 28 42 29 45 30 54 31 68 32 43 33 44 34
REMARK SMILES IDX 53 36 69 37 46 38 35 39 36 40 40 41 37 42 39 43 38 44 57 45
REMARK SMILES IDX 58 46 62 47 59 48 61 49 60 50 47 51 48 52 52 53 49 54 51 55
REMARK SMILES IDX 50 56 6 57 7 58 8 59 9 60 10 62 11 63 12 64 25 65 13 66
REMARK SMILES IDX 15 67 14 68 16 69 17 70 18 71 19 73 20 74 24 75 21 76 23 77
REMARK SMILES IDX 22 78
REMARK H PARENT 3 6 67 24 45 35 8 61 18 72
REMARK Flexibility Score: inf
ROOT
ATOM      1  C   UNL A   1      37.534  21.093  24.663  1.00  0.00     0.023 C 
ENDROOT
BRANCH   1   2
ATOM      2  C   UNL A   1      38.620  21.069  25.724  1.00  0.00     0.116 C 
BRANCH   2   3
ATOM      3  N   UNL A   1      39.531  19.937  25.617  1.00  0.00    -0.352 N 
ATOM      4  O   UNL A   1      41.516  18.854  25.741  1.00  0.00    -0.269 OA
ATOM      5  C   UNL A   1      40.862  19.868  25.965  1.00  0.00     0.251 C 
ATOM      6  H   UNL A   1      39.144  19.111  25.246  1.00  0.00     0.163 HD
BRANCH   5   7
ATOM      7  C   UNL A   1      41.504  21.053  26.567  1.00  0.00     0.039 A 
ATOM      8  C   UNL A   1      41.529  21.204  27.953  1.00  0.00     0.014 A 
ATOM      9  C   UNL A   1      41.995  22.062  25.735  1.00  0.00     0.014 A 
ATOM     10  C   UNL A   1      41.849  22.440  28.495  1.00  0.00     0.010 A 
ATOM     11  C   UNL A   1      42.421  23.270  26.293  1.00  0.00     0.010 A 
ATOM     12  C   UNL A   1      42.295  23.490  27.674  1.00  0.00    -0.014 A 
BRANCH  12  13
ATOM     13  C   UNL A   1      42.624  24.796  28.299  1.00  0.00     0.031 A 
ATOM     14  C   UNL A   1      44.047  25.176  28.615  1.00  0.00     0.074 A 
ATOM     15  C   UNL A   1      41.628  25.677  28.512  1.00  0.00     0.049 A 
ATOM     16  N   UNL A   1      44.506  26.302  29.100  1.00  0.00    -0.248 NA
ATOM     17  C   UNL A   1      45.088  24.167  28.364  1.00  0.00     0.031 C 
ATOM     18  C   UNL A   1      40.209  25.425  28.243  1.00  0.00     0.029 A 
ATOM     19  N   UNL A   1      41.658  26.973  28.953  1.00  0.00    -0.354 N 
ATOM     20  C   UNL A   1      45.876  26.124  29.252  1.00  0.00     0.074 A 
ATOM     21  C   UNL A   1      46.175  24.778  28.813  1.00  0.00     0.031 C 
ATOM     22  C   UNL A   1      39.518  26.555  28.440  1.00  0.00     0.029 A 
ATOM     23  C   UNL A   1      40.429  27.587  28.918  1.00  0.00     0.049 A 
ATOM     24  H   UNL A   1      42.477  27.420  29.264  1.00  0.00     0.167 HD
ATOM     25  C   UNL A   1      46.799  27.001  29.715  1.00  0.00     0.031 A 
ATOM     26  C   UNL A   1      40.070  28.843  29.237  1.00  0.00     0.031 A 
ATOM     27  C   UNL A   1      46.507  28.350  30.123  1.00  0.00     0.049 A 
ATOM     28  C   UNL A   1      41.115  29.797  29.728  1.00  0.00     0.074 A 
ATOM     29  C   UNL A   1      47.379  29.322  30.582  1.00  0.00     0.029 A 
ATOM     30  N   UNL A   1      45.243  28.921  30.113  1.00  0.00    -0.354 N 
ATOM     31  N   UNL A   1      42.404  29.609  29.864  1.00  0.00    -0.248 NA
ATOM     32  C   UNL A   1      40.652  31.135  30.117  1.00  0.00     0.031 C 
ATOM     33  C   UNL A   1      46.638  30.470  30.883  1.00  0.00     0.029 A 
ATOM     34  C   UNL A   1      45.311  30.226  30.569  1.00  0.00     0.049 A 
ATOM     35  H   UNL A   1      44.420  28.465  29.822  1.00  0.00     0.167 HD
ATOM     36  C   UNL A   1      42.910  30.806  30.348  1.00  0.00     0.074 A 
ATOM     37  C   UNL A   1      41.791  31.720  30.458  1.00  0.00     0.031 C 
ATOM     38  C   UNL A   1      44.186  31.118  30.678  1.00  0.00     0.031 A 
BRANCH  25  39
ATOM     39  C   UNL A   1      48.217  26.517  29.840  1.00  0.00    -0.014 A 
ATOM     40  C   UNL A   1      49.149  26.700  28.807  1.00  0.00     0.009 A 
ATOM     41  C   UNL A   1      48.636  25.908  31.033  1.00  0.00     0.009 A 
ATOM     42  C   UNL A   1      50.466  26.257  28.958  1.00  0.00     0.001 A 
ATOM     43  C   UNL A   1      49.959  25.487  31.189  1.00  0.00     0.001 A 
ATOM     44  C   UNL A   1      50.870  25.655  30.149  1.00  0.00     0.000 A 
ENDBRANCH  25  39
BRANCH  26  45
ATOM     45  C   UNL A   1      38.653  29.261  29.095  1.00  0.00    -0.014 A 
ATOM     46  C   UNL A   1      37.778  29.194  30.188  1.00  0.00     0.009 A 
ATOM     47  C   UNL A   1      38.178  29.757  27.870  1.00  0.00     0.009 A 
ATOM     48  C   UNL A   1      36.451  29.606  30.055  1.00  0.00     0.001 A 
ATOM     49  C   UNL A   1      36.859  30.193  27.748  1.00  0.00     0.001 A 
ATOM     50  C   UNL A   1      35.995  30.112  28.838  1.00  0.00     0.000 A 
ENDBRANCH  26  45
BRANCH  38  51
ATOM     51  C   UNL A   1      44.433  32.513  31.169  1.00  0.00    -0.014 A 
ATOM     52  C   UNL A   1      44.363  32.822  32.537  1.00  0.00     0.009 A 
ATOM     53  C   UNL A   1      44.746  33.527  30.252  1.00  0.00     0.009 A 
ATOM     54  C   UNL A   1      44.568  34.132  32.973  1.00  0.00     0.001 A 
ATOM     55  C   UNL A   1      44.972  34.832  30.694  1.00  0.00     0.001 A 
ATOM     56  C   UNL A   1      44.874  35.134  32.052  1.00  0.00     0.000 A 
ENDBRANCH  38  51
ENDBRANCH  12  13
ENDBRANCH   5   7
ENDBRANCH   2   3
ENDBRANCH   1   2
BRANCH   1  57
ATOM     57  C   UNL A   1      36.215  20.438  25.059  1.00  0.00     0.023 C 
BRANCH  57  58
ATOM     58  C   UNL A   1      35.309  21.275  25.967  1.00  0.00     0.116 C 
BRANCH  58  59
ATOM     59  N   UNL A   1      33.907  21.015  25.723  1.00  0.00    -0.356 N 
ATOM     60  C   UNL A   1      32.940  21.567  24.955  1.00  0.00     0.224 C 
ATOM     61  H   UNL A   1      33.576  20.247  26.242  1.00  0.00     0.163 HD
ATOM     62  O   UNL A   1      31.853  20.975  25.028  1.00  0.00    -0.275 OA
BRANCH  60  63
ATOM     63  C   UNL A   1      33.083  22.741  23.972  1.00  0.00     0.098 C 
ATOM     64  C   UNL A   1      34.409  23.408  23.646  1.00  0.00     0.017 C 
ATOM     65  C   UNL A   1      32.111  23.859  24.396  1.00  0.00     0.134 C 
ATOM     66  C   UNL A   1      34.962  24.198  24.815  1.00  0.00     0.022 C 
ATOM     67  N   UNL A   1      32.569  24.568  25.601  1.00  0.00    -0.324 N 
ATOM     68  C   UNL A   1      33.945  25.055  25.563  1.00  0.00     0.121 C 
BRANCH  67  69
ATOM     69  C   UNL A   1      31.612  24.818  26.564  1.00  0.00     0.321 C 
ATOM     70  O   UNL A   1      31.083  23.903  27.206  1.00  0.00    -0.248 OA
ATOM     71  N   UNL A   1      31.304  26.064  26.998  1.00  0.00    -0.308 N 
ATOM     72  H   UNL A   1      30.921  26.054  27.905  1.00  0.00     0.171 HD
BRANCH  71  73
ATOM     73  C   UNL A   1      31.393  27.357  26.483  1.00  0.00     0.042 A 
ATOM     74  C   UNL A   1      31.737  28.376  27.376  1.00  0.00     0.026 A 
ATOM     75  C   UNL A   1      31.113  27.671  25.154  1.00  0.00     0.026 A 
ATOM     76  C   UNL A   1      31.934  29.677  26.913  1.00  0.00     0.002 A 
ATOM     77  C   UNL A   1      31.305  28.975  24.690  1.00  0.00     0.002 A 
ATOM     78  C   UNL A   1      31.737  29.971  25.566  1.00  0.00     0.000 A 
ENDBRANCH  71  73
ENDBRANCH  67  69
ENDBRANCH  60  63
ENDBRANCH  58  59
ENDBRANCH  57  58
ENDBRANCH   1  57
TORSDOF 13
ENDMDL
MODEL 2
REMARK VINA RESULT:     -11.6      2.558      7.080
REMARK SMILES O=C(NCCCCNC(=O)[C@@H]1CCCN(C(=O)Nc2ccccc2)C1)c1ccc(-c2c3nc(c(-c4ccccc4)c4ccc([nH]4)c(-c4ccccc4)c4nc(c(-c5ccccc5)c5ccc2[nH]5)C=C4)C=C3)cc1
REMARK SMILES IDX 5 1 4 2 3 3 1 4 2 5 26 7 27 8 73 9 28 10 72 11 29 12 30 13
REMARK SMILES IDX 31 14 66 15 32 16 71 17 65 18 67 19 33 20 70 21 64 22 63 23
REMARK SMILES IDX 34 25 56 26 41 27 55 28 42 29 45 30 54 31 68 32 43 33 44 34
REMARK SMILES IDX 53 36 69 37 46 38 35 39 36 40 40 41 37 42 39 43 38 44 57 45
REMARK SMILES IDX 58 46 62 47 59 48 61 49 60 50 47 51 48 52 52 53 49 54 51 55
REMARK SMILES IDX 50 56 6 57 7 58 8 59 9 60 10 62 11 63 12 64 25 65 13 66
REMARK SMILES IDX 15 67 14 68 16 69 17 70 18 71 19 73 20 74 24 75 21 76 23 77
REMARK SMILES IDX 22 78
REMARK H PARENT 3 6 67 24 45 35 8 61 18 72
REMARK Flexibility Score: inf
ROOT
ATOM      1  C   UNL A   1      36.663  23.249  24.198  1.00  0.00     0.023 C 
ENDROOT
BRANCH   1   2
ATOM      2  C   UNL A   1      37.195  23.073  25.610  1.00  0.00     0.116 C 
BRANCH   2   3
ATOM      3  N   UNL A   1      38.507  22.443  25.676  1.00  0.00    -0.352 N 
ATOM      4  O   UNL A   1      40.727  22.317  26.106  1.00  0.00    -0.269 OA
ATOM      5  C   UNL A   1      39.679  22.949  26.194  1.00  0.00     0.251 C 
ATOM      6  H   UNL A   1      38.564  21.534  25.301  1.00  0.00     0.163 HD
BRANCH   5   7
ATOM      7  C   UNL A   1      39.666  24.290  26.812  1.00  0.00     0.039 A 
ATOM      8  C   UNL A   1      40.290  25.359  26.171  1.00  0.00     0.014 A 
ATOM      9  C   UNL A   1      39.110  24.452  28.084  1.00  0.00     0.014 A 
ATOM     10  C   UNL A   1      40.543  26.523  26.881  1.00  0.00     0.010 A 
ATOM     11  C   UNL A   1      39.272  25.666  28.756  1.00  0.00     0.010 A 
ATOM     12  C   UNL A   1      40.041  26.691  28.183  1.00  0.00    -0.014 A 
BRANCH  12  13
ATOM     13  C   UNL A   1      40.337  27.954  28.906  1.00  0.00     0.031 A 
ATOM     14  C   UNL A   1      39.313  29.052  29.018  1.00  0.00     0.074 A 
ATOM     15  C   UNL A   1      41.523  28.073  29.532  1.00  0.00     0.049 A 
ATOM     16  N   UNL A   1      39.393  30.185  29.668  1.00  0.00    -0.248 NA
ATOM     17  C   UNL A   1      38.039  28.862  28.306  1.00  0.00     0.031 C 
ATOM     18  C   UNL A   1      42.597  27.075  29.500  1.00  0.00     0.029 A 
ATOM     19  N   UNL A   1      42.007  29.055  30.356  1.00  0.00    -0.354 N 
ATOM     20  C   UNL A   1      38.205  30.859  29.411  1.00  0.00     0.074 A 
ATOM     21  C   UNL A   1      37.421  30.011  28.540  1.00  0.00     0.031 C 
ATOM     22  C   UNL A   1      43.573  27.454  30.336  1.00  0.00     0.029 A 
ATOM     23  C   UNL A   1      43.230  28.751  30.905  1.00  0.00     0.049 A 
ATOM     24  H   UNL A   1      41.527  29.895  30.536  1.00  0.00     0.167 HD
ATOM     25  C   UNL A   1      37.805  32.074  29.860  1.00  0.00     0.031 A 
ATOM     26  C   UNL A   1      43.995  29.439  31.770  1.00  0.00     0.031 A 
ATOM     27  C   UNL A   1      38.572  32.904  30.751  1.00  0.00     0.049 A 
ATOM     28  C   UNL A   1      43.519  30.771  32.265  1.00  0.00     0.074 A 
ATOM     29  C   UNL A   1      38.239  34.139  31.281  1.00  0.00     0.029 A 
ATOM     30  N   UNL A   1      39.823  32.579  31.251  1.00  0.00    -0.354 N 
ATOM     31  N   UNL A   1      42.393  31.390  32.010  1.00  0.00    -0.248 NA
ATOM     32  C   UNL A   1      44.425  31.500  33.161  1.00  0.00     0.031 C 
ATOM     33  C   UNL A   1      39.305  34.578  32.075  1.00  0.00     0.029 A 
ATOM     34  C   UNL A   1      40.282  33.595  32.072  1.00  0.00     0.049 A 
ATOM     35  H   UNL A   1      40.313  31.748  31.052  1.00  0.00     0.167 HD
ATOM     36  C   UNL A   1      42.450  32.580  32.719  1.00  0.00     0.074 A 
ATOM     37  C   UNL A   1      43.711  32.583  33.433  1.00  0.00     0.031 C 
ATOM     38  C   UNL A   1      41.542  33.584  32.769  1.00  0.00     0.031 A 
BRANCH  25  39
ATOM     39  C   UNL A   1      36.486  32.599  29.365  1.00  0.00    -0.014 A 
ATOM     40  C   UNL A   1      36.392  33.348  28.182  1.00  0.00     0.009 A 
ATOM     41  C   UNL A   1      35.312  32.296  30.072  1.00  0.00     0.009 A 
ATOM     42  C   UNL A   1      35.151  33.808  27.734  1.00  0.00     0.001 A 
ATOM     43  C   UNL A   1      34.071  32.737  29.610  1.00  0.00     0.001 A 
ATOM     44  C   UNL A   1      33.992  33.499  28.446  1.00  0.00     0.000 A 
ENDBRANCH  25  39
BRANCH  26  45
ATOM     45  C   UNL A   1      45.289  28.869  32.220  1.00  0.00    -0.014 A 
ATOM     46  C   UNL A   1      46.471  29.148  31.521  1.00  0.00     0.009 A 
ATOM     47  C   UNL A   1      45.350  28.067  33.371  1.00  0.00     0.009 A 
ATOM     48  C   UNL A   1      47.690  28.626  31.959  1.00  0.00     0.001 A 
ATOM     49  C   UNL A   1      46.573  27.568  33.822  1.00  0.00     0.001 A 
ATOM     50  C   UNL A   1      47.740  27.843  33.112  1.00  0.00     0.000 A 
ENDBRANCH  26  45
BRANCH  38  51
ATOM     51  C   UNL A   1      41.880  34.754  33.642  1.00  0.00    -0.014 A 
ATOM     52  C   UNL A   1      41.383  34.848  34.952  1.00  0.00     0.009 A 
ATOM     53  C   UNL A   1      42.713  35.771  33.151  1.00  0.00     0.009 A 
ATOM     54  C   UNL A   1      41.686  35.959  35.741  1.00  0.00     0.001 A 
ATOM     55  C   UNL A   1      43.032  36.869  33.951  1.00  0.00     0.001 A 
ATOM     56  C   UNL A   1      42.511  36.966  35.241  1.00  0.00     0.000 A 
ENDBRANCH  38  51
ENDBRANCH  12  13
ENDBRANCH   5   7
ENDBRANCH   2   3
ENDBRANCH   1   2
BRANCH   1  57
ATOM     57  C   UNL A   1      35.371  22.502  23.886  1.00  0.00     0.023 C 
BRANCH  57  58
ATOM     58  C   UNL A   1      34.079  23.235  24.254  1.00  0.00     0.116 C 
BRANCH  58  59
ATOM     59  N   UNL A   1      34.175  24.659  24.012  1.00  0.00    -0.356 N 
ATOM     60  C   UNL A   1      33.412  25.588  23.393  1.00  0.00     0.224 C 
ATOM     61  H   UNL A   1      34.996  25.045  24.392  1.00  0.00     0.163 HD
ATOM     62  O   UNL A   1      33.876  26.735  23.464  1.00  0.00    -0.275 OA
BRANCH  60  63
ATOM     63  C   UNL A   1      32.040  25.380  22.729  1.00  0.00     0.098 C 
ATOM     64  C   UNL A   1      31.406  26.383  21.778  1.00  0.00     0.017 C 
ATOM     65  C   UNL A   1      31.001  25.084  23.828  1.00  0.00     0.134 C 
ATOM     66  C   UNL A   1      30.977  27.654  22.481  1.00  0.00     0.022 C 
ATOM     67  N   UNL A   1      30.653  26.285  24.603  1.00  0.00    -0.324 N 
ATOM     68  C   UNL A   1      30.269  27.455  23.818  1.00  0.00     0.121 C 
BRANCH  67  69
ATOM     69  C   UNL A   1      30.589  26.131  25.973  1.00  0.00     0.321 C 
ATOM     70  O   UNL A   1      29.814  25.324  26.500  1.00  0.00    -0.248 OA
ATOM     71  N   UNL A   1      31.468  26.709  26.828  1.00  0.00    -0.308 N 
ATOM     72  H   UNL A   1      31.532  26.218  27.678  1.00  0.00     0.171 HD
BRANCH  71  73
ATOM     73  C   UNL A   1      32.303  27.826  26.805  1.00  0.00     0.042 A 
ATOM     74  C   UNL A   1      31.706  29.073  27.010  1.00  0.00     0.026 A 
ATOM     75  C   UNL A   1      33.671  27.752  26.546  1.00  0.00     0.026 A 
ATOM     76  C   UNL A   1      32.492  30.222  27.093  1.00  0.00     0.002 A 
ATOM     77  C   UNL A   1      34.459  28.903  26.622  1.00  0.00     0.002 A 
ATOM     78  C   UNL A   1      33.871  30.133  26.918  1.00  0.00     0.000 A 
ENDBRANCH  71  73
ENDBRANCH  67  69
ENDBRANCH  60  63
ENDBRANCH  58  59
ENDBRANCH  57  58
ENDBRANCH   1  57
TORSDOF 13
ENDMDL
MODEL 3
REMARK VINA RESULT:     -11.5      0.364      6.045
REMARK SMILES O=C(NCCCCNC(=O)[C@@H]1CCCN(C(=O)Nc2ccccc2)C1)c1ccc(-c2c3nc(c(-c4ccccc4)c4ccc([nH]4)c(-c4ccccc4)c4nc(c(-c5ccccc5)c5ccc2[nH]5)C=C4)C=C3)cc1
REMARK SMILES IDX 5 1 4 2 3 3 1 4 2 5 26 7 27 8 73 9 28 10 72 11 29 12 30 13
REMARK SMILES IDX 31 14 66 15 32 16 71 17 65 18 67 19 33 20 70 21 64 22 63 23
REMARK SMILES IDX 34 25 56 26 41 27 55 28 42 29 45 30 54 31 68 32 43 33 44 34
REMARK SMILES IDX 53 36 69 37 46 38 35 39 36 40 40 41 37 42 39 43 38 44 57 45
REMARK SMILES IDX 58 46 62 47 59 48 61 49 60 50 47 51 48 52 52 53 49 54 51 55
REMARK SMILES IDX 50 56 6 57 7 58 8 59 9 60 10 62 11 63 12 64 25 65 13 66
REMARK SMILES IDX 15 67 14 68 16 69 17 70 18 71 19 73 20 74 24 75 21 76 23 77
REMARK SMILES IDX 22 78
REMARK H PARENT 3 6 67 24 45 35 8 61 18 72
REMARK Flexibility Score: inf
ROOT
ATOM      1  C   UNL A   1      37.627  21.025  24.667  1.00  0.00     0.023 C 
ENDROOT
BRANCH   1   2
ATOM      2  C   UNL A   1      38.663  20.994  25.777  1.00  0.00     0.116 C 
BRANCH   2   3
ATOM      3  N   UNL A   1      39.582  19.867  25.701  1.00  0.00    -0.352 N 
ATOM      4  O   UNL A   1      41.581  18.810  25.830  1.00  0.00    -0.269 OA
ATOM      5  C   UNL A   1      40.921  19.826  26.023  1.00  0.00     0.251 C 
ATOM      6  H   UNL A   1      39.197  19.022  25.375  1.00  0.00     0.163 HD
BRANCH   5   7
ATOM      7  C   UNL A   1      41.564  21.043  26.558  1.00  0.00     0.039 A 
ATOM      8  C   UNL A   1      41.566  21.283  27.932  1.00  0.00     0.014 A 
ATOM      9  C   UNL A   1      42.078  21.992  25.671  1.00  0.00     0.014 A 
ATOM     10  C   UNL A   1      41.887  22.549  28.399  1.00  0.00     0.010 A 
ATOM     11  C   UNL A   1      42.504  23.231  26.158  1.00  0.00     0.010 A 
ATOM     12  C   UNL A   1      42.356  23.540  27.519  1.00  0.00    -0.014 A 
BRANCH  12  13
ATOM     13  C   UNL A   1      42.687  24.881  28.065  1.00  0.00     0.031 A 
ATOM     14  C   UNL A   1      41.614  25.902  28.337  1.00  0.00     0.074 A 
ATOM     15  C   UNL A   1      43.967  25.146  28.389  1.00  0.00     0.049 A 
ATOM     16  N   UNL A   1      41.731  27.092  28.872  1.00  0.00    -0.248 NA
ATOM     17  C   UNL A   1      40.236  25.553  27.956  1.00  0.00     0.031 C 
ATOM     18  C   UNL A   1      45.095  24.235  28.176  1.00  0.00     0.029 A 
ATOM     19  N   UNL A   1      44.528  26.231  29.008  1.00  0.00    -0.354 N 
ATOM     20  C   UNL A   1      40.457  27.647  28.854  1.00  0.00     0.074 A 
ATOM     21  C   UNL A   1      39.581  26.668  28.249  1.00  0.00     0.031 C 
ATOM     22  C   UNL A   1      46.194  24.760  28.733  1.00  0.00     0.029 A 
ATOM     23  C   UNL A   1      45.867  26.072  29.276  1.00  0.00     0.049 A 
ATOM     24  H   UNL A   1      44.024  27.044  29.237  1.00  0.00     0.167 HD
ATOM     25  C   UNL A   1      40.055  28.862  29.299  1.00  0.00     0.031 A 
ATOM     26  C   UNL A   1      46.739  26.890  29.891  1.00  0.00     0.031 A 
ATOM     27  C   UNL A   1      40.921  29.825  29.928  1.00  0.00     0.049 A 
ATOM     28  C   UNL A   1      46.262  28.220  30.390  1.00  0.00     0.074 A 
ATOM     29  C   UNL A   1      40.600  31.072  30.436  1.00  0.00     0.029 A 
ATOM     30  N   UNL A   1      42.278  29.642  30.144  1.00  0.00    -0.354 N 
ATOM     31  N   UNL A   1      45.054  28.726  30.364  1.00  0.00    -0.248 NA
ATOM     32  C   UNL A   1      47.273  29.094  30.999  1.00  0.00     0.031 C 
ATOM     33  C   UNL A   1      41.772  31.660  30.928  1.00  0.00     0.029 A 
ATOM     34  C   UNL A   1      42.812  30.759  30.765  1.00  0.00     0.049 A 
ATOM     35  H   UNL A   1      42.787  28.837  29.893  1.00  0.00     0.167 HD
ATOM     36  C   UNL A   1      45.156  29.975  30.956  1.00  0.00     0.074 A 
ATOM     37  C   UNL A   1      46.539  30.138  31.355  1.00  0.00     0.031 C 
ATOM     38  C   UNL A   1      44.191  30.906  31.148  1.00  0.00     0.031 A 
BRANCH  25  39
ATOM     39  C   UNL A   1      38.614  29.238  29.089  1.00  0.00    -0.014 A 
ATOM     40  C   UNL A   1      37.675  29.153  30.128  1.00  0.00     0.009 A 
ATOM     41  C   UNL A   1      38.204  29.730  27.841  1.00  0.00     0.009 A 
ATOM     42  C   UNL A   1      36.346  29.527  29.911  1.00  0.00     0.001 A 
ATOM     43  C   UNL A   1      36.880  30.125  27.633  1.00  0.00     0.001 A 
ATOM     44  C   UNL A   1      35.951  30.015  28.666  1.00  0.00     0.000 A 
ENDBRANCH  25  39
BRANCH  26  45
ATOM     45  C   UNL A   1      48.149  26.463  30.065  1.00  0.00    -0.014 A 
ATOM     46  C   UNL A   1      48.542  25.755  31.210  1.00  0.00     0.009 A 
ATOM     47  C   UNL A   1      49.101  26.735  29.071  1.00  0.00     0.009 A 
ATOM     48  C   UNL A   1      49.866  25.339  31.361  1.00  0.00     0.001 A 
ATOM     49  C   UNL A   1      50.417  26.294  29.212  1.00  0.00     0.001 A 
ATOM     50  C   UNL A   1      50.800  25.602  30.359  1.00  0.00     0.000 A 
ENDBRANCH  26  45
BRANCH  38  51
ATOM     51  C   UNL A   1      44.605  32.172  31.836  1.00  0.00    -0.014 A 
ATOM     52  C   UNL A   1      45.056  33.281  31.103  1.00  0.00     0.009 A 
ATOM     53  C   UNL A   1      44.534  32.258  33.234  1.00  0.00     0.009 A 
ATOM     54  C   UNL A   1      45.464  34.441  31.762  1.00  0.00     0.001 A 
ATOM     55  C   UNL A   1      44.922  33.428  33.889  1.00  0.00     0.001 A 
ATOM     56  C   UNL A   1      45.395  34.514  33.153  1.00  0.00     0.000 A 
ENDBRANCH  38  51
ENDBRANCH  12  13
ENDBRANCH   5   7
ENDBRANCH   2   3
ENDBRANCH   1   2
BRANCH   1  57
ATOM     57  C   UNL A   1      36.257  20.463  25.032  1.00  0.00     0.023 C 
BRANCH  57  58
ATOM     58  C   UNL A   1      35.418  21.331  25.974  1.00  0.00     0.116 C 
BRANCH  58  59
ATOM     59  N   UNL A   1      33.998  21.132  25.775  1.00  0.00    -0.356 N 
ATOM     60  C   UNL A   1      33.035  21.721  25.031  1.00  0.00     0.224 C 
ATOM     61  H   UNL A   1      33.649  20.386  26.313  1.00  0.00     0.163 HD
ATOM     62  O   UNL A   1      31.925  21.180  25.143  1.00  0.00    -0.275 OA
BRANCH  60  63
ATOM     63  C   UNL A   1      33.201  22.878  24.032  1.00  0.00     0.098 C 
ATOM     64  C   UNL A   1      34.526  23.573  23.761  1.00  0.00     0.017 C 
ATOM     65  C   UNL A   1      32.181  23.979  24.380  1.00  0.00     0.134 C 
ATOM     66  C   UNL A   1      34.996  24.399  24.940  1.00  0.00     0.022 C 
ATOM     67  N   UNL A   1      32.557  24.724  25.592  1.00  0.00    -0.324 N 
ATOM     68  C   UNL A   1      33.921  25.245  25.615  1.00  0.00     0.121 C 
BRANCH  67  69
ATOM     69  C   UNL A   1      31.545  24.969  26.498  1.00  0.00     0.321 C 
ATOM     70  O   UNL A   1      30.907  24.049  27.024  1.00  0.00    -0.248 OA
ATOM     71  N   UNL A   1      31.286  26.198  27.007  1.00  0.00    -0.308 N 
ATOM     72  H   UNL A   1      30.832  26.147  27.879  1.00  0.00     0.171 HD
BRANCH  71  73
ATOM     73  C   UNL A   1      31.500  27.516  26.606  1.00  0.00     0.042 A 
ATOM     74  C   UNL A   1      31.245  27.825  25.267  1.00  0.00     0.026 A 
ATOM     75  C   UNL A   1      31.991  28.505  27.459  1.00  0.00     0.026 A 
ATOM     76  C   UNL A   1      31.348  29.141  24.818  1.00  0.00     0.002 A 
ATOM     77  C   UNL A   1      32.100  29.823  27.008  1.00  0.00     0.002 A 
ATOM     78  C   UNL A   1      31.757  30.143  25.695  1.00  0.00     0.000 A 
ENDBRANCH  71  73
ENDBRANCH  67  69
ENDBRANCH  60  63
ENDBRANCH  58  59
ENDBRANCH  57  58
ENDBRANCH   1  57
TORSDOF 13
ENDMDL
