MODEL 1
REMARK VINA RESULT:     -11.1      0.000      0.000
REMARK SMILES CCC(C)(C)[C@@H]1CCc2c(sc(=O)n2CCCC(=O)NCCCCNC(=O)c2ccc(-c3c4nc(c(-c5ccccc5)c5ccc([nH]5)c(-c5ccccc5)c5nc(c(-c6ccccc6)c6ccc3[nH]6)C=C5)C=C4)cc2)C1
REMARK SMILES IDX 21 1 20 2 18 3 19 4 17 6 16 7 15 8 14 9 6 10 7 11 76 12 8 13
REMARK SMILES IDX 10 14 9 15 11 16 12 17 13 18 3 19 4 20 5 21 2 22 1 23 22 24
REMARK SMILES IDX 23 25 24 26 25 27 26 28 27 30 28 31 29 32 75 33 30 34 74 35
REMARK SMILES IDX 31 36 32 37 33 38 68 39 34 40 73 41 67 42 69 43 35 44 72 45
REMARK SMILES IDX 66 46 65 47 36 49 58 50 43 51 57 52 44 53 47 54 56 55 70 56
REMARK SMILES IDX 45 57 46 58 55 60 71 61 48 62 37 63 38 64 42 65 39 66 41 67
REMARK SMILES IDX 40 68 59 69 60 70 64 71 61 72 63 73 62 74 49 75 50 76 54 77
REMARK SMILES IDX 51 78 53 79 52 80
REMARK H PARENT 20 5 25 29 69 48 47 59
REMARK Flexibility Score: inf
ROOT
ATOM      1  C   UNL A   1      40.026  21.396  26.343  1.00  0.00     0.116 C 
ENDROOT
BRANCH   1   2
ATOM      2  N   UNL A   1      39.176  22.547  26.560  1.00  0.00    -0.356 N 
ATOM      3  C   UNL A   1      38.044  23.002  25.970  1.00  0.00     0.220 C 
ATOM      4  O   UNL A   1      37.534  23.998  26.501  1.00  0.00    -0.275 OA
ATOM      5  H   UNL A   1      39.487  23.125  27.295  1.00  0.00     0.163 HD
BRANCH   3   6
ATOM      6  C   UNL A   1      37.332  22.352  24.792  1.00  0.00     0.102 C 
BRANCH   6   7
ATOM      7  C   UNL A   1      36.039  21.565  24.970  1.00  0.00     0.032 C 
BRANCH   7   8
ATOM      8  C   UNL A   1      34.720  21.989  24.333  1.00  0.00     0.127 C 
BRANCH   8   9
ATOM      9  N   UNL A   1      33.537  22.376  25.120  1.00  0.00    -0.303 N 
ATOM     10  C   UNL A   1      32.440  26.476  25.506  1.00  0.00     0.000 C 
ATOM     11  C   UNL A   1      33.941  26.176  25.726  1.00  0.00     0.011 C 
ATOM     12  C   UNL A   1      31.621  25.366  26.220  1.00  0.00     0.053 C 
ATOM     13  C   UNL A   1      34.399  24.770  25.300  1.00  0.00     0.055 C 
ATOM     14  C   UNL A   1      32.120  24.000  25.923  1.00  0.00     0.030 A 
ATOM     15  C   UNL A   1      33.350  23.715  25.479  1.00  0.00     0.035 A 
ATOM     16  S   UNL A   1      31.120  22.605  26.025  1.00  0.00    -0.079 S 
ATOM     17  C   UNL A   1      32.388  21.597  25.309  1.00  0.00     0.307 A 
ATOM     18  O   UNL A   1      32.152  20.454  24.994  1.00  0.00    -0.257 OA
BRANCH  10  19
ATOM     19  C   UNL A   1      32.005  26.877  24.025  1.00  0.00    -0.032 C 
ATOM     20  C   UNL A   1      33.182  27.655  23.386  1.00  0.00     0.011 C 
ATOM     21  C   UNL A   1      30.809  27.865  24.068  1.00  0.00     0.011 C 
BRANCH  19  22
ATOM     22  C   UNL A   1      31.572  25.717  23.079  1.00  0.00     0.003 C 
ATOM     23  C   UNL A   1      32.596  25.203  22.069  1.00  0.00     0.004 C 
ENDBRANCH  19  22
ENDBRANCH  10  19
ENDBRANCH   8   9
ENDBRANCH   7   8
ENDBRANCH   6   7
ENDBRANCH   3   6
ENDBRANCH   1   2
BRANCH   1  24
ATOM     24  C   UNL A   1      41.171  21.324  27.366  1.00  0.00     0.023 C 
BRANCH  24  25
ATOM     25  C   UNL A   1      42.189  20.196  27.162  1.00  0.00     0.023 C 
BRANCH  25  26
ATOM     26  C   UNL A   1      42.217  19.610  25.755  1.00  0.00     0.116 C 
BRANCH  26  27
ATOM     27  N   UNL A   1      43.561  19.268  25.292  1.00  0.00    -0.352 N 
ATOM     28  C   UNL A   1      44.514  20.143  24.801  1.00  0.00     0.251 C 
ATOM     29  H   UNL A   1      43.812  18.318  25.332  1.00  0.00     0.163 HD
ATOM     30  O   UNL A   1      45.411  19.756  24.061  1.00  0.00    -0.269 OA
BRANCH  28  31
ATOM     31  C   UNL A   1      44.443  21.557  25.214  1.00  0.00     0.039 A 
ATOM     32  C   UNL A   1      43.485  22.427  24.687  1.00  0.00     0.014 A 
ATOM     33  C   UNL A   1      45.347  21.989  26.185  1.00  0.00     0.014 A 
ATOM     34  C   UNL A   1      43.394  23.716  25.212  1.00  0.00     0.010 A 
ATOM     35  C   UNL A   1      45.182  23.217  26.781  1.00  0.00     0.010 A 
ATOM     36  C   UNL A   1      44.231  24.097  26.278  1.00  0.00    -0.014 A 
BRANCH  36  37
ATOM     37  C   UNL A   1      43.976  25.331  27.020  1.00  0.00     0.031 A 
ATOM     38  C   UNL A   1      44.967  26.399  26.709  1.00  0.00     0.074 A 
ATOM     39  C   UNL A   1      42.850  25.571  27.732  1.00  0.00     0.049 A 
ATOM     40  N   UNL A   1      45.907  26.833  27.480  1.00  0.00    -0.248 NA
ATOM     41  C   UNL A   1      45.053  26.908  25.326  1.00  0.00     0.031 C 
ATOM     42  C   UNL A   1      41.662  24.718  27.854  1.00  0.00     0.029 A 
ATOM     43  N   UNL A   1      42.474  26.685  28.425  1.00  0.00    -0.354 N 
ATOM     44  C   UNL A   1      46.540  27.850  26.771  1.00  0.00     0.074 A 
ATOM     45  C   UNL A   1      46.129  27.696  25.400  1.00  0.00     0.031 C 
ATOM     46  C   UNL A   1      40.631  25.433  28.362  1.00  0.00     0.029 A 
ATOM     47  C   UNL A   1      41.117  26.745  28.751  1.00  0.00     0.049 A 
ATOM     48  H   UNL A   1      43.112  27.392  28.678  1.00  0.00     0.167 HD
ATOM     49  C   UNL A   1      47.081  28.914  27.429  1.00  0.00     0.031 A 
ATOM     50  C   UNL A   1      40.442  27.800  29.284  1.00  0.00     0.031 A 
ATOM     51  C   UNL A   1      47.200  28.637  28.841  1.00  0.00     0.049 A 
ATOM     52  C   UNL A   1      41.448  28.708  29.873  1.00  0.00     0.074 A 
ATOM     53  C   UNL A   1      47.842  27.687  29.609  1.00  0.00     0.029 A 
ATOM     54  N   UNL A   1      46.225  29.183  29.640  1.00  0.00    -0.354 N 
ATOM     55  N   UNL A   1      42.142  28.415  30.932  1.00  0.00    -0.248 NA
ATOM     56  C   UNL A   1      41.999  29.748  29.024  1.00  0.00     0.031 C 
ATOM     57  C   UNL A   1      46.933  27.396  30.669  1.00  0.00     0.029 A 
ATOM     58  C   UNL A   1      45.834  28.249  30.558  1.00  0.00     0.049 A 
ATOM     59  H   UNL A   1      45.866  30.096  29.564  1.00  0.00     0.167 HD
ATOM     60  C   UNL A   1      43.420  28.857  30.632  1.00  0.00     0.074 A 
ATOM     61  C   UNL A   1      43.248  29.766  29.496  1.00  0.00     0.031 C 
ATOM     62  C   UNL A   1      44.511  28.211  31.138  1.00  0.00     0.031 A 
BRANCH  49  63
ATOM     63  C   UNL A   1      47.004  30.340  26.917  1.00  0.00    -0.014 A 
ATOM     64  C   UNL A   1      48.122  31.174  27.117  1.00  0.00     0.009 A 
ATOM     65  C   UNL A   1      45.808  30.978  26.546  1.00  0.00     0.009 A 
ATOM     66  C   UNL A   1      48.014  32.569  27.062  1.00  0.00     0.001 A 
ATOM     67  C   UNL A   1      45.706  32.369  26.448  1.00  0.00     0.001 A 
ATOM     68  C   UNL A   1      46.801  33.166  26.740  1.00  0.00     0.000 A 
ENDBRANCH  49  63
BRANCH  50  69
ATOM     69  C   UNL A   1      39.032  28.243  29.151  1.00  0.00    -0.014 A 
ATOM     70  C   UNL A   1      38.190  28.291  30.280  1.00  0.00     0.009 A 
ATOM     71  C   UNL A   1      38.607  28.923  27.998  1.00  0.00     0.009 A 
ATOM     72  C   UNL A   1      37.004  29.041  30.274  1.00  0.00     0.001 A 
ATOM     73  C   UNL A   1      37.420  29.671  27.992  1.00  0.00     0.001 A 
ATOM     74  C   UNL A   1      36.629  29.746  29.135  1.00  0.00     0.000 A 
ENDBRANCH  50  69
BRANCH  62  75
ATOM     75  C   UNL A   1      44.298  27.232  32.266  1.00  0.00    -0.014 A 
ATOM     76  C   UNL A   1      44.272  25.834  32.110  1.00  0.00     0.009 A 
ATOM     77  C   UNL A   1      44.246  27.756  33.566  1.00  0.00     0.009 A 
ATOM     78  C   UNL A   1      44.163  24.994  33.224  1.00  0.00     0.001 A 
ATOM     79  C   UNL A   1      44.161  26.918  34.678  1.00  0.00     0.001 A 
ATOM     80  C   UNL A   1      44.112  25.537  34.507  1.00  0.00     0.000 A 
ENDBRANCH  62  75
ENDBRANCH  36  37
ENDBRANCH  28  31
ENDBRANCH  26  27
ENDBRANCH  25  26
ENDBRANCH  24  25
ENDBRANCH   1  24
TORSDOF 16
ENDMDL
MODEL 2
REMARK VINA RESULT:     -10.9      1.246      1.766
REMARK SMILES CCC(C)(C)[C@@H]1CCc2c(sc(=O)n2CCCC(=O)NCCCCNC(=O)c2ccc(-c3c4nc(c(-c5ccccc5)c5ccc([nH]5)c(-c5ccccc5)c5nc(c(-c6ccccc6)c6ccc3[nH]6)C=C5)C=C4)cc2)C1
REMARK SMILES IDX 21 1 20 2 18 3 19 4 17 6 16 7 15 8 14 9 6 10 7 11 76 12 8 13
REMARK SMILES IDX 10 14 9 15 11 16 12 17 13 18 3 19 4 20 5 21 2 22 1 23 22 24
REMARK SMILES IDX 23 25 24 26 25 27 26 28 27 30 28 31 29 32 75 33 30 34 74 35
REMARK SMILES IDX 31 36 32 37 33 38 68 39 34 40 73 41 67 42 69 43 35 44 72 45
REMARK SMILES IDX 66 46 65 47 36 49 58 50 43 51 57 52 44 53 47 54 56 55 70 56
REMARK SMILES IDX 45 57 46 58 55 60 71 61 48 62 37 63 38 64 42 65 39 66 41 67
REMARK SMILES IDX 40 68 59 69 60 70 64 71 61 72 63 73 62 74 49 75 50 76 54 77
REMARK SMILES IDX 51 78 53 79 52 80
REMARK H PARENT 20 5 25 29 69 48 47 59
REMARK Flexibility Score: inf
ROOT
ATOM      1  C   UNL A   1      39.508  21.907  26.566  1.00  0.00     0.116 C 
ENDROOT
BRANCH   1   2
ATOM      2  N   UNL A   1      38.673  21.852  25.384  1.00  0.00    -0.356 N 
ATOM      3  C   UNL A   1      37.421  22.284  25.099  1.00  0.00     0.220 C 
ATOM      4  O   UNL A   1      37.067  22.139  23.920  1.00  0.00    -0.275 OA
ATOM      5  H   UNL A   1      39.110  21.404  24.623  1.00  0.00     0.163 HD
BRANCH   3   6
ATOM      6  C   UNL A   1      36.479  22.985  26.066  1.00  0.00     0.102 C 
BRANCH   6   7
ATOM      7  C   UNL A   1      35.437  23.988  25.588  1.00  0.00     0.032 C 
BRANCH   7   8
ATOM      8  C   UNL A   1      34.004  23.590  25.247  1.00  0.00     0.127 C 
BRANCH   8   9
ATOM      9  N   UNL A   1      33.233  24.221  24.162  1.00  0.00    -0.303 N 
ATOM     10  C   UNL A   1      30.887  27.699  24.913  1.00  0.00     0.000 C 
ATOM     11  C   UNL A   1      30.727  26.564  25.951  1.00  0.00     0.011 C 
ATOM     12  C   UNL A   1      30.919  27.055  23.501  1.00  0.00     0.053 C 
ATOM     13  C   UNL A   1      31.775  25.440  25.863  1.00  0.00     0.055 C 
ATOM     14  C   UNL A   1      31.833  25.887  23.419  1.00  0.00     0.030 A 
ATOM     15  C   UNL A   1      32.254  25.171  24.469  1.00  0.00     0.035 A 
ATOM     16  S   UNL A   1      32.549  25.371  21.944  1.00  0.00    -0.079 S 
ATOM     17  C   UNL A   1      33.570  24.207  22.803  1.00  0.00     0.307 A 
ATOM     18  O   UNL A   1      34.447  23.618  22.216  1.00  0.00    -0.257 OA
BRANCH  10  19
ATOM     19  C   UNL A   1      31.982  28.811  25.242  1.00  0.00    -0.032 C 
ATOM     20  C   UNL A   1      31.270  30.187  25.228  1.00  0.00     0.011 C 
ATOM     21  C   UNL A   1      33.045  28.864  24.112  1.00  0.00     0.011 C 
BRANCH  19  22
ATOM     22  C   UNL A   1      32.776  28.648  26.573  1.00  0.00     0.003 C 
ATOM     23  C   UNL A   1      34.246  28.244  26.479  1.00  0.00     0.004 C 
ENDBRANCH  19  22
ENDBRANCH  10  19
ENDBRANCH   8   9
ENDBRANCH   7   8
ENDBRANCH   6   7
ENDBRANCH   3   6
ENDBRANCH   1   2
BRANCH   1  24
ATOM     24  C   UNL A   1      40.990  21.674  26.237  1.00  0.00     0.023 C 
BRANCH  24  25
ATOM     25  C   UNL A   1      41.401  20.223  25.964  1.00  0.00     0.023 C 
BRANCH  25  26
ATOM     26  C   UNL A   1      42.719  19.803  26.603  1.00  0.00     0.116 C 
BRANCH  26  27
ATOM     27  N   UNL A   1      43.790  19.571  25.636  1.00  0.00    -0.352 N 
ATOM     28  C   UNL A   1      44.395  20.518  24.829  1.00  0.00     0.251 C 
ATOM     29  H   UNL A   1      44.114  18.645  25.550  1.00  0.00     0.163 HD
ATOM     30  O   UNL A   1      44.951  20.201  23.784  1.00  0.00    -0.269 OA
BRANCH  28  31
ATOM     31  C   UNL A   1      44.379  21.925  25.271  1.00  0.00     0.039 A 
ATOM     32  C   UNL A   1      43.638  22.897  24.594  1.00  0.00     0.014 A 
ATOM     33  C   UNL A   1      45.103  22.246  26.419  1.00  0.00     0.014 A 
ATOM     34  C   UNL A   1      43.568  24.181  25.136  1.00  0.00     0.010 A 
ATOM     35  C   UNL A   1      44.940  23.474  27.015  1.00  0.00     0.010 A 
ATOM     36  C   UNL A   1      44.202  24.456  26.362  1.00  0.00    -0.014 A 
BRANCH  36  37
ATOM     37  C   UNL A   1      43.922  25.698  27.083  1.00  0.00     0.031 A 
ATOM     38  C   UNL A   1      44.871  26.791  26.726  1.00  0.00     0.074 A 
ATOM     39  C   UNL A   1      42.805  25.916  27.814  1.00  0.00     0.049 A 
ATOM     40  N   UNL A   1      45.812  27.272  27.466  1.00  0.00    -0.248 NA
ATOM     41  C   UNL A   1      44.910  27.270  25.331  1.00  0.00     0.031 C 
ATOM     42  C   UNL A   1      41.650  25.027  27.982  1.00  0.00     0.029 A 
ATOM     43  N   UNL A   1      42.407  27.033  28.491  1.00  0.00    -0.354 N 
ATOM     44  C   UNL A   1      46.395  28.293  26.721  1.00  0.00     0.074 A 
ATOM     45  C   UNL A   1      45.959  28.094  25.363  1.00  0.00     0.031 C 
ATOM     46  C   UNL A   1      40.606  25.720  28.497  1.00  0.00     0.029 A 
ATOM     47  C   UNL A   1      41.056  27.056  28.846  1.00  0.00     0.049 A 
ATOM     48  H   UNL A   1      43.026  27.766  28.714  1.00  0.00     0.167 HD
ATOM     49  C   UNL A   1      46.914  29.389  27.343  1.00  0.00     0.031 A 
ATOM     50  C   UNL A   1      40.358  28.100  29.371  1.00  0.00     0.031 A 
ATOM     51  C   UNL A   1      47.074  29.149  28.758  1.00  0.00     0.049 A 
ATOM     52  C   UNL A   1      41.346  29.053  29.917  1.00  0.00     0.074 A 
ATOM     53  C   UNL A   1      47.763  28.238  29.532  1.00  0.00     0.029 A 
ATOM     54  N   UNL A   1      46.098  29.680  29.566  1.00  0.00    -0.354 N 
ATOM     55  N   UNL A   1      42.072  28.808  30.966  1.00  0.00    -0.248 NA
ATOM     56  C   UNL A   1      41.844  30.092  29.033  1.00  0.00     0.031 C 
ATOM     57  C   UNL A   1      46.887  27.941  30.618  1.00  0.00     0.029 A 
ATOM     58  C   UNL A   1      45.759  28.755  30.513  1.00  0.00     0.049 A 
ATOM     59  H   UNL A   1      45.707  30.579  29.478  1.00  0.00     0.167 HD
ATOM     60  C   UNL A   1      43.328  29.285  30.628  1.00  0.00     0.074 A 
ATOM     61  C   UNL A   1      43.101  30.161  29.476  1.00  0.00     0.031 C 
ATOM     62  C   UNL A   1      44.451  28.687  31.123  1.00  0.00     0.031 A 
BRANCH  49  63
ATOM     63  C   UNL A   1      46.779  30.799  26.801  1.00  0.00    -0.014 A 
ATOM     64  C   UNL A   1      47.894  31.655  26.903  1.00  0.00     0.009 A 
ATOM     65  C   UNL A   1      45.549  31.410  26.498  1.00  0.00     0.009 A 
ATOM     66  C   UNL A   1      47.759  33.047  26.820  1.00  0.00     0.001 A 
ATOM     67  C   UNL A   1      45.418  32.796  26.372  1.00  0.00     0.001 A 
ATOM     68  C   UNL A   1      46.517  33.617  26.567  1.00  0.00     0.000 A 
ENDBRANCH  49  63
BRANCH  50  69
ATOM     69  C   UNL A   1      38.932  28.493  29.259  1.00  0.00    -0.014 A 
ATOM     70  C   UNL A   1      38.133  28.614  30.415  1.00  0.00     0.009 A 
ATOM     71  C   UNL A   1      38.442  29.063  28.073  1.00  0.00     0.009 A 
ATOM     72  C   UNL A   1      36.926  29.329  30.395  1.00  0.00     0.001 A 
ATOM     73  C   UNL A   1      37.234  29.775  28.053  1.00  0.00     0.001 A 
ATOM     74  C   UNL A   1      36.487  29.925  29.218  1.00  0.00     0.000 A 
ENDBRANCH  50  69
BRANCH  62  75
ATOM     75  C   UNL A   1      44.295  27.727  32.277  1.00  0.00    -0.014 A 
ATOM     76  C   UNL A   1      44.145  26.335  32.137  1.00  0.00     0.009 A 
ATOM     77  C   UNL A   1      44.433  28.254  33.570  1.00  0.00     0.009 A 
ATOM     78  C   UNL A   1      44.101  25.506  33.265  1.00  0.00     0.001 A 
ATOM     79  C   UNL A   1      44.414  27.425  34.691  1.00  0.00     0.001 A 
ATOM     80  C   UNL A   1      44.239  26.052  34.540  1.00  0.00     0.000 A 
ENDBRANCH  62  75
ENDBRANCH  36  37
ENDBRANCH  28  31
ENDBRANCH  26  27
ENDBRANCH  25  26
ENDBRANCH  24  25
ENDBRANCH   1  24
TORSDOF 16
ENDMDL
MODEL 3
REMARK VINA RESULT:     -10.7      4.383      9.606
REMARK SMILES CCC(C)(C)[C@@H]1CCc2c(sc(=O)n2CCCC(=O)NCCCCNC(=O)c2ccc(-c3c4nc(c(-c5ccccc5)c5ccc([nH]5)c(-c5ccccc5)c5nc(c(-c6ccccc6)c6ccc3[nH]6)C=C5)C=C4)cc2)C1
REMARK SMILES IDX 21 1 20 2 18 3 19 4 17 6 16 7 15 8 14 9 6 10 7 11 76 12 8 13
REMARK SMILES IDX 10 14 9 15 11 16 12 17 13 18 3 19 4 20 5 21 2 22 1 23 22 24
REMARK SMILES IDX 23 25 24 26 25 27 26 28 27 30 28 31 29 32 75 33 30 34 74 35
REMARK SMILES IDX 31 36 32 37 33 38 68 39 34 40 73 41 67 42 69 43 35 44 72 45
REMARK SMILES IDX 66 46 65 47 36 49 58 50 43 51 57 52 44 53 47 54 56 55 70 56
REMARK SMILES IDX 45 57 46 58 55 60 71 61 48 62 37 63 38 64 42 65 39 66 41 67
REMARK SMILES IDX 40 68 59 69 60 70 64 71 61 72 63 73 62 74 49 75 50 76 54 77
REMARK SMILES IDX 51 78 53 79 52 80
REMARK H PARENT 20 5 25 29 69 48 47 59
REMARK Flexibility Score: inf
ROOT
ATOM      1  C   UNL A   1      34.553  31.810  28.178  1.00  0.00     0.116 C 
ENDROOT
BRANCH   1   2
ATOM      2  N   UNL A   1      33.380  31.282  27.513  1.00  0.00    -0.356 N 
ATOM      3  C   UNL A   1      33.043  30.059  27.036  1.00  0.00     0.220 C 
ATOM      4  O   UNL A   1      31.886  29.961  26.605  1.00  0.00    -0.275 OA
ATOM      5  H   UNL A   1      32.676  31.957  27.379  1.00  0.00     0.163 HD
BRANCH   3   6
ATOM      6  C   UNL A   1      33.922  28.818  27.066  1.00  0.00     0.102 C 
BRANCH   6   7
ATOM      7  C   UNL A   1      33.488  27.511  26.415  1.00  0.00     0.032 C 
BRANCH   7   8
ATOM      8  C   UNL A   1      33.521  27.289  24.906  1.00  0.00     0.127 C 
BRANCH   8   9
ATOM      9  N   UNL A   1      32.582  26.396  24.206  1.00  0.00    -0.303 N 
ATOM     10  C   UNL A   1      33.571  22.303  23.545  1.00  0.00     0.000 C 
ATOM     11  C   UNL A   1      34.694  23.311  23.207  1.00  0.00     0.011 C 
ATOM     12  C   UNL A   1      32.230  22.889  23.024  1.00  0.00     0.053 C 
ATOM     13  C   UNL A   1      34.464  24.746  23.717  1.00  0.00     0.055 C 
ATOM     14  C   UNL A   1      32.038  24.313  23.398  1.00  0.00     0.030 A 
ATOM     15  C   UNL A   1      33.022  25.152  23.743  1.00  0.00     0.035 A 
ATOM     16  S   UNL A   1      30.484  25.036  23.528  1.00  0.00    -0.079 S 
ATOM     17  C   UNL A   1      31.186  26.513  24.207  1.00  0.00     0.307 A 
ATOM     18  O   UNL A   1      30.470  27.380  24.650  1.00  0.00    -0.257 OA
BRANCH  10  19
ATOM     19  C   UNL A   1      33.586  21.691  25.018  1.00  0.00    -0.032 C 
ATOM     20  C   UNL A   1      34.712  20.629  25.071  1.00  0.00     0.011 C 
ATOM     21  C   UNL A   1      32.262  20.930  25.293  1.00  0.00     0.011 C 
BRANCH  19  22
ATOM     22  C   UNL A   1      33.759  22.695  26.197  1.00  0.00     0.003 C 
ATOM     23  C   UNL A   1      32.496  23.192  26.899  1.00  0.00     0.004 C 
ENDBRANCH  19  22
ENDBRANCH  10  19
ENDBRANCH   8   9
ENDBRANCH   7   8
ENDBRANCH   6   7
ENDBRANCH   3   6
ENDBRANCH   1   2
BRANCH   1  24
ATOM     24  C   UNL A   1      34.621  33.342  28.098  1.00  0.00     0.023 C 
BRANCH  24  25
ATOM     25  C   UNL A   1      33.488  34.105  28.794  1.00  0.00     0.023 C 
BRANCH  25  26
ATOM     26  C   UNL A   1      33.888  35.460  29.364  1.00  0.00     0.116 C 
BRANCH  26  27
ATOM     27  N   UNL A   1      33.261  35.761  30.651  1.00  0.00    -0.352 N 
ATOM     28  C   UNL A   1      33.367  35.021  31.814  1.00  0.00     0.251 C 
ATOM     29  H   UNL A   1      32.707  36.573  30.692  1.00  0.00     0.163 HD
ATOM     30  O   UNL A   1      32.510  35.085  32.688  1.00  0.00    -0.269 OA
BRANCH  28  31
ATOM     31  C   UNL A   1      34.555  34.167  31.994  1.00  0.00     0.039 A 
ATOM     32  C   UNL A   1      34.473  32.773  31.931  1.00  0.00     0.014 A 
ATOM     33  C   UNL A   1      35.780  34.804  32.192  1.00  0.00     0.014 A 
ATOM     34  C   UNL A   1      35.653  32.032  31.985  1.00  0.00     0.010 A 
ATOM     35  C   UNL A   1      36.949  34.083  32.128  1.00  0.00     0.010 A 
ATOM     36  C   UNL A   1      36.892  32.695  32.059  1.00  0.00    -0.014 A 
BRANCH  36  37
ATOM     37  C   UNL A   1      38.142  31.966  31.844  1.00  0.00     0.031 A 
ATOM     38  C   UNL A   1      38.830  31.624  33.121  1.00  0.00     0.074 A 
ATOM     39  C   UNL A   1      38.527  31.453  30.653  1.00  0.00     0.049 A 
ATOM     40  N   UNL A   1      39.912  32.153  33.584  1.00  0.00    -0.248 NA
ATOM     41  C   UNL A   1      38.143  30.742  34.084  1.00  0.00     0.031 C 
ATOM     42  C   UNL A   1      37.781  31.453  29.388  1.00  0.00     0.029 A 
ATOM     43  N   UNL A   1      39.634  30.723  30.331  1.00  0.00    -0.354 N 
ATOM     44  C   UNL A   1      40.181  31.485  34.775  1.00  0.00     0.074 A 
ATOM     45  C   UNL A   1      38.964  30.806  35.135  1.00  0.00     0.031 C 
ATOM     46  C   UNL A   1      38.335  30.567  28.527  1.00  0.00     0.029 A 
ATOM     47  C   UNL A   1      39.562  30.052  29.108  1.00  0.00     0.049 A 
ATOM     48  H   UNL A   1      40.424  30.673  30.917  1.00  0.00     0.167 HD
ATOM     49  C   UNL A   1      41.468  31.290  35.179  1.00  0.00     0.031 A 
ATOM     50  C   UNL A   1      40.437  29.131  28.619  1.00  0.00     0.031 A 
ATOM     51  C   UNL A   1      42.374  32.132  34.434  1.00  0.00     0.049 A 
ATOM     52  C   UNL A   1      41.696  29.281  29.377  1.00  0.00     0.074 A 
ATOM     53  C   UNL A   1      42.519  33.490  34.235  1.00  0.00     0.029 A 
ATOM     54  N   UNL A   1      43.052  31.519  33.408  1.00  0.00    -0.354 N 
ATOM     55  N   UNL A   1      42.478  30.313  29.268  1.00  0.00    -0.248 NA
ATOM     56  C   UNL A   1      41.855  28.493  30.586  1.00  0.00     0.031 C 
ATOM     57  C   UNL A   1      42.889  33.623  32.864  1.00  0.00     0.029 A 
ATOM     58  C   UNL A   1      43.052  32.348  32.322  1.00  0.00     0.049 A 
ATOM     59  H   UNL A   1      43.469  30.629  33.449  1.00  0.00     0.167 HD
ATOM     60  C   UNL A   1      42.860  30.588  30.571  1.00  0.00     0.074 A 
ATOM     61  C   UNL A   1      42.538  29.373  31.323  1.00  0.00     0.031 C 
ATOM     62  C   UNL A   1      43.116  31.871  30.960  1.00  0.00     0.031 A 
BRANCH  49  63
ATOM     63  C   UNL A   1      41.954  30.010  35.833  1.00  0.00    -0.014 A 
ATOM     64  C   UNL A   1      43.096  30.081  36.655  1.00  0.00     0.009 A 
ATOM     65  C   UNL A   1      41.547  28.723  35.438  1.00  0.00     0.009 A 
ATOM     66  C   UNL A   1      43.849  28.941  36.963  1.00  0.00     0.001 A 
ATOM     67  C   UNL A   1      42.272  27.577  35.779  1.00  0.00     0.001 A 
ATOM     68  C   UNL A   1      43.442  27.690  36.513  1.00  0.00     0.000 A 
ENDBRANCH  49  63
BRANCH  50  69
ATOM     69  C   UNL A   1      40.249  27.968  27.717  1.00  0.00    -0.014 A 
ATOM     70  C   UNL A   1      41.072  27.803  26.585  1.00  0.00     0.009 A 
ATOM     71  C   UNL A   1      39.496  26.859  28.136  1.00  0.00     0.009 A 
ATOM     72  C   UNL A   1      41.183  26.562  25.939  1.00  0.00     0.001 A 
ATOM     73  C   UNL A   1      39.605  25.619  27.488  1.00  0.00     0.001 A 
ATOM     74  C   UNL A   1      40.463  25.466  26.402  1.00  0.00     0.000 A 
ENDBRANCH  50  69
BRANCH  62  75
ATOM     75  C   UNL A   1      43.289  32.918  29.887  1.00  0.00    -0.014 A 
ATOM     76  C   UNL A   1      44.374  32.967  28.993  1.00  0.00     0.009 A 
ATOM     77  C   UNL A   1      42.234  33.823  29.701  1.00  0.00     0.009 A 
ATOM     78  C   UNL A   1      44.409  33.918  27.967  1.00  0.00     0.001 A 
ATOM     79  C   UNL A   1      42.258  34.755  28.664  1.00  0.00     0.001 A 
ATOM     80  C   UNL A   1      43.349  34.808  27.801  1.00  0.00     0.000 A 
ENDBRANCH  62  75
ENDBRANCH  36  37
ENDBRANCH  28  31
ENDBRANCH  26  27
ENDBRANCH  25  26
ENDBRANCH  24  25
ENDBRANCH   1  24
TORSDOF 16
ENDMDL
