MODEL 1
REMARK VINA RESULT:      -9.8      0.000      0.000
REMARK SMILES C[C@H](C(=O)NCCCCNC(=O)c1ccc(-c2c3nc(c(-c4ccccc4)c4ccc([nH]4)c(-c4ccccc4)c4nc(c(-c5ccccc5)c5ccc2[nH]5)C=C4)C=C3)cc1)[C@H](C)[S@@](=O)C(C)(C)C
REMARK SMILES IDX 7 1 6 2 5 3 3 4 4 5 2 7 1 8 61 9 62 10 63 11 64 12 65 13
REMARK SMILES IDX 66 14 67 15 68 16 8 17 9 18 10 19 11 20 12 22 13 23 14 24
REMARK SMILES IDX 60 25 15 26 59 27 16 28 17 29 18 30 53 31 19 32 58 33 52 34
REMARK SMILES IDX 54 35 20 36 57 37 51 38 50 39 21 41 43 42 28 43 42 44 29 45
REMARK SMILES IDX 32 46 41 47 55 48 30 49 31 50 40 52 56 53 33 54 22 55 23 56
REMARK SMILES IDX 27 57 24 58 26 59 25 60 44 61 45 62 49 63 46 64 48 65 47 66
REMARK SMILES IDX 34 67 35 68 39 69 36 70 38 71 37 72
REMARK H PARENT 5 6 10 21 54 40 32 51
REMARK Flexibility Score: inf
ROOT
ATOM      1  C   UNL A   1      31.644  30.894  26.432  1.00  0.00     0.023 C 
ENDROOT
BRANCH   1   2
ATOM      2  C   UNL A   1      32.684  30.106  27.224  1.00  0.00     0.116 C 
BRANCH   2   3
ATOM      3  N   UNL A   1      32.178  28.784  27.557  1.00  0.00    -0.356 N 
ATOM      4  C   UNL A   1      31.672  27.801  26.752  1.00  0.00     0.224 C 
ATOM      5  O   UNL A   1      31.151  26.825  27.296  1.00  0.00    -0.275 OA
ATOM      6  H   UNL A   1      32.204  28.561  28.516  1.00  0.00     0.163 HD
BRANCH   4   7
ATOM      7  C   UNL A   1      31.896  27.833  25.236  1.00  0.00     0.090 C 
ATOM      8  C   UNL A   1      32.729  26.566  24.947  1.00  0.00     0.019 C 
BRANCH   7   9
ATOM      9  C   UNL A   1      30.576  27.829  24.423  1.00  0.00     0.089 C 
ATOM     10  C   UNL A   1      29.941  26.451  24.231  1.00  0.00     0.023 C 
BRANCH   9  11
ATOM     11  S   UNL A   1      30.564  28.764  22.852  1.00  0.00     0.030 S 
ATOM     12  O   UNL A   1      30.523  27.801  21.708  1.00  0.00    -0.259 OA
BRANCH  11  13
ATOM     13  C   UNL A   1      29.094  29.876  22.801  1.00  0.00     0.038 C 
ATOM     14  C   UNL A   1      29.103  31.039  23.784  1.00  0.00     0.025 C 
ATOM     15  C   UNL A   1      28.942  30.443  21.381  1.00  0.00     0.025 C 
ATOM     16  C   UNL A   1      27.846  28.998  23.067  1.00  0.00     0.025 C 
ENDBRANCH  11  13
ENDBRANCH   9  11
ENDBRANCH   7   9
ENDBRANCH   4   7
ENDBRANCH   2   3
ENDBRANCH   1   2
BRANCH   1  17
ATOM     17  C   UNL A   1      31.363  32.308  26.908  1.00  0.00     0.023 C 
BRANCH  17  18
ATOM     18  C   UNL A   1      32.609  33.175  26.981  1.00  0.00     0.116 C 
BRANCH  18  19
ATOM     19  N   UNL A   1      32.537  34.255  27.965  1.00  0.00    -0.352 N 
ATOM     20  C   UNL A   1      33.395  34.542  29.000  1.00  0.00     0.251 C 
ATOM     21  H   UNL A   1      31.766  34.860  27.872  1.00  0.00     0.163 HD
ATOM     22  O   UNL A   1      33.159  35.471  29.767  1.00  0.00    -0.269 OA
BRANCH  20  23
ATOM     23  C   UNL A   1      34.568  33.674  29.219  1.00  0.00     0.039 A 
ATOM     24  C   UNL A   1      35.833  34.149  28.870  1.00  0.00     0.014 A 
ATOM     25  C   UNL A   1      34.427  32.447  29.869  1.00  0.00     0.014 A 
ATOM     26  C   UNL A   1      36.965  33.439  29.270  1.00  0.00     0.010 A 
ATOM     27  C   UNL A   1      35.551  31.807  30.370  1.00  0.00     0.010 A 
ATOM     28  C   UNL A   1      36.833  32.296  30.078  1.00  0.00    -0.014 A 
BRANCH  28  29
ATOM     29  C   UNL A   1      38.020  31.602  30.634  1.00  0.00     0.031 A 
ATOM     30  C   UNL A   1      38.530  31.960  32.003  1.00  0.00     0.074 A 
ATOM     31  C   UNL A   1      38.684  30.705  29.875  1.00  0.00     0.049 A 
ATOM     32  N   UNL A   1      39.581  31.505  32.636  1.00  0.00    -0.248 NA
ATOM     33  C   UNL A   1      37.786  32.993  32.744  1.00  0.00     0.031 C 
ATOM     34  C   UNL A   1      38.343  30.333  28.499  1.00  0.00     0.029 A 
ATOM     35  N   UNL A   1      39.788  29.942  30.158  1.00  0.00    -0.354 N 
ATOM     36  C   UNL A   1      39.635  32.214  33.830  1.00  0.00     0.074 A 
ATOM     37  C   UNL A   1      38.555  33.173  33.806  1.00  0.00     0.031 C 
ATOM     38  C   UNL A   1      39.190  29.380  28.077  1.00  0.00     0.029 A 
ATOM     39  C   UNL A   1      40.152  29.099  29.137  1.00  0.00     0.049 A 
ATOM     40  H   UNL A   1      40.274  29.993  31.014  1.00  0.00     0.167 HD
ATOM     41  C   UNL A   1      40.487  32.059  34.871  1.00  0.00     0.031 A 
ATOM     42  C   UNL A   1      41.144  28.192  29.067  1.00  0.00     0.031 A 
ATOM     43  C   UNL A   1      41.537  31.081  34.912  1.00  0.00     0.049 A 
ATOM     44  C   UNL A   1      42.039  28.000  30.259  1.00  0.00     0.074 A 
ATOM     45  C   UNL A   1      42.418  30.802  35.943  1.00  0.00     0.029 A 
ATOM     46  N   UNL A   1      41.840  30.211  33.877  1.00  0.00    -0.354 N 
ATOM     47  N   UNL A   1      42.030  28.629  31.409  1.00  0.00    -0.248 NA
ATOM     48  C   UNL A   1      43.069  26.957  30.149  1.00  0.00     0.031 C 
ATOM     49  C   UNL A   1      43.271  29.778  35.520  1.00  0.00     0.029 A 
ATOM     50  C   UNL A   1      42.895  29.394  34.243  1.00  0.00     0.049 A 
ATOM     51  H   UNL A   1      41.373  30.178  33.011  1.00  0.00     0.167 HD
ATOM     52  C   UNL A   1      43.038  28.047  32.166  1.00  0.00     0.074 A 
ATOM     53  C   UNL A   1      43.618  26.996  31.354  1.00  0.00     0.031 C 
ATOM     54  C   UNL A   1      43.454  28.356  33.418  1.00  0.00     0.031 A 
BRANCH  41  55
ATOM     55  C   UNL A   1      40.291  32.960  36.058  1.00  0.00    -0.014 A 
ATOM     56  C   UNL A   1      40.987  34.175  36.164  1.00  0.00     0.009 A 
ATOM     57  C   UNL A   1      39.391  32.601  37.072  1.00  0.00     0.009 A 
ATOM     58  C   UNL A   1      40.813  34.996  37.279  1.00  0.00     0.001 A 
ATOM     59  C   UNL A   1      39.197  33.439  38.173  1.00  0.00     0.001 A 
ATOM     60  C   UNL A   1      39.915  34.629  38.281  1.00  0.00     0.000 A 
ENDBRANCH  41  55
BRANCH  42  61
ATOM     61  C   UNL A   1      41.324  27.366  27.845  1.00  0.00    -0.014 A 
ATOM     62  C   UNL A   1      42.147  27.814  26.800  1.00  0.00     0.009 A 
ATOM     63  C   UNL A   1      40.660  26.137  27.707  1.00  0.00     0.009 A 
ATOM     64  C   UNL A   1      42.274  27.066  25.627  1.00  0.00     0.001 A 
ATOM     65  C   UNL A   1      40.811  25.379  26.544  1.00  0.00     0.001 A 
ATOM     66  C   UNL A   1      41.608  25.848  25.501  1.00  0.00     0.000 A 
ENDBRANCH  42  61
BRANCH  54  67
ATOM     67  C   UNL A   1      44.569  27.530  33.986  1.00  0.00    -0.014 A 
ATOM     68  C   UNL A   1      44.306  26.344  34.689  1.00  0.00     0.009 A 
ATOM     69  C   UNL A   1      45.899  27.933  33.798  1.00  0.00     0.009 A 
ATOM     70  C   UNL A   1      45.357  25.597  35.226  1.00  0.00     0.001 A 
ATOM     71  C   UNL A   1      46.948  27.171  34.312  1.00  0.00     0.001 A 
ATOM     72  C   UNL A   1      46.675  26.009  35.034  1.00  0.00     0.000 A 
ENDBRANCH  54  67
ENDBRANCH  28  29
ENDBRANCH  20  23
ENDBRANCH  18  19
ENDBRANCH  17  18
ENDBRANCH   1  17
TORSDOF 14
ENDMDL
MODEL 2
REMARK VINA RESULT:      -9.7      3.949      6.896
REMARK SMILES C[C@H](C(=O)NCCCCNC(=O)c1ccc(-c2c3nc(c(-c4ccccc4)c4ccc([nH]4)c(-c4ccccc4)c4nc(c(-c5ccccc5)c5ccc2[nH]5)C=C4)C=C3)cc1)[C@H](C)[S@@](=O)C(C)(C)C
REMARK SMILES IDX 7 1 6 2 5 3 3 4 4 5 2 7 1 8 61 9 62 10 63 11 64 12 65 13
REMARK SMILES IDX 66 14 67 15 68 16 8 17 9 18 10 19 11 20 12 22 13 23 14 24
REMARK SMILES IDX 60 25 15 26 59 27 16 28 17 29 18 30 53 31 19 32 58 33 52 34
REMARK SMILES IDX 54 35 20 36 57 37 51 38 50 39 21 41 43 42 28 43 42 44 29 45
REMARK SMILES IDX 32 46 41 47 55 48 30 49 31 50 40 52 56 53 33 54 22 55 23 56
REMARK SMILES IDX 27 57 24 58 26 59 25 60 44 61 45 62 49 63 46 64 48 65 47 66
REMARK SMILES IDX 34 67 35 68 39 69 36 70 38 71 37 72
REMARK H PARENT 5 6 10 21 54 40 32 51
REMARK Flexibility Score: inf
ROOT
ATOM      1  C   UNL A   1      33.112  34.575  28.355  1.00  0.00     0.023 C 
ENDROOT
BRANCH   1   2
ATOM      2  C   UNL A   1      33.834  35.334  29.465  1.00  0.00     0.116 C 
BRANCH   2   3
ATOM      3  N   UNL A   1      32.877  35.928  30.383  1.00  0.00    -0.356 N 
ATOM      4  C   UNL A   1      32.923  36.066  31.744  1.00  0.00     0.224 C 
ATOM      5  O   UNL A   1      31.904  36.459  32.316  1.00  0.00    -0.275 OA
ATOM      6  H   UNL A   1      32.066  36.289  29.959  1.00  0.00     0.163 HD
BRANCH   4   7
ATOM      7  C   UNL A   1      34.243  35.899  32.507  1.00  0.00     0.090 C 
ATOM      8  C   UNL A   1      33.984  36.577  33.869  1.00  0.00     0.019 C 
BRANCH   7   9
ATOM      9  C   UNL A   1      34.657  34.416  32.693  1.00  0.00     0.089 C 
ATOM     10  C   UNL A   1      33.555  33.501  33.228  1.00  0.00     0.023 C 
BRANCH   9  11
ATOM     11  S   UNL A   1      36.234  34.096  33.561  1.00  0.00     0.030 S 
ATOM     12  O   UNL A   1      35.941  33.601  34.942  1.00  0.00    -0.259 OA
BRANCH  11  13
ATOM     13  C   UNL A   1      37.214  32.843  32.630  1.00  0.00     0.038 C 
ATOM     14  C   UNL A   1      36.851  31.386  32.888  1.00  0.00     0.025 C 
ATOM     15  C   UNL A   1      37.079  33.117  31.124  1.00  0.00     0.025 C 
ATOM     16  C   UNL A   1      38.704  33.064  32.992  1.00  0.00     0.025 C 
ENDBRANCH  11  13
ENDBRANCH   9  11
ENDBRANCH   7   9
ENDBRANCH   4   7
ENDBRANCH   2   3
ENDBRANCH   1   2
BRANCH   1  17
ATOM     17  C   UNL A   1      33.915  33.504  27.638  1.00  0.00     0.023 C 
BRANCH  17  18
ATOM     18  C   UNL A   1      34.285  32.332  28.531  1.00  0.00     0.116 C 
BRANCH  18  19
ATOM     19  N   UNL A   1      33.798  31.036  28.059  1.00  0.00    -0.352 N 
ATOM     20  C   UNL A   1      34.477  29.845  27.946  1.00  0.00     0.251 C 
ATOM     21  H   UNL A   1      32.854  31.013  27.784  1.00  0.00     0.163 HD
ATOM     22  O   UNL A   1      33.923  28.852  27.484  1.00  0.00    -0.269 OA
BRANCH  20  23
ATOM     23  C   UNL A   1      35.903  29.796  28.323  1.00  0.00     0.039 A 
ATOM     24  C   UNL A   1      36.247  29.362  29.605  1.00  0.00     0.014 A 
ATOM     25  C   UNL A   1      36.893  30.067  27.378  1.00  0.00     0.014 A 
ATOM     26  C   UNL A   1      37.584  29.099  29.902  1.00  0.00     0.010 A 
ATOM     27  C   UNL A   1      38.203  29.691  27.635  1.00  0.00     0.010 A 
ATOM     28  C   UNL A   1      38.564  29.202  28.900  1.00  0.00    -0.014 A 
BRANCH  28  29
ATOM     29  C   UNL A   1      39.969  28.796  29.148  1.00  0.00     0.031 A 
ATOM     30  C   UNL A   1      40.919  29.747  29.825  1.00  0.00     0.074 A 
ATOM     31  C   UNL A   1      40.409  27.605  28.695  1.00  0.00     0.049 A 
ATOM     32  N   UNL A   1      42.194  29.596  30.079  1.00  0.00    -0.248 NA
ATOM     33  C   UNL A   1      40.377  31.054  30.235  1.00  0.00     0.031 C 
ATOM     34  C   UNL A   1      39.611  26.628  27.947  1.00  0.00     0.029 A 
ATOM     35  N   UNL A   1      41.641  27.011  28.799  1.00  0.00    -0.354 N 
ATOM     36  C   UNL A   1      42.605  30.793  30.651  1.00  0.00     0.074 A 
ATOM     37  C   UNL A   1      41.467  31.682  30.646  1.00  0.00     0.031 C 
ATOM     38  C   UNL A   1      40.360  25.540  27.703  1.00  0.00     0.029 A 
ATOM     39  C   UNL A   1      41.697  25.755  28.246  1.00  0.00     0.049 A 
ATOM     40  H   UNL A   1      42.413  27.444  29.231  1.00  0.00     0.167 HD
ATOM     41  C   UNL A   1      43.815  31.116  31.166  1.00  0.00     0.031 A 
ATOM     42  C   UNL A   1      42.710  24.871  28.191  1.00  0.00     0.031 A 
ATOM     43  C   UNL A   1      44.937  30.220  31.207  1.00  0.00     0.049 A 
ATOM     44  C   UNL A   1      44.026  25.232  28.822  1.00  0.00     0.074 A 
ATOM     45  C   UNL A   1      46.188  30.428  31.760  1.00  0.00     0.029 A 
ATOM     46  N   UNL A   1      44.936  28.938  30.681  1.00  0.00    -0.354 N 
ATOM     47  N   UNL A   1      44.375  26.342  29.425  1.00  0.00    -0.248 NA
ATOM     48  C   UNL A   1      45.078  24.208  28.784  1.00  0.00     0.031 C 
ATOM     49  C   UNL A   1      46.954  29.277  31.546  1.00  0.00     0.029 A 
ATOM     50  C   UNL A   1      46.165  28.341  30.895  1.00  0.00     0.049 A 
ATOM     51  H   UNL A   1      44.173  28.515  30.224  1.00  0.00     0.167 HD
ATOM     52  C   UNL A   1      45.682  26.144  29.853  1.00  0.00     0.074 A 
ATOM     53  C   UNL A   1      46.050  24.797  29.466  1.00  0.00     0.031 C 
ATOM     54  C   UNL A   1      46.507  27.000  30.501  1.00  0.00     0.031 A 
BRANCH  41  55
ATOM     55  C   UNL A   1      43.968  32.492  31.751  1.00  0.00    -0.014 A 
ATOM     56  C   UNL A   1      43.672  32.739  33.102  1.00  0.00     0.009 A 
ATOM     57  C   UNL A   1      44.427  33.548  30.952  1.00  0.00     0.009 A 
ATOM     58  C   UNL A   1      43.800  34.023  33.632  1.00  0.00     0.001 A 
ATOM     59  C   UNL A   1      44.581  34.827  31.492  1.00  0.00     0.001 A 
ATOM     60  C   UNL A   1      44.258  35.066  32.827  1.00  0.00     0.000 A 
ENDBRANCH  41  55
BRANCH  42  61
ATOM     61  C   UNL A   1      42.517  23.544  27.552  1.00  0.00    -0.014 A 
ATOM     62  C   UNL A   1      42.830  23.355  26.197  1.00  0.00     0.009 A 
ATOM     63  C   UNL A   1      42.000  22.464  28.286  1.00  0.00     0.009 A 
ATOM     64  C   UNL A   1      42.597  22.124  25.580  1.00  0.00     0.001 A 
ATOM     65  C   UNL A   1      41.794  21.226  27.673  1.00  0.00     0.001 A 
ATOM     66  C   UNL A   1      42.082  21.060  26.319  1.00  0.00     0.000 A 
ENDBRANCH  42  61
BRANCH  54  67
ATOM     67  C   UNL A   1      47.874  26.491  30.851  1.00  0.00    -0.014 A 
ATOM     68  C   UNL A   1      48.949  26.633  29.960  1.00  0.00     0.009 A 
ATOM     69  C   UNL A   1      48.093  25.882  32.095  1.00  0.00     0.009 A 
ATOM     70  C   UNL A   1      50.211  26.138  30.295  1.00  0.00     0.001 A 
ATOM     71  C   UNL A   1      49.361  25.412  32.439  1.00  0.00     0.001 A 
ATOM     72  C   UNL A   1      50.415  25.532  31.534  1.00  0.00     0.000 A 
ENDBRANCH  54  67
ENDBRANCH  28  29
ENDBRANCH  20  23
ENDBRANCH  18  19
ENDBRANCH  17  18
ENDBRANCH   1  17
TORSDOF 14
ENDMDL
MODEL 3
REMARK VINA RESULT:      -9.7      4.421      9.237
REMARK SMILES C[C@H](C(=O)NCCCCNC(=O)c1ccc(-c2c3nc(c(-c4ccccc4)c4ccc([nH]4)c(-c4ccccc4)c4nc(c(-c5ccccc5)c5ccc2[nH]5)C=C4)C=C3)cc1)[C@H](C)[S@@](=O)C(C)(C)C
REMARK SMILES IDX 7 1 6 2 5 3 3 4 4 5 2 7 1 8 61 9 62 10 63 11 64 12 65 13
REMARK SMILES IDX 66 14 67 15 68 16 8 17 9 18 10 19 11 20 12 22 13 23 14 24
REMARK SMILES IDX 60 25 15 26 59 27 16 28 17 29 18 30 53 31 19 32 58 33 52 34
REMARK SMILES IDX 54 35 20 36 57 37 51 38 50 39 21 41 43 42 28 43 42 44 29 45
REMARK SMILES IDX 32 46 41 47 55 48 30 49 31 50 40 52 56 53 33 54 22 55 23 56
REMARK SMILES IDX 27 57 24 58 26 59 25 60 44 61 45 62 49 63 46 64 48 65 47 66
REMARK SMILES IDX 34 67 35 68 39 69 36 70 38 71 37 72
REMARK H PARENT 5 6 10 21 54 40 32 51
REMARK Flexibility Score: inf
ROOT
ATOM      1  C   UNL A   1      36.967  21.953  24.263  1.00  0.00     0.023 C 
ENDROOT
BRANCH   1   2
ATOM      2  C   UNL A   1      35.675  22.556  24.808  1.00  0.00     0.116 C 
BRANCH   2   3
ATOM      3  N   UNL A   1      34.662  21.527  24.976  1.00  0.00    -0.356 N 
ATOM      4  C   UNL A   1      33.380  21.459  24.504  1.00  0.00     0.224 C 
ATOM      5  O   UNL A   1      32.659  20.553  24.926  1.00  0.00    -0.275 OA
ATOM      6  H   UNL A   1      34.944  20.754  25.518  1.00  0.00     0.163 HD
BRANCH   4   7
ATOM      7  C   UNL A   1      32.912  22.375  23.367  1.00  0.00     0.090 C 
ATOM      8  C   UNL A   1      32.053  21.459  22.469  1.00  0.00     0.019 C 
BRANCH   7   9
ATOM      9  C   UNL A   1      32.094  23.595  23.863  1.00  0.00     0.089 C 
ATOM     10  C   UNL A   1      30.694  23.721  23.259  1.00  0.00     0.023 C 
BRANCH   9  11
ATOM     11  S   UNL A   1      32.938  25.217  23.866  1.00  0.00     0.030 S 
ATOM     12  O   UNL A   1      32.537  25.982  22.645  1.00  0.00    -0.259 OA
BRANCH  11  13
ATOM     13  C   UNL A   1      32.477  26.155  25.385  1.00  0.00     0.038 C 
ATOM     14  C   UNL A   1      32.102  25.316  26.599  1.00  0.00     0.025 C 
ATOM     15  C   UNL A   1      33.638  27.081  25.775  1.00  0.00     0.025 C 
ATOM     16  C   UNL A   1      31.282  27.069  25.014  1.00  0.00     0.025 C 
ENDBRANCH  11  13
ENDBRANCH   9  11
ENDBRANCH   7   9
ENDBRANCH   4   7
ENDBRANCH   2   3
ENDBRANCH   1   2
BRANCH   1  17
ATOM     17  C   UNL A   1      37.461  20.689  24.946  1.00  0.00     0.023 C 
BRANCH  17  18
ATOM     18  C   UNL A   1      38.751  20.891  25.722  1.00  0.00     0.116 C 
BRANCH  18  19
ATOM     19  N   UNL A   1      39.702  19.786  25.611  1.00  0.00    -0.352 N 
ATOM     20  C   UNL A   1      41.026  19.743  25.980  1.00  0.00     0.251 C 
ATOM     21  H   UNL A   1      39.345  18.958  25.218  1.00  0.00     0.163 HD
ATOM     22  O   UNL A   1      41.699  18.737  25.774  1.00  0.00    -0.269 OA
BRANCH  20  23
ATOM     23  C   UNL A   1      41.646  20.949  26.564  1.00  0.00     0.039 A 
ATOM     24  C   UNL A   1      42.180  21.914  25.709  1.00  0.00     0.014 A 
ATOM     25  C   UNL A   1      41.595  21.172  27.941  1.00  0.00     0.014 A 
ATOM     26  C   UNL A   1      42.566  23.150  26.229  1.00  0.00     0.010 A 
ATOM     27  C   UNL A   1      41.864  22.439  28.436  1.00  0.00     0.010 A 
ATOM     28  C   UNL A   1      42.351  23.443  27.587  1.00  0.00    -0.014 A 
BRANCH  28  29
ATOM     29  C   UNL A   1      42.622  24.793  28.137  1.00  0.00     0.031 A 
ATOM     30  C   UNL A   1      44.013  25.163  28.576  1.00  0.00     0.074 A 
ATOM     31  C   UNL A   1      41.602  25.658  28.314  1.00  0.00     0.049 A 
ATOM     32  N   UNL A   1      44.434  26.270  29.132  1.00  0.00    -0.248 NA
ATOM     33  C   UNL A   1      45.060  24.142  28.407  1.00  0.00     0.031 C 
ATOM     34  C   UNL A   1      40.193  25.390  28.010  1.00  0.00     0.029 A 
ATOM     35  N   UNL A   1      41.596  26.943  28.795  1.00  0.00    -0.354 N 
ATOM     36  C   UNL A   1      45.782  26.066  29.399  1.00  0.00     0.074 A 
ATOM     37  C   UNL A   1      46.093  24.710  29.008  1.00  0.00     0.031 C 
ATOM     38  C   UNL A   1      39.469  26.492  28.266  1.00  0.00     0.029 A 
ATOM     39  C   UNL A   1      40.354  27.529  28.783  1.00  0.00     0.049 A 
ATOM     40  H   UNL A   1      42.405  27.401  29.117  1.00  0.00     0.167 HD
ATOM     41  C   UNL A   1      46.691  26.938  29.893  1.00  0.00     0.031 A 
ATOM     42  C   UNL A   1      39.973  28.770  29.139  1.00  0.00     0.031 A 
ATOM     43  C   UNL A   1      46.393  28.298  30.246  1.00  0.00     0.049 A 
ATOM     44  C   UNL A   1      41.013  29.737  29.631  1.00  0.00     0.074 A 
ATOM     45  C   UNL A   1      47.254  29.281  30.700  1.00  0.00     0.029 A 
ATOM     46  N   UNL A   1      45.132  28.868  30.171  1.00  0.00    -0.354 N 
ATOM     47  N   UNL A   1      42.298  29.549  29.808  1.00  0.00    -0.248 NA
ATOM     48  C   UNL A   1      40.551  31.095  29.952  1.00  0.00     0.031 C 
ATOM     49  C   UNL A   1      46.507  30.443  30.923  1.00  0.00     0.029 A 
ATOM     50  C   UNL A   1      45.191  30.191  30.571  1.00  0.00     0.049 A 
ATOM     51  H   UNL A   1      44.317  28.402  29.875  1.00  0.00     0.167 HD
ATOM     52  C   UNL A   1      42.801  30.768  30.244  1.00  0.00     0.074 A 
ATOM     53  C   UNL A   1      41.687  31.695  30.275  1.00  0.00     0.031 C 
ATOM     54  C   UNL A   1      44.069  31.093  30.593  1.00  0.00     0.031 A 
BRANCH  41  55
ATOM     55  C   UNL A   1      48.102  26.443  30.054  1.00  0.00    -0.014 A 
ATOM     56  C   UNL A   1      48.515  25.817  31.242  1.00  0.00     0.009 A 
ATOM     57  C   UNL A   1      49.022  26.588  29.006  1.00  0.00     0.009 A 
ATOM     58  C   UNL A   1      49.831  25.377  31.389  1.00  0.00     0.001 A 
ATOM     59  C   UNL A   1      50.330  26.121  29.146  1.00  0.00     0.001 A 
ATOM     60  C   UNL A   1      50.737  25.526  30.340  1.00  0.00     0.000 A 
ENDBRANCH  41  55
BRANCH  42  61
ATOM     61  C   UNL A   1      38.553  29.188  29.009  1.00  0.00    -0.014 A 
ATOM     62  C   UNL A   1      38.069  29.691  27.792  1.00  0.00     0.009 A 
ATOM     63  C   UNL A   1      37.678  29.104  30.105  1.00  0.00     0.009 A 
ATOM     64  C   UNL A   1      36.750  30.137  27.683  1.00  0.00     0.001 A 
ATOM     65  C   UNL A   1      36.352  29.525  29.984  1.00  0.00     0.001 A 
ATOM     66  C   UNL A   1      35.892  30.050  28.778  1.00  0.00     0.000 A 
ENDBRANCH  42  61
BRANCH  54  67
ATOM     67  C   UNL A   1      44.315  32.511  31.013  1.00  0.00    -0.014 A 
ATOM     68  C   UNL A   1      44.649  33.497  30.072  1.00  0.00     0.009 A 
ATOM     69  C   UNL A   1      44.191  32.869  32.364  1.00  0.00     0.009 A 
ATOM     70  C   UNL A   1      44.892  34.810  30.483  1.00  0.00     0.001 A 
ATOM     71  C   UNL A   1      44.408  34.187  32.768  1.00  0.00     0.001 A 
ATOM     72  C   UNL A   1      44.768  35.153  31.829  1.00  0.00     0.000 A 
ENDBRANCH  54  67
ENDBRANCH  28  29
ENDBRANCH  20  23
ENDBRANCH  18  19
ENDBRANCH  17  18
ENDBRANCH   1  17
TORSDOF 14
ENDMDL
