MODEL 1
REMARK VINA RESULT:     -11.9      0.000      0.000
REMARK SMILES Cc1nc2cc(C(=O)NCCCCNC(=O)c3ccc(-c4c5nc(c(-c6ccccc6)c6ccc([nH]6)c(-c6ccccc6)c6nc(c(-c7ccccc7)c7ccc4[nH]7)C=C6)C=C5)cc3)ccc2n1CCC[NH+]1CCOCC1
REMARK SMILES IDX 10 1 9 2 7 3 8 4 6 6 1 7 2 8 3 9 68 10 4 11 67 12 5 13 66 14
REMARK SMILES IDX 65 15 69 16 70 17 71 18 72 19 73 20 77 21 74 23 76 24 75 25
REMARK SMILES IDX 11 26 12 27 13 28 14 29 15 30 16 32 17 33 18 34 64 35 19 36
REMARK SMILES IDX 63 37 20 38 21 39 22 40 57 41 23 42 62 43 56 44 58 45 24 46
REMARK SMILES IDX 61 47 55 48 54 49 25 51 47 52 32 53 46 54 33 55 36 56 45 57
REMARK SMILES IDX 59 58 34 59 35 60 44 62 60 63 37 64 26 65 27 66 31 67 28 68
REMARK SMILES IDX 30 69 29 70 48 71 49 72 53 73 50 74 52 75 51 76 38 77 39 78
REMARK SMILES IDX 43 79 40 80 42 81 41 82
REMARK H PARENT 9 5 72 22 14 31 58 50 36 61
REMARK Flexibility Score: inf
ROOT
ATOM      1  C   UNL A   1      32.475  29.705  24.475  1.00  0.00     0.116 C 
ENDROOT
BRANCH   1   2
ATOM      2  N   UNL A   1      31.548  29.349  23.419  1.00  0.00    -0.352 N 
ATOM      3  C   UNL A   1      31.148  28.133  22.933  1.00  0.00     0.251 C 
ATOM      4  O   UNL A   1      30.340  28.111  22.005  1.00  0.00    -0.269 OA
ATOM      5  H   UNL A   1      31.130  30.121  22.971  1.00  0.00     0.163 HD
BRANCH   3   6
ATOM      6  C   UNL A   1      31.589  26.863  23.555  1.00  0.00     0.042 A 
ATOM      7  C   UNL A   1      35.470  22.394  24.171  1.00  0.00     0.088 C 
ATOM      8  C   UNL A   1      34.312  23.299  24.038  1.00  0.00     0.106 A 
ATOM      9  N   UNL A   1      34.402  24.437  23.375  1.00  0.00    -0.233 NA
ATOM     10  N   UNL A   1      33.063  23.155  24.598  1.00  0.00    -0.328 N 
ATOM     11  C   UNL A   1      33.243  25.113  23.609  1.00  0.00     0.090 A 
ATOM     12  C   UNL A   1      32.410  24.375  24.435  1.00  0.00     0.068 A 
ATOM     13  C   UNL A   1      32.837  26.368  23.146  1.00  0.00     0.044 A 
ATOM     14  C   UNL A   1      31.198  24.881  24.920  1.00  0.00     0.029 A 
ATOM     15  C   UNL A   1      30.827  26.160  24.493  1.00  0.00     0.016 A 
BRANCH  10  16
ATOM     16  C   UNL A   1      32.393  22.069  25.281  1.00  0.00     0.130 C 
BRANCH  16  17
ATOM     17  C   UNL A   1      32.166  20.660  24.741  1.00  0.00     0.083 C 
BRANCH  17  18
ATOM     18  C   UNL A   1      32.917  19.443  25.301  1.00  0.00     0.264 C 
BRANCH  18  19
ATOM     19  N   UNL A   1      32.647  18.090  24.869  1.00  0.00    -0.331 N 
ATOM     20  C   UNL A   1      32.868  16.953  25.749  1.00  0.00     0.291 C 
ATOM     21  C   UNL A   1      32.766  17.757  23.456  1.00  0.00     0.291 C 
ATOM     22  H   UNL A   1      31.655  18.265  25.025  1.00  0.00     0.348 HD
ATOM     23  C   UNL A   1      34.068  16.076  25.353  1.00  0.00     0.221 C 
ATOM     24  C   UNL A   1      34.029  16.953  23.138  1.00  0.00     0.221 C 
ATOM     25  O   UNL A   1      34.111  15.776  23.951  1.00  0.00    -0.370 OA
ENDBRANCH  18  19
ENDBRANCH  17  18
ENDBRANCH  16  17
ENDBRANCH  10  16
ENDBRANCH   3   6
ENDBRANCH   1   2
BRANCH   1  26
ATOM     26  C   UNL A   1      31.700  30.117  25.726  1.00  0.00     0.023 C 
BRANCH  26  27
ATOM     27  C   UNL A   1      31.934  29.181  26.920  1.00  0.00     0.023 C 
BRANCH  27  28
ATOM     28  C   UNL A   1      33.297  29.373  27.592  1.00  0.00     0.116 C 
BRANCH  28  29
ATOM     29  N   UNL A   1      33.650  30.770  27.750  1.00  0.00    -0.352 N 
ATOM     30  C   UNL A   1      34.819  31.439  27.985  1.00  0.00     0.251 C 
ATOM     31  H   UNL A   1      32.876  31.372  27.669  1.00  0.00     0.163 HD
ATOM     32  O   UNL A   1      34.741  32.667  28.062  1.00  0.00    -0.269 OA
BRANCH  30  33
ATOM     33  C   UNL A   1      36.146  30.791  28.187  1.00  0.00     0.039 A 
ATOM     34  C   UNL A   1      36.468  29.485  27.821  1.00  0.00     0.014 A 
ATOM     35  C   UNL A   1      37.132  31.566  28.827  1.00  0.00     0.014 A 
ATOM     36  C   UNL A   1      37.700  28.938  28.143  1.00  0.00     0.010 A 
ATOM     37  C   UNL A   1      38.382  31.032  29.134  1.00  0.00     0.010 A 
ATOM     38  C   UNL A   1      38.648  29.702  28.823  1.00  0.00    -0.014 A 
BRANCH  38  39
ATOM     39  C   UNL A   1      39.902  29.032  29.141  1.00  0.00     0.031 A 
ATOM     40  C   UNL A   1      40.199  28.814  30.587  1.00  0.00     0.074 A 
ATOM     41  C   UNL A   1      40.747  28.576  28.201  1.00  0.00     0.049 A 
ATOM     42  N   UNL A   1      41.238  29.191  31.262  1.00  0.00    -0.248 NA
ATOM     43  C   UNL A   1      39.178  28.126  31.392  1.00  0.00     0.031 C 
ATOM     44  C   UNL A   1      40.512  28.423  26.765  1.00  0.00     0.029 A 
ATOM     45  N   UNL A   1      41.981  28.028  28.382  1.00  0.00    -0.354 N 
ATOM     46  C   UNL A   1      41.070  28.693  32.554  1.00  0.00     0.074 A 
ATOM     47  C   UNL A   1      39.752  28.110  32.595  1.00  0.00     0.031 C 
ATOM     48  C   UNL A   1      41.447  27.588  26.261  1.00  0.00     0.029 A 
ATOM     49  C   UNL A   1      42.408  27.272  27.306  1.00  0.00     0.049 A 
ATOM     50  H   UNL A   1      42.514  28.154  29.200  1.00  0.00     0.167 HD
ATOM     51  C   UNL A   1      42.067  28.681  33.482  1.00  0.00     0.031 A 
ATOM     52  C   UNL A   1      43.409  26.361  27.321  1.00  0.00     0.031 A 
ATOM     53  C   UNL A   1      43.135  29.582  33.154  1.00  0.00     0.049 A 
ATOM     54  C   UNL A   1      44.288  26.660  28.476  1.00  0.00     0.074 A 
ATOM     55  C   UNL A   1      43.229  30.949  32.986  1.00  0.00     0.029 A 
ATOM     56  N   UNL A   1      44.299  29.064  32.639  1.00  0.00    -0.354 N 
ATOM     57  N   UNL A   1      45.042  27.719  28.564  1.00  0.00    -0.248 NA
ATOM     58  C   UNL A   1      44.044  25.964  29.731  1.00  0.00     0.031 C 
ATOM     59  C   UNL A   1      44.185  31.125  31.946  1.00  0.00     0.029 A 
ATOM     60  C   UNL A   1      44.633  29.856  31.572  1.00  0.00     0.049 A 
ATOM     61  H   UNL A   1      44.793  28.281  32.971  1.00  0.00     0.167 HD
ATOM     62  C   UNL A   1      45.021  28.062  29.908  1.00  0.00     0.074 A 
ATOM     63  C   UNL A   1      44.491  26.883  30.590  1.00  0.00     0.031 C 
ATOM     64  C   UNL A   1      45.165  29.357  30.321  1.00  0.00     0.031 A 
BRANCH  51  65
ATOM     65  C   UNL A   1      42.193  27.658  34.580  1.00  0.00    -0.014 A 
ATOM     66  C   UNL A   1      41.618  27.826  35.853  1.00  0.00     0.009 A 
ATOM     67  C   UNL A   1      42.684  26.374  34.274  1.00  0.00     0.009 A 
ATOM     68  C   UNL A   1      41.537  26.778  36.775  1.00  0.00     0.001 A 
ATOM     69  C   UNL A   1      42.565  25.310  35.178  1.00  0.00     0.001 A 
ATOM     70  C   UNL A   1      41.990  25.513  36.428  1.00  0.00     0.000 A 
ENDBRANCH  51  65
BRANCH  52  71
ATOM     71  C   UNL A   1      43.405  25.054  26.628  1.00  0.00    -0.014 A 
ATOM     72  C   UNL A   1      44.154  24.865  25.451  1.00  0.00     0.009 A 
ATOM     73  C   UNL A   1      42.474  24.065  26.974  1.00  0.00     0.009 A 
ATOM     74  C   UNL A   1      43.971  23.743  24.639  1.00  0.00     0.001 A 
ATOM     75  C   UNL A   1      42.282  22.944  26.155  1.00  0.00     0.001 A 
ATOM     76  C   UNL A   1      43.023  22.789  24.985  1.00  0.00     0.000 A 
ENDBRANCH  52  71
BRANCH  64  77
ATOM     77  C   UNL A   1      45.573  30.408  29.313  1.00  0.00    -0.014 A 
ATOM     78  C   UNL A   1      44.605  30.902  28.422  1.00  0.00     0.009 A 
ATOM     79  C   UNL A   1      46.915  30.758  29.088  1.00  0.00     0.009 A 
ATOM     80  C   UNL A   1      44.968  31.704  27.337  1.00  0.00     0.001 A 
ATOM     81  C   UNL A   1      47.276  31.585  28.019  1.00  0.00     0.001 A 
ATOM     82  C   UNL A   1      46.303  32.048  27.137  1.00  0.00     0.000 A 
ENDBRANCH  64  77
ENDBRANCH  38  39
ENDBRANCH  30  33
ENDBRANCH  28  29
ENDBRANCH  27  28
ENDBRANCH  26  27
ENDBRANCH   1  26
TORSDOF 15
ENDMDL
MODEL 2
REMARK VINA RESULT:     -11.5      2.774      8.108
REMARK SMILES Cc1nc2cc(C(=O)NCCCCNC(=O)c3ccc(-c4c5nc(c(-c6ccccc6)c6ccc([nH]6)c(-c6ccccc6)c6nc(c(-c7ccccc7)c7ccc4[nH]7)C=C6)C=C5)cc3)ccc2n1CCC[NH+]1CCOCC1
REMARK SMILES IDX 10 1 9 2 7 3 8 4 6 6 1 7 2 8 3 9 68 10 4 11 67 12 5 13 66 14
REMARK SMILES IDX 65 15 69 16 70 17 71 18 72 19 73 20 77 21 74 23 76 24 75 25
REMARK SMILES IDX 11 26 12 27 13 28 14 29 15 30 16 32 17 33 18 34 64 35 19 36
REMARK SMILES IDX 63 37 20 38 21 39 22 40 57 41 23 42 62 43 56 44 58 45 24 46
REMARK SMILES IDX 61 47 55 48 54 49 25 51 47 52 32 53 46 54 33 55 36 56 45 57
REMARK SMILES IDX 59 58 34 59 35 60 44 62 60 63 37 64 26 65 27 66 31 67 28 68
REMARK SMILES IDX 30 69 29 70 48 71 49 72 53 73 50 74 52 75 51 76 38 77 39 78
REMARK SMILES IDX 43 79 40 80 42 81 41 82
REMARK H PARENT 9 5 72 22 14 31 58 50 36 61
REMARK Flexibility Score: inf
ROOT
ATOM      1  C   UNL A   1      39.202  23.258  26.573  1.00  0.00     0.116 C 
ENDROOT
BRANCH   1   2
ATOM      2  N   UNL A   1      38.778  22.209  25.665  1.00  0.00    -0.352 N 
ATOM      3  C   UNL A   1      37.537  21.840  25.221  1.00  0.00     0.251 C 
ATOM      4  O   UNL A   1      37.452  20.888  24.445  1.00  0.00    -0.269 OA
ATOM      5  H   UNL A   1      39.515  21.666  25.303  1.00  0.00     0.163 HD
BRANCH   3   6
ATOM      6  C   UNL A   1      36.322  22.611  25.574  1.00  0.00     0.042 A 
ATOM      7  C   UNL A   1      30.523  22.963  26.859  1.00  0.00     0.088 C 
ATOM      8  C   UNL A   1      31.914  23.110  26.389  1.00  0.00     0.106 A 
ATOM      9  N   UNL A   1      32.708  22.064  26.254  1.00  0.00    -0.233 NA
ATOM     10  N   UNL A   1      32.586  24.277  26.104  1.00  0.00    -0.328 N 
ATOM     11  C   UNL A   1      33.953  22.553  26.004  1.00  0.00     0.090 A 
ATOM     12  C   UNL A   1      33.933  23.939  25.980  1.00  0.00     0.068 A 
ATOM     13  C   UNL A   1      35.152  21.867  25.789  1.00  0.00     0.044 A 
ATOM     14  C   UNL A   1      35.099  24.703  25.847  1.00  0.00     0.029 A 
ATOM     15  C   UNL A   1      36.300  24.005  25.687  1.00  0.00     0.016 A 
BRANCH  10  16
ATOM     16  C   UNL A   1      32.176  25.656  25.953  1.00  0.00     0.130 C 
BRANCH  16  17
ATOM     17  C   UNL A   1      30.911  26.156  25.260  1.00  0.00     0.083 C 
BRANCH  17  18
ATOM     18  C   UNL A   1      30.368  25.497  23.983  1.00  0.00     0.264 C 
BRANCH  18  19
ATOM     19  N   UNL A   1      31.134  25.413  22.760  1.00  0.00    -0.331 N 
ATOM     20  C   UNL A   1      32.071  24.326  22.524  1.00  0.00     0.291 C 
ATOM     21  C   UNL A   1      31.483  26.637  22.052  1.00  0.00     0.291 C 
ATOM     22  H   UNL A   1      30.301  25.056  22.293  1.00  0.00     0.348 HD
ATOM     23  C   UNL A   1      33.550  24.748  22.576  1.00  0.00     0.221 C 
ATOM     24  C   UNL A   1      32.952  27.027  22.224  1.00  0.00     0.221 C 
ATOM     25  O   UNL A   1      33.820  25.951  21.845  1.00  0.00    -0.370 OA
ENDBRANCH  18  19
ENDBRANCH  17  18
ENDBRANCH  16  17
ENDBRANCH  10  16
ENDBRANCH   3   6
ENDBRANCH   1   2
BRANCH   1  26
ATOM     26  C   UNL A   1      40.236  22.705  27.553  1.00  0.00     0.023 C 
BRANCH  26  27
ATOM     27  C   UNL A   1      40.965  21.461  27.027  1.00  0.00     0.023 C 
BRANCH  27  28
ATOM     28  C   UNL A   1      42.490  21.555  27.125  1.00  0.00     0.116 C 
BRANCH  28  29
ATOM     29  N   UNL A   1      43.099  22.046  25.904  1.00  0.00    -0.352 N 
ATOM     30  C   UNL A   1      43.387  23.289  25.414  1.00  0.00     0.251 C 
ATOM     31  H   UNL A   1      43.365  21.323  25.292  1.00  0.00     0.163 HD
ATOM     32  O   UNL A   1      43.923  23.329  24.305  1.00  0.00    -0.269 OA
BRANCH  30  33
ATOM     33  C   UNL A   1      43.068  24.572  26.103  1.00  0.00     0.039 A 
ATOM     34  C   UNL A   1      43.596  24.982  27.326  1.00  0.00     0.014 A 
ATOM     35  C   UNL A   1      42.133  25.410  25.466  1.00  0.00     0.014 A 
ATOM     36  C   UNL A   1      43.159  26.147  27.936  1.00  0.00     0.010 A 
ATOM     37  C   UNL A   1      41.705  26.596  26.061  1.00  0.00     0.010 A 
ATOM     38  C   UNL A   1      42.195  26.941  27.317  1.00  0.00    -0.014 A 
BRANCH  38  39
ATOM     39  C   UNL A   1      41.779  28.131  28.047  1.00  0.00     0.031 A 
ATOM     40  C   UNL A   1      42.687  29.313  27.979  1.00  0.00     0.074 A 
ATOM     41  C   UNL A   1      40.618  28.209  28.719  1.00  0.00     0.049 A 
ATOM     42  N   UNL A   1      43.232  29.968  28.954  1.00  0.00    -0.248 NA
ATOM     43  C   UNL A   1      43.073  29.795  26.644  1.00  0.00     0.031 C 
ATOM     44  C   UNL A   1      39.475  27.297  28.667  1.00  0.00     0.029 A 
ATOM     45  N   UNL A   1      40.176  29.227  29.509  1.00  0.00    -0.354 N 
ATOM     46  C   UNL A   1      43.940  31.020  28.374  1.00  0.00     0.074 A 
ATOM     47  C   UNL A   1      43.867  30.821  26.948  1.00  0.00     0.031 C 
ATOM     48  C   UNL A   1      38.393  27.929  29.170  1.00  0.00     0.029 A 
ATOM     49  C   UNL A   1      38.806  29.220  29.698  1.00  0.00     0.049 A 
ATOM     50  H   UNL A   1      40.773  29.902  29.905  1.00  0.00     0.167 HD
ATOM     51  C   UNL A   1      44.446  32.062  29.092  1.00  0.00     0.031 A 
ATOM     52  C   UNL A   1      38.059  30.257  30.143  1.00  0.00     0.031 A 
ATOM     53  C   UNL A   1      44.546  31.768  30.493  1.00  0.00     0.049 A 
ATOM     54  C   UNL A   1      38.953  31.192  30.867  1.00  0.00     0.074 A 
ATOM     55  C   UNL A   1      45.246  30.839  31.238  1.00  0.00     0.029 A 
ATOM     56  N   UNL A   1      43.608  32.296  31.346  1.00  0.00    -0.354 N 
ATOM     57  N   UNL A   1      39.529  30.917  32.003  1.00  0.00    -0.248 NA
ATOM     58  C   UNL A   1      39.525  32.312  30.135  1.00  0.00     0.031 C 
ATOM     59  C   UNL A   1      44.377  30.505  32.315  1.00  0.00     0.029 A 
ATOM     60  C   UNL A   1      43.220  31.274  32.173  1.00  0.00     0.049 A 
ATOM     61  H   UNL A   1      43.279  33.224  31.360  1.00  0.00     0.167 HD
ATOM     62  C   UNL A   1      40.768  31.537  31.935  1.00  0.00     0.074 A 
ATOM     63  C   UNL A   1      40.661  32.473  30.818  1.00  0.00     0.031 C 
ATOM     64  C   UNL A   1      41.856  31.043  32.599  1.00  0.00     0.031 A 
BRANCH  51  65
ATOM     65  C   UNL A   1      44.624  33.457  28.554  1.00  0.00    -0.014 A 
ATOM     66  C   UNL A   1      45.842  33.924  28.027  1.00  0.00     0.009 A 
ATOM     67  C   UNL A   1      43.490  34.261  28.331  1.00  0.00     0.009 A 
ATOM     68  C   UNL A   1      45.930  35.126  27.318  1.00  0.00     0.001 A 
ATOM     69  C   UNL A   1      43.566  35.444  27.583  1.00  0.00     0.001 A 
ATOM     70  C   UNL A   1      44.787  35.875  27.076  1.00  0.00     0.000 A 
ENDBRANCH  51  65
BRANCH  52  71
ATOM     71  C   UNL A   1      36.724  30.647  29.638  1.00  0.00    -0.014 A 
ATOM     72  C   UNL A   1      36.299  30.245  28.357  1.00  0.00     0.009 A 
ATOM     73  C   UNL A   1      35.964  31.618  30.303  1.00  0.00     0.009 A 
ATOM     74  C   UNL A   1      35.169  30.802  27.753  1.00  0.00     0.001 A 
ATOM     75  C   UNL A   1      34.837  32.186  29.693  1.00  0.00     0.001 A 
ATOM     76  C   UNL A   1      34.447  31.785  28.417  1.00  0.00     0.000 A 
ENDBRANCH  52  71
BRANCH  64  77
ATOM     77  C   UNL A   1      41.660  29.927  33.602  1.00  0.00    -0.014 A 
ATOM     78  C   UNL A   1      41.732  30.229  34.972  1.00  0.00     0.009 A 
ATOM     79  C   UNL A   1      41.619  28.573  33.226  1.00  0.00     0.009 A 
ATOM     80  C   UNL A   1      41.777  29.214  35.931  1.00  0.00     0.001 A 
ATOM     81  C   UNL A   1      41.634  27.558  34.187  1.00  0.00     0.001 A 
ATOM     82  C   UNL A   1      41.725  27.879  35.540  1.00  0.00     0.000 A 
ENDBRANCH  64  77
ENDBRANCH  38  39
ENDBRANCH  30  33
ENDBRANCH  28  29
ENDBRANCH  27  28
ENDBRANCH  26  27
ENDBRANCH   1  26
TORSDOF 15
ENDMDL
MODEL 3
REMARK VINA RESULT:     -11.4      2.768      8.575
REMARK SMILES Cc1nc2cc(C(=O)NCCCCNC(=O)c3ccc(-c4c5nc(c(-c6ccccc6)c6ccc([nH]6)c(-c6ccccc6)c6nc(c(-c7ccccc7)c7ccc4[nH]7)C=C6)C=C5)cc3)ccc2n1CCC[NH+]1CCOCC1
REMARK SMILES IDX 10 1 9 2 7 3 8 4 6 6 1 7 2 8 3 9 68 10 4 11 67 12 5 13 66 14
REMARK SMILES IDX 65 15 69 16 70 17 71 18 72 19 73 20 77 21 74 23 76 24 75 25
REMARK SMILES IDX 11 26 12 27 13 28 14 29 15 30 16 32 17 33 18 34 64 35 19 36
REMARK SMILES IDX 63 37 20 38 21 39 22 40 57 41 23 42 62 43 56 44 58 45 24 46
REMARK SMILES IDX 61 47 55 48 54 49 25 51 47 52 32 53 46 54 33 55 36 56 45 57
REMARK SMILES IDX 59 58 34 59 35 60 44 62 60 63 37 64 26 65 27 66 31 67 28 68
REMARK SMILES IDX 30 69 29 70 48 71 49 72 53 73 50 74 52 75 51 76 38 77 39 78
REMARK SMILES IDX 43 79 40 80 42 81 41 82
REMARK H PARENT 9 5 72 22 14 31 58 50 36 61
REMARK Flexibility Score: inf
ROOT
ATOM      1  C   UNL A   1      38.419  23.145  26.031  1.00  0.00     0.116 C 
ENDROOT
BRANCH   1   2
ATOM      2  N   UNL A   1      37.807  21.872  25.701  1.00  0.00    -0.352 N 
ATOM      3  C   UNL A   1      36.532  21.550  25.322  1.00  0.00     0.251 C 
ATOM      4  O   UNL A   1      36.267  20.367  25.107  1.00  0.00    -0.269 OA
ATOM      5  H   UNL A   1      38.419  21.102  25.760  1.00  0.00     0.163 HD
BRANCH   3   6
ATOM      6  C   UNL A   1      35.506  22.589  25.076  1.00  0.00     0.042 A 
ATOM      7  C   UNL A   1      32.131  25.872  21.438  1.00  0.00     0.088 C 
ATOM      8  C   UNL A   1      32.997  25.298  22.486  1.00  0.00     0.106 A 
ATOM      9  N   UNL A   1      33.777  24.262  22.241  1.00  0.00    -0.233 NA
ATOM     10  N   UNL A   1      33.078  25.672  23.808  1.00  0.00    -0.328 N 
ATOM     11  C   UNL A   1      34.280  23.865  23.442  1.00  0.00     0.090 A 
ATOM     12  C   UNL A   1      33.802  24.676  24.459  1.00  0.00     0.068 A 
ATOM     13  C   UNL A   1      35.151  22.812  23.737  1.00  0.00     0.044 A 
ATOM     14  C   UNL A   1      34.077  24.425  25.809  1.00  0.00     0.029 A 
ATOM     15  C   UNL A   1      34.907  23.336  26.096  1.00  0.00     0.016 A 
BRANCH  10  16
ATOM     16  C   UNL A   1      32.566  26.797  24.563  1.00  0.00     0.130 C 
BRANCH  16  17
ATOM     17  C   UNL A   1      31.971  28.080  23.988  1.00  0.00     0.083 C 
BRANCH  17  18
ATOM     18  C   UNL A   1      30.512  28.486  24.244  1.00  0.00     0.264 C 
BRANCH  18  19
ATOM     19  N   UNL A   1      29.659  29.031  23.212  1.00  0.00    -0.331 N 
ATOM     20  C   UNL A   1      29.517  30.466  23.023  1.00  0.00     0.291 C 
ATOM     21  C   UNL A   1      28.492  28.274  22.780  1.00  0.00     0.291 C 
ATOM     22  H   UNL A   1      30.389  28.817  22.532  1.00  0.00     0.348 HD
ATOM     23  C   UNL A   1      28.148  31.023  23.447  1.00  0.00     0.221 C 
ATOM     24  C   UNL A   1      27.178  28.851  23.313  1.00  0.00     0.221 C 
ATOM     25  O   UNL A   1      27.046  30.236  22.973  1.00  0.00    -0.370 OA
ENDBRANCH  18  19
ENDBRANCH  17  18
ENDBRANCH  16  17
ENDBRANCH  10  16
ENDBRANCH   3   6
ENDBRANCH   1   2
BRANCH   1  26
ATOM     26  C   UNL A   1      39.538  22.931  27.050  1.00  0.00     0.023 C 
BRANCH  26  27
ATOM     27  C   UNL A   1      40.173  21.537  26.968  1.00  0.00     0.023 C 
BRANCH  27  28
ATOM     28  C   UNL A   1      41.696  21.545  27.132  1.00  0.00     0.116 C 
BRANCH  28  29
ATOM     29  N   UNL A   1      42.384  21.977  25.931  1.00  0.00    -0.352 N 
ATOM     30  C   UNL A   1      42.810  23.187  25.458  1.00  0.00     0.251 C 
ATOM     31  H   UNL A   1      42.593  21.234  25.320  1.00  0.00     0.163 HD
ATOM     32  O   UNL A   1      43.377  23.178  24.363  1.00  0.00    -0.269 OA
BRANCH  30  33
ATOM     33  C   UNL A   1      42.605  24.492  26.148  1.00  0.00     0.039 A 
ATOM     34  C   UNL A   1      43.181  24.860  27.362  1.00  0.00     0.014 A 
ATOM     35  C   UNL A   1      41.730  25.401  25.522  1.00  0.00     0.014 A 
ATOM     36  C   UNL A   1      42.847  26.058  27.975  1.00  0.00     0.010 A 
ATOM     37  C   UNL A   1      41.407  26.618  26.120  1.00  0.00     0.010 A 
ATOM     38  C   UNL A   1      41.940  26.925  27.367  1.00  0.00    -0.014 A 
BRANCH  38  39
ATOM     39  C   UNL A   1      41.632  28.146  28.101  1.00  0.00     0.031 A 
ATOM     40  C   UNL A   1      42.621  29.258  28.001  1.00  0.00     0.074 A 
ATOM     41  C   UNL A   1      40.496  28.311  28.800  1.00  0.00     0.049 A 
ATOM     42  N   UNL A   1      43.237  29.876  28.959  1.00  0.00    -0.248 NA
ATOM     43  C   UNL A   1      43.006  29.704  26.654  1.00  0.00     0.031 C 
ATOM     44  C   UNL A   1      39.289  27.484  28.783  1.00  0.00     0.029 A 
ATOM     45  N   UNL A   1      40.150  29.362  29.595  1.00  0.00    -0.354 N 
ATOM     46  C   UNL A   1      44.005  30.871  28.354  1.00  0.00     0.074 A 
ATOM     47  C   UNL A   1      43.880  30.671  26.931  1.00  0.00     0.031 C 
ATOM     48  C   UNL A   1      38.269  28.196  29.310  1.00  0.00     0.029 A 
ATOM     49  C   UNL A   1      38.789  29.456  29.819  1.00  0.00     0.049 A 
ATOM     50  H   UNL A   1      40.805  29.994  29.972  1.00  0.00     0.167 HD
ATOM     51  C   UNL A   1      44.603  31.877  29.052  1.00  0.00     0.031 A 
ATOM     52  C   UNL A   1      38.131  30.547  30.276  1.00  0.00     0.031 A 
ATOM     53  C   UNL A   1      44.717  31.582  30.452  1.00  0.00     0.049 A 
ATOM     54  C   UNL A   1      39.108  31.418  30.971  1.00  0.00     0.074 A 
ATOM     55  C   UNL A   1      45.367  30.609  31.185  1.00  0.00     0.029 A 
ATOM     56  N   UNL A   1      43.842  32.181  31.325  1.00  0.00    -0.354 N 
ATOM     57  N   UNL A   1      39.692  31.107  32.094  1.00  0.00    -0.248 NA
ATOM     58  C   UNL A   1      39.741  32.489  30.217  1.00  0.00     0.031 C 
ATOM     59  C   UNL A   1      44.504  30.343  32.286  1.00  0.00     0.029 A 
ATOM     60  C   UNL A   1      43.403  31.194  32.168  1.00  0.00     0.049 A 
ATOM     61  H   UNL A   1      43.583  33.130  31.341  1.00  0.00     0.167 HD
ATOM     62  C   UNL A   1      40.971  31.635  31.991  1.00  0.00     0.074 A 
ATOM     63  C   UNL A   1      40.903  32.570  30.871  1.00  0.00     0.031 C 
ATOM     64  C   UNL A   1      42.037  31.065  32.630  1.00  0.00     0.031 A 
BRANCH  51  65
ATOM     65  C   UNL A   1      44.868  33.252  28.501  1.00  0.00    -0.014 A 
ATOM     66  C   UNL A   1      46.142  33.676  28.079  1.00  0.00     0.009 A 
ATOM     67  C   UNL A   1      43.782  34.078  28.153  1.00  0.00     0.009 A 
ATOM     68  C   UNL A   1      46.329  34.856  27.354  1.00  0.00     0.001 A 
ATOM     69  C   UNL A   1      43.959  35.239  27.388  1.00  0.00     0.001 A 
ATOM     70  C   UNL A   1      45.234  35.626  26.988  1.00  0.00     0.000 A 
ENDBRANCH  51  65
BRANCH  52  71
ATOM     71  C   UNL A   1      36.816  31.030  29.803  1.00  0.00    -0.014 A 
ATOM     72  C   UNL A   1      36.524  31.078  28.425  1.00  0.00     0.009 A 
ATOM     73  C   UNL A   1      35.936  31.680  30.678  1.00  0.00     0.009 A 
ATOM     74  C   UNL A   1      35.408  31.762  27.937  1.00  0.00     0.001 A 
ATOM     75  C   UNL A   1      34.822  32.376  30.188  1.00  0.00     0.001 A 
ATOM     76  C   UNL A   1      34.564  32.424  28.820  1.00  0.00     0.000 A 
ENDBRANCH  52  71
BRANCH  64  77
ATOM     77  C   UNL A   1      41.786  29.971  33.644  1.00  0.00    -0.014 A 
ATOM     78  C   UNL A   1      41.976  30.257  35.007  1.00  0.00     0.009 A 
ATOM     79  C   UNL A   1      41.578  28.631  33.274  1.00  0.00     0.009 A 
ATOM     80  C   UNL A   1      41.972  29.238  35.963  1.00  0.00     0.001 A 
ATOM     81  C   UNL A   1      41.545  27.615  34.234  1.00  0.00     0.001 A 
ATOM     82  C   UNL A   1      41.753  27.917  35.577  1.00  0.00     0.000 A 
ENDBRANCH  64  77
ENDBRANCH  38  39
ENDBRANCH  30  33
ENDBRANCH  28  29
ENDBRANCH  27  28
ENDBRANCH  26  27
ENDBRANCH   1  26
TORSDOF 15
ENDMDL
