MODEL 1
REMARK VINA RESULT:     -10.2      0.000      0.000
REMARK SMILES O=C(NCCCCNC(=O)c1ccc(-c2cccc(F)c2)o1)c1ccc(-c2c3nc(c(-c4ccccc4)c4ccc([nH]4)c(-c4ccccc4)c4nc(c(-c5ccccc5)c5ccc2[nH]5)C=C4)C=C3)cc1
REMARK SMILES IDX 5 1 4 2 3 3 1 4 2 5 23 7 24 8 70 9 25 10 69 11 26 12 27 13
REMARK SMILES IDX 28 14 63 15 29 16 68 17 62 18 64 19 30 20 67 21 61 22 60 23
REMARK SMILES IDX 31 25 53 26 38 27 52 28 39 29 42 30 51 31 65 32 40 33 41 34
REMARK SMILES IDX 50 36 66 37 43 38 32 39 33 40 37 41 34 42 36 43 35 44 54 45
REMARK SMILES IDX 55 46 59 47 56 48 58 49 57 50 44 51 45 52 49 53 46 54 48 55
REMARK SMILES IDX 47 56 6 57 7 58 8 59 9 60 10 62 11 63 12 64 22 65 13 66
REMARK SMILES IDX 14 67 15 68 16 69 21 70 17 71 19 72 18 73 20 74
REMARK H PARENT 3 6 64 24 42 35 8 61
REMARK Flexibility Score: inf
ROOT
ATOM      1  C   UNL A   1      44.316  18.530  25.254  1.00  0.00     0.023 C 
ENDROOT
BRANCH   1   2
ATOM      2  C   UNL A   1      43.309  18.469  26.394  1.00  0.00     0.116 C 
BRANCH   2   3
ATOM      3  N   UNL A   1      41.928  18.518  25.940  1.00  0.00    -0.352 N 
ATOM      4  O   UNL A   1      39.840  19.359  25.747  1.00  0.00    -0.269 OA
ATOM      5  C   UNL A   1      41.008  19.532  26.077  1.00  0.00     0.251 C 
ATOM      6  H   UNL A   1      41.607  17.715  25.469  1.00  0.00     0.163 HD
BRANCH   5   7
ATOM      7  C   UNL A   1      41.432  20.826  26.653  1.00  0.00     0.039 A 
ATOM      8  C   UNL A   1      41.362  21.042  28.030  1.00  0.00     0.014 A 
ATOM      9  C   UNL A   1      41.891  21.837  25.805  1.00  0.00     0.014 A 
ATOM     10  C   UNL A   1      41.604  22.310  28.541  1.00  0.00     0.010 A 
ATOM     11  C   UNL A   1      42.223  23.088  26.332  1.00  0.00     0.010 A 
ATOM     12  C   UNL A   1      42.054  23.343  27.701  1.00  0.00    -0.014 A 
BRANCH  12  13
ATOM     13  C   UNL A   1      42.411  24.651  28.305  1.00  0.00     0.031 A 
ATOM     14  C   UNL A   1      43.823  24.975  28.703  1.00  0.00     0.074 A 
ATOM     15  C   UNL A   1      41.440  25.573  28.443  1.00  0.00     0.049 A 
ATOM     16  N   UNL A   1      44.301  26.096  29.186  1.00  0.00    -0.248 NA
ATOM     17  C   UNL A   1      44.830  23.913  28.546  1.00  0.00     0.031 C 
ATOM     18  C   UNL A   1      40.029  25.370  28.099  1.00  0.00     0.029 A 
ATOM     19  N   UNL A   1      41.490  26.873  28.876  1.00  0.00    -0.354 N 
ATOM     20  C   UNL A   1      45.654  25.872  29.403  1.00  0.00     0.074 A 
ATOM     21  C   UNL A   1      45.921  24.500  29.022  1.00  0.00     0.031 C 
ATOM     22  C   UNL A   1      39.362  26.519  28.275  1.00  0.00     0.029 A 
ATOM     23  C   UNL A   1      40.280  27.520  28.804  1.00  0.00     0.049 A 
ATOM     24  H   UNL A   1      42.313  27.300  29.205  1.00  0.00     0.167 HD
ATOM     25  C   UNL A   1      46.589  26.733  29.874  1.00  0.00     0.031 A 
ATOM     26  C   UNL A   1      39.939  28.776  29.140  1.00  0.00     0.031 A 
ATOM     27  C   UNL A   1      46.323  28.096  30.252  1.00  0.00     0.049 A 
ATOM     28  C   UNL A   1      40.991  29.696  29.681  1.00  0.00     0.074 A 
ATOM     29  C   UNL A   1      47.210  29.051  30.720  1.00  0.00     0.029 A 
ATOM     30  N   UNL A   1      45.076  28.700  30.209  1.00  0.00    -0.354 N 
ATOM     31  N   UNL A   1      42.272  29.473  29.853  1.00  0.00    -0.248 NA
ATOM     32  C   UNL A   1      40.551  31.040  30.075  1.00  0.00     0.031 C 
ATOM     33  C   UNL A   1      46.492  30.217  31.004  1.00  0.00     0.029 A 
ATOM     34  C   UNL A   1      45.166  30.005  30.664  1.00  0.00     0.049 A 
ATOM     35  H   UNL A   1      44.248  28.265  29.902  1.00  0.00     0.167 HD
ATOM     36  C   UNL A   1      42.792  30.650  30.369  1.00  0.00     0.074 A 
ATOM     37  C   UNL A   1      41.695  31.594  30.451  1.00  0.00     0.031 C 
ATOM     38  C   UNL A   1      44.062  30.925  30.751  1.00  0.00     0.031 A 
BRANCH  25  39
ATOM     39  C   UNL A   1      47.996  26.223  30.026  1.00  0.00    -0.014 A 
ATOM     40  C   UNL A   1      48.923  26.318  28.976  1.00  0.00     0.009 A 
ATOM     41  C   UNL A   1      48.420  25.706  31.261  1.00  0.00     0.009 A 
ATOM     42  C   UNL A   1      50.239  25.886  29.153  1.00  0.00     0.001 A 
ATOM     43  C   UNL A   1      49.743  25.295  31.441  1.00  0.00     0.001 A 
ATOM     44  C   UNL A   1      50.649  25.380  30.387  1.00  0.00     0.000 A 
ENDBRANCH  25  39
BRANCH  26  45
ATOM     45  C   UNL A   1      38.532  29.226  28.991  1.00  0.00    -0.014 A 
ATOM     46  C   UNL A   1      37.644  29.175  30.074  1.00  0.00     0.009 A 
ATOM     47  C   UNL A   1      38.073  29.714  27.756  1.00  0.00     0.009 A 
ATOM     48  C   UNL A   1      36.316  29.580  29.918  1.00  0.00     0.001 A 
ATOM     49  C   UNL A   1      36.754  30.148  27.612  1.00  0.00     0.001 A 
ATOM     50  C   UNL A   1      35.875  30.071  28.690  1.00  0.00     0.000 A 
ENDBRANCH  26  45
BRANCH  38  51
ATOM     51  C   UNL A   1      44.325  32.307  31.274  1.00  0.00    -0.014 A 
ATOM     52  C   UNL A   1      44.239  32.591  32.645  1.00  0.00     0.009 A 
ATOM     53  C   UNL A   1      44.668  33.336  30.383  1.00  0.00     0.009 A 
ATOM     54  C   UNL A   1      44.452  33.889  33.112  1.00  0.00     0.001 A 
ATOM     55  C   UNL A   1      44.908  34.627  30.856  1.00  0.00     0.001 A 
ATOM     56  C   UNL A   1      44.789  34.904  32.218  1.00  0.00     0.000 A 
ENDBRANCH  38  51
ENDBRANCH  12  13
ENDBRANCH   5   7
ENDBRANCH   2   3
ENDBRANCH   1   2
BRANCH   1  57
ATOM     57  C   UNL A   1      45.620  19.253  25.581  1.00  0.00     0.023 C 
BRANCH  57  58
ATOM     58  C   UNL A   1      45.596  20.760  25.334  1.00  0.00     0.116 C 
BRANCH  58  59
ATOM     59  N   UNL A   1      45.093  21.081  24.010  1.00  0.00    -0.349 N 
ATOM     60  C   UNL A   1      44.771  22.318  23.500  1.00  0.00     0.287 C 
ATOM     61  H   UNL A   1      44.967  20.317  23.401  1.00  0.00     0.163 HD
ATOM     62  O   UNL A   1      44.138  22.357  22.444  1.00  0.00    -0.266 OA
BRANCH  60  63
ATOM     63  C   UNL A   1      45.214  23.487  24.218  1.00  0.00     0.192 A 
ATOM     64  C   UNL A   1      46.450  23.838  24.731  1.00  0.00     0.057 A 
ATOM     65  O   UNL A   1      44.309  24.475  24.489  1.00  0.00    -0.451 OA
ATOM     66  C   UNL A   1      46.288  25.096  25.355  1.00  0.00     0.052 A 
ATOM     67  C   UNL A   1      44.966  25.446  25.184  1.00  0.00     0.135 A 
BRANCH  67  68
ATOM     68  C   UNL A   1      44.180  26.604  25.574  1.00  0.00     0.020 A 
ATOM     69  C   UNL A   1      42.831  26.693  25.198  1.00  0.00     0.012 A 
ATOM     70  C   UNL A   1      44.757  27.654  26.295  1.00  0.00     0.051 A 
ATOM     71  C   UNL A   1      42.071  27.817  25.532  1.00  0.00     0.004 A 
ATOM     72  C   UNL A   1      43.995  28.774  26.612  1.00  0.00     0.123 A 
ATOM     73  C   UNL A   1      42.659  28.865  26.236  1.00  0.00     0.039 A 
ATOM     74  F   UNL A   1      44.560  29.789  27.278  1.00  0.00    -0.207 F 
ENDBRANCH  67  68
ENDBRANCH  60  63
ENDBRANCH  58  59
ENDBRANCH  57  58
ENDBRANCH   1  57
TORSDOF 12
ENDMDL
MODEL 2
REMARK VINA RESULT:      -9.0      4.247      9.371
REMARK SMILES O=C(NCCCCNC(=O)c1ccc(-c2cccc(F)c2)o1)c1ccc(-c2c3nc(c(-c4ccccc4)c4ccc([nH]4)c(-c4ccccc4)c4nc(c(-c5ccccc5)c5ccc2[nH]5)C=C4)C=C3)cc1
REMARK SMILES IDX 5 1 4 2 3 3 1 4 2 5 23 7 24 8 70 9 25 10 69 11 26 12 27 13
REMARK SMILES IDX 28 14 63 15 29 16 68 17 62 18 64 19 30 20 67 21 61 22 60 23
REMARK SMILES IDX 31 25 53 26 38 27 52 28 39 29 42 30 51 31 65 32 40 33 41 34
REMARK SMILES IDX 50 36 66 37 43 38 32 39 33 40 37 41 34 42 36 43 35 44 54 45
REMARK SMILES IDX 55 46 59 47 56 48 58 49 57 50 44 51 45 52 49 53 46 54 48 55
REMARK SMILES IDX 47 56 6 57 7 58 8 59 9 60 10 62 11 63 12 64 22 65 13 66
REMARK SMILES IDX 14 67 15 68 16 69 21 70 17 71 19 72 18 73 20 74
REMARK H PARENT 3 6 64 24 42 35 8 61
REMARK Flexibility Score: inf
ROOT
ATOM      1  C   UNL A   1      32.551  28.120  26.381  1.00  0.00     0.023 C 
ENDROOT
BRANCH   1   2
ATOM      2  C   UNL A   1      33.707  28.540  27.279  1.00  0.00     0.116 C 
BRANCH   2   3
ATOM      3  N   UNL A   1      33.633  29.933  27.690  1.00  0.00    -0.352 N 
ATOM      4  O   UNL A   1      34.328  31.836  28.690  1.00  0.00    -0.269 OA
ATOM      5  C   UNL A   1      34.598  30.708  28.290  1.00  0.00     0.251 C 
ATOM      6  H   UNL A   1      32.776  30.383  27.515  1.00  0.00     0.163 HD
BRANCH   5   7
ATOM      7  C   UNL A   1      35.959  30.163  28.476  1.00  0.00     0.039 A 
ATOM      8  C   UNL A   1      36.336  29.608  29.699  1.00  0.00     0.014 A 
ATOM      9  C   UNL A   1      36.872  30.220  27.418  1.00  0.00     0.014 A 
ATOM     10  C   UNL A   1      37.660  29.251  29.914  1.00  0.00     0.010 A 
ATOM     11  C   UNL A   1      38.183  29.775  27.608  1.00  0.00     0.010 A 
ATOM     12  C   UNL A   1      38.595  29.314  28.867  1.00  0.00    -0.014 A 
BRANCH  12  13
ATOM     13  C   UNL A   1      39.972  28.815  29.106  1.00  0.00     0.031 A 
ATOM     14  C   UNL A   1      40.398  27.439  28.678  1.00  0.00     0.074 A 
ATOM     15  C   UNL A   1      40.861  29.651  29.677  1.00  0.00     0.049 A 
ATOM     16  N   UNL A   1      41.582  26.884  28.764  1.00  0.00    -0.248 NA
ATOM     17  C   UNL A   1      39.371  26.571  28.081  1.00  0.00     0.031 C 
ATOM     18  C   UNL A   1      40.561  31.009  30.143  1.00  0.00     0.029 A 
ATOM     19  N   UNL A   1      42.199  29.502  29.934  1.00  0.00    -0.354 N 
ATOM     20  C   UNL A   1      41.441  25.603  28.247  1.00  0.00     0.074 A 
ATOM     21  C   UNL A   1      40.050  25.450  27.872  1.00  0.00     0.031 C 
ATOM     22  C   UNL A   1      41.691  31.587  30.571  1.00  0.00     0.029 A 
ATOM     23  C   UNL A   1      42.781  30.624  30.471  1.00  0.00     0.049 A 
ATOM     24  H   UNL A   1      42.693  28.670  29.752  1.00  0.00     0.167 HD
ATOM     25  C   UNL A   1      42.386  24.642  28.098  1.00  0.00     0.031 A 
ATOM     26  C   UNL A   1      44.048  30.853  30.855  1.00  0.00     0.031 A 
ATOM     27  C   UNL A   1      43.768  24.796  28.473  1.00  0.00     0.049 A 
ATOM     28  C   UNL A   1      45.064  29.762  30.700  1.00  0.00     0.074 A 
ATOM     29  C   UNL A   1      44.803  23.885  28.340  1.00  0.00     0.029 A 
ATOM     30  N   UNL A   1      44.308  25.931  29.056  1.00  0.00    -0.354 N 
ATOM     31  N   UNL A   1      44.916  28.566  30.184  1.00  0.00    -0.248 NA
ATOM     32  C   UNL A   1      46.421  30.053  31.180  1.00  0.00     0.031 C 
ATOM     33  C   UNL A   1      45.960  24.453  28.886  1.00  0.00     0.029 A 
ATOM     34  C   UNL A   1      45.656  25.736  29.310  1.00  0.00     0.049 A 
ATOM     35  H   UNL A   1      43.808  26.754  29.260  1.00  0.00     0.167 HD
ATOM     36  C   UNL A   1      46.162  27.963  30.272  1.00  0.00     0.074 A 
ATOM     37  C   UNL A   1      47.060  28.937  30.860  1.00  0.00     0.031 C 
ATOM     38  C   UNL A   1      46.531  26.712  29.907  1.00  0.00     0.031 A 
BRANCH  25  39
ATOM     39  C   UNL A   1      41.957  23.323  27.518  1.00  0.00    -0.014 A 
ATOM     40  C   UNL A   1      42.181  23.014  26.167  1.00  0.00     0.009 A 
ATOM     41  C   UNL A   1      41.384  22.348  28.351  1.00  0.00     0.009 A 
ATOM     42  C   UNL A   1      41.822  21.764  25.658  1.00  0.00     0.001 A 
ATOM     43  C   UNL A   1      41.047  21.091  27.844  1.00  0.00     0.001 A 
ATOM     44  C   UNL A   1      41.260  20.802  26.497  1.00  0.00     0.000 A 
ENDBRANCH  25  39
BRANCH  26  45
ATOM     45  C   UNL A   1      44.419  32.166  31.442  1.00  0.00    -0.014 A 
ATOM     46  C   UNL A   1      44.335  32.382  32.825  1.00  0.00     0.009 A 
ATOM     47  C   UNL A   1      44.861  33.211  30.615  1.00  0.00     0.009 A 
ATOM     48  C   UNL A   1      44.665  33.627  33.365  1.00  0.00     0.001 A 
ATOM     49  C   UNL A   1      45.220  34.444  31.162  1.00  0.00     0.001 A 
ATOM     50  C   UNL A   1      45.112  34.654  32.535  1.00  0.00     0.000 A 
ENDBRANCH  26  45
BRANCH  38  51
ATOM     51  C   UNL A   1      47.969  26.341  30.123  1.00  0.00    -0.014 A 
ATOM     52  C   UNL A   1      48.926  26.536  29.116  1.00  0.00     0.009 A 
ATOM     53  C   UNL A   1      48.371  25.795  31.352  1.00  0.00     0.009 A 
ATOM     54  C   UNL A   1      50.253  26.153  29.320  1.00  0.00     0.001 A 
ATOM     55  C   UNL A   1      49.704  25.439  31.563  1.00  0.00     0.001 A 
ATOM     56  C   UNL A   1      50.640  25.608  30.544  1.00  0.00     0.000 A 
ENDBRANCH  38  51
ENDBRANCH  12  13
ENDBRANCH   5   7
ENDBRANCH   2   3
ENDBRANCH   1   2
BRANCH   1  57
ATOM     57  C   UNL A   1      32.645  26.700  25.827  1.00  0.00     0.023 C 
BRANCH  57  58
ATOM     58  C   UNL A   1      31.308  26.074  25.439  1.00  0.00     0.116 C 
BRANCH  58  59
ATOM     59  N   UNL A   1      30.797  25.205  26.486  1.00  0.00    -0.349 N 
ATOM     60  C   UNL A   1      30.951  23.843  26.611  1.00  0.00     0.287 C 
ATOM     61  H   UNL A   1      30.275  25.647  27.195  1.00  0.00     0.163 HD
ATOM     62  O   UNL A   1      30.244  23.259  27.433  1.00  0.00    -0.266 OA
BRANCH  60  63
ATOM     63  C   UNL A   1      31.942  23.192  25.790  1.00  0.00     0.192 A 
ATOM     64  C   UNL A   1      31.828  22.431  24.641  1.00  0.00     0.057 A 
ATOM     65  O   UNL A   1      33.258  23.291  26.145  1.00  0.00    -0.451 OA
ATOM     66  C   UNL A   1      33.137  22.037  24.284  1.00  0.00     0.052 A 
ATOM     67  C   UNL A   1      33.978  22.583  25.231  1.00  0.00     0.135 A 
BRANCH  67  68
ATOM     68  C   UNL A   1      35.418  22.559  25.421  1.00  0.00     0.020 A 
ATOM     69  C   UNL A   1      36.088  23.719  25.838  1.00  0.00     0.012 A 
ATOM     70  C   UNL A   1      36.158  21.400  25.164  1.00  0.00     0.051 A 
ATOM     71  C   UNL A   1      37.477  23.725  25.990  1.00  0.00     0.004 A 
ATOM     72  C   UNL A   1      37.541  21.420  25.305  1.00  0.00     0.123 A 
ATOM     73  C   UNL A   1      38.207  22.571  25.715  1.00  0.00     0.039 A 
ATOM     74  F   UNL A   1      38.248  20.316  25.030  1.00  0.00    -0.207 F 
ENDBRANCH  67  68
ENDBRANCH  60  63
ENDBRANCH  58  59
ENDBRANCH  57  58
ENDBRANCH   1  57
TORSDOF 12
ENDMDL
MODEL 3
REMARK VINA RESULT:      -8.9      5.266     11.282
REMARK SMILES O=C(NCCCCNC(=O)c1ccc(-c2cccc(F)c2)o1)c1ccc(-c2c3nc(c(-c4ccccc4)c4ccc([nH]4)c(-c4ccccc4)c4nc(c(-c5ccccc5)c5ccc2[nH]5)C=C4)C=C3)cc1
REMARK SMILES IDX 5 1 4 2 3 3 1 4 2 5 23 7 24 8 70 9 25 10 69 11 26 12 27 13
REMARK SMILES IDX 28 14 63 15 29 16 68 17 62 18 64 19 30 20 67 21 61 22 60 23
REMARK SMILES IDX 31 25 53 26 38 27 52 28 39 29 42 30 51 31 65 32 40 33 41 34
REMARK SMILES IDX 50 36 66 37 43 38 32 39 33 40 37 41 34 42 36 43 35 44 54 45
REMARK SMILES IDX 55 46 59 47 56 48 58 49 57 50 44 51 45 52 49 53 46 54 48 55
REMARK SMILES IDX 47 56 6 57 7 58 8 59 9 60 10 62 11 63 12 64 22 65 13 66
REMARK SMILES IDX 14 67 15 68 16 69 21 70 17 71 19 72 18 73 20 74
REMARK H PARENT 3 6 64 24 42 35 8 61
REMARK Flexibility Score: inf
ROOT
ATOM      1  C   UNL A   1      35.115  34.613  28.384  1.00  0.00     0.023 C 
ENDROOT
BRANCH   1   2
ATOM      2  C   UNL A   1      34.523  33.440  29.155  1.00  0.00     0.116 C 
BRANCH   2   3
ATOM      3  N   UNL A   1      33.925  32.434  28.292  1.00  0.00    -0.352 N 
ATOM      4  O   UNL A   1      33.853  30.544  27.056  1.00  0.00    -0.269 OA
ATOM      5  C   UNL A   1      34.438  31.221  27.895  1.00  0.00     0.251 C 
ATOM      6  H   UNL A   1      33.030  32.650  27.944  1.00  0.00     0.163 HD
BRANCH   5   7
ATOM      7  C   UNL A   1      35.717  30.749  28.466  1.00  0.00     0.039 A 
ATOM      8  C   UNL A   1      36.928  31.282  28.021  1.00  0.00     0.014 A 
ATOM      9  C   UNL A   1      35.705  29.754  29.447  1.00  0.00     0.014 A 
ATOM     10  C   UNL A   1      38.124  30.718  28.443  1.00  0.00     0.010 A 
ATOM     11  C   UNL A   1      36.911  29.249  29.939  1.00  0.00     0.010 A 
ATOM     12  C   UNL A   1      38.131  29.707  29.419  1.00  0.00    -0.014 A 
BRANCH  12  13
ATOM     13  C   UNL A   1      39.435  29.212  29.926  1.00  0.00     0.031 A 
ATOM     14  C   UNL A   1      40.067  29.781  31.164  1.00  0.00     0.074 A 
ATOM     15  C   UNL A   1      40.024  28.191  29.273  1.00  0.00     0.049 A 
ATOM     16  N   UNL A   1      41.172  29.411  31.764  1.00  0.00    -0.248 NA
ATOM     17  C   UNL A   1      39.381  30.909  31.814  1.00  0.00     0.031 C 
ATOM     18  C   UNL A   1      39.508  27.561  28.054  1.00  0.00     0.029 A 
ATOM     19  N   UNL A   1      41.162  27.481  29.556  1.00  0.00    -0.354 N 
ATOM     20  C   UNL A   1      41.322  30.265  32.849  1.00  0.00     0.074 A 
ATOM     21  C   UNL A   1      40.207  31.190  32.814  1.00  0.00     0.031 C 
ATOM     22  C   UNL A   1      40.291  26.523  27.730  1.00  0.00     0.029 A 
ATOM     23  C   UNL A   1      41.397  26.452  28.677  1.00  0.00     0.049 A 
ATOM     24  H   UNL A   1      41.752  27.688  30.316  1.00  0.00     0.167 HD
ATOM     25  C   UNL A   1      42.298  30.275  33.790  1.00  0.00     0.031 A 
ATOM     26  C   UNL A   1      42.398  25.557  28.626  1.00  0.00     0.031 A 
ATOM     27  C   UNL A   1      43.405  29.355  33.823  1.00  0.00     0.049 A 
ATOM     28  C   UNL A   1      43.475  25.610  29.666  1.00  0.00     0.074 A 
ATOM     29  C   UNL A   1      44.432  29.274  34.749  1.00  0.00     0.029 A 
ATOM     30  N   UNL A   1      43.632  28.357  32.888  1.00  0.00    -0.354 N 
ATOM     31  N   UNL A   1      43.584  26.409  30.700  1.00  0.00    -0.248 NA
ATOM     32  C   UNL A   1      44.568  24.638  29.532  1.00  0.00     0.031 C 
ATOM     33  C   UNL A   1      45.306  28.257  34.348  1.00  0.00     0.029 A 
ATOM     34  C   UNL A   1      44.795  27.672  33.201  1.00  0.00     0.049 A 
ATOM     35  H   UNL A   1      43.054  28.165  32.114  1.00  0.00     0.167 HD
ATOM     36  C   UNL A   1      44.753  26.032  31.343  1.00  0.00     0.074 A 
ATOM     37  C   UNL A   1      45.300  24.913  30.602  1.00  0.00     0.031 C 
ATOM     38  C   UNL A   1      45.330  26.569  32.445  1.00  0.00     0.031 A 
BRANCH  25  39
ATOM     39  C   UNL A   1      42.227  31.328  34.860  1.00  0.00    -0.014 A 
ATOM     40  C   UNL A   1      41.621  31.068  36.100  1.00  0.00     0.009 A 
ATOM     41  C   UNL A   1      42.838  32.576  34.652  1.00  0.00     0.009 A 
ATOM     42  C   UNL A   1      41.610  32.042  37.101  1.00  0.00     0.001 A 
ATOM     43  C   UNL A   1      42.845  33.540  35.663  1.00  0.00     0.001 A 
ATOM     44  C   UNL A   1      42.226  33.275  36.883  1.00  0.00     0.000 A 
ENDBRANCH  25  39
BRANCH  26  45
ATOM     45  C   UNL A   1      42.435  24.549  27.536  1.00  0.00    -0.014 A 
ATOM     46  C   UNL A   1      43.099  24.819  26.331  1.00  0.00     0.009 A 
ATOM     47  C   UNL A   1      41.804  23.305  27.702  1.00  0.00     0.009 A 
ATOM     48  C   UNL A   1      43.109  23.872  25.304  1.00  0.00     0.001 A 
ATOM     49  C   UNL A   1      41.844  22.349  26.685  1.00  0.00     0.001 A 
ATOM     50  C   UNL A   1      42.487  22.638  25.484  1.00  0.00     0.000 A 
ENDBRANCH  26  45
BRANCH  38  51
ATOM     51  C   UNL A   1      46.607  25.937  32.915  1.00  0.00    -0.014 A 
ATOM     52  C   UNL A   1      46.597  24.898  33.858  1.00  0.00     0.009 A 
ATOM     53  C   UNL A   1      47.835  26.384  32.404  1.00  0.00     0.009 A 
ATOM     54  C   UNL A   1      47.796  24.345  34.311  1.00  0.00     0.001 A 
ATOM     55  C   UNL A   1      49.031  25.809  32.838  1.00  0.00     0.001 A 
ATOM     56  C   UNL A   1      49.011  24.799  33.798  1.00  0.00     0.000 A 
ENDBRANCH  38  51
ENDBRANCH  12  13
ENDBRANCH   5   7
ENDBRANCH   2   3
ENDBRANCH   1   2
BRANCH   1  57
ATOM     57  C   UNL A   1      34.297  35.902  28.441  1.00  0.00     0.023 C 
BRANCH  57  58
ATOM     58  C   UNL A   1      33.150  35.889  29.449  1.00  0.00     0.116 C 
BRANCH  58  59
ATOM     59  N   UNL A   1      33.196  37.043  30.331  1.00  0.00    -0.349 N 
ATOM     60  C   UNL A   1      33.396  37.064  31.692  1.00  0.00     0.287 C 
ATOM     61  H   UNL A   1      33.069  37.919  29.899  1.00  0.00     0.163 HD
ATOM     62  O   UNL A   1      33.163  38.115  32.290  1.00  0.00    -0.266 OA
BRANCH  60  63
ATOM     63  C   UNL A   1      33.885  35.866  32.327  1.00  0.00     0.192 A 
ATOM     64  C   UNL A   1      33.273  34.657  32.606  1.00  0.00     0.057 A 
ATOM     65  O   UNL A   1      35.178  35.837  32.771  1.00  0.00    -0.451 OA
ATOM     66  C   UNL A   1      34.236  33.856  33.260  1.00  0.00     0.052 A 
ATOM     67  C   UNL A   1      35.383  34.617  33.341  1.00  0.00     0.135 A 
BRANCH  67  68
ATOM     68  C   UNL A   1      36.709  34.371  33.881  1.00  0.00     0.020 A 
ATOM     69  C   UNL A   1      36.851  33.848  35.175  1.00  0.00     0.012 A 
ATOM     70  C   UNL A   1      37.854  34.679  33.141  1.00  0.00     0.051 A 
ATOM     71  C   UNL A   1      38.119  33.640  35.725  1.00  0.00     0.004 A 
ATOM     72  C   UNL A   1      39.112  34.481  33.702  1.00  0.00     0.123 A 
ATOM     73  C   UNL A   1      39.254  33.966  34.986  1.00  0.00     0.039 A 
ATOM     74  F   UNL A   1      40.206  34.804  33.000  1.00  0.00    -0.207 F 
ENDBRANCH  67  68
ENDBRANCH  60  63
ENDBRANCH  58  59
ENDBRANCH  57  58
ENDBRANCH   1  57
TORSDOF 12
ENDMDL
