MODEL 1
REMARK VINA RESULT:     -12.3      0.000      0.000
REMARK SMILES O=C(NCCCCNC(=O)c1ccc2c(c1)[C@@H]1C=CC[C@@H]1[C@H](c1ccncc1)N2)c1ccc(-c2c3nc(c(-c4ccccc4)c4ccc([nH]4)c(-c4ccccc4)c4nc(c(-c5ccccc5)c5ccc2[nH]5)C=C4)C=C3)cc1
REMARK SMILES IDX 5 1 4 2 3 3 1 4 2 5 30 7 31 8 77 9 32 10 76 11 33 12 34 13
REMARK SMILES IDX 35 14 70 15 36 16 75 17 69 18 71 19 37 20 74 21 68 22 67 23
REMARK SMILES IDX 38 25 60 26 45 27 59 28 46 29 49 30 58 31 72 32 47 33 48 34
REMARK SMILES IDX 57 36 73 37 50 38 39 39 40 40 44 41 41 42 43 43 42 44 61 45
REMARK SMILES IDX 62 46 66 47 63 48 65 49 64 50 51 51 52 52 56 53 53 54 55 55
REMARK SMILES IDX 54 56 6 57 7 58 8 59 9 60 10 62 11 63 12 64 16 65 13 66
REMARK SMILES IDX 15 67 14 68 17 69 29 70 18 71 21 72 22 73 19 75 20 76 23 77
REMARK SMILES IDX 24 78 28 79 25 80 27 81 26 82
REMARK H PARENT 3 6 71 24 49 35 8 61 29 74
REMARK Flexibility Score: inf
ROOT
ATOM      1  C   UNL A   1      32.528  28.356  26.595  1.00  0.00     0.023 C 
ENDROOT
BRANCH   1   2
ATOM      2  C   UNL A   1      33.825  28.796  27.264  1.00  0.00     0.116 C 
BRANCH   2   3
ATOM      3  N   UNL A   1      33.757  30.150  27.788  1.00  0.00    -0.352 N 
ATOM      4  O   UNL A   1      34.394  31.947  28.991  1.00  0.00    -0.269 OA
ATOM      5  C   UNL A   1      34.693  30.864  28.495  1.00  0.00     0.251 C 
ATOM      6  H   UNL A   1      32.913  30.626  27.611  1.00  0.00     0.163 HD
BRANCH   5   7
ATOM      7  C   UNL A   1      36.054  30.321  28.682  1.00  0.00     0.039 A 
ATOM      8  C   UNL A   1      36.413  29.665  29.862  1.00  0.00     0.014 A 
ATOM      9  C   UNL A   1      36.980  30.456  27.644  1.00  0.00     0.014 A 
ATOM     10  C   UNL A   1      37.730  29.258  30.056  1.00  0.00     0.010 A 
ATOM     11  C   UNL A   1      38.283  29.984  27.812  1.00  0.00     0.010 A 
ATOM     12  C   UNL A   1      38.675  29.407  29.030  1.00  0.00    -0.014 A 
BRANCH  12  13
ATOM     13  C   UNL A   1      40.059  28.908  29.212  1.00  0.00     0.031 A 
ATOM     14  C   UNL A   1      41.144  29.811  29.722  1.00  0.00     0.074 A 
ATOM     15  C   UNL A   1      40.340  27.633  28.881  1.00  0.00     0.049 A 
ATOM     16  N   UNL A   1      42.420  29.561  29.873  1.00  0.00    -0.248 NA
ATOM     17  C   UNL A   1      40.748  31.175  30.102  1.00  0.00     0.031 C 
ATOM     18  C   UNL A   1      39.372  26.661  28.370  1.00  0.00     0.029 A 
ATOM     19  N   UNL A   1      41.524  26.943  28.913  1.00  0.00    -0.354 N 
ATOM     20  C   UNL A   1      42.984  30.741  30.339  1.00  0.00     0.074 A 
ATOM     21  C   UNL A   1      41.915  31.712  30.429  1.00  0.00     0.031 C 
ATOM     22  C   UNL A   1      39.999  25.498  28.143  1.00  0.00     0.029 A 
ATOM     23  C   UNL A   1      41.418  25.659  28.438  1.00  0.00     0.049 A 
ATOM     24  H   UNL A   1      42.367  27.329  29.244  1.00  0.00     0.167 HD
ATOM     25  C   UNL A   1      44.277  30.991  30.660  1.00  0.00     0.031 A 
ATOM     26  C   UNL A   1      42.361  24.723  28.228  1.00  0.00     0.031 A 
ATOM     27  C   UNL A   1      45.337  30.022  30.567  1.00  0.00     0.049 A 
ATOM     28  C   UNL A   1      43.790  25.031  28.556  1.00  0.00     0.074 A 
ATOM     29  C   UNL A   1      46.669  30.164  30.917  1.00  0.00     0.029 A 
ATOM     30  N   UNL A   1      45.189  28.733  30.076  1.00  0.00    -0.354 N 
ATOM     31  N   UNL A   1      44.301  26.138  29.040  1.00  0.00    -0.248 NA
ATOM     32  C   UNL A   1      44.772  23.966  28.313  1.00  0.00     0.031 C 
ATOM     33  C   UNL A   1      47.337  28.980  30.588  1.00  0.00     0.029 A 
ATOM     34  C   UNL A   1      46.411  28.081  30.083  1.00  0.00     0.049 A 
ATOM     35  H   UNL A   1      44.340  28.341  29.767  1.00  0.00     0.167 HD
ATOM     36  C   UNL A   1      45.661  25.897  29.177  1.00  0.00     0.074 A 
ATOM     37  C   UNL A   1      45.894  24.536  28.733  1.00  0.00     0.031 C 
ATOM     38  C   UNL A   1      46.627  26.729  29.634  1.00  0.00     0.031 A 
BRANCH  25  39
ATOM     39  C   UNL A   1      44.620  32.384  31.106  1.00  0.00    -0.014 A 
ATOM     40  C   UNL A   1      44.648  32.734  32.465  1.00  0.00     0.009 A 
ATOM     41  C   UNL A   1      44.946  33.358  30.149  1.00  0.00     0.009 A 
ATOM     42  C   UNL A   1      44.952  34.042  32.853  1.00  0.00     0.001 A 
ATOM     43  C   UNL A   1      45.276  34.657  30.540  1.00  0.00     0.001 A 
ATOM     44  C   UNL A   1      45.268  35.000  31.891  1.00  0.00     0.000 A 
ENDBRANCH  25  39
BRANCH  26  45
ATOM     45  C   UNL A   1      41.962  23.416  27.649  1.00  0.00    -0.014 A 
ATOM     46  C   UNL A   1      42.010  23.203  26.264  1.00  0.00     0.009 A 
ATOM     47  C   UNL A   1      41.593  22.354  28.491  1.00  0.00     0.009 A 
ATOM     48  C   UNL A   1      41.691  21.950  25.734  1.00  0.00     0.001 A 
ATOM     49  C   UNL A   1      41.300  21.097  27.960  1.00  0.00     0.001 A 
ATOM     50  C   UNL A   1      41.345  20.897  26.581  1.00  0.00     0.000 A 
ENDBRANCH  26  45
BRANCH  38  51
ATOM     51  C   UNL A   1      48.025  26.187  29.705  1.00  0.00    -0.014 A 
ATOM     52  C   UNL A   1      48.871  26.210  28.586  1.00  0.00     0.009 A 
ATOM     53  C   UNL A   1      48.520  25.704  30.926  1.00  0.00     0.009 A 
ATOM     54  C   UNL A   1      50.183  25.742  28.686  1.00  0.00     0.001 A 
ATOM     55  C   UNL A   1      49.839  25.258  31.029  1.00  0.00     0.001 A 
ATOM     56  C   UNL A   1      50.667  25.273  29.907  1.00  0.00     0.000 A 
ENDBRANCH  38  51
ENDBRANCH  12  13
ENDBRANCH   5   7
ENDBRANCH   2   3
ENDBRANCH   1   2
BRANCH   1  57
ATOM     57  C   UNL A   1      31.831  29.426  25.760  1.00  0.00     0.023 C 
BRANCH  57  58
ATOM     58  C   UNL A   1      31.493  29.024  24.328  1.00  0.00     0.116 C 
BRANCH  58  59
ATOM     59  N   UNL A   1      32.613  29.188  23.413  1.00  0.00    -0.352 N 
ATOM     60  C   UNL A   1      33.413  28.220  22.853  1.00  0.00     0.251 C 
ATOM     61  H   UNL A   1      32.828  30.116  23.162  1.00  0.00     0.163 HD
ATOM     62  O   UNL A   1      34.400  28.533  22.195  1.00  0.00    -0.269 OA
BRANCH  60  63
ATOM     63  C   UNL A   1      33.090  26.796  23.075  1.00  0.00     0.040 A 
ATOM     64  C   UNL A   1      32.294  26.128  22.147  1.00  0.00     0.016 A 
ATOM     65  C   UNL A   1      33.616  26.111  24.171  1.00  0.00     0.020 A 
ATOM     66  C   UNL A   1      32.064  24.759  22.303  1.00  0.00     0.027 A 
ATOM     67  C   UNL A   1      33.453  24.722  24.283  1.00  0.00    -0.017 A 
ATOM     68  C   UNL A   1      32.621  24.046  23.376  1.00  0.00     0.038 A 
ATOM     69  C   UNL A   1      34.203  23.974  25.362  1.00  0.00     0.049 C 
ATOM     70  N   UNL A   1      32.416  22.675  23.462  1.00  0.00    -0.378 N 
ATOM     71  C   UNL A   1      35.698  24.181  25.273  1.00  0.00    -0.023 C 
ATOM     72  C   UNL A   1      34.125  22.444  25.225  1.00  0.00     0.031 C 
ATOM     73  C   UNL A   1      32.769  21.979  24.692  1.00  0.00     0.114 C 
ATOM     74  H   UNL A   1      32.036  22.179  22.701  1.00  0.00     0.161 HD
ATOM     75  C   UNL A   1      36.323  23.127  24.734  1.00  0.00    -0.030 C 
ATOM     76  C   UNL A   1      35.353  22.042  24.390  1.00  0.00     0.034 C 
BRANCH  73  77
ATOM     77  C   UNL A   1      32.712  20.467  24.534  1.00  0.00    -0.022 A 
ATOM     78  C   UNL A   1      32.451  19.921  23.268  1.00  0.00     0.026 A 
ATOM     79  C   UNL A   1      32.877  19.577  25.600  1.00  0.00     0.026 A 
ATOM     80  C   UNL A   1      32.373  18.544  23.128  1.00  0.00     0.111 A 
ATOM     81  C   UNL A   1      32.796  18.213  25.358  1.00  0.00     0.111 A 
ATOM     82  N   UNL A   1      32.547  17.678  24.146  1.00  0.00    -0.265 NA
ENDBRANCH  73  77
ENDBRANCH  60  63
ENDBRANCH  58  59
ENDBRANCH  57  58
ENDBRANCH   1  57
TORSDOF 12
ENDMDL
MODEL 2
REMARK VINA RESULT:     -12.3      2.399      7.790
REMARK SMILES O=C(NCCCCNC(=O)c1ccc2c(c1)[C@@H]1C=CC[C@@H]1[C@H](c1ccncc1)N2)c1ccc(-c2c3nc(c(-c4ccccc4)c4ccc([nH]4)c(-c4ccccc4)c4nc(c(-c5ccccc5)c5ccc2[nH]5)C=C4)C=C3)cc1
REMARK SMILES IDX 5 1 4 2 3 3 1 4 2 5 30 7 31 8 77 9 32 10 76 11 33 12 34 13
REMARK SMILES IDX 35 14 70 15 36 16 75 17 69 18 71 19 37 20 74 21 68 22 67 23
REMARK SMILES IDX 38 25 60 26 45 27 59 28 46 29 49 30 58 31 72 32 47 33 48 34
REMARK SMILES IDX 57 36 73 37 50 38 39 39 40 40 44 41 41 42 43 43 42 44 61 45
REMARK SMILES IDX 62 46 66 47 63 48 65 49 64 50 51 51 52 52 56 53 53 54 55 55
REMARK SMILES IDX 54 56 6 57 7 58 8 59 9 60 10 62 11 63 12 64 16 65 13 66
REMARK SMILES IDX 15 67 14 68 17 69 29 70 18 71 21 72 22 73 19 75 20 76 23 77
REMARK SMILES IDX 24 78 28 79 25 80 27 81 26 82
REMARK H PARENT 3 6 71 24 49 35 8 61 29 74
REMARK Flexibility Score: inf
ROOT
ATOM      1  C   UNL A   1      37.174  19.985  24.958  1.00  0.00     0.023 C 
ENDROOT
BRANCH   1   2
ATOM      2  C   UNL A   1      38.463  20.571  25.524  1.00  0.00     0.116 C 
BRANCH   2   3
ATOM      3  N   UNL A   1      39.537  19.595  25.605  1.00  0.00    -0.352 N 
ATOM      4  O   UNL A   1      41.647  18.845  25.861  1.00  0.00    -0.269 OA
ATOM      5  C   UNL A   1      40.839  19.757  26.008  1.00  0.00     0.251 C 
ATOM      6  H   UNL A   1      39.295  18.681  25.328  1.00  0.00     0.163 HD
BRANCH   5   7
ATOM      7  C   UNL A   1      41.279  21.038  26.600  1.00  0.00     0.039 A 
ATOM      8  C   UNL A   1      41.182  21.269  27.975  1.00  0.00     0.014 A 
ATOM      9  C   UNL A   1      41.817  22.017  25.760  1.00  0.00     0.014 A 
ATOM     10  C   UNL A   1      41.502  22.521  28.492  1.00  0.00     0.010 A 
ATOM     11  C   UNL A   1      42.205  23.248  26.290  1.00  0.00     0.010 A 
ATOM     12  C   UNL A   1      42.024  23.519  27.656  1.00  0.00    -0.014 A 
BRANCH  12  13
ATOM     13  C   UNL A   1      42.431  24.828  28.221  1.00  0.00     0.031 A 
ATOM     14  C   UNL A   1      41.424  25.918  28.448  1.00  0.00     0.074 A 
ATOM     15  C   UNL A   1      43.732  25.040  28.499  1.00  0.00     0.049 A 
ATOM     16  N   UNL A   1      41.618  27.143  28.866  1.00  0.00    -0.248 NA
ATOM     17  C   UNL A   1      40.020  25.593  28.160  1.00  0.00     0.031 C 
ATOM     18  C   UNL A   1      44.805  24.060  28.316  1.00  0.00     0.029 A 
ATOM     19  N   UNL A   1      44.371  26.152  28.983  1.00  0.00    -0.354 N 
ATOM     20  C   UNL A   1      40.367  27.745  28.866  1.00  0.00     0.074 A 
ATOM     21  C   UNL A   1      39.423  26.755  28.389  1.00  0.00     0.031 C 
ATOM     22  C   UNL A   1      45.968  24.612  28.689  1.00  0.00     0.029 A 
ATOM     23  C   UNL A   1      45.732  25.996  29.082  1.00  0.00     0.049 A 
ATOM     24  H   UNL A   1      43.902  26.980  29.234  1.00  0.00     0.167 HD
ATOM     25  C   UNL A   1      40.036  29.008  29.228  1.00  0.00     0.031 A 
ATOM     26  C   UNL A   1      46.691  26.877  29.418  1.00  0.00     0.031 A 
ATOM     27  C   UNL A   1      40.978  29.989  29.699  1.00  0.00     0.049 A 
ATOM     28  C   UNL A   1      46.308  28.280  29.781  1.00  0.00     0.074 A 
ATOM     29  C   UNL A   1      40.733  31.279  30.138  1.00  0.00     0.029 A 
ATOM     30  N   UNL A   1      42.348  29.793  29.780  1.00  0.00    -0.354 N 
ATOM     31  N   UNL A   1      45.114  28.821  29.820  1.00  0.00    -0.248 NA
ATOM     32  C   UNL A   1      47.399  29.193  30.148  1.00  0.00     0.031 C 
ATOM     33  C   UNL A   1      41.960  31.881  30.433  1.00  0.00     0.029 A 
ATOM     34  C   UNL A   1      42.965  30.948  30.231  1.00  0.00     0.049 A 
ATOM     35  H   UNL A   1      42.814  28.956  29.551  1.00  0.00     0.167 HD
ATOM     36  C   UNL A   1      45.307  30.132  30.234  1.00  0.00     0.074 A 
ATOM     37  C   UNL A   1      46.732  30.302  30.440  1.00  0.00     0.031 C 
ATOM     38  C   UNL A   1      44.384  31.104  30.427  1.00  0.00     0.031 A 
BRANCH  25  39
ATOM     39  C   UNL A   1      38.594  29.410  29.089  1.00  0.00    -0.014 A 
ATOM     40  C   UNL A   1      38.086  29.918  27.884  1.00  0.00     0.009 A 
ATOM     41  C   UNL A   1      37.723  29.255  30.180  1.00  0.00     0.009 A 
ATOM     42  C   UNL A   1      36.747  30.303  27.786  1.00  0.00     0.001 A 
ATOM     43  C   UNL A   1      36.379  29.615  30.072  1.00  0.00     0.001 A 
ATOM     44  C   UNL A   1      35.894  30.148  28.879  1.00  0.00     0.000 A 
ENDBRANCH  25  39
BRANCH  26  45
ATOM     45  C   UNL A   1      48.110  26.442  29.394  1.00  0.00    -0.014 A 
ATOM     46  C   UNL A   1      48.685  25.816  30.509  1.00  0.00     0.009 A 
ATOM     47  C   UNL A   1      48.875  26.594  28.225  1.00  0.00     0.009 A 
ATOM     48  C   UNL A   1      50.003  25.355  30.455  1.00  0.00     0.001 A 
ATOM     49  C   UNL A   1      50.182  26.108  28.166  1.00  0.00     0.001 A 
ATOM     50  C   UNL A   1      50.747  25.494  29.282  1.00  0.00     0.000 A 
ENDBRANCH  26  45
BRANCH  38  51
ATOM     51  C   UNL A   1      44.878  32.435  30.912  1.00  0.00    -0.014 A 
ATOM     52  C   UNL A   1      45.210  33.460  30.012  1.00  0.00     0.009 A 
ATOM     53  C   UNL A   1      44.954  32.686  32.291  1.00  0.00     0.009 A 
ATOM     54  C   UNL A   1      45.625  34.705  30.487  1.00  0.00     0.001 A 
ATOM     55  C   UNL A   1      45.346  33.940  32.762  1.00  0.00     0.001 A 
ATOM     56  C   UNL A   1      45.687  34.947  31.859  1.00  0.00     0.000 A 
ENDBRANCH  38  51
ENDBRANCH  12  13
ENDBRANCH   5   7
ENDBRANCH   2   3
ENDBRANCH   1   2
BRANCH   1  57
ATOM     57  C   UNL A   1      36.134  21.009  24.512  1.00  0.00     0.023 C 
BRANCH  57  58
ATOM     58  C   UNL A   1      34.713  20.758  25.006  1.00  0.00     0.116 C 
BRANCH  58  59
ATOM     59  N   UNL A   1      34.548  21.033  26.426  1.00  0.00    -0.352 N 
ATOM     60  C   UNL A   1      33.874  22.070  27.027  1.00  0.00     0.251 C 
ATOM     61  H   UNL A   1      34.977  20.392  27.038  1.00  0.00     0.163 HD
ATOM     62  O   UNL A   1      33.934  22.228  28.242  1.00  0.00    -0.269 OA
BRANCH  60  63
ATOM     63  C   UNL A   1      33.099  23.010  26.194  1.00  0.00     0.040 A 
ATOM     64  C   UNL A   1      31.791  22.686  25.842  1.00  0.00     0.016 A 
ATOM     65  C   UNL A   1      33.648  24.233  25.805  1.00  0.00     0.020 A 
ATOM     66  C   UNL A   1      31.023  23.613  25.134  1.00  0.00     0.027 A 
ATOM     67  C   UNL A   1      32.852  25.195  25.166  1.00  0.00    -0.017 A 
ATOM     68  C   UNL A   1      31.545  24.864  24.772  1.00  0.00     0.038 A 
ATOM     69  C   UNL A   1      33.407  26.583  24.941  1.00  0.00     0.049 C 
ATOM     70  N   UNL A   1      30.729  25.780  24.120  1.00  0.00    -0.378 N 
ATOM     71  C   UNL A   1      33.851  27.242  26.227  1.00  0.00    -0.023 C 
ATOM     72  C   UNL A   1      32.361  27.600  24.453  1.00  0.00     0.031 C 
ATOM     73  C   UNL A   1      31.328  26.964  23.521  1.00  0.00     0.114 C 
ATOM     74  H   UNL A   1      29.758  25.629  24.062  1.00  0.00     0.161 HD
ATOM     75  C   UNL A   1      32.969  28.151  26.659  1.00  0.00    -0.030 C 
ATOM     76  C   UNL A   1      31.804  28.260  25.727  1.00  0.00     0.034 C 
BRANCH  73  77
ATOM     77  C   UNL A   1      30.281  27.972  23.068  1.00  0.00    -0.022 A 
ATOM     78  C   UNL A   1      28.928  27.718  23.334  1.00  0.00     0.026 A 
ATOM     79  C   UNL A   1      30.594  29.139  22.363  1.00  0.00     0.026 A 
ATOM     80  C   UNL A   1      27.971  28.621  22.898  1.00  0.00     0.111 A 
ATOM     81  C   UNL A   1      29.567  29.991  21.982  1.00  0.00     0.111 A 
ATOM     82  N   UNL A   1      28.263  29.756  22.234  1.00  0.00    -0.265 NA
ENDBRANCH  73  77
ENDBRANCH  60  63
ENDBRANCH  58  59
ENDBRANCH  57  58
ENDBRANCH   1  57
TORSDOF 12
ENDMDL
MODEL 3
REMARK VINA RESULT:     -12.3      2.444      6.690
REMARK SMILES O=C(NCCCCNC(=O)c1ccc2c(c1)[C@@H]1C=CC[C@@H]1[C@H](c1ccncc1)N2)c1ccc(-c2c3nc(c(-c4ccccc4)c4ccc([nH]4)c(-c4ccccc4)c4nc(c(-c5ccccc5)c5ccc2[nH]5)C=C4)C=C3)cc1
REMARK SMILES IDX 5 1 4 2 3 3 1 4 2 5 30 7 31 8 77 9 32 10 76 11 33 12 34 13
REMARK SMILES IDX 35 14 70 15 36 16 75 17 69 18 71 19 37 20 74 21 68 22 67 23
REMARK SMILES IDX 38 25 60 26 45 27 59 28 46 29 49 30 58 31 72 32 47 33 48 34
REMARK SMILES IDX 57 36 73 37 50 38 39 39 40 40 44 41 41 42 43 43 42 44 61 45
REMARK SMILES IDX 62 46 66 47 63 48 65 49 64 50 51 51 52 52 56 53 53 54 55 55
REMARK SMILES IDX 54 56 6 57 7 58 8 59 9 60 10 62 11 63 12 64 16 65 13 66
REMARK SMILES IDX 15 67 14 68 17 69 29 70 18 71 21 72 22 73 19 75 20 76 23 77
REMARK SMILES IDX 24 78 28 79 25 80 27 81 26 82
REMARK H PARENT 3 6 71 24 49 35 8 61 29 74
REMARK Flexibility Score: inf
ROOT
ATOM      1  C   UNL A   1      31.342  31.189  25.983  1.00  0.00     0.023 C 
ENDROOT
BRANCH   1   2
ATOM      2  C   UNL A   1      32.423  31.691  26.934  1.00  0.00     0.116 C 
BRANCH   2   3
ATOM      3  N   UNL A   1      32.206  33.065  27.357  1.00  0.00    -0.352 N 
ATOM      4  O   UNL A   1      32.545  34.951  28.545  1.00  0.00    -0.269 OA
ATOM      5  C   UNL A   1      32.971  33.861  28.174  1.00  0.00     0.251 C 
ATOM      6  H   UNL A   1      31.388  33.488  27.007  1.00  0.00     0.163 HD
BRANCH   5   7
ATOM      7  C   UNL A   1      34.299  33.399  28.628  1.00  0.00     0.039 A 
ATOM      8  C   UNL A   1      35.457  33.722  27.915  1.00  0.00     0.014 A 
ATOM      9  C   UNL A   1      34.384  32.646  29.802  1.00  0.00     0.014 A 
ATOM     10  C   UNL A   1      36.682  33.185  28.303  1.00  0.00     0.010 A 
ATOM     11  C   UNL A   1      35.623  32.169  30.230  1.00  0.00     0.010 A 
ATOM     12  C   UNL A   1      36.777  32.411  29.469  1.00  0.00    -0.014 A 
BRANCH  12  13
ATOM     13  C   UNL A   1      38.094  31.901  29.920  1.00  0.00     0.031 A 
ATOM     14  C   UNL A   1      38.634  30.597  29.407  1.00  0.00     0.074 A 
ATOM     15  C   UNL A   1      38.791  32.610  30.828  1.00  0.00     0.049 A 
ATOM     16  N   UNL A   1      39.731  29.969  29.748  1.00  0.00    -0.248 NA
ATOM     17  C   UNL A   1      37.834  29.904  28.386  1.00  0.00     0.031 C 
ATOM     18  C   UNL A   1      38.368  33.888  31.405  1.00  0.00     0.029 A 
ATOM     19  N   UNL A   1      39.994  32.351  31.432  1.00  0.00    -0.354 N 
ATOM     20  C   UNL A   1      39.741  28.796  29.006  1.00  0.00     0.074 A 
ATOM     21  C   UNL A   1      38.532  28.790  28.209  1.00  0.00     0.031 C 
ATOM     22  C   UNL A   1      39.300  34.304  32.274  1.00  0.00     0.029 A 
ATOM     23  C   UNL A   1      40.354  33.299  32.356  1.00  0.00     0.049 A 
ATOM     24  H   UNL A   1      40.545  31.562  31.224  1.00  0.00     0.167 HD
ATOM     25  C   UNL A   1      40.672  27.812  28.992  1.00  0.00     0.031 A 
ATOM     26  C   UNL A   1      41.396  33.343  33.205  1.00  0.00     0.031 A 
ATOM     27  C   UNL A   1      41.872  27.821  29.787  1.00  0.00     0.049 A 
ATOM     28  C   UNL A   1      42.398  32.227  33.199  1.00  0.00     0.074 A 
ATOM     29  C   UNL A   1      42.902  26.895  29.806  1.00  0.00     0.029 A 
ATOM     30  N   UNL A   1      42.197  28.798  30.716  1.00  0.00    -0.354 N 
ATOM     31  N   UNL A   1      42.417  31.146  32.458  1.00  0.00    -0.248 NA
ATOM     32  C   UNL A   1      43.519  32.336  34.141  1.00  0.00     0.031 C 
ATOM     33  C   UNL A   1      43.823  27.285  30.784  1.00  0.00     0.029 A 
ATOM     34  C   UNL A   1      43.394  28.482  31.336  1.00  0.00     0.049 A 
ATOM     35  H   UNL A   1      41.656  29.598  30.906  1.00  0.00     0.167 HD
ATOM     36  C   UNL A   1      43.561  30.454  32.831  1.00  0.00     0.074 A 
ATOM     37  C   UNL A   1      44.213  31.242  33.858  1.00  0.00     0.031 C 
ATOM     38  C   UNL A   1      44.028  29.273  32.359  1.00  0.00     0.031 A 
BRANCH  25  39
ATOM     39  C   UNL A   1      40.407  26.622  28.113  1.00  0.00    -0.014 A 
ATOM     40  C   UNL A   1      39.637  25.537  28.558  1.00  0.00     0.009 A 
ATOM     41  C   UNL A   1      40.918  26.599  26.805  1.00  0.00     0.009 A 
ATOM     42  C   UNL A   1      39.420  24.434  27.728  1.00  0.00     0.001 A 
ATOM     43  C   UNL A   1      40.678  25.509  25.968  1.00  0.00     0.001 A 
ATOM     44  C   UNL A   1      39.939  24.422  26.433  1.00  0.00     0.000 A 
ENDBRANCH  25  39
BRANCH  26  45
ATOM     45  C   UNL A   1      41.513  34.486  34.146  1.00  0.00    -0.014 A 
ATOM     46  C   UNL A   1      42.229  35.637  33.787  1.00  0.00     0.009 A 
ATOM     47  C   UNL A   1      40.850  34.451  35.383  1.00  0.00     0.009 A 
ATOM     48  C   UNL A   1      42.281  36.731  34.654  1.00  0.00     0.001 A 
ATOM     49  C   UNL A   1      40.883  35.556  36.235  1.00  0.00     0.001 A 
ATOM     50  C   UNL A   1      41.603  36.693  35.873  1.00  0.00     0.000 A 
ENDBRANCH  26  45
BRANCH  38  51
ATOM     51  C   UNL A   1      45.323  28.769  32.928  1.00  0.00    -0.014 A 
ATOM     52  C   UNL A   1      45.343  27.902  34.031  1.00  0.00     0.009 A 
ATOM     53  C   UNL A   1      46.534  29.119  32.311  1.00  0.00     0.009 A 
ATOM     54  C   UNL A   1      46.556  27.410  34.516  1.00  0.00     0.001 A 
ATOM     55  C   UNL A   1      47.743  28.607  32.784  1.00  0.00     0.001 A 
ATOM     56  C   UNL A   1      47.753  27.756  33.889  1.00  0.00     0.000 A 
ENDBRANCH  38  51
ENDBRANCH  12  13
ENDBRANCH   5   7
ENDBRANCH   2   3
ENDBRANCH   1   2
BRANCH   1  57
ATOM     57  C   UNL A   1      31.399  29.698  25.663  1.00  0.00     0.023 C 
BRANCH  57  58
ATOM     58  C   UNL A   1      32.797  29.091  25.611  1.00  0.00     0.116 C 
BRANCH  58  59
ATOM     59  N   UNL A   1      33.464  29.312  24.337  1.00  0.00    -0.352 N 
ATOM     60  C   UNL A   1      33.837  28.386  23.390  1.00  0.00     0.251 C 
ATOM     61  H   UNL A   1      33.680  30.249  24.124  1.00  0.00     0.163 HD
ATOM     62  O   UNL A   1      34.506  28.724  22.419  1.00  0.00    -0.269 OA
BRANCH  60  63
ATOM     63  C   UNL A   1      33.446  26.974  23.566  1.00  0.00     0.040 A 
ATOM     64  C   UNL A   1      32.529  26.407  22.683  1.00  0.00     0.016 A 
ATOM     65  C   UNL A   1      34.025  26.197  24.571  1.00  0.00     0.020 A 
ATOM     66  C   UNL A   1      32.228  25.047  22.789  1.00  0.00     0.027 A 
ATOM     67  C   UNL A   1      33.786  24.816  24.625  1.00  0.00    -0.017 A 
ATOM     68  C   UNL A   1      32.833  24.243  23.766  1.00  0.00     0.038 A 
ATOM     69  C   UNL A   1      34.581  23.964  25.588  1.00  0.00     0.049 C 
ATOM     70  N   UNL A   1      32.551  22.883  23.799  1.00  0.00    -0.378 N 
ATOM     71  C   UNL A   1      36.072  24.089  25.371  1.00  0.00    -0.023 C 
ATOM     72  C   UNL A   1      34.395  22.452  25.380  1.00  0.00     0.031 C 
ATOM     73  C   UNL A   1      32.969  22.098  24.952  1.00  0.00     0.114 C 
ATOM     74  H   UNL A   1      32.073  22.455  23.052  1.00  0.00     0.161 HD
ATOM     75  C   UNL A   1      36.578  23.034  24.721  1.00  0.00    -0.030 C 
ATOM     76  C   UNL A   1      35.514  22.028  24.413  1.00  0.00     0.034 C 
BRANCH  73  77
ATOM     77  C   UNL A   1      32.804  20.603  24.721  1.00  0.00    -0.022 A 
ATOM     78  C   UNL A   1      32.476  20.142  23.438  1.00  0.00     0.026 A 
ATOM     79  C   UNL A   1      32.931  19.651  25.738  1.00  0.00     0.026 A 
ATOM     80  C   UNL A   1      32.299  18.782  23.232  1.00  0.00     0.111 A 
ATOM     81  C   UNL A   1      32.750  18.310  25.431  1.00  0.00     0.111 A 
ATOM     82  N   UNL A   1      32.435  17.856  24.201  1.00  0.00    -0.265 NA
ENDBRANCH  73  77
ENDBRANCH  60  63
ENDBRANCH  58  59
ENDBRANCH  57  58
ENDBRANCH   1  57
TORSDOF 12
ENDMDL
