MODEL 1
REMARK VINA RESULT:     -10.6      0.000      0.000
REMARK SMILES COc1ccc(OCc2nc(C)no2)c(/C=C/C(=O)NCCCCNC(=O)c2ccc(-c3c4nc(c(-c5ccccc5)c5ccc([nH]5)c(-c5ccccc5)c5nc(c(-c6ccccc6)c6ccc3[nH]6)C=C5)C=C4)cc2)c1
REMARK SMILES IDX 21 1 20 2 18 3 19 4 17 6 16 7 15 8 3 9 4 10 76 11 5 12 6 13
REMARK SMILES IDX 2 14 1 15 7 16 8 17 9 18 10 19 14 20 11 21 13 22 12 23 22 24
REMARK SMILES IDX 23 25 24 26 25 27 26 28 27 30 28 31 29 32 75 33 30 34 74 35
REMARK SMILES IDX 31 36 32 37 33 38 68 39 34 40 73 41 67 42 69 43 35 44 72 45
REMARK SMILES IDX 66 46 65 47 36 49 58 50 43 51 57 52 44 53 47 54 56 55 70 56
REMARK SMILES IDX 45 57 46 58 55 60 71 61 48 62 37 63 38 64 42 65 39 66 41 67
REMARK SMILES IDX 40 68 59 69 60 70 64 71 61 72 63 73 62 74 49 75 50 76 54 77
REMARK SMILES IDX 51 78 53 79 52 80
REMARK H PARENT 20 5 25 29 69 48 47 59
REMARK Flexibility Score: inf
ROOT
ATOM      1  C   UNL A   1      36.377  21.611  25.122  1.00  0.00     0.116 C 
ENDROOT
BRANCH   1   2
ATOM      2  N   UNL A   1      35.938  22.245  23.897  1.00  0.00    -0.353 N 
ATOM      3  C   UNL A   1      35.190  23.348  23.645  1.00  0.00     0.244 C 
ATOM      4  O   UNL A   1      34.881  23.575  22.472  1.00  0.00    -0.270 OA
ATOM      5  H   UNL A   1      36.244  21.782  23.082  1.00  0.00     0.163 HD
BRANCH   3   6
ATOM      6  C   UNL A   1      34.746  24.332  24.672  1.00  0.00     0.072 C 
ATOM      7  C   UNL A   1      34.041  25.443  24.433  1.00  0.00     0.018 C 
BRANCH   7   8
ATOM      8  C   UNL A   1      33.208  26.198  25.373  1.00  0.00     0.020 A 
ATOM      9  C   UNL A   1      33.028  28.341  26.533  1.00  0.00     0.119 A 
ATOM     10  C   UNL A   1      31.766  28.001  26.989  1.00  0.00     0.050 A 
ATOM     11  C   UNL A   1      33.765  27.430  25.780  1.00  0.00     0.058 A 
ATOM     12  C   UNL A   1      31.201  26.790  26.591  1.00  0.00     0.051 A 
ATOM     13  C   UNL A   1      31.879  25.908  25.728  1.00  0.00     0.127 A 
BRANCH   9  14
ATOM     14  O   UNL A   1      33.518  29.574  26.866  1.00  0.00    -0.497 OA
ATOM     15  C   UNL A   1      32.462  30.525  27.034  1.00  0.00     0.278 C 
ENDBRANCH   9  14
BRANCH  13  16
ATOM     16  O   UNL A   1      31.068  24.877  25.350  1.00  0.00    -0.483 OA
BRANCH  16  17
ATOM     17  C   UNL A   1      31.086  23.564  25.926  1.00  0.00     0.329 C 
BRANCH  17  18
ATOM     18  C   UNL A   1      31.661  22.514  25.045  1.00  0.00     0.264 A 
ATOM     19  N   UNL A   1      32.049  21.292  25.342  1.00  0.00    -0.193 NA
ATOM     20  O   UNL A   1      31.670  22.755  23.700  1.00  0.00    -0.336 OA
ATOM     21  C   UNL A   1      32.349  20.763  24.124  1.00  0.00     0.169 A 
ATOM     22  N   UNL A   1      32.131  21.580  23.087  1.00  0.00    -0.063 NA
ATOM     23  C   UNL A   1      32.854  19.383  24.000  1.00  0.00     0.093 C 
ENDBRANCH  17  18
ENDBRANCH  16  17
ENDBRANCH  13  16
ENDBRANCH   7   8
ENDBRANCH   3   6
ENDBRANCH   1   2
BRANCH   1  24
ATOM     24  C   UNL A   1      36.408  20.092  24.984  1.00  0.00     0.023 C 
BRANCH  24  25
ATOM     25  C   UNL A   1      37.817  19.545  24.736  1.00  0.00     0.023 C 
BRANCH  25  26
ATOM     26  C   UNL A   1      38.862  20.005  25.749  1.00  0.00     0.116 C 
BRANCH  26  27
ATOM     27  N   UNL A   1      40.053  19.169  25.768  1.00  0.00    -0.352 N 
ATOM     28  C   UNL A   1      41.328  19.530  26.126  1.00  0.00     0.251 C 
ATOM     29  H   UNL A   1      39.929  18.232  25.491  1.00  0.00     0.163 HD
ATOM     30  O   UNL A   1      42.264  18.747  26.007  1.00  0.00    -0.269 OA
BRANCH  28  31
ATOM     31  C   UNL A   1      41.557  20.900  26.614  1.00  0.00     0.039 A 
ATOM     32  C   UNL A   1      41.495  21.144  27.987  1.00  0.00     0.014 A 
ATOM     33  C   UNL A   1      41.897  21.918  25.719  1.00  0.00     0.014 A 
ATOM     34  C   UNL A   1      41.838  22.405  28.473  1.00  0.00     0.010 A 
ATOM     35  C   UNL A   1      42.299  23.154  26.211  1.00  0.00     0.010 A 
ATOM     36  C   UNL A   1      42.273  23.407  27.591  1.00  0.00    -0.014 A 
BRANCH  36  37
ATOM     37  C   UNL A   1      42.707  24.731  28.094  1.00  0.00     0.031 A 
ATOM     38  C   UNL A   1      41.688  25.804  28.352  1.00  0.00     0.074 A 
ATOM     39  C   UNL A   1      44.019  24.985  28.251  1.00  0.00     0.049 A 
ATOM     40  N   UNL A   1      41.873  27.037  28.749  1.00  0.00    -0.248 NA
ATOM     41  C   UNL A   1      40.280  25.455  28.107  1.00  0.00     0.031 C 
ATOM     42  C   UNL A   1      45.106  24.038  27.993  1.00  0.00     0.029 A 
ATOM     43  N   UNL A   1      44.663  26.124  28.666  1.00  0.00    -0.354 N 
ATOM     44  C   UNL A   1      40.611  27.616  28.775  1.00  0.00     0.074 A 
ATOM     45  C   UNL A   1      39.674  26.614  28.315  1.00  0.00     0.031 C 
ATOM     46  C   UNL A   1      46.278  24.624  28.287  1.00  0.00     0.029 A 
ATOM     47  C   UNL A   1      46.028  25.995  28.719  1.00  0.00     0.049 A 
ATOM     48  H   UNL A   1      44.190  26.955  28.903  1.00  0.00     0.167 HD
ATOM     49  C   UNL A   1      40.260  28.864  29.165  1.00  0.00     0.031 A 
ATOM     50  C   UNL A   1      46.973  26.883  29.079  1.00  0.00     0.031 A 
ATOM     51  C   UNL A   1      41.189  29.850  29.644  1.00  0.00     0.049 A 
ATOM     52  C   UNL A   1      46.557  28.262  29.509  1.00  0.00     0.074 A 
ATOM     53  C   UNL A   1      40.926  31.117  30.136  1.00  0.00     0.029 A 
ATOM     54  N   UNL A   1      42.564  29.680  29.687  1.00  0.00    -0.354 N 
ATOM     55  N   UNL A   1      45.352  28.769  29.605  1.00  0.00    -0.248 NA
ATOM     56  C   UNL A   1      47.634  29.187  29.890  1.00  0.00     0.031 C 
ATOM     57  C   UNL A   1      42.147  31.730  30.435  1.00  0.00     0.029 A 
ATOM     58  C   UNL A   1      43.166  30.828  30.174  1.00  0.00     0.049 A 
ATOM     59  H   UNL A   1      43.042  28.864  29.413  1.00  0.00     0.167 HD
ATOM     60  C   UNL A   1      45.523  30.061  30.084  1.00  0.00     0.074 A 
ATOM     61  C   UNL A   1      46.946  30.255  30.269  1.00  0.00     0.031 C 
ATOM     62  C   UNL A   1      44.584  31.001  30.350  1.00  0.00     0.031 A 
BRANCH  49  63
ATOM     63  C   UNL A   1      38.806  29.230  29.074  1.00  0.00    -0.014 A 
ATOM     64  C   UNL A   1      38.254  29.742  27.888  1.00  0.00     0.009 A 
ATOM     65  C   UNL A   1      37.970  29.046  30.187  1.00  0.00     0.009 A 
ATOM     66  C   UNL A   1      36.906  30.098  27.831  1.00  0.00     0.001 A 
ATOM     67  C   UNL A   1      36.616  29.377  30.118  1.00  0.00     0.001 A 
ATOM     68  C   UNL A   1      36.087  29.913  28.945  1.00  0.00     0.000 A 
ENDBRANCH  49  63
BRANCH  50  69
ATOM     69  C   UNL A   1      48.404  26.488  29.086  1.00  0.00    -0.014 A 
ATOM     70  C   UNL A   1      48.966  25.891  30.226  1.00  0.00     0.009 A 
ATOM     71  C   UNL A   1      49.215  26.703  27.961  1.00  0.00     0.009 A 
ATOM     72  C   UNL A   1      50.318  25.540  30.247  1.00  0.00     0.001 A 
ATOM     73  C   UNL A   1      50.561  26.328  27.978  1.00  0.00     0.001 A 
ATOM     74  C   UNL A   1      51.113  25.755  29.122  1.00  0.00     0.000 A 
ENDBRANCH  50  69
BRANCH  62  75
ATOM     75  C   UNL A   1      45.066  32.313  30.902  1.00  0.00    -0.014 A 
ATOM     76  C   UNL A   1      45.408  33.377  30.054  1.00  0.00     0.009 A 
ATOM     77  C   UNL A   1      45.138  32.495  32.292  1.00  0.00     0.009 A 
ATOM     78  C   UNL A   1      45.842  34.591  30.590  1.00  0.00     0.001 A 
ATOM     79  C   UNL A   1      45.548  33.719  32.823  1.00  0.00     0.001 A 
ATOM     80  C   UNL A   1      45.906  34.762  31.972  1.00  0.00     0.000 A 
ENDBRANCH  62  75
ENDBRANCH  36  37
ENDBRANCH  28  31
ENDBRANCH  26  27
ENDBRANCH  25  26
ENDBRANCH  24  25
ENDBRANCH   1  24
TORSDOF 16
ENDMDL
MODEL 2
REMARK VINA RESULT:     -10.6      1.024      6.010
REMARK SMILES COc1ccc(OCc2nc(C)no2)c(/C=C/C(=O)NCCCCNC(=O)c2ccc(-c3c4nc(c(-c5ccccc5)c5ccc([nH]5)c(-c5ccccc5)c5nc(c(-c6ccccc6)c6ccc3[nH]6)C=C5)C=C4)cc2)c1
REMARK SMILES IDX 21 1 20 2 18 3 19 4 17 6 16 7 15 8 3 9 4 10 76 11 5 12 6 13
REMARK SMILES IDX 2 14 1 15 7 16 8 17 9 18 10 19 14 20 11 21 13 22 12 23 22 24
REMARK SMILES IDX 23 25 24 26 25 27 26 28 27 30 28 31 29 32 75 33 30 34 74 35
REMARK SMILES IDX 31 36 32 37 33 38 68 39 34 40 73 41 67 42 69 43 35 44 72 45
REMARK SMILES IDX 66 46 65 47 36 49 58 50 43 51 57 52 44 53 47 54 56 55 70 56
REMARK SMILES IDX 45 57 46 58 55 60 71 61 48 62 37 63 38 64 42 65 39 66 41 67
REMARK SMILES IDX 40 68 59 69 60 70 64 71 61 72 63 73 62 74 49 75 50 76 54 77
REMARK SMILES IDX 51 78 53 79 52 80
REMARK H PARENT 20 5 25 29 69 48 47 59
REMARK Flexibility Score: inf
ROOT
ATOM      1  C   UNL A   1      35.953  21.590  25.345  1.00  0.00     0.116 C 
ENDROOT
BRANCH   1   2
ATOM      2  N   UNL A   1      35.606  22.301  24.133  1.00  0.00    -0.353 N 
ATOM      3  C   UNL A   1      34.999  23.491  23.902  1.00  0.00     0.244 C 
ATOM      4  O   UNL A   1      34.731  23.782  22.733  1.00  0.00    -0.270 OA
ATOM      5  H   UNL A   1      35.863  21.824  23.309  1.00  0.00     0.163 HD
BRANCH   3   6
ATOM      6  C   UNL A   1      34.665  24.496  24.950  1.00  0.00     0.072 C 
ATOM      7  C   UNL A   1      34.079  25.680  24.736  1.00  0.00     0.018 C 
BRANCH   7   8
ATOM      8  C   UNL A   1      33.334  26.501  25.695  1.00  0.00     0.020 A 
ATOM      9  C   UNL A   1      33.398  28.616  26.916  1.00  0.00     0.119 A 
ATOM     10  C   UNL A   1      32.102  28.413  27.357  1.00  0.00     0.050 A 
ATOM     11  C   UNL A   1      34.029  27.646  26.139  1.00  0.00     0.058 A 
ATOM     12  C   UNL A   1      31.402  27.288  26.922  1.00  0.00     0.051 A 
ATOM     13  C   UNL A   1      31.978  26.359  26.037  1.00  0.00     0.127 A 
BRANCH   9  14
ATOM     14  O   UNL A   1      34.027  29.773  27.287  1.00  0.00    -0.497 OA
ATOM     15  C   UNL A   1      33.132  30.887  27.244  1.00  0.00     0.278 C 
ENDBRANCH   9  14
BRANCH  13  16
ATOM     16  O   UNL A   1      31.054  25.440  25.626  1.00  0.00    -0.483 OA
BRANCH  16  17
ATOM     17  C   UNL A   1      30.672  24.272  26.364  1.00  0.00     0.329 C 
BRANCH  17  18
ATOM     18  C   UNL A   1      31.360  23.024  25.940  1.00  0.00     0.264 A 
ATOM     19  N   UNL A   1      31.317  22.396  24.785  1.00  0.00    -0.193 NA
ATOM     20  O   UNL A   1      32.295  22.500  26.789  1.00  0.00    -0.336 OA
ATOM     21  C   UNL A   1      32.244  21.412  24.938  1.00  0.00     0.169 A 
ATOM     22  N   UNL A   1      32.885  21.421  26.112  1.00  0.00    -0.063 NA
ATOM     23  C   UNL A   1      32.507  20.442  23.859  1.00  0.00     0.093 C 
ENDBRANCH  17  18
ENDBRANCH  16  17
ENDBRANCH  13  16
ENDBRANCH   7   8
ENDBRANCH   3   6
ENDBRANCH   1   2
BRANCH   1  24
ATOM     24  C   UNL A   1      36.524  20.208  25.038  1.00  0.00     0.023 C 
BRANCH  24  25
ATOM     25  C   UNL A   1      37.994  20.251  24.616  1.00  0.00     0.023 C 
BRANCH  25  26
ATOM     26  C   UNL A   1      38.983  20.337  25.775  1.00  0.00     0.116 C 
BRANCH  26  27
ATOM     27  N   UNL A   1      39.949  19.248  25.790  1.00  0.00    -0.352 N 
ATOM     28  C   UNL A   1      41.297  19.323  26.039  1.00  0.00     0.251 C 
ATOM     29  H   UNL A   1      39.593  18.350  25.598  1.00  0.00     0.163 HD
ATOM     30  O   UNL A   1      42.017  18.337  25.928  1.00  0.00    -0.269 OA
BRANCH  28  31
ATOM     31  C   UNL A   1      41.871  20.631  26.400  1.00  0.00     0.039 A 
ATOM     32  C   UNL A   1      42.257  21.501  25.378  1.00  0.00     0.014 A 
ATOM     33  C   UNL A   1      41.960  21.013  27.741  1.00  0.00     0.014 A 
ATOM     34  C   UNL A   1      42.678  22.789  25.702  1.00  0.00     0.010 A 
ATOM     35  C   UNL A   1      42.321  22.318  28.056  1.00  0.00     0.010 A 
ATOM     36  C   UNL A   1      42.682  23.216  27.040  1.00  0.00    -0.014 A 
BRANCH  36  37
ATOM     37  C   UNL A   1      43.061  24.603  27.398  1.00  0.00     0.031 A 
ATOM     38  C   UNL A   1      44.504  25.016  27.366  1.00  0.00     0.074 A 
ATOM     39  C   UNL A   1      42.114  25.464  27.817  1.00  0.00     0.049 A 
ATOM     40  N   UNL A   1      45.040  26.166  27.687  1.00  0.00    -0.248 NA
ATOM     41  C   UNL A   1      45.477  23.996  26.943  1.00  0.00     0.031 C 
ATOM     42  C   UNL A   1      40.685  25.166  27.931  1.00  0.00     0.029 A 
ATOM     43  N   UNL A   1      42.217  26.769  28.227  1.00  0.00    -0.354 N 
ATOM     44  C   UNL A   1      46.409  25.999  27.530  1.00  0.00     0.074 A 
ATOM     45  C   UNL A   1      46.627  24.627  27.126  1.00  0.00     0.031 C 
ATOM     46  C   UNL A   1      40.040  26.267  28.350  1.00  0.00     0.029 A 
ATOM     47  C   UNL A   1      41.012  27.334  28.566  1.00  0.00     0.049 A 
ATOM     48  H   UNL A   1      43.072  27.254  28.274  1.00  0.00     0.167 HD
ATOM     49  C   UNL A   1      47.396  26.911  27.690  1.00  0.00     0.031 A 
ATOM     50  C   UNL A   1      40.725  28.575  29.000  1.00  0.00     0.031 A 
ATOM     51  C   UNL A   1      47.176  28.280  28.069  1.00  0.00     0.049 A 
ATOM     52  C   UNL A   1      41.839  29.569  29.168  1.00  0.00     0.074 A 
ATOM     53  C   UNL A   1      48.100  29.304  28.182  1.00  0.00     0.029 A 
ATOM     54  N   UNL A   1      45.941  28.816  28.400  1.00  0.00    -0.354 N 
ATOM     55  N   UNL A   1      43.121  29.420  28.939  1.00  0.00    -0.248 NA
ATOM     56  C   UNL A   1      41.462  30.907  29.646  1.00  0.00     0.031 C 
ATOM     57  C   UNL A   1      47.430  30.449  28.626  1.00  0.00     0.029 A 
ATOM     58  C   UNL A   1      46.082  30.150  28.742  1.00  0.00     0.049 A 
ATOM     59  H   UNL A   1      45.089  28.321  28.391  1.00  0.00     0.167 HD
ATOM     60  C   UNL A   1      43.700  30.651  29.217  1.00  0.00     0.074 A 
ATOM     61  C   UNL A   1      42.629  31.538  29.620  1.00  0.00     0.031 C 
ATOM     62  C   UNL A   1      45.003  31.015  29.140  1.00  0.00     0.031 A 
BRANCH  49  63
ATOM     63  C   UNL A   1      48.807  26.446  27.466  1.00  0.00    -0.014 A 
ATOM     64  C   UNL A   1      49.598  25.976  28.527  1.00  0.00     0.009 A 
ATOM     65  C   UNL A   1      49.348  26.461  26.171  1.00  0.00     0.009 A 
ATOM     66  C   UNL A   1      50.915  25.570  28.302  1.00  0.00     0.001 A 
ATOM     67  C   UNL A   1      50.655  26.027  25.944  1.00  0.00     0.001 A 
ATOM     68  C   UNL A   1      51.441  25.594  27.010  1.00  0.00     0.000 A 
ENDBRANCH  49  63
BRANCH  50  69
ATOM     69  C   UNL A   1      39.317  28.962  29.272  1.00  0.00    -0.014 A 
ATOM     70  C   UNL A   1      38.542  29.559  28.265  1.00  0.00     0.009 A 
ATOM     71  C   UNL A   1      38.740  28.741  30.532  1.00  0.00     0.009 A 
ATOM     72  C   UNL A   1      37.227  29.949  28.522  1.00  0.00     0.001 A 
ATOM     73  C   UNL A   1      37.415  29.109  30.777  1.00  0.00     0.001 A 
ATOM     74  C   UNL A   1      36.663  29.720  29.777  1.00  0.00     0.000 A 
ENDBRANCH  50  69
BRANCH  62  75
ATOM     75  C   UNL A   1      45.335  32.443  29.468  1.00  0.00    -0.014 A 
ATOM     76  C   UNL A   1      45.711  32.822  30.765  1.00  0.00     0.009 A 
ATOM     77  C   UNL A   1      45.309  33.411  28.453  1.00  0.00     0.009 A 
ATOM     78  C   UNL A   1      46.027  34.154  31.045  1.00  0.00     0.001 A 
ATOM     79  C   UNL A   1      45.651  34.736  28.730  1.00  0.00     0.001 A 
ATOM     80  C   UNL A   1      46.002  35.107  30.027  1.00  0.00     0.000 A 
ENDBRANCH  62  75
ENDBRANCH  36  37
ENDBRANCH  28  31
ENDBRANCH  26  27
ENDBRANCH  25  26
ENDBRANCH  24  25
ENDBRANCH   1  24
TORSDOF 16
ENDMDL
MODEL 3
REMARK VINA RESULT:     -10.6      5.480     10.317
REMARK SMILES COc1ccc(OCc2nc(C)no2)c(/C=C/C(=O)NCCCCNC(=O)c2ccc(-c3c4nc(c(-c5ccccc5)c5ccc([nH]5)c(-c5ccccc5)c5nc(c(-c6ccccc6)c6ccc3[nH]6)C=C5)C=C4)cc2)c1
REMARK SMILES IDX 21 1 20 2 18 3 19 4 17 6 16 7 15 8 3 9 4 10 76 11 5 12 6 13
REMARK SMILES IDX 2 14 1 15 7 16 8 17 9 18 10 19 14 20 11 21 13 22 12 23 22 24
REMARK SMILES IDX 23 25 24 26 25 27 26 28 27 30 28 31 29 32 75 33 30 34 74 35
REMARK SMILES IDX 31 36 32 37 33 38 68 39 34 40 73 41 67 42 69 43 35 44 72 45
REMARK SMILES IDX 66 46 65 47 36 49 58 50 43 51 57 52 44 53 47 54 56 55 70 56
REMARK SMILES IDX 45 57 46 58 55 60 71 61 48 62 37 63 38 64 42 65 39 66 41 67
REMARK SMILES IDX 40 68 59 69 60 70 64 71 61 72 63 73 62 74 49 75 50 76 54 77
REMARK SMILES IDX 51 78 53 79 52 80
REMARK H PARENT 20 5 25 29 69 48 47 59
REMARK Flexibility Score: inf
ROOT
ATOM      1  C   UNL A   1      33.700  32.262  27.680  1.00  0.00     0.116 C 
ENDROOT
BRANCH   1   2
ATOM      2  N   UNL A   1      34.666  31.185  27.751  1.00  0.00    -0.353 N 
ATOM      3  C   UNL A   1      34.598  29.863  27.457  1.00  0.00     0.244 C 
ATOM      4  O   UNL A   1      35.575  29.162  27.738  1.00  0.00    -0.270 OA
ATOM      5  H   UNL A   1      35.551  31.471  28.078  1.00  0.00     0.163 HD
BRANCH   3   6
ATOM      6  C   UNL A   1      33.449  29.196  26.784  1.00  0.00     0.072 C 
ATOM      7  C   UNL A   1      33.511  28.061  26.079  1.00  0.00     0.018 C 
BRANCH   7   8
ATOM      8  C   UNL A   1      32.420  27.130  25.777  1.00  0.00     0.020 A 
ATOM      9  C   UNL A   1      31.407  25.019  26.476  1.00  0.00     0.119 A 
ATOM     10  C   UNL A   1      30.346  25.228  25.610  1.00  0.00     0.050 A 
ATOM     11  C   UNL A   1      32.460  25.930  26.520  1.00  0.00     0.058 A 
ATOM     12  C   UNL A   1      30.292  26.411  24.874  1.00  0.00     0.051 A 
ATOM     13  C   UNL A   1      31.283  27.402  24.997  1.00  0.00     0.127 A 
BRANCH   9  14
ATOM     14  O   UNL A   1      31.387  23.892  27.251  1.00  0.00    -0.497 OA
ATOM     15  C   UNL A   1      32.505  23.046  26.966  1.00  0.00     0.278 C 
ENDBRANCH   9  14
BRANCH  13  16
ATOM     16  O   UNL A   1      30.931  28.530  24.310  1.00  0.00    -0.483 OA
BRANCH  16  17
ATOM     17  C   UNL A   1      30.586  28.571  22.919  1.00  0.00     0.329 C 
BRANCH  17  18
ATOM     18  C   UNL A   1      29.839  29.788  22.507  1.00  0.00     0.264 A 
ATOM     19  N   UNL A   1      29.409  30.143  21.315  1.00  0.00    -0.193 NA
ATOM     20  O   UNL A   1      29.385  30.614  23.497  1.00  0.00    -0.336 OA
ATOM     21  C   UNL A   1      28.683  31.265  21.574  1.00  0.00     0.169 A 
ATOM     22  N   UNL A   1      28.611  31.602  22.867  1.00  0.00    -0.063 NA
ATOM     23  C   UNL A   1      28.026  32.012  20.486  1.00  0.00     0.093 C 
ENDBRANCH  17  18
ENDBRANCH  16  17
ENDBRANCH  13  16
ENDBRANCH   7   8
ENDBRANCH   3   6
ENDBRANCH   1   2
BRANCH   1  24
ATOM     24  C   UNL A   1      34.001  33.350  28.706  1.00  0.00     0.023 C 
BRANCH  24  25
ATOM     25  C   UNL A   1      33.088  34.570  28.565  1.00  0.00     0.023 C 
BRANCH  25  26
ATOM     26  C   UNL A   1      33.498  35.769  29.416  1.00  0.00     0.116 C 
BRANCH  26  27
ATOM     27  N   UNL A   1      32.529  36.100  30.451  1.00  0.00    -0.352 N 
ATOM     28  C   UNL A   1      32.585  35.787  31.786  1.00  0.00     0.251 C 
ATOM     29  H   UNL A   1      31.739  36.609  30.158  1.00  0.00     0.163 HD
ATOM     30  O   UNL A   1      31.652  36.047  32.536  1.00  0.00    -0.269 OA
BRANCH  28  31
ATOM     31  C   UNL A   1      33.778  35.087  32.292  1.00  0.00     0.039 A 
ATOM     32  C   UNL A   1      33.638  33.786  32.781  1.00  0.00     0.014 A 
ATOM     33  C   UNL A   1      35.034  35.694  32.216  1.00  0.00     0.014 A 
ATOM     34  C   UNL A   1      34.776  33.066  33.140  1.00  0.00     0.010 A 
ATOM     35  C   UNL A   1      36.170  34.952  32.516  1.00  0.00     0.010 A 
ATOM     36  C   UNL A   1      36.051  33.633  32.979  1.00  0.00    -0.014 A 
BRANCH  36  37
ATOM     37  C   UNL A   1      37.275  32.859  33.291  1.00  0.00     0.031 A 
ATOM     38  C   UNL A   1      38.013  33.110  34.574  1.00  0.00     0.074 A 
ATOM     39  C   UNL A   1      37.756  31.984  32.388  1.00  0.00     0.049 A 
ATOM     40  N   UNL A   1      39.124  32.570  35.005  1.00  0.00    -0.248 NA
ATOM     41  C   UNL A   1      37.443  34.119  35.480  1.00  0.00     0.031 C 
ATOM     42  C   UNL A   1      37.152  31.685  31.088  1.00  0.00     0.029 A 
ATOM     43  N   UNL A   1      38.871  31.185  32.428  1.00  0.00    -0.354 N 
ATOM     44  C   UNL A   1      39.398  33.191  36.216  1.00  0.00     0.074 A 
ATOM     45  C   UNL A   1      38.362  34.177  36.432  1.00  0.00     0.031 C 
ATOM     46  C   UNL A   1      37.885  30.744  30.470  1.00  0.00     0.029 A 
ATOM     47  C   UNL A   1      39.025  30.400  31.312  1.00  0.00     0.049 A 
ATOM     48  H   UNL A   1      39.500  31.175  33.186  1.00  0.00     0.167 HD
ATOM     49  C   UNL A   1      40.412  32.950  37.080  1.00  0.00     0.031 A 
ATOM     50  C   UNL A   1      39.980  29.503  31.005  1.00  0.00     0.031 A 
ATOM     51  C   UNL A   1      41.427  31.954  36.876  1.00  0.00     0.049 A 
ATOM     52  C   UNL A   1      41.094  29.253  31.982  1.00  0.00     0.074 A 
ATOM     53  C   UNL A   1      42.452  31.578  37.726  1.00  0.00     0.029 A 
ATOM     54  N   UNL A   1      41.547  31.177  35.734  1.00  0.00    -0.354 N 
ATOM     55  N   UNL A   1      41.295  29.791  33.160  1.00  0.00    -0.248 NA
ATOM     56  C   UNL A   1      42.106  28.262  31.589  1.00  0.00     0.031 C 
ATOM     57  C   UNL A   1      43.220  30.604  37.080  1.00  0.00     0.029 A 
ATOM     58  C   UNL A   1      42.644  30.340  35.847  1.00  0.00     0.049 A 
ATOM     59  H   UNL A   1      40.941  31.214  34.959  1.00  0.00     0.167 HD
ATOM     60  C   UNL A   1      42.439  29.185  33.662  1.00  0.00     0.074 A 
ATOM     61  C   UNL A   1      42.880  28.232  32.666  1.00  0.00     0.031 C 
ATOM     62  C   UNL A   1      43.066  29.398  34.844  1.00  0.00     0.031 A 
BRANCH  49  63
ATOM     63  C   UNL A   1      40.472  33.793  38.323  1.00  0.00    -0.014 A 
ATOM     64  C   UNL A   1      41.170  35.012  38.345  1.00  0.00     0.009 A 
ATOM     65  C   UNL A   1      39.807  33.371  39.485  1.00  0.00     0.009 A 
ATOM     66  C   UNL A   1      41.234  35.769  39.516  1.00  0.00     0.001 A 
ATOM     67  C   UNL A   1      39.849  34.144  40.646  1.00  0.00     0.001 A 
ATOM     68  C   UNL A   1      40.572  35.336  40.665  1.00  0.00     0.000 A 
ENDBRANCH  49  63
BRANCH  50  69
ATOM     69  C   UNL A   1      39.907  28.745  29.730  1.00  0.00    -0.014 A 
ATOM     70  C   UNL A   1      39.323  27.469  29.699  1.00  0.00     0.009 A 
ATOM     71  C   UNL A   1      40.420  29.286  28.541  1.00  0.00     0.009 A 
ATOM     72  C   UNL A   1      39.274  26.741  28.509  1.00  0.00     0.001 A 
ATOM     73  C   UNL A   1      40.347  28.565  27.346  1.00  0.00     0.001 A 
ATOM     74  C   UNL A   1      39.783  27.291  27.333  1.00  0.00     0.000 A 
ENDBRANCH  50  69
BRANCH  62  75
ATOM     75  C   UNL A   1      44.277  28.558  35.138  1.00  0.00    -0.014 A 
ATOM     76  C   UNL A   1      45.564  28.992  34.787  1.00  0.00     0.009 A 
ATOM     77  C   UNL A   1      44.126  27.336  35.811  1.00  0.00     0.009 A 
ATOM     78  C   UNL A   1      46.677  28.200  35.080  1.00  0.00     0.001 A 
ATOM     79  C   UNL A   1      45.243  26.560  36.125  1.00  0.00     0.001 A 
ATOM     80  C   UNL A   1      46.516  26.989  35.753  1.00  0.00     0.000 A 
ENDBRANCH  62  75
ENDBRANCH  36  37
ENDBRANCH  28  31
ENDBRANCH  26  27
ENDBRANCH  25  26
ENDBRANCH  24  25
ENDBRANCH   1  24
TORSDOF 16
ENDMDL
