MODEL 1
REMARK VINA RESULT:     -11.1      0.000      0.000
REMARK SMILES COC(=O)C[C@H](c1ccc(C(=O)NCCCCNC(=O)c2ccc(-c3c4nc(c(-c5ccccc5)c5ccc([nH]5)c(-c5ccccc5)c5nc(c(-c6ccccc6)c6ccc3[nH]6)C=C5)C=C4)cc2)cc1)c1c(O)n[nH]c1C
REMARK SMILES IDX 14 1 13 2 11 3 12 4 10 6 7 7 8 8 70 9 9 10 69 11 6 12 5 13
REMARK SMILES IDX 3 14 4 15 2 16 1 17 71 18 72 19 76 20 74 21 75 22 77 23
REMARK SMILES IDX 73 25 15 27 16 28 17 29 18 30 19 31 20 33 21 34 22 35 68 36
REMARK SMILES IDX 23 37 67 38 24 39 25 40 26 41 61 42 27 43 66 44 60 45 62 46
REMARK SMILES IDX 28 47 65 48 59 49 58 50 29 52 51 53 36 54 50 55 37 56 40 57
REMARK SMILES IDX 49 58 63 59 38 60 39 61 48 63 64 64 41 65 30 66 31 67 35 68
REMARK SMILES IDX 32 69 34 70 33 71 52 72 53 73 57 74 54 75 56 76 55 77 42 78
REMARK SMILES IDX 43 79 47 80 44 81 46 82 45 83
REMARK H PARENT 13 5 75 24 73 26 18 32 62 51 40 62
REMARK Flexibility Score: inf
ROOT
ATOM      1  C   UNL A   1      32.075  29.628  25.279  1.00  0.00     0.116 C 
ENDROOT
BRANCH   1   2
ATOM      2  N   UNL A   1      31.092  30.037  24.304  1.00  0.00    -0.352 N 
ATOM      3  C   UNL A   1      30.214  29.359  23.502  1.00  0.00     0.251 C 
ATOM      4  O   UNL A   1      29.459  30.061  22.824  1.00  0.00    -0.269 OA
ATOM      5  H   UNL A   1      31.042  31.014  24.191  1.00  0.00     0.163 HD
BRANCH   3   6
ATOM      6  C   UNL A   1      30.154  27.872  23.342  1.00  0.00     0.039 A 
ATOM      7  C   UNL A   1      30.644  25.087  23.405  1.00  0.00    -0.040 A 
ATOM      8  C   UNL A   1      31.419  25.921  22.590  1.00  0.00     0.005 A 
ATOM      9  C   UNL A   1      29.511  25.627  24.023  1.00  0.00     0.005 A 
ATOM     10  C   UNL A   1      31.168  27.296  22.554  1.00  0.00     0.014 A 
ATOM     11  C   UNL A   1      29.297  27.008  24.026  1.00  0.00     0.014 A 
BRANCH   7  12
ATOM     12  C   UNL A   1      31.078  23.680  23.789  1.00  0.00     0.068 C 
BRANCH  12  13
ATOM     13  C   UNL A   1      32.198  23.142  22.890  1.00  0.00     0.136 C 
BRANCH  13  14
ATOM     14  C   UNL A   1      32.816  21.897  23.470  1.00  0.00     0.306 C 
ATOM     15  O   UNL A   1      32.240  20.821  23.569  1.00  0.00    -0.252 OA
BRANCH  14  16
ATOM     16  O   UNL A   1      34.115  22.123  23.815  1.00  0.00    -0.469 OA
ATOM     17  C   UNL A   1      34.469  21.660  25.118  1.00  0.00     0.282 C 
ENDBRANCH  14  16
ENDBRANCH  13  14
ENDBRANCH  12  13
BRANCH  12  18
ATOM     18  C   UNL A   1      31.404  23.728  25.286  1.00  0.00     0.044 A 
ATOM     19  C   UNL A   1      30.773  22.963  26.291  1.00  0.00     0.234 A 
ATOM     20  C   UNL A   1      32.242  24.547  26.057  1.00  0.00     0.040 A 
ATOM     21  N   UNL A   1      31.181  23.183  27.528  1.00  0.00    -0.137 NA
ATOM     22  N   UNL A   1      32.103  24.135  27.358  1.00  0.00    -0.279 N 
ATOM     23  C   UNL A   1      33.168  25.676  25.775  1.00  0.00     0.066 C 
ATOM     24  H   UNL A   1      32.635  24.506  28.099  1.00  0.00     0.190 HD
BRANCH  19  25
ATOM     25  O   UNL A   1      29.797  22.067  26.202  1.00  0.00    -0.492 OA
ATOM     26  H   UNL A   1      29.145  22.149  25.535  1.00  0.00     0.295 HD
ENDBRANCH  19  25
ENDBRANCH  12  18
ENDBRANCH   7  12
ENDBRANCH   3   6
ENDBRANCH   1   2
BRANCH   1  27
ATOM     27  C   UNL A   1      31.724  30.148  26.675  1.00  0.00     0.023 C 
BRANCH  27  28
ATOM     28  C   UNL A   1      31.389  31.645  26.712  1.00  0.00     0.023 C 
BRANCH  28  29
ATOM     29  C   UNL A   1      32.602  32.568  26.769  1.00  0.00     0.116 C 
BRANCH  29  30
ATOM     30  N   UNL A   1      32.323  33.842  27.413  1.00  0.00    -0.352 N 
ATOM     31  C   UNL A   1      33.004  34.444  28.444  1.00  0.00     0.251 C 
ATOM     32  H   UNL A   1      31.547  34.338  27.066  1.00  0.00     0.163 HD
ATOM     33  O   UNL A   1      32.571  35.461  28.963  1.00  0.00    -0.269 OA
BRANCH  31  34
ATOM     34  C   UNL A   1      34.247  33.821  28.940  1.00  0.00     0.039 A 
ATOM     35  C   UNL A   1      35.469  34.289  28.455  1.00  0.00     0.014 A 
ATOM     36  C   UNL A   1      34.206  32.791  29.882  1.00  0.00     0.014 A 
ATOM     37  C   UNL A   1      36.654  33.741  28.943  1.00  0.00     0.010 A 
ATOM     38  C   UNL A   1      35.387  32.308  30.432  1.00  0.00     0.010 A 
ATOM     39  C   UNL A   1      36.623  32.760  29.948  1.00  0.00    -0.014 A 
BRANCH  39  40
ATOM     40  C   UNL A   1      37.881  32.167  30.462  1.00  0.00     0.031 A 
ATOM     41  C   UNL A   1      38.517  32.718  31.710  1.00  0.00     0.074 A 
ATOM     42  C   UNL A   1      38.457  31.149  29.798  1.00  0.00     0.049 A 
ATOM     43  N   UNL A   1      39.590  32.309  32.337  1.00  0.00    -0.248 NA
ATOM     44  C   UNL A   1      37.878  33.895  32.322  1.00  0.00     0.031 C 
ATOM     45  C   UNL A   1      37.965  30.562  28.550  1.00  0.00     0.029 A 
ATOM     46  N   UNL A   1      39.579  30.416  30.090  1.00  0.00    -0.354 N 
ATOM     47  C   UNL A   1      39.758  33.183  33.405  1.00  0.00     0.074 A 
ATOM     48  C   UNL A   1      38.719  34.182  33.303  1.00  0.00     0.031 C 
ATOM     49  C   UNL A   1      38.753  29.529  28.209  1.00  0.00     0.029 A 
ATOM     50  C   UNL A   1      39.823  29.404  29.194  1.00  0.00     0.049 A 
ATOM     51  H   UNL A   1      40.155  30.599  30.867  1.00  0.00     0.167 HD
ATOM     52  C   UNL A   1      40.675  33.143  34.400  1.00  0.00     0.031 A 
ATOM     53  C   UNL A   1      40.793  28.471  29.177  1.00  0.00     0.031 A 
ATOM     54  C   UNL A   1      41.706  32.145  34.503  1.00  0.00     0.049 A 
ATOM     55  C   UNL A   1      41.800  28.446  30.295  1.00  0.00     0.074 A 
ATOM     56  C   UNL A   1      42.657  31.984  35.494  1.00  0.00     0.029 A 
ATOM     57  N   UNL A   1      41.918  31.134  33.576  1.00  0.00    -0.354 N 
ATOM     58  N   UNL A   1      41.899  29.233  31.339  1.00  0.00    -0.248 NA
ATOM     59  C   UNL A   1      42.812  27.384  30.241  1.00  0.00     0.031 C 
ATOM     60  C   UNL A   1      43.478  30.908  35.141  1.00  0.00     0.029 A 
ATOM     61  C   UNL A   1      42.995  30.357  33.964  1.00  0.00     0.049 A 
ATOM     62  H   UNL A   1      41.380  30.991  32.763  1.00  0.00     0.167 HD
ATOM     63  C   UNL A   1      42.961  28.738  32.086  1.00  0.00     0.074 A 
ATOM     64  C   UNL A   1      43.458  27.573  31.382  1.00  0.00     0.031 C 
ATOM     65  C   UNL A   1      43.478  29.203  33.250  1.00  0.00     0.031 A 
BRANCH  52  66
ATOM     66  C   UNL A   1      40.603  34.218  35.450  1.00  0.00    -0.014 A 
ATOM     67  C   UNL A   1      39.852  34.039  36.625  1.00  0.00     0.009 A 
ATOM     68  C   UNL A   1      41.305  35.419  35.272  1.00  0.00     0.009 A 
ATOM     69  C   UNL A   1      39.774  35.057  37.578  1.00  0.00     0.001 A 
ATOM     70  C   UNL A   1      41.254  36.421  36.243  1.00  0.00     0.001 A 
ATOM     71  C   UNL A   1      40.479  36.245  37.388  1.00  0.00     0.000 A 
ENDBRANCH  52  66
BRANCH  53  72
ATOM     72  C   UNL A   1      40.840  27.460  28.089  1.00  0.00    -0.014 A 
ATOM     73  C   UNL A   1      41.545  27.721  26.903  1.00  0.00     0.009 A 
ATOM     74  C   UNL A   1      40.170  26.236  28.222  1.00  0.00     0.009 A 
ATOM     75  C   UNL A   1      41.545  26.792  25.859  1.00  0.00     0.001 A 
ATOM     76  C   UNL A   1      40.198  25.295  27.190  1.00  0.00     0.001 A 
ATOM     77  C   UNL A   1      40.875  25.579  26.006  1.00  0.00     0.000 A 
ENDBRANCH  53  72
BRANCH  65  78
ATOM     78  C   UNL A   1      44.607  28.417  33.858  1.00  0.00    -0.014 A 
ATOM     79  C   UNL A   1      44.372  27.354  34.744  1.00  0.00     0.009 A 
ATOM     80  C   UNL A   1      45.932  28.744  33.525  1.00  0.00     0.009 A 
ATOM     81  C   UNL A   1      45.442  26.671  35.326  1.00  0.00     0.001 A 
ATOM     82  C   UNL A   1      46.998  28.036  34.080  1.00  0.00     0.001 A 
ATOM     83  C   UNL A   1      46.753  27.010  34.991  1.00  0.00     0.000 A 
ENDBRANCH  65  78
ENDBRANCH  39  40
ENDBRANCH  31  34
ENDBRANCH  29  30
ENDBRANCH  28  29
ENDBRANCH  27  28
ENDBRANCH   1  27
TORSDOF 17
ENDMDL
MODEL 2
REMARK VINA RESULT:     -11.0      1.100      5.893
REMARK SMILES COC(=O)C[C@H](c1ccc(C(=O)NCCCCNC(=O)c2ccc(-c3c4nc(c(-c5ccccc5)c5ccc([nH]5)c(-c5ccccc5)c5nc(c(-c6ccccc6)c6ccc3[nH]6)C=C5)C=C4)cc2)cc1)c1c(O)n[nH]c1C
REMARK SMILES IDX 14 1 13 2 11 3 12 4 10 6 7 7 8 8 70 9 9 10 69 11 6 12 5 13
REMARK SMILES IDX 3 14 4 15 2 16 1 17 71 18 72 19 76 20 74 21 75 22 77 23
REMARK SMILES IDX 73 25 15 27 16 28 17 29 18 30 19 31 20 33 21 34 22 35 68 36
REMARK SMILES IDX 23 37 67 38 24 39 25 40 26 41 61 42 27 43 66 44 60 45 62 46
REMARK SMILES IDX 28 47 65 48 59 49 58 50 29 52 51 53 36 54 50 55 37 56 40 57
REMARK SMILES IDX 49 58 63 59 38 60 39 61 48 63 64 64 41 65 30 66 31 67 35 68
REMARK SMILES IDX 32 69 34 70 33 71 52 72 53 73 57 74 54 75 56 76 55 77 42 78
REMARK SMILES IDX 43 79 47 80 44 81 46 82 45 83
REMARK H PARENT 13 5 75 24 73 26 18 32 62 51 40 62
REMARK Flexibility Score: inf
ROOT
ATOM      1  C   UNL A   1      32.189  29.398  24.838  1.00  0.00     0.116 C 
ENDROOT
BRANCH   1   2
ATOM      2  N   UNL A   1      31.473  29.708  23.622  1.00  0.00    -0.352 N 
ATOM      3  C   UNL A   1      30.726  28.964  22.748  1.00  0.00     0.251 C 
ATOM      4  O   UNL A   1      30.196  29.595  21.830  1.00  0.00    -0.269 OA
ATOM      5  H   UNL A   1      31.535  30.656  23.367  1.00  0.00     0.163 HD
BRANCH   3   6
ATOM      6  C   UNL A   1      30.569  27.476  22.786  1.00  0.00     0.039 A 
ATOM      7  C   UNL A   1      30.889  24.697  23.201  1.00  0.00    -0.040 A 
ATOM      8  C   UNL A   1      31.684  25.366  22.263  1.00  0.00     0.005 A 
ATOM      9  C   UNL A   1      29.814  25.385  23.774  1.00  0.00     0.005 A 
ATOM     10  C   UNL A   1      31.516  26.738  22.053  1.00  0.00     0.014 A 
ATOM     11  C   UNL A   1      29.686  26.766  23.602  1.00  0.00     0.014 A 
BRANCH   7  12
ATOM     12  C   UNL A   1      31.249  23.326  23.754  1.00  0.00     0.068 C 
BRANCH  12  13
ATOM     13  C   UNL A   1      32.407  22.669  22.994  1.00  0.00     0.136 C 
BRANCH  13  14
ATOM     14  C   UNL A   1      32.134  21.211  22.732  1.00  0.00     0.306 C 
ATOM     15  O   UNL A   1      31.804  20.754  21.645  1.00  0.00    -0.252 OA
BRANCH  14  16
ATOM     16  O   UNL A   1      32.359  20.473  23.855  1.00  0.00    -0.469 OA
ATOM     17  C   UNL A   1      33.642  20.679  24.449  1.00  0.00     0.282 C 
ENDBRANCH  14  16
ENDBRANCH  13  14
ENDBRANCH  12  13
BRANCH  12  18
ATOM     18  C   UNL A   1      31.476  23.519  25.258  1.00  0.00     0.044 A 
ATOM     19  C   UNL A   1      30.774  22.857  26.288  1.00  0.00     0.234 A 
ATOM     20  C   UNL A   1      32.269  24.408  25.999  1.00  0.00     0.040 A 
ATOM     21  N   UNL A   1      31.102  23.196  27.522  1.00  0.00    -0.137 NA
ATOM     22  N   UNL A   1      32.041  24.124  27.322  1.00  0.00    -0.279 N 
ATOM     23  C   UNL A   1      33.221  25.502  25.670  1.00  0.00     0.066 C 
ATOM     24  H   UNL A   1      32.526  24.565  28.057  1.00  0.00     0.190 HD
BRANCH  19  25
ATOM     25  O   UNL A   1      29.799  21.959  26.223  1.00  0.00    -0.492 OA
ATOM     26  H   UNL A   1      29.440  21.599  27.010  1.00  0.00     0.295 HD
ENDBRANCH  19  25
ENDBRANCH  12  18
ENDBRANCH   7  12
ENDBRANCH   3   6
ENDBRANCH   1   2
BRANCH   1  27
ATOM     27  C   UNL A   1      31.416  29.866  26.073  1.00  0.00     0.023 C 
BRANCH  27  28
ATOM     28  C   UNL A   1      31.370  31.392  26.234  1.00  0.00     0.023 C 
BRANCH  28  29
ATOM     29  C   UNL A   1      32.596  31.998  26.908  1.00  0.00     0.116 C 
BRANCH  29  30
ATOM     30  N   UNL A   1      32.372  33.349  27.400  1.00  0.00    -0.352 N 
ATOM     31  C   UNL A   1      33.133  34.072  28.286  1.00  0.00     0.251 C 
ATOM     32  H   UNL A   1      31.571  33.804  27.052  1.00  0.00     0.163 HD
ATOM     33  O   UNL A   1      32.745  35.153  28.700  1.00  0.00    -0.269 OA
BRANCH  31  34
ATOM     34  C   UNL A   1      34.411  33.504  28.760  1.00  0.00     0.039 A 
ATOM     35  C   UNL A   1      35.574  33.781  28.039  1.00  0.00     0.014 A 
ATOM     36  C   UNL A   1      34.461  32.715  29.911  1.00  0.00     0.014 A 
ATOM     37  C   UNL A   1      36.795  33.288  28.495  1.00  0.00     0.010 A 
ATOM     38  C   UNL A   1      35.689  32.299  30.412  1.00  0.00     0.010 A 
ATOM     39  C   UNL A   1      36.865  32.559  29.695  1.00  0.00    -0.014 A 
BRANCH  39  40
ATOM     40  C   UNL A   1      38.160  32.024  30.177  1.00  0.00     0.031 A 
ATOM     41  C   UNL A   1      38.678  30.714  29.647  1.00  0.00     0.074 A 
ATOM     42  C   UNL A   1      38.860  32.708  31.102  1.00  0.00     0.049 A 
ATOM     43  N   UNL A   1      39.804  30.105  29.915  1.00  0.00    -0.248 NA
ATOM     44  C   UNL A   1      37.807  29.981  28.713  1.00  0.00     0.031 C 
ATOM     45  C   UNL A   1      38.439  33.963  31.729  1.00  0.00     0.029 A 
ATOM     46  N   UNL A   1      40.082  32.448  31.666  1.00  0.00    -0.354 N 
ATOM     47  C   UNL A   1      39.770  28.918  29.193  1.00  0.00     0.074 A 
ATOM     48  C   UNL A   1      38.487  28.860  28.531  1.00  0.00     0.031 C 
ATOM     49  C   UNL A   1      39.409  34.387  32.555  1.00  0.00     0.029 A 
ATOM     50  C   UNL A   1      40.502  33.419  32.541  1.00  0.00     0.049 A 
ATOM     51  H   UNL A   1      40.609  31.641  31.463  1.00  0.00     0.167 HD
ATOM     52  C   UNL A   1      40.732  27.973  29.065  1.00  0.00     0.031 A 
ATOM     53  C   UNL A   1      41.646  33.525  33.242  1.00  0.00     0.031 A 
ATOM     54  C   UNL A   1      42.010  28.034  29.721  1.00  0.00     0.049 A 
ATOM     55  C   UNL A   1      42.699  32.463  33.083  1.00  0.00     0.074 A 
ATOM     56  C   UNL A   1      43.073  27.154  29.624  1.00  0.00     0.029 A 
ATOM     57  N   UNL A   1      42.398  29.037  30.597  1.00  0.00    -0.354 N 
ATOM     58  N   UNL A   1      42.683  31.386  32.336  1.00  0.00    -0.248 NA
ATOM     59  C   UNL A   1      43.940  32.651  33.845  1.00  0.00     0.031 C 
ATOM     60  C   UNL A   1      44.085  27.597  30.483  1.00  0.00     0.029 A 
ATOM     61  C   UNL A   1      43.678  28.788  31.062  1.00  0.00     0.049 A 
ATOM     62  H   UNL A   1      41.845  29.811  30.850  1.00  0.00     0.167 HD
ATOM     63  C   UNL A   1      43.925  30.786  32.511  1.00  0.00     0.074 A 
ATOM     64  C   UNL A   1      44.672  31.633  33.418  1.00  0.00     0.031 C 
ATOM     65  C   UNL A   1      44.405  29.640  31.968  1.00  0.00     0.031 A 
BRANCH  52  66
ATOM     66  C   UNL A   1      40.426  26.791  28.187  1.00  0.00    -0.014 A 
ATOM     67  C   UNL A   1      39.675  25.703  28.665  1.00  0.00     0.009 A 
ATOM     68  C   UNL A   1      40.878  26.768  26.859  1.00  0.00     0.009 A 
ATOM     69  C   UNL A   1      39.421  24.601  27.844  1.00  0.00     0.001 A 
ATOM     70  C   UNL A   1      40.594  25.682  26.030  1.00  0.00     0.001 A 
ATOM     71  C   UNL A   1      39.877  24.594  26.526  1.00  0.00     0.000 A 
ENDBRANCH  52  66
BRANCH  53  72
ATOM     72  C   UNL A   1      41.874  34.695  34.130  1.00  0.00    -0.014 A 
ATOM     73  C   UNL A   1      42.454  35.870  33.626  1.00  0.00     0.009 A 
ATOM     74  C   UNL A   1      41.528  34.640  35.487  1.00  0.00     0.009 A 
ATOM     75  C   UNL A   1      42.716  36.951  34.472  1.00  0.00     0.001 A 
ATOM     76  C   UNL A   1      41.761  35.733  36.325  1.00  0.00     0.001 A 
ATOM     77  C   UNL A   1      42.366  36.882  35.819  1.00  0.00     0.000 A 
ENDBRANCH  53  72
BRANCH  65  78
ATOM     78  C   UNL A   1      45.823  29.268  32.304  1.00  0.00    -0.014 A 
ATOM     79  C   UNL A   1      46.909  29.746  31.553  1.00  0.00     0.009 A 
ATOM     80  C   UNL A   1      46.073  28.429  33.402  1.00  0.00     0.009 A 
ATOM     81  C   UNL A   1      48.211  29.348  31.862  1.00  0.00     0.001 A 
ATOM     82  C   UNL A   1      47.379  28.062  33.731  1.00  0.00     0.001 A 
ATOM     83  C   UNL A   1      48.444  28.509  32.953  1.00  0.00     0.000 A 
ENDBRANCH  65  78
ENDBRANCH  39  40
ENDBRANCH  31  34
ENDBRANCH  29  30
ENDBRANCH  28  29
ENDBRANCH  27  28
ENDBRANCH   1  27
TORSDOF 17
ENDMDL
MODEL 3
REMARK VINA RESULT:     -10.9      3.321      7.033
REMARK SMILES COC(=O)C[C@H](c1ccc(C(=O)NCCCCNC(=O)c2ccc(-c3c4nc(c(-c5ccccc5)c5ccc([nH]5)c(-c5ccccc5)c5nc(c(-c6ccccc6)c6ccc3[nH]6)C=C5)C=C4)cc2)cc1)c1c(O)n[nH]c1C
REMARK SMILES IDX 14 1 13 2 11 3 12 4 10 6 7 7 8 8 70 9 9 10 69 11 6 12 5 13
REMARK SMILES IDX 3 14 4 15 2 16 1 17 71 18 72 19 76 20 74 21 75 22 77 23
REMARK SMILES IDX 73 25 15 27 16 28 17 29 18 30 19 31 20 33 21 34 22 35 68 36
REMARK SMILES IDX 23 37 67 38 24 39 25 40 26 41 61 42 27 43 66 44 60 45 62 46
REMARK SMILES IDX 28 47 65 48 59 49 58 50 29 52 51 53 36 54 50 55 37 56 40 57
REMARK SMILES IDX 49 58 63 59 38 60 39 61 48 63 64 64 41 65 30 66 31 67 35 68
REMARK SMILES IDX 32 69 34 70 33 71 52 72 53 73 57 74 54 75 56 76 55 77 42 78
REMARK SMILES IDX 43 79 47 80 44 81 46 82 45 83
REMARK H PARENT 13 5 75 24 73 26 18 32 62 51 40 62
REMARK Flexibility Score: inf
ROOT
ATOM      1  C   UNL A   1      33.298  28.987  23.585  1.00  0.00     0.116 C 
ENDROOT
BRANCH   1   2
ATOM      2  N   UNL A   1      32.138  29.377  22.818  1.00  0.00    -0.352 N 
ATOM      3  C   UNL A   1      31.018  28.714  22.394  1.00  0.00     0.251 C 
ATOM      4  O   UNL A   1      30.185  29.403  21.799  1.00  0.00    -0.269 OA
ATOM      5  H   UNL A   1      32.158  30.320  22.538  1.00  0.00     0.163 HD
BRANCH   3   6
ATOM      6  C   UNL A   1      30.771  27.245  22.536  1.00  0.00     0.039 A 
ATOM      7  C   UNL A   1      30.931  24.484  23.124  1.00  0.00    -0.040 A 
ATOM      8  C   UNL A   1      31.733  25.039  22.120  1.00  0.00     0.005 A 
ATOM      9  C   UNL A   1      29.921  25.275  23.683  1.00  0.00     0.005 A 
ATOM     10  C   UNL A   1      31.644  26.402  21.825  1.00  0.00     0.014 A 
ATOM     11  C   UNL A   1      29.873  26.647  23.423  1.00  0.00     0.014 A 
BRANCH   7  12
ATOM     12  C   UNL A   1      31.224  23.131  23.757  1.00  0.00     0.068 C 
BRANCH  12  13
ATOM     13  C   UNL A   1      32.291  22.340  22.988  1.00  0.00     0.136 C 
BRANCH  13  14
ATOM     14  C   UNL A   1      32.815  21.189  23.807  1.00  0.00     0.306 C 
ATOM     15  O   UNL A   1      32.246  20.112  23.929  1.00  0.00    -0.252 OA
BRANCH  14  16
ATOM     16  O   UNL A   1      34.030  21.497  24.342  1.00  0.00    -0.469 OA
ATOM     17  C   UNL A   1      34.706  20.392  24.944  1.00  0.00     0.282 C 
ENDBRANCH  14  16
ENDBRANCH  13  14
ENDBRANCH  12  13
BRANCH  12  18
ATOM     18  C   UNL A   1      31.547  23.409  25.229  1.00  0.00     0.044 A 
ATOM     19  C   UNL A   1      30.832  22.907  26.337  1.00  0.00     0.234 A 
ATOM     20  C   UNL A   1      32.467  24.257  25.863  1.00  0.00     0.040 A 
ATOM     21  N   UNL A   1      31.256  23.298  27.526  1.00  0.00    -0.137 NA
ATOM     22  N   UNL A   1      32.278  24.100  27.213  1.00  0.00    -0.279 N 
ATOM     23  C   UNL A   1      33.513  25.212  25.408  1.00  0.00     0.066 C 
ATOM     24  H   UNL A   1      32.844  24.538  27.889  1.00  0.00     0.190 HD
BRANCH  19  25
ATOM     25  O   UNL A   1      29.764  22.119  26.385  1.00  0.00    -0.492 OA
ATOM     26  H   UNL A   1      29.797  21.313  26.863  1.00  0.00     0.295 HD
ENDBRANCH  19  25
ENDBRANCH  12  18
ENDBRANCH   7  12
ENDBRANCH   3   6
ENDBRANCH   1   2
BRANCH   1  27
ATOM     27  C   UNL A   1      33.105  29.286  25.074  1.00  0.00     0.023 C 
BRANCH  27  28
ATOM     28  C   UNL A   1      34.143  28.610  25.981  1.00  0.00     0.023 C 
BRANCH  28  29
ATOM     29  C   UNL A   1      33.833  28.689  27.472  1.00  0.00     0.116 C 
BRANCH  29  30
ATOM     30  N   UNL A   1      33.743  30.053  27.968  1.00  0.00    -0.352 N 
ATOM     31  C   UNL A   1      34.715  30.803  28.585  1.00  0.00     0.251 C 
ATOM     32  H   UNL A   1      32.874  30.498  27.844  1.00  0.00     0.163 HD
ATOM     33  O   UNL A   1      34.449  31.896  29.059  1.00  0.00    -0.269 OA
BRANCH  31  34
ATOM     34  C   UNL A   1      36.079  30.250  28.700  1.00  0.00     0.039 A 
ATOM     35  C   UNL A   1      36.931  30.336  27.598  1.00  0.00     0.014 A 
ATOM     36  C   UNL A   1      36.515  29.660  29.889  1.00  0.00     0.014 A 
ATOM     37  C   UNL A   1      38.235  29.857  27.702  1.00  0.00     0.010 A 
ATOM     38  C   UNL A   1      37.841  29.263  30.019  1.00  0.00     0.010 A 
ATOM     39  C   UNL A   1      38.706  29.334  28.919  1.00  0.00    -0.014 A 
BRANCH  39  40
ATOM     40  C   UNL A   1      40.090  28.813  29.030  1.00  0.00     0.031 A 
ATOM     41  C   UNL A   1      40.390  27.388  28.652  1.00  0.00     0.074 A 
ATOM     42  C   UNL A   1      41.069  29.616  29.487  1.00  0.00     0.049 A 
ATOM     43  N   UNL A   1      41.540  26.763  28.642  1.00  0.00    -0.248 NA
ATOM     44  C   UNL A   1      39.248  26.547  28.257  1.00  0.00     0.031 C 
ATOM     45  C   UNL A   1      40.893  31.000  29.932  1.00  0.00     0.029 A 
ATOM     46  N   UNL A   1      42.412  29.386  29.638  1.00  0.00    -0.354 N 
ATOM     47  C   UNL A   1      41.256  25.460  28.251  1.00  0.00     0.074 A 
ATOM     48  C   UNL A   1      39.822  25.365  28.099  1.00  0.00     0.031 C 
ATOM     49  C   UNL A   1      42.091  31.511  30.262  1.00  0.00     0.029 A 
ATOM     50  C   UNL A   1      43.111  30.481  30.083  1.00  0.00     0.049 A 
ATOM     51  H   UNL A   1      42.835  28.518  29.447  1.00  0.00     0.167 HD
ATOM     52  C   UNL A   1      42.113  24.440  28.009  1.00  0.00     0.031 A 
ATOM     53  C   UNL A   1      44.428  30.642  30.307  1.00  0.00     0.031 A 
ATOM     54  C   UNL A   1      43.540  24.537  28.155  1.00  0.00     0.049 A 
ATOM     55  C   UNL A   1      45.360  29.494  30.030  1.00  0.00     0.074 A 
ATOM     56  C   UNL A   1      44.503  23.580  27.892  1.00  0.00     0.029 A 
ATOM     57  N   UNL A   1      44.210  25.666  28.605  1.00  0.00    -0.354 N 
ATOM     58  N   UNL A   1      45.084  28.291  29.586  1.00  0.00    -0.248 NA
ATOM     59  C   UNL A   1      46.789  29.740  30.259  1.00  0.00     0.031 C 
ATOM     60  C   UNL A   1      45.751  24.111  28.233  1.00  0.00     0.029 A 
ATOM     61  C   UNL A   1      45.571  25.422  28.644  1.00  0.00     0.049 A 
ATOM     62  H   UNL A   1      43.779  26.515  28.859  1.00  0.00     0.167 HD
ATOM     63  C   UNL A   1      46.309  27.649  29.449  1.00  0.00     0.074 A 
ATOM     64  C   UNL A   1      47.326  28.604  29.838  1.00  0.00     0.031 C 
ATOM     65  C   UNL A   1      46.569  26.384  29.036  1.00  0.00     0.031 A 
BRANCH  52  66
ATOM     66  C   UNL A   1      41.519  23.130  27.568  1.00  0.00    -0.014 A 
ATOM     67  C   UNL A   1      40.544  23.075  26.557  1.00  0.00     0.009 A 
ATOM     68  C   UNL A   1      41.950  21.932  28.156  1.00  0.00     0.009 A 
ATOM     69  C   UNL A   1      39.984  21.853  26.177  1.00  0.00     0.001 A 
ATOM     70  C   UNL A   1      41.415  20.708  27.750  1.00  0.00     0.001 A 
ATOM     71  C   UNL A   1      40.423  20.671  26.770  1.00  0.00     0.000 A 
ENDBRANCH  52  66
BRANCH  53  72
ATOM     72  C   UNL A   1      44.952  31.948  30.786  1.00  0.00    -0.014 A 
ATOM     73  C   UNL A   1      45.347  32.937  29.871  1.00  0.00     0.009 A 
ATOM     74  C   UNL A   1      45.074  32.208  32.158  1.00  0.00     0.009 A 
ATOM     75  C   UNL A   1      45.888  34.144  30.321  1.00  0.00     0.001 A 
ATOM     76  C   UNL A   1      45.585  33.428  32.607  1.00  0.00     0.001 A 
ATOM     77  C   UNL A   1      46.003  34.389  31.688  1.00  0.00     0.000 A 
ENDBRANCH  53  72
BRANCH  65  78
ATOM     78  C   UNL A   1      48.016  25.983  28.936  1.00  0.00    -0.014 A 
ATOM     79  C   UNL A   1      48.757  25.607  30.068  1.00  0.00     0.009 A 
ATOM     80  C   UNL A   1      48.642  25.974  27.680  1.00  0.00     0.009 A 
ATOM     81  C   UNL A   1      50.110  25.282  29.950  1.00  0.00     0.001 A 
ATOM     82  C   UNL A   1      49.986  25.614  27.560  1.00  0.00     0.001 A 
ATOM     83  C   UNL A   1      50.722  25.284  28.696  1.00  0.00     0.000 A 
ENDBRANCH  65  78
ENDBRANCH  39  40
ENDBRANCH  31  34
ENDBRANCH  29  30
ENDBRANCH  28  29
ENDBRANCH  27  28
ENDBRANCH   1  27
TORSDOF 17
ENDMDL
