MODEL 1
REMARK VINA RESULT:     -10.7      0.000      0.000
REMARK SMILES C[C@H]1SCCC[C@]1(Nc1ccc(Cl)cc1)C(=O)NCCCCNC(=O)c1ccc(-c2c3nc(c(-c4ccccc4)c4ccc([nH]4)c(-c4ccccc4)c4nc(c(-c5ccccc5)c5ccc2[nH]5)C=C4)C=C3)cc1
REMARK SMILES IDX 20 1 19 2 18 3 16 4 17 5 7 7 1 8 2 9 3 10 4 11 6 12 5 13
REMARK SMILES IDX 8 14 9 16 10 17 15 18 11 19 14 20 12 21 13 22 21 23 22 24
REMARK SMILES IDX 23 25 24 26 25 28 26 29 27 30 73 31 28 32 72 33 29 34 30 35
REMARK SMILES IDX 31 36 66 37 32 38 71 39 65 40 67 41 33 42 70 43 64 44 63 45
REMARK SMILES IDX 34 47 56 48 41 49 55 50 42 51 45 52 54 53 68 54 43 55 44 56
REMARK SMILES IDX 53 58 69 59 46 60 35 61 36 62 40 63 37 64 39 65 38 66 57 67
REMARK SMILES IDX 58 68 62 69 59 70 61 71 60 72 47 73 48 74 52 75 49 76 51 77
REMARK SMILES IDX 50 78
REMARK H PARENT 18 6 8 15 23 27 67 46 45 57
REMARK Flexibility Score: inf
ROOT
ATOM      1  C   UNL A   1      38.731  22.761  26.368  1.00  0.00     0.023 C 
ENDROOT
BRANCH   1   2
ATOM      2  C   UNL A   1      37.471  23.469  25.877  1.00  0.00     0.116 C 
BRANCH   2   3
ATOM      3  N   UNL A   1      37.353  23.370  24.437  1.00  0.00    -0.354 N 
ATOM      4  C   UNL A   1      36.298  23.075  23.629  1.00  0.00     0.246 C 
ATOM      5  O   UNL A   1      36.561  23.109  22.417  1.00  0.00    -0.272 OA
ATOM      6  H   UNL A   1      38.192  23.548  23.954  1.00  0.00     0.163 HD
BRANCH   4   7
ATOM      7  C   UNL A   1      34.856  22.678  24.133  1.00  0.00     0.128 C 
ATOM      8  C   UNL A   1      35.619  20.450  25.357  1.00  0.00     0.022 C 
ATOM      9  C   UNL A   1      34.763  21.111  24.281  1.00  0.00     0.078 C 
ATOM     10  S   UNL A   1      33.055  20.526  24.669  1.00  0.00    -0.156 SA
ATOM     11  C   UNL A   1      32.231  21.176  23.205  1.00  0.00     0.070 C 
ATOM     12  C   UNL A   1      33.858  23.119  23.005  1.00  0.00     0.040 C 
ATOM     13  C   UNL A   1      32.401  22.683  23.158  1.00  0.00     0.014 C 
BRANCH   7  14
ATOM     14  N   UNL A   1      34.460  23.343  25.403  1.00  0.00    -0.370 N 
ATOM     15  H   UNL A   1      34.710  22.866  26.227  1.00  0.00     0.161 HD
BRANCH  14  16
ATOM     16  C   UNL A   1      33.790  24.536  25.585  1.00  0.00     0.035 A 
ATOM     17  C   UNL A   1      34.362  25.800  25.401  1.00  0.00     0.027 A 
ATOM     18  C   UNL A   1      32.501  24.489  26.143  1.00  0.00     0.027 A 
ATOM     19  C   UNL A   1      33.688  26.969  25.779  1.00  0.00     0.022 A 
ATOM     20  C   UNL A   1      31.830  25.649  26.547  1.00  0.00     0.022 A 
ATOM     21  C   UNL A   1      32.433  26.887  26.368  1.00  0.00     0.041 A 
ATOM     22  Cl  UNL A   1      31.641  28.316  26.907  1.00  0.00    -0.084 Cl
ENDBRANCH  14  16
ENDBRANCH   7  14
ENDBRANCH   4   7
ENDBRANCH   2   3
ENDBRANCH   1   2
BRANCH   1  23
ATOM     23  C   UNL A   1      39.036  21.454  25.647  1.00  0.00     0.023 C 
BRANCH  23  24
ATOM     24  C   UNL A   1      39.487  20.321  26.556  1.00  0.00     0.116 C 
BRANCH  24  25
ATOM     25  N   UNL A   1      40.562  19.517  25.990  1.00  0.00    -0.352 N 
ATOM     26  C   UNL A   1      41.892  19.843  25.845  1.00  0.00     0.251 C 
ATOM     27  H   UNL A   1      40.304  18.624  25.668  1.00  0.00     0.163 HD
ATOM     28  O   UNL A   1      42.661  19.106  25.249  1.00  0.00    -0.269 OA
BRANCH  26  29
ATOM     29  C   UNL A   1      42.359  21.128  26.399  1.00  0.00     0.039 A 
ATOM     30  C   UNL A   1      42.672  22.170  25.524  1.00  0.00     0.014 A 
ATOM     31  C   UNL A   1      42.388  21.319  27.782  1.00  0.00     0.014 A 
ATOM     32  C   UNL A   1      42.937  23.437  26.041  1.00  0.00     0.010 A 
ATOM     33  C   UNL A   1      42.559  22.600  28.287  1.00  0.00     0.010 A 
ATOM     34  C   UNL A   1      42.839  23.670  27.423  1.00  0.00    -0.014 A 
BRANCH  34  35
ATOM     35  C   UNL A   1      43.041  25.021  27.999  1.00  0.00     0.031 A 
ATOM     36  C   UNL A   1      44.409  25.429  28.469  1.00  0.00     0.074 A 
ATOM     37  C   UNL A   1      41.988  25.844  28.175  1.00  0.00     0.049 A 
ATOM     38  N   UNL A   1      44.779  26.520  29.089  1.00  0.00    -0.248 NA
ATOM     39  C   UNL A   1      45.501  24.466  28.245  1.00  0.00     0.031 C 
ATOM     40  C   UNL A   1      40.602  25.546  27.809  1.00  0.00     0.029 A 
ATOM     41  N   UNL A   1      41.924  27.102  28.719  1.00  0.00    -0.354 N 
ATOM     42  C   UNL A   1      46.132  26.357  29.358  1.00  0.00     0.074 A 
ATOM     43  C   UNL A   1      46.507  25.045  28.881  1.00  0.00     0.031 C 
ATOM     44  C   UNL A   1      39.830  26.604  28.110  1.00  0.00     0.029 A 
ATOM     45  C   UNL A   1      40.659  27.637  28.722  1.00  0.00     0.049 A 
ATOM     46  H   UNL A   1      42.710  27.577  29.073  1.00  0.00     0.167 HD
ATOM     47  C   UNL A   1      46.993  27.231  29.929  1.00  0.00     0.031 A 
ATOM     48  C   UNL A   1      40.218  28.827  29.171  1.00  0.00     0.031 A 
ATOM     49  C   UNL A   1      46.629  28.548  30.368  1.00  0.00     0.049 A 
ATOM     50  C   UNL A   1      41.199  29.790  29.777  1.00  0.00     0.074 A 
ATOM     51  C   UNL A   1      47.441  29.537  30.895  1.00  0.00     0.029 A 
ATOM     52  N   UNL A   1      45.343  29.065  30.323  1.00  0.00    -0.354 N 
ATOM     53  N   UNL A   1      42.488  29.648  29.966  1.00  0.00    -0.248 NA
ATOM     54  C   UNL A   1      40.664  31.084  30.226  1.00  0.00     0.031 C 
ATOM     55  C   UNL A   1      46.639  30.642  31.200  1.00  0.00     0.029 A 
ATOM     56  C   UNL A   1      45.337  30.354  30.824  1.00  0.00     0.049 A 
ATOM     57  H   UNL A   1      44.553  28.585  29.984  1.00  0.00     0.167 HD
ATOM     58  C   UNL A   1      42.924  30.841  30.527  1.00  0.00     0.074 A 
ATOM     59  C   UNL A   1      41.763  31.702  30.636  1.00  0.00     0.031 C 
ATOM     60  C   UNL A   1      44.172  31.194  30.917  1.00  0.00     0.031 A 
BRANCH  47  61
ATOM     61  C   UNL A   1      48.415  26.780  30.102  1.00  0.00    -0.014 A 
ATOM     62  C   UNL A   1      49.396  27.090  29.147  1.00  0.00     0.009 A 
ATOM     63  C   UNL A   1      48.782  26.049  31.242  1.00  0.00     0.009 A 
ATOM     64  C   UNL A   1      50.708  26.642  29.310  1.00  0.00     0.001 A 
ATOM     65  C   UNL A   1      50.101  25.628  31.418  1.00  0.00     0.001 A 
ATOM     66  C   UNL A   1      51.060  25.915  30.447  1.00  0.00     0.000 A 
ENDBRANCH  47  61
BRANCH  48  67
ATOM     67  C   UNL A   1      38.784  29.193  29.038  1.00  0.00    -0.014 A 
ATOM     68  C   UNL A   1      37.914  29.055  30.131  1.00  0.00     0.009 A 
ATOM     69  C   UNL A   1      38.275  29.669  27.821  1.00  0.00     0.009 A 
ATOM     70  C   UNL A   1      36.558  29.359  30.000  1.00  0.00     0.001 A 
ATOM     71  C   UNL A   1      36.922  29.997  27.700  1.00  0.00     0.001 A 
ATOM     72  C   UNL A   1      36.063  29.833  28.786  1.00  0.00     0.000 A 
ENDBRANCH  48  67
BRANCH  60  73
ATOM     73  C   UNL A   1      44.353  32.580  31.463  1.00  0.00    -0.014 A 
ATOM     74  C   UNL A   1      44.249  32.839  32.837  1.00  0.00     0.009 A 
ATOM     75  C   UNL A   1      44.678  33.631  30.591  1.00  0.00     0.009 A 
ATOM     76  C   UNL A   1      44.440  34.132  33.326  1.00  0.00     0.001 A 
ATOM     77  C   UNL A   1      44.893  34.917  31.086  1.00  0.00     0.001 A 
ATOM     78  C   UNL A   1      44.767  35.168  32.450  1.00  0.00     0.000 A 
ENDBRANCH  60  73
ENDBRANCH  34  35
ENDBRANCH  26  29
ENDBRANCH  24  25
ENDBRANCH  23  24
ENDBRANCH   1  23
TORSDOF 13
ENDMDL
MODEL 2
REMARK VINA RESULT:     -10.7      2.416      7.493
REMARK SMILES C[C@H]1SCCC[C@]1(Nc1ccc(Cl)cc1)C(=O)NCCCCNC(=O)c1ccc(-c2c3nc(c(-c4ccccc4)c4ccc([nH]4)c(-c4ccccc4)c4nc(c(-c5ccccc5)c5ccc2[nH]5)C=C4)C=C3)cc1
REMARK SMILES IDX 20 1 19 2 18 3 16 4 17 5 7 7 1 8 2 9 3 10 4 11 6 12 5 13
REMARK SMILES IDX 8 14 9 16 10 17 15 18 11 19 14 20 12 21 13 22 21 23 22 24
REMARK SMILES IDX 23 25 24 26 25 28 26 29 27 30 73 31 28 32 72 33 29 34 30 35
REMARK SMILES IDX 31 36 66 37 32 38 71 39 65 40 67 41 33 42 70 43 64 44 63 45
REMARK SMILES IDX 34 47 56 48 41 49 55 50 42 51 45 52 54 53 68 54 43 55 44 56
REMARK SMILES IDX 53 58 69 59 46 60 35 61 36 62 40 63 37 64 39 65 38 66 57 67
REMARK SMILES IDX 58 68 62 69 59 70 61 71 60 72 47 73 48 74 52 75 49 76 51 77
REMARK SMILES IDX 50 78
REMARK H PARENT 18 6 8 15 23 27 67 46 45 57
REMARK Flexibility Score: inf
ROOT
ATOM      1  C   UNL A   1      32.441  28.655  24.910  1.00  0.00     0.023 C 
ENDROOT
BRANCH   1   2
ATOM      2  C   UNL A   1      31.745  27.636  24.009  1.00  0.00     0.116 C 
BRANCH   2   3
ATOM      3  N   UNL A   1      32.679  27.069  23.058  1.00  0.00    -0.354 N 
ATOM      4  C   UNL A   1      33.219  25.823  22.947  1.00  0.00     0.246 C 
ATOM      5  O   UNL A   1      33.975  25.683  21.975  1.00  0.00    -0.272 OA
ATOM      6  H   UNL A   1      32.980  27.700  22.366  1.00  0.00     0.163 HD
BRANCH   4   7
ATOM      7  C   UNL A   1      32.971  24.636  23.957  1.00  0.00     0.128 C 
ATOM      8  C   UNL A   1      30.523  24.078  23.096  1.00  0.00     0.022 C 
ATOM      9  C   UNL A   1      31.427  24.506  24.248  1.00  0.00     0.078 C 
ATOM     10  S   UNL A   1      31.046  23.280  25.575  1.00  0.00    -0.156 SA
ATOM     11  C   UNL A   1      31.983  24.054  26.905  1.00  0.00     0.070 C 
ATOM     12  C   UNL A   1      33.685  25.038  25.294  1.00  0.00     0.040 C 
ATOM     13  C   UNL A   1      33.445  24.140  26.508  1.00  0.00     0.014 C 
BRANCH   7  14
ATOM     14  N   UNL A   1      33.523  23.333  23.498  1.00  0.00    -0.370 N 
ATOM     15  H   UNL A   1      33.029  22.897  22.767  1.00  0.00     0.161 HD
BRANCH  14  16
ATOM     16  C   UNL A   1      34.633  22.651  23.956  1.00  0.00     0.035 A 
ATOM     17  C   UNL A   1      35.952  22.974  23.621  1.00  0.00     0.027 A 
ATOM     18  C   UNL A   1      34.424  21.463  24.676  1.00  0.00     0.027 A 
ATOM     19  C   UNL A   1      37.020  22.135  23.968  1.00  0.00     0.022 A 
ATOM     20  C   UNL A   1      35.480  20.606  25.006  1.00  0.00     0.022 A 
ATOM     21  C   UNL A   1      36.777  20.944  24.642  1.00  0.00     0.041 A 
ATOM     22  Cl  UNL A   1      38.077  19.875  24.996  1.00  0.00    -0.084 Cl
ENDBRANCH  14  16
ENDBRANCH   7  14
ENDBRANCH   4   7
ENDBRANCH   2   3
ENDBRANCH   1   2
BRANCH   1  23
ATOM     23  C   UNL A   1      32.254  28.403  26.400  1.00  0.00     0.023 C 
BRANCH  23  24
ATOM     24  C   UNL A   1      33.468  28.736  27.254  1.00  0.00     0.116 C 
BRANCH  24  25
ATOM     25  N   UNL A   1      33.508  30.127  27.686  1.00  0.00    -0.352 N 
ATOM     26  C   UNL A   1      34.549  30.817  28.264  1.00  0.00     0.251 C 
ATOM     27  H   UNL A   1      32.681  30.642  27.545  1.00  0.00     0.163 HD
ATOM     28  O   UNL A   1      34.400  31.957  28.676  1.00  0.00    -0.269 OA
BRANCH  26  29
ATOM     29  C   UNL A   1      35.846  30.128  28.409  1.00  0.00     0.039 A 
ATOM     30  C   UNL A   1      36.745  30.144  27.342  1.00  0.00     0.014 A 
ATOM     31  C   UNL A   1      36.197  29.559  29.635  1.00  0.00     0.014 A 
ATOM     32  C   UNL A   1      38.037  29.656  27.533  1.00  0.00     0.010 A 
ATOM     33  C   UNL A   1      37.509  29.161  29.848  1.00  0.00     0.010 A 
ATOM     34  C   UNL A   1      38.440  29.202  28.799  1.00  0.00    -0.014 A 
BRANCH  34  35
ATOM     35  C   UNL A   1      39.827  28.746  29.056  1.00  0.00     0.031 A 
ATOM     36  C   UNL A   1      40.812  29.688  29.690  1.00  0.00     0.074 A 
ATOM     37  C   UNL A   1      40.222  27.524  28.647  1.00  0.00     0.049 A 
ATOM     38  N   UNL A   1      42.091  29.523  29.909  1.00  0.00    -0.248 NA
ATOM     39  C   UNL A   1      40.298  31.007  30.098  1.00  0.00     0.031 C 
ATOM     40  C   UNL A   1      39.377  26.535  27.974  1.00  0.00     0.029 A 
ATOM     41  N   UNL A   1      41.446  26.910  28.734  1.00  0.00    -0.354 N 
ATOM     42  C   UNL A   1      42.536  30.724  30.446  1.00  0.00     0.074 A 
ATOM     43  C   UNL A   1      41.407  31.625  30.473  1.00  0.00     0.031 C 
ATOM     44  C   UNL A   1      40.100  25.427  27.737  1.00  0.00     0.029 A 
ATOM     45  C   UNL A   1      41.464  25.642  28.207  1.00  0.00     0.049 A 
ATOM     46  H   UNL A   1      42.237  27.338  29.135  1.00  0.00     0.167 HD
ATOM     47  C   UNL A   1      43.771  31.042  30.899  1.00  0.00     0.031 A 
ATOM     48  C   UNL A   1      42.471  24.753  28.112  1.00  0.00     0.031 A 
ATOM     49  C   UNL A   1      44.884  30.135  30.908  1.00  0.00     0.049 A 
ATOM     50  C   UNL A   1      43.826  25.121  28.647  1.00  0.00     0.074 A 
ATOM     51  C   UNL A   1      46.157  30.337  31.410  1.00  0.00     0.029 A 
ATOM     52  N   UNL A   1      44.852  28.848  30.395  1.00  0.00    -0.354 N 
ATOM     53  N   UNL A   1      44.216  26.238  29.211  1.00  0.00    -0.248 NA
ATOM     54  C   UNL A   1      44.879  24.101  28.539  1.00  0.00     0.031 C 
ATOM     55  C   UNL A   1      46.907  29.181  31.171  1.00  0.00     0.029 A 
ATOM     56  C   UNL A   1      46.088  28.247  30.558  1.00  0.00     0.049 A 
ATOM     57  H   UNL A   1      44.067  28.425  29.978  1.00  0.00     0.167 HD
ATOM     58  C   UNL A   1      45.548  26.046  29.551  1.00  0.00     0.074 A 
ATOM     59  C   UNL A   1      45.897  24.700  29.142  1.00  0.00     0.031 C 
ATOM     60  C   UNL A   1      46.409  26.905  30.150  1.00  0.00     0.031 A 
BRANCH  47  61
ATOM     61  C   UNL A   1      43.971  32.434  31.428  1.00  0.00    -0.014 A 
ATOM     62  C   UNL A   1      43.759  32.733  32.783  1.00  0.00     0.009 A 
ATOM     63  C   UNL A   1      44.391  33.456  30.563  1.00  0.00     0.009 A 
ATOM     64  C   UNL A   1      43.925  34.037  33.254  1.00  0.00     0.001 A 
ATOM     65  C   UNL A   1      44.585  34.752  31.042  1.00  0.00     0.001 A 
ATOM     66  C   UNL A   1      44.341  35.044  32.384  1.00  0.00     0.000 A 
ENDBRANCH  47  61
BRANCH  48  67
ATOM     67  C   UNL A   1      42.233  23.413  27.514  1.00  0.00    -0.014 A 
ATOM     68  C   UNL A   1      41.674  22.383  28.285  1.00  0.00     0.009 A 
ATOM     69  C   UNL A   1      42.572  23.154  26.178  1.00  0.00     0.009 A 
ATOM     70  C   UNL A   1      41.487  21.111  27.739  1.00  0.00     0.001 A 
ATOM     71  C   UNL A   1      42.359  21.888  25.626  1.00  0.00     0.001 A 
ATOM     72  C   UNL A   1      41.827  20.865  26.410  1.00  0.00     0.000 A 
ENDBRANCH  48  67
BRANCH  60  73
ATOM     73  C   UNL A   1      47.795  26.403  30.429  1.00  0.00    -0.014 A 
ATOM     74  C   UNL A   1      48.124  25.823  31.662  1.00  0.00     0.009 A 
ATOM     75  C   UNL A   1      48.772  26.473  29.422  1.00  0.00     0.009 A 
ATOM     76  C   UNL A   1      49.415  25.346  31.893  1.00  0.00     0.001 A 
ATOM     77  C   UNL A   1      50.054  25.972  29.649  1.00  0.00     0.001 A 
ATOM     78  C   UNL A   1      50.376  25.416  30.885  1.00  0.00     0.000 A 
ENDBRANCH  60  73
ENDBRANCH  34  35
ENDBRANCH  26  29
ENDBRANCH  24  25
ENDBRANCH  23  24
ENDBRANCH   1  23
TORSDOF 13
ENDMDL
MODEL 3
REMARK VINA RESULT:     -10.5      1.887      6.638
REMARK SMILES C[C@H]1SCCC[C@]1(Nc1ccc(Cl)cc1)C(=O)NCCCCNC(=O)c1ccc(-c2c3nc(c(-c4ccccc4)c4ccc([nH]4)c(-c4ccccc4)c4nc(c(-c5ccccc5)c5ccc2[nH]5)C=C4)C=C3)cc1
REMARK SMILES IDX 20 1 19 2 18 3 16 4 17 5 7 7 1 8 2 9 3 10 4 11 6 12 5 13
REMARK SMILES IDX 8 14 9 16 10 17 15 18 11 19 14 20 12 21 13 22 21 23 22 24
REMARK SMILES IDX 23 25 24 26 25 28 26 29 27 30 73 31 28 32 72 33 29 34 30 35
REMARK SMILES IDX 31 36 66 37 32 38 71 39 65 40 67 41 33 42 70 43 64 44 63 45
REMARK SMILES IDX 34 47 56 48 41 49 55 50 42 51 45 52 54 53 68 54 43 55 44 56
REMARK SMILES IDX 53 58 69 59 46 60 35 61 36 62 40 63 37 64 39 65 38 66 57 67
REMARK SMILES IDX 58 68 62 69 59 70 61 71 60 72 47 73 48 74 52 75 49 76 51 77
REMARK SMILES IDX 50 78
REMARK H PARENT 18 6 8 15 23 27 67 46 45 57
REMARK Flexibility Score: inf
ROOT
ATOM      1  C   UNL A   1      36.644  22.028  24.310  1.00  0.00     0.023 C 
ENDROOT
BRANCH   1   2
ATOM      2  C   UNL A   1      36.313  23.299  25.091  1.00  0.00     0.116 C 
BRANCH   2   3
ATOM      3  N   UNL A   1      35.716  22.975  26.370  1.00  0.00    -0.354 N 
ATOM      4  C   UNL A   1      34.429  23.031  26.813  1.00  0.00     0.246 C 
ATOM      5  O   UNL A   1      34.276  22.643  27.980  1.00  0.00    -0.272 OA
ATOM      6  H   UNL A   1      36.358  22.656  27.043  1.00  0.00     0.163 HD
BRANCH   4   7
ATOM      7  C   UNL A   1      33.206  23.570  25.973  1.00  0.00     0.128 C 
ATOM      8  C   UNL A   1      34.329  25.894  25.353  1.00  0.00     0.022 C 
ATOM      9  C   UNL A   1      33.183  25.146  26.029  1.00  0.00     0.078 C 
ATOM     10  S   UNL A   1      31.675  25.871  25.249  1.00  0.00    -0.156 SA
ATOM     11  C   UNL A   1      30.446  25.081  26.303  1.00  0.00     0.070 C 
ATOM     12  C   UNL A   1      31.914  23.041  26.688  1.00  0.00     0.040 C 
ATOM     13  C   UNL A   1      30.573  23.574  26.182  1.00  0.00     0.014 C 
BRANCH   7  14
ATOM     14  N   UNL A   1      33.193  23.102  24.562  1.00  0.00    -0.370 N 
ATOM     15  H   UNL A   1      33.485  23.762  23.893  1.00  0.00     0.161 HD
BRANCH  14  16
ATOM     16  C   UNL A   1      32.830  21.867  24.061  1.00  0.00     0.035 A 
ATOM     17  C   UNL A   1      33.162  20.644  24.653  1.00  0.00     0.027 A 
ATOM     18  C   UNL A   1      32.224  21.825  22.793  1.00  0.00     0.027 A 
ATOM     19  C   UNL A   1      32.923  19.427  24.001  1.00  0.00     0.022 A 
ATOM     20  C   UNL A   1      32.004  20.616  22.123  1.00  0.00     0.022 A 
ATOM     21  C   UNL A   1      32.363  19.420  22.729  1.00  0.00     0.041 A 
ATOM     22  Cl  UNL A   1      32.145  17.932  21.894  1.00  0.00    -0.084 Cl
ENDBRANCH  14  16
ENDBRANCH   7  14
ENDBRANCH   4   7
ENDBRANCH   2   3
ENDBRANCH   1   2
BRANCH   1  23
ATOM     23  C   UNL A   1      37.218  20.902  25.161  1.00  0.00     0.023 C 
BRANCH  23  24
ATOM     24  C   UNL A   1      38.610  21.172  25.709  1.00  0.00     0.116 C 
BRANCH  24  25
ATOM     25  N   UNL A   1      39.488  20.010  25.658  1.00  0.00    -0.352 N 
ATOM     26  C   UNL A   1      40.819  19.923  25.998  1.00  0.00     0.251 C 
ATOM     27  H   UNL A   1      39.074  19.177  25.336  1.00  0.00     0.163 HD
ATOM     28  O   UNL A   1      41.457  18.902  25.797  1.00  0.00    -0.269 OA
BRANCH  26  29
ATOM     29  C   UNL A   1      41.468  21.114  26.581  1.00  0.00     0.039 A 
ATOM     30  C   UNL A   1      42.025  22.068  25.728  1.00  0.00     0.014 A 
ATOM     31  C   UNL A   1      41.430  21.320  27.961  1.00  0.00     0.014 A 
ATOM     32  C   UNL A   1      42.475  23.276  26.259  1.00  0.00     0.010 A 
ATOM     33  C   UNL A   1      41.792  22.557  28.473  1.00  0.00     0.010 A 
ATOM     34  C   UNL A   1      42.321  23.545  27.629  1.00  0.00    -0.014 A 
BRANCH  34  35
ATOM     35  C   UNL A   1      42.720  24.848  28.214  1.00  0.00     0.031 A 
ATOM     36  C   UNL A   1      41.680  25.909  28.440  1.00  0.00     0.074 A 
ATOM     37  C   UNL A   1      44.019  25.105  28.463  1.00  0.00     0.049 A 
ATOM     38  N   UNL A   1      41.833  27.143  28.845  1.00  0.00    -0.248 NA
ATOM     39  C   UNL A   1      40.286  25.545  28.132  1.00  0.00     0.031 C 
ATOM     40  C   UNL A   1      45.132  24.179  28.239  1.00  0.00     0.029 A 
ATOM     41  N   UNL A   1      44.624  26.235  28.954  1.00  0.00    -0.354 N 
ATOM     42  C   UNL A   1      40.564  27.708  28.808  1.00  0.00     0.074 A 
ATOM     43  C   UNL A   1      39.663  26.702  28.294  1.00  0.00     0.031 C 
ATOM     44  C   UNL A   1      46.278  24.767  28.621  1.00  0.00     0.029 A 
ATOM     45  C   UNL A   1      45.987  26.120  29.080  1.00  0.00     0.049 A 
ATOM     46  H   UNL A   1      44.128  27.051  29.193  1.00  0.00     0.167 HD
ATOM     47  C   UNL A   1      40.179  28.948  29.191  1.00  0.00     0.031 A 
ATOM     48  C   UNL A   1      46.898  27.009  29.517  1.00  0.00     0.031 A 
ATOM     49  C   UNL A   1      41.067  29.934  29.738  1.00  0.00     0.049 A 
ATOM     50  C   UNL A   1      46.441  28.370  29.961  1.00  0.00     0.074 A 
ATOM     51  C   UNL A   1      40.763  31.194  30.222  1.00  0.00     0.029 A 
ATOM     52  N   UNL A   1      42.435  29.766  29.881  1.00  0.00    -0.354 N 
ATOM     53  N   UNL A   1      45.229  28.868  29.981  1.00  0.00    -0.248 NA
ATOM     54  C   UNL A   1      47.478  29.289  30.452  1.00  0.00     0.031 C 
ATOM     55  C   UNL A   1      41.956  31.803  30.627  1.00  0.00     0.029 A 
ATOM     56  C   UNL A   1      42.993  30.905  30.434  1.00  0.00     0.049 A 
ATOM     57  H   UNL A   1      42.935  28.957  29.626  1.00  0.00     0.167 HD
ATOM     58  C   UNL A   1      45.352  30.145  30.512  1.00  0.00     0.074 A 
ATOM     59  C   UNL A   1      46.756  30.341  30.812  1.00  0.00     0.031 C 
ATOM     60  C   UNL A   1      44.391  31.074  30.731  1.00  0.00     0.031 A 
BRANCH  47  61
ATOM     61  C   UNL A   1      38.726  29.294  29.033  1.00  0.00    -0.014 A 
ATOM     62  C   UNL A   1      38.228  29.800  27.822  1.00  0.00     0.009 A 
ATOM     63  C   UNL A   1      37.840  29.097  30.104  1.00  0.00     0.009 A 
ATOM     64  C   UNL A   1      36.879  30.140  27.698  1.00  0.00     0.001 A 
ATOM     65  C   UNL A   1      36.487  29.410  29.968  1.00  0.00     0.001 A 
ATOM     66  C   UNL A   1      36.010  29.941  28.770  1.00  0.00     0.000 A 
ENDBRANCH  47  61
BRANCH  48  67
ATOM     67  C   UNL A   1      48.335  26.636  29.586  1.00  0.00    -0.014 A 
ATOM     68  C   UNL A   1      49.190  26.906  28.506  1.00  0.00     0.009 A 
ATOM     69  C   UNL A   1      48.857  25.999  30.722  1.00  0.00     0.009 A 
ATOM     70  C   UNL A   1      50.531  26.521  28.550  1.00  0.00     0.001 A 
ATOM     71  C   UNL A   1      50.206  25.638  30.774  1.00  0.00     0.001 A 
ATOM     72  C   UNL A   1      51.039  25.890  29.685  1.00  0.00     0.000 A 
ENDBRANCH  48  67
BRANCH  60  73
ATOM     73  C   UNL A   1      44.819  32.369  31.357  1.00  0.00    -0.014 A 
ATOM     74  C   UNL A   1      44.843  32.531  32.750  1.00  0.00     0.009 A 
ATOM     75  C   UNL A   1      45.249  33.425  30.538  1.00  0.00     0.009 A 
ATOM     76  C   UNL A   1      45.264  33.737  33.311  1.00  0.00     0.001 A 
ATOM     77  C   UNL A   1      45.692  34.621  31.103  1.00  0.00     0.001 A 
ATOM     78  C   UNL A   1      45.692  34.779  32.487  1.00  0.00     0.000 A 
ENDBRANCH  60  73
ENDBRANCH  34  35
ENDBRANCH  26  29
ENDBRANCH  24  25
ENDBRANCH  23  24
ENDBRANCH   1  23
TORSDOF 13
ENDMDL
