MODEL 1
REMARK VINA RESULT:     -11.5      0.000      0.000
REMARK SMILES C[C@H](NC(=O)N1CC[C@H](C(=O)NCCCCNC(=O)c2ccc(-c3c4nc(c(-c5ccccc5)c5ccc([nH]5)c(-c5ccccc5)c5nc(c(-c6ccccc6)c6ccc3[nH]6)C=C5)C=C4)cc2)[C@H]1C)c1ccsc1
REMARK SMILES IDX 14 1 13 2 12 3 10 4 11 5 9 7 6 8 7 9 68 10 8 11 69 12 4 13
REMARK SMILES IDX 3 14 5 16 2 17 1 18 70 19 71 20 74 21 72 22 73 23 15 24
REMARK SMILES IDX 16 25 17 26 18 27 19 29 20 30 21 31 67 32 22 33 66 34 23 35
REMARK SMILES IDX 24 36 25 37 60 38 26 39 65 40 59 41 61 42 27 43 64 44 58 45
REMARK SMILES IDX 57 46 28 48 50 49 35 50 49 51 36 52 39 53 48 54 62 55 37 56
REMARK SMILES IDX 38 57 47 59 63 60 40 61 29 62 30 63 34 64 31 65 33 66 32 67
REMARK SMILES IDX 51 68 52 69 56 70 53 71 55 72 54 73 41 74 42 75 46 76 43 77
REMARK SMILES IDX 45 78 44 79
REMARK H PARENT 12 6 3 15 17 28 61 47 39 58
REMARK Flexibility Score: inf
ROOT
ATOM      1  C   UNL A   1      37.240  21.346  24.571  1.00  0.00     0.023 C 
ENDROOT
BRANCH   1   2
ATOM      2  C   UNL A   1      36.773  22.143  25.790  1.00  0.00     0.116 C 
BRANCH   2   3
ATOM      3  N   UNL A   1      35.719  21.442  26.500  1.00  0.00    -0.356 N 
ATOM      4  C   UNL A   1      34.377  21.699  26.500  1.00  0.00     0.225 C 
ATOM      5  O   UNL A   1      33.663  21.081  27.285  1.00  0.00    -0.275 OA
ATOM      6  H   UNL A   1      36.009  20.683  27.055  1.00  0.00     0.163 HD
BRANCH   4   7
ATOM      7  C   UNL A   1      33.844  22.689  25.483  1.00  0.00     0.102 C 
ATOM      8  N   UNL A   1      31.690  23.719  25.630  1.00  0.00    -0.321 N 
ATOM      9  C   UNL A   1      31.504  22.350  25.191  1.00  0.00     0.122 C 
ATOM     10  C   UNL A   1      33.065  23.862  26.120  1.00  0.00     0.096 C 
ATOM     11  C   UNL A   1      32.832  21.991  24.565  1.00  0.00     0.037 C 
ATOM     12  C   UNL A   1      33.722  25.181  25.722  1.00  0.00     0.032 C 
BRANCH   8  13
ATOM     13  C   UNL A   1      30.636  24.275  26.299  1.00  0.00     0.318 C 
ATOM     14  N   UNL A   1      30.084  25.402  25.801  1.00  0.00    -0.331 N 
ATOM     15  H   UNL A   1      29.226  25.629  26.230  1.00  0.00     0.165 HD
ATOM     16  O   UNL A   1      30.088  23.723  27.251  1.00  0.00    -0.249 OA
BRANCH  14  17
ATOM     17  C   UNL A   1      30.472  26.357  24.773  1.00  0.00     0.112 C 
ATOM     18  C   UNL A   1      29.405  26.838  23.781  1.00  0.00     0.036 C 
BRANCH  17  19
ATOM     19  C   UNL A   1      31.055  27.558  25.494  1.00  0.00    -0.015 A 
ATOM     20  C   UNL A   1      31.381  27.606  26.890  1.00  0.00     0.017 A 
ATOM     21  C   UNL A   1      31.403  28.749  24.873  1.00  0.00     0.070 A 
ATOM     22  C   UNL A   1      32.000  28.783  27.248  1.00  0.00     0.065 A 
ATOM     23  S   UNL A   1      32.153  29.858  25.930  1.00  0.00    -0.152 S 
ENDBRANCH  17  19
ENDBRANCH  14  17
ENDBRANCH   8  13
ENDBRANCH   4   7
ENDBRANCH   2   3
ENDBRANCH   1   2
BRANCH   1  24
ATOM     24  C   UNL A   1      38.054  20.094  24.911  1.00  0.00     0.023 C 
BRANCH  24  25
ATOM     25  C   UNL A   1      39.246  20.331  25.829  1.00  0.00     0.116 C 
BRANCH  25  26
ATOM     26  N   UNL A   1      40.154  19.199  25.892  1.00  0.00    -0.352 N 
ATOM     27  C   UNL A   1      41.512  19.209  26.120  1.00  0.00     0.251 C 
ATOM     28  H   UNL A   1      39.748  18.312  25.754  1.00  0.00     0.163 HD
ATOM     29  O   UNL A   1      42.171  18.186  26.037  1.00  0.00    -0.269 OA
BRANCH  27  30
ATOM     30  C   UNL A   1      42.165  20.498  26.430  1.00  0.00     0.039 A 
ATOM     31  C   UNL A   1      42.622  21.293  25.377  1.00  0.00     0.014 A 
ATOM     32  C   UNL A   1      42.274  20.937  27.753  1.00  0.00     0.014 A 
ATOM     33  C   UNL A   1      43.133  22.564  25.647  1.00  0.00     0.010 A 
ATOM     34  C   UNL A   1      42.718  22.228  28.013  1.00  0.00     0.010 A 
ATOM     35  C   UNL A   1      43.152  23.053  26.964  1.00  0.00    -0.014 A 
BRANCH  35  36
ATOM     36  C   UNL A   1      43.638  24.420  27.275  1.00  0.00     0.031 A 
ATOM     37  C   UNL A   1      42.662  25.476  27.713  1.00  0.00     0.074 A 
ATOM     38  C   UNL A   1      44.937  24.730  27.100  1.00  0.00     0.049 A 
ATOM     39  N   UNL A   1      42.867  26.750  27.934  1.00  0.00    -0.248 NA
ATOM     40  C   UNL A   1      41.266  25.048  27.904  1.00  0.00     0.031 C 
ATOM     41  C   UNL A   1      45.982  23.803  26.659  1.00  0.00     0.029 A 
ATOM     42  N   UNL A   1      45.599  25.921  27.266  1.00  0.00    -0.354 N 
ATOM     43  C   UNL A   1      41.626  27.276  28.272  1.00  0.00     0.074 A 
ATOM     44  C   UNL A   1      40.666  26.198  28.175  1.00  0.00     0.031 C 
ATOM     45  C   UNL A   1      47.157  24.455  26.613  1.00  0.00     0.029 A 
ATOM     46  C   UNL A   1      46.941  25.850  26.977  1.00  0.00     0.049 A 
ATOM     47  H   UNL A   1      45.155  26.748  27.563  1.00  0.00     0.167 HD
ATOM     48  C   UNL A   1      41.314  28.538  28.650  1.00  0.00     0.031 A 
ATOM     49  C   UNL A   1      47.888  26.808  26.996  1.00  0.00     0.031 A 
ATOM     50  C   UNL A   1      42.267  29.609  28.756  1.00  0.00     0.049 A 
ATOM     51  C   UNL A   1      47.508  28.210  27.386  1.00  0.00     0.074 A 
ATOM     52  C   UNL A   1      42.056  30.915  29.161  1.00  0.00     0.029 A 
ATOM     53  N   UNL A   1      43.616  29.494  28.458  1.00  0.00    -0.354 N 
ATOM     54  N   UNL A   1      46.339  28.681  27.744  1.00  0.00    -0.248 NA
ATOM     55  C   UNL A   1      48.585  29.212  27.380  1.00  0.00     0.031 C 
ATOM     56  C   UNL A   1      43.270  31.602  29.070  1.00  0.00     0.029 A 
ATOM     57  C   UNL A   1      44.247  30.709  28.659  1.00  0.00     0.049 A 
ATOM     58  H   UNL A   1      44.058  28.671  28.150  1.00  0.00     0.167 HD
ATOM     59  C   UNL A   1      46.547  30.021  28.045  1.00  0.00     0.074 A 
ATOM     60  C   UNL A   1      47.955  30.286  27.834  1.00  0.00     0.031 C 
ATOM     61  C   UNL A   1      45.651  30.950  28.461  1.00  0.00     0.031 A 
BRANCH  48  62
ATOM     62  C   UNL A   1      39.876  28.823  28.980  1.00  0.00    -0.014 A 
ATOM     63  C   UNL A   1      38.987  29.290  27.998  1.00  0.00     0.009 A 
ATOM     64  C   UNL A   1      39.394  28.597  30.278  1.00  0.00     0.009 A 
ATOM     65  C   UNL A   1      37.655  29.560  28.318  1.00  0.00     0.001 A 
ATOM     66  C   UNL A   1      38.055  28.837  30.588  1.00  0.00     0.001 A 
ATOM     67  C   UNL A   1      37.190  29.328  29.612  1.00  0.00     0.000 A 
ENDBRANCH  48  62
BRANCH  49  68
ATOM     68  C   UNL A   1      49.296  26.479  26.649  1.00  0.00    -0.014 A 
ATOM     69  C   UNL A   1      49.769  26.675  25.342  1.00  0.00     0.009 A 
ATOM     70  C   UNL A   1      50.166  25.943  27.612  1.00  0.00     0.009 A 
ATOM     71  C   UNL A   1      51.071  26.308  24.998  1.00  0.00     0.001 A 
ATOM     72  C   UNL A   1      51.478  25.605  27.271  1.00  0.00     0.001 A 
ATOM     73  C   UNL A   1      51.926  25.777  25.962  1.00  0.00     0.000 A 
ENDBRANCH  49  68
BRANCH  61  74
ATOM     74  C   UNL A   1      46.176  32.322  28.773  1.00  0.00    -0.014 A 
ATOM     75  C   UNL A   1      46.666  32.648  30.046  1.00  0.00     0.009 A 
ATOM     76  C   UNL A   1      46.225  33.288  27.755  1.00  0.00     0.009 A 
ATOM     77  C   UNL A   1      47.168  33.925  30.302  1.00  0.00     0.001 A 
ATOM     78  C   UNL A   1      46.753  34.556  28.007  1.00  0.00     0.001 A 
ATOM     79  C   UNL A   1      47.215  34.875  29.282  1.00  0.00     0.000 A 
ENDBRANCH  61  74
ENDBRANCH  35  36
ENDBRANCH  27  30
ENDBRANCH  25  26
ENDBRANCH  24  25
ENDBRANCH   1  24
TORSDOF 14
ENDMDL
MODEL 2
REMARK VINA RESULT:     -11.4      1.924      6.266
REMARK SMILES C[C@H](NC(=O)N1CC[C@H](C(=O)NCCCCNC(=O)c2ccc(-c3c4nc(c(-c5ccccc5)c5ccc([nH]5)c(-c5ccccc5)c5nc(c(-c6ccccc6)c6ccc3[nH]6)C=C5)C=C4)cc2)[C@H]1C)c1ccsc1
REMARK SMILES IDX 14 1 13 2 12 3 10 4 11 5 9 7 6 8 7 9 68 10 8 11 69 12 4 13
REMARK SMILES IDX 3 14 5 16 2 17 1 18 70 19 71 20 74 21 72 22 73 23 15 24
REMARK SMILES IDX 16 25 17 26 18 27 19 29 20 30 21 31 67 32 22 33 66 34 23 35
REMARK SMILES IDX 24 36 25 37 60 38 26 39 65 40 59 41 61 42 27 43 64 44 58 45
REMARK SMILES IDX 57 46 28 48 50 49 35 50 49 51 36 52 39 53 48 54 62 55 37 56
REMARK SMILES IDX 38 57 47 59 63 60 40 61 29 62 30 63 34 64 31 65 33 66 32 67
REMARK SMILES IDX 51 68 52 69 56 70 53 71 55 72 54 73 41 74 42 75 46 76 43 77
REMARK SMILES IDX 45 78 44 79
REMARK H PARENT 12 6 3 15 17 28 61 47 39 58
REMARK Flexibility Score: inf
ROOT
ATOM      1  C   UNL A   1      36.416  20.796  24.945  1.00  0.00     0.023 C 
ENDROOT
BRANCH   1   2
ATOM      2  C   UNL A   1      36.511  21.947  25.947  1.00  0.00     0.116 C 
BRANCH   2   3
ATOM      3  N   UNL A   1      35.408  21.911  26.890  1.00  0.00    -0.356 N 
ATOM      4  C   UNL A   1      34.285  22.689  26.916  1.00  0.00     0.225 C 
ATOM      5  O   UNL A   1      33.535  22.603  27.884  1.00  0.00    -0.275 OA
ATOM      6  H   UNL A   1      35.478  21.238  27.605  1.00  0.00     0.163 HD
BRANCH   4   7
ATOM      7  C   UNL A   1      34.003  23.567  25.712  1.00  0.00     0.102 C 
ATOM      8  N   UNL A   1      31.905  24.648  25.316  1.00  0.00    -0.321 N 
ATOM      9  C   UNL A   1      31.753  23.241  24.999  1.00  0.00     0.122 C 
ATOM     10  C   UNL A   1      33.162  24.819  26.051  1.00  0.00     0.096 C 
ATOM     11  C   UNL A   1      33.162  22.788  24.692  1.00  0.00     0.037 C 
ATOM     12  C   UNL A   1      33.938  26.072  25.652  1.00  0.00     0.032 C 
BRANCH   8  13
ATOM     13  C   UNL A   1      30.764  25.296  25.698  1.00  0.00     0.318 C 
ATOM     14  N   UNL A   1      30.314  26.308  24.926  1.00  0.00    -0.331 N 
ATOM     15  H   UNL A   1      29.401  26.594  25.164  1.00  0.00     0.165 HD
ATOM     16  O   UNL A   1      30.064  24.913  26.632  1.00  0.00    -0.249 OA
BRANCH  14  17
ATOM     17  C   UNL A   1      30.874  27.071  23.820  1.00  0.00     0.112 C 
ATOM     18  C   UNL A   1      31.164  26.343  22.501  1.00  0.00     0.036 C 
BRANCH  17  19
ATOM     19  C   UNL A   1      29.915  28.216  23.553  1.00  0.00    -0.015 A 
ATOM     20  C   UNL A   1      30.228  29.608  23.700  1.00  0.00     0.017 A 
ATOM     21  C   UNL A   1      28.623  28.058  23.072  1.00  0.00     0.070 A 
ATOM     22  C   UNL A   1      29.204  30.428  23.281  1.00  0.00     0.065 A 
ATOM     23  S   UNL A   1      27.844  29.542  22.752  1.00  0.00    -0.152 S 
ENDBRANCH  17  19
ENDBRANCH  14  17
ENDBRANCH   8  13
ENDBRANCH   4   7
ENDBRANCH   2   3
ENDBRANCH   1   2
BRANCH   1  24
ATOM     24  C   UNL A   1      37.743  20.076  24.685  1.00  0.00     0.023 C 
BRANCH  24  25
ATOM     25  C   UNL A   1      38.850  20.386  25.685  1.00  0.00     0.116 C 
BRANCH  25  26
ATOM     26  N   UNL A   1      39.881  19.363  25.731  1.00  0.00    -0.352 N 
ATOM     27  C   UNL A   1      41.198  19.500  26.109  1.00  0.00     0.251 C 
ATOM     28  H   UNL A   1      39.604  18.458  25.459  1.00  0.00     0.163 HD
ATOM     29  O   UNL A   1      41.984  18.574  25.995  1.00  0.00    -0.269 OA
BRANCH  27  30
ATOM     30  C   UNL A   1      41.652  20.810  26.621  1.00  0.00     0.039 A 
ATOM     31  C   UNL A   1      42.169  21.744  25.721  1.00  0.00     0.014 A 
ATOM     32  C   UNL A   1      41.516  21.126  27.975  1.00  0.00     0.014 A 
ATOM     33  C   UNL A   1      42.491  23.025  26.169  1.00  0.00     0.010 A 
ATOM     34  C   UNL A   1      41.771  22.423  28.406  1.00  0.00     0.010 A 
ATOM     35  C   UNL A   1      42.262  23.385  27.508  1.00  0.00    -0.014 A 
BRANCH  35  36
ATOM     36  C   UNL A   1      42.543  24.755  28.001  1.00  0.00     0.031 A 
ATOM     37  C   UNL A   1      43.939  25.126  28.418  1.00  0.00     0.074 A 
ATOM     38  C   UNL A   1      41.537  25.641  28.140  1.00  0.00     0.049 A 
ATOM     39  N   UNL A   1      44.371  26.232  28.969  1.00  0.00    -0.248 NA
ATOM     40  C   UNL A   1      44.983  24.108  28.211  1.00  0.00     0.031 C 
ATOM     41  C   UNL A   1      40.135  25.399  27.793  1.00  0.00     0.029 A 
ATOM     42  N   UNL A   1      41.543  26.927  28.620  1.00  0.00    -0.354 N 
ATOM     43  C   UNL A   1      45.729  26.036  29.187  1.00  0.00     0.074 A 
ATOM     44  C   UNL A   1      46.038  24.689  28.762  1.00  0.00     0.031 C 
ATOM     45  C   UNL A   1      39.422  26.509  28.049  1.00  0.00     0.029 A 
ATOM     46  C   UNL A   1      40.304  27.521  28.617  1.00  0.00     0.049 A 
ATOM     47  H   UNL A   1      42.357  27.380  28.937  1.00  0.00     0.167 HD
ATOM     48  C   UNL A   1      46.642  26.905  29.679  1.00  0.00     0.031 A 
ATOM     49  C   UNL A   1      39.923  28.744  29.036  1.00  0.00     0.031 A 
ATOM     50  C   UNL A   1      46.339  28.248  30.095  1.00  0.00     0.049 A 
ATOM     51  C   UNL A   1      40.952  29.677  29.611  1.00  0.00     0.074 A 
ATOM     52  C   UNL A   1      47.201  29.217  30.578  1.00  0.00     0.029 A 
ATOM     53  N   UNL A   1      45.073  28.811  30.072  1.00  0.00    -0.354 N 
ATOM     54  N   UNL A   1      42.239  29.493  29.771  1.00  0.00    -0.248 NA
ATOM     55  C   UNL A   1      40.472  30.995  30.057  1.00  0.00     0.031 C 
ATOM     56  C   UNL A   1      46.449  30.355  30.885  1.00  0.00     0.029 A 
ATOM     57  C   UNL A   1      45.129  30.111  30.544  1.00  0.00     0.049 A 
ATOM     58  H   UNL A   1      44.257  28.355  29.767  1.00  0.00     0.167 HD
ATOM     59  C   UNL A   1      42.730  30.681  30.298  1.00  0.00     0.074 A 
ATOM     60  C   UNL A   1      41.603  31.582  30.422  1.00  0.00     0.031 C 
ATOM     61  C   UNL A   1      44.001  30.999  30.644  1.00  0.00     0.031 A 
BRANCH  48  62
ATOM     62  C   UNL A   1      48.062  26.424  29.791  1.00  0.00    -0.014 A 
ATOM     63  C   UNL A   1      48.516  25.770  30.948  1.00  0.00     0.009 A 
ATOM     64  C   UNL A   1      48.949  26.599  28.718  1.00  0.00     0.009 A 
ATOM     65  C   UNL A   1      49.839  25.335  31.043  1.00  0.00     0.001 A 
ATOM     66  C   UNL A   1      50.263  26.136  28.804  1.00  0.00     0.001 A 
ATOM     67  C   UNL A   1      50.709  25.514  29.969  1.00  0.00     0.000 A 
ENDBRANCH  48  62
BRANCH  49  68
ATOM     68  C   UNL A   1      38.503  29.170  28.917  1.00  0.00    -0.014 A 
ATOM     69  C   UNL A   1      38.014  29.674  27.701  1.00  0.00     0.009 A 
ATOM     70  C   UNL A   1      37.638  29.103  30.021  1.00  0.00     0.009 A 
ATOM     71  C   UNL A   1      36.700  30.134  27.603  1.00  0.00     0.001 A 
ATOM     72  C   UNL A   1      36.315  29.537  29.910  1.00  0.00     0.001 A 
ATOM     73  C   UNL A   1      35.850  30.062  28.705  1.00  0.00     0.000 A 
ENDBRANCH  49  68
BRANCH  61  74
ATOM     74  C   UNL A   1      44.252  32.396  31.136  1.00  0.00    -0.014 A 
ATOM     75  C   UNL A   1      44.542  33.443  30.250  1.00  0.00     0.009 A 
ATOM     76  C   UNL A   1      44.147  32.672  32.508  1.00  0.00     0.009 A 
ATOM     77  C   UNL A   1      44.751  34.737  30.732  1.00  0.00     0.001 A 
ATOM     78  C   UNL A   1      44.328  33.972  32.985  1.00  0.00     0.001 A 
ATOM     79  C   UNL A   1      44.639  35.000  32.098  1.00  0.00     0.000 A 
ENDBRANCH  61  74
ENDBRANCH  35  36
ENDBRANCH  27  30
ENDBRANCH  25  26
ENDBRANCH  24  25
ENDBRANCH   1  24
TORSDOF 14
ENDMDL
MODEL 3
REMARK VINA RESULT:     -11.4      1.189      6.054
REMARK SMILES C[C@H](NC(=O)N1CC[C@H](C(=O)NCCCCNC(=O)c2ccc(-c3c4nc(c(-c5ccccc5)c5ccc([nH]5)c(-c5ccccc5)c5nc(c(-c6ccccc6)c6ccc3[nH]6)C=C5)C=C4)cc2)[C@H]1C)c1ccsc1
REMARK SMILES IDX 14 1 13 2 12 3 10 4 11 5 9 7 6 8 7 9 68 10 8 11 69 12 4 13
REMARK SMILES IDX 3 14 5 16 2 17 1 18 70 19 71 20 74 21 72 22 73 23 15 24
REMARK SMILES IDX 16 25 17 26 18 27 19 29 20 30 21 31 67 32 22 33 66 34 23 35
REMARK SMILES IDX 24 36 25 37 60 38 26 39 65 40 59 41 61 42 27 43 64 44 58 45
REMARK SMILES IDX 57 46 28 48 50 49 35 50 49 51 36 52 39 53 48 54 62 55 37 56
REMARK SMILES IDX 38 57 47 59 63 60 40 61 29 62 30 63 34 64 31 65 33 66 32 67
REMARK SMILES IDX 51 68 52 69 56 70 53 71 55 72 54 73 41 74 42 75 46 76 43 77
REMARK SMILES IDX 45 78 44 79
REMARK H PARENT 12 6 3 15 17 28 61 47 39 58
REMARK Flexibility Score: inf
ROOT
ATOM      1  C   UNL A   1      37.413  21.220  24.592  1.00  0.00     0.023 C 
ENDROOT
BRANCH   1   2
ATOM      2  C   UNL A   1      36.421  21.644  25.675  1.00  0.00     0.116 C 
BRANCH   2   3
ATOM      3  N   UNL A   1      35.290  20.736  25.732  1.00  0.00    -0.356 N 
ATOM      4  C   UNL A   1      33.983  20.983  25.420  1.00  0.00     0.225 C 
ATOM      5  O   UNL A   1      33.147  20.122  25.676  1.00  0.00    -0.275 OA
ATOM      6  H   UNL A   1      35.491  19.821  26.037  1.00  0.00     0.163 HD
BRANCH   4   7
ATOM      7  C   UNL A   1      33.657  22.287  24.717  1.00  0.00     0.102 C 
ATOM      8  N   UNL A   1      31.846  23.719  25.343  1.00  0.00    -0.321 N 
ATOM      9  C   UNL A   1      31.294  22.579  24.638  1.00  0.00     0.122 C 
ATOM     10  C   UNL A   1      33.239  23.417  25.685  1.00  0.00     0.096 C 
ATOM     11  C   UNL A   1      32.448  22.085  23.795  1.00  0.00     0.037 C 
ATOM     12  C   UNL A   1      34.182  24.604  25.513  1.00  0.00     0.032 C 
BRANCH   8  13
ATOM     13  C   UNL A   1      31.009  24.324  26.238  1.00  0.00     0.318 C 
ATOM     14  N   UNL A   1      30.467  25.515  25.904  1.00  0.00    -0.331 N 
ATOM     15  H   UNL A   1      29.742  25.789  26.513  1.00  0.00     0.165 HD
ATOM     16  O   UNL A   1      30.626  23.771  27.267  1.00  0.00    -0.249 OA
BRANCH  14  17
ATOM     17  C   UNL A   1      30.714  26.485  24.847  1.00  0.00     0.112 C 
ATOM     18  C   UNL A   1      29.526  26.966  24.003  1.00  0.00     0.036 C 
BRANCH  17  19
ATOM     19  C   UNL A   1      31.372  27.683  25.503  1.00  0.00    -0.015 A 
ATOM     20  C   UNL A   1      31.481  27.895  26.918  1.00  0.00     0.017 A 
ATOM     21  C   UNL A   1      32.008  28.704  24.809  1.00  0.00     0.070 A 
ATOM     22  C   UNL A   1      32.227  29.011  27.230  1.00  0.00     0.065 A 
ATOM     23  S   UNL A   1      32.762  29.840  25.836  1.00  0.00    -0.152 S 
ENDBRANCH  17  19
ENDBRANCH  14  17
ENDBRANCH   8  13
ENDBRANCH   4   7
ENDBRANCH   2   3
ENDBRANCH   1   2
BRANCH   1  24
ATOM     24  C   UNL A   1      38.214  19.959  24.929  1.00  0.00     0.023 C 
BRANCH  24  25
ATOM     25  C   UNL A   1      39.273  20.139  26.010  1.00  0.00     0.116 C 
BRANCH  25  26
ATOM     26  N   UNL A   1      40.347  19.163  25.927  1.00  0.00    -0.352 N 
ATOM     27  C   UNL A   1      41.696  19.366  26.111  1.00  0.00     0.251 C 
ATOM     28  H   UNL A   1      40.075  18.241  25.713  1.00  0.00     0.163 HD
ATOM     29  O   UNL A   1      42.499  18.473  25.903  1.00  0.00    -0.269 OA
BRANCH  27  30
ATOM     30  C   UNL A   1      42.157  20.707  26.530  1.00  0.00     0.039 A 
ATOM     31  C   UNL A   1      42.569  21.614  25.552  1.00  0.00     0.014 A 
ATOM     32  C   UNL A   1      42.129  21.075  27.877  1.00  0.00     0.014 A 
ATOM     33  C   UNL A   1      42.894  22.920  25.920  1.00  0.00     0.010 A 
ATOM     34  C   UNL A   1      42.385  22.395  28.233  1.00  0.00     0.010 A 
ATOM     35  C   UNL A   1      42.771  23.329  27.259  1.00  0.00    -0.014 A 
BRANCH  35  36
ATOM     36  C   UNL A   1      43.056  24.726  27.672  1.00  0.00     0.031 A 
ATOM     37  C   UNL A   1      44.476  25.157  27.908  1.00  0.00     0.074 A 
ATOM     38  C   UNL A   1      42.041  25.581  27.901  1.00  0.00     0.049 A 
ATOM     39  N   UNL A   1      44.928  26.296  28.368  1.00  0.00    -0.248 NA
ATOM     40  C   UNL A   1      45.526  24.169  27.611  1.00  0.00     0.031 C 
ATOM     41  C   UNL A   1      40.618  25.280  27.730  1.00  0.00     0.029 A 
ATOM     42  N   UNL A   1      42.055  26.883  28.336  1.00  0.00    -0.354 N 
ATOM     43  C   UNL A   1      46.309  26.154  28.430  1.00  0.00     0.074 A 
ATOM     44  C   UNL A   1      46.617  24.804  28.013  1.00  0.00     0.031 C 
ATOM     45  C   UNL A   1      39.899  26.374  28.034  1.00  0.00     0.029 A 
ATOM     46  C   UNL A   1      40.803  27.435  28.461  1.00  0.00     0.049 A 
ATOM     47  H   UNL A   1      42.884  27.374  28.540  1.00  0.00     0.167 HD
ATOM     48  C   UNL A   1      47.241  27.071  28.783  1.00  0.00     0.031 A 
ATOM     49  C   UNL A   1      40.428  28.658  28.884  1.00  0.00     0.031 A 
ATOM     50  C   UNL A   1      46.938  28.416  29.188  1.00  0.00     0.049 A 
ATOM     51  C   UNL A   1      41.482  29.646  29.303  1.00  0.00     0.074 A 
ATOM     52  C   UNL A   1      47.814  29.430  29.535  1.00  0.00     0.029 A 
ATOM     53  N   UNL A   1      45.658  28.935  29.298  1.00  0.00    -0.354 N 
ATOM     54  N   UNL A   1      42.785  29.511  29.314  1.00  0.00    -0.248 NA
ATOM     55  C   UNL A   1      41.008  30.961  29.760  1.00  0.00     0.031 C 
ATOM     56  C   UNL A   1      47.061  30.553  29.893  1.00  0.00     0.029 A 
ATOM     57  C   UNL A   1      45.720  30.253  29.719  1.00  0.00     0.049 A 
ATOM     58  H   UNL A   1      44.829  28.441  29.106  1.00  0.00     0.167 HD
ATOM     59  C   UNL A   1      43.289  30.733  29.741  1.00  0.00     0.074 A 
ATOM     60  C   UNL A   1      42.151  31.600  29.970  1.00  0.00     0.031 C 
ATOM     61  C   UNL A   1      44.579  31.105  29.924  1.00  0.00     0.031 A 
BRANCH  48  62
ATOM     62  C   UNL A   1      48.680  26.641  28.740  1.00  0.00    -0.014 A 
ATOM     63  C   UNL A   1      49.317  26.127  29.881  1.00  0.00     0.009 A 
ATOM     64  C   UNL A   1      49.403  26.724  27.540  1.00  0.00     0.009 A 
ATOM     65  C   UNL A   1      50.657  25.740  29.831  1.00  0.00     0.001 A 
ATOM     66  C   UNL A   1      50.733  26.307  27.485  1.00  0.00     0.001 A 
ATOM     67  C   UNL A   1      51.362  25.825  28.632  1.00  0.00     0.000 A 
ENDBRANCH  48  62
BRANCH  49  68
ATOM     68  C   UNL A   1      38.989  29.032  28.920  1.00  0.00    -0.014 A 
ATOM     69  C   UNL A   1      38.235  28.836  30.088  1.00  0.00     0.009 A 
ATOM     70  C   UNL A   1      38.355  29.559  27.783  1.00  0.00     0.009 A 
ATOM     71  C   UNL A   1      36.870  29.127  30.106  1.00  0.00     0.001 A 
ATOM     72  C   UNL A   1      36.995  29.876  27.815  1.00  0.00     0.001 A 
ATOM     73  C   UNL A   1      36.251  29.650  28.972  1.00  0.00     0.000 A 
ENDBRANCH  49  68
BRANCH  61  74
ATOM     74  C   UNL A   1      44.834  32.526  30.338  1.00  0.00    -0.014 A 
ATOM     75  C   UNL A   1      44.942  32.889  31.688  1.00  0.00     0.009 A 
ATOM     76  C   UNL A   1      45.018  33.508  29.351  1.00  0.00     0.009 A 
ATOM     77  C   UNL A   1      45.200  34.214  32.044  1.00  0.00     0.001 A 
ATOM     78  C   UNL A   1      45.304  34.827  29.709  1.00  0.00     0.001 A 
ATOM     79  C   UNL A   1      45.386  35.180  31.055  1.00  0.00     0.000 A 
ENDBRANCH  61  74
ENDBRANCH  35  36
ENDBRANCH  27  30
ENDBRANCH  25  26
ENDBRANCH  24  25
ENDBRANCH   1  24
TORSDOF 14
ENDMDL
