MODEL 1
REMARK VINA RESULT:     -12.6      0.000      0.000
REMARK SMILES Cc1c(CC(=O)N[C@H](CO)C(=O)NCCCCNC(=O)c2ccc(-c3c4nc(c(-c5ccccc5)c5ccc([nH]5)c(-c5ccccc5)c5nc(c(-c6ccccc6)c6ccc3[nH]6)C=C5)C=C4)cc2)cc(-c2ccc(S(C)(=O)=O)cc2)n1-c1ccc(F)cc1
REMARK SMILES IDX 14 1 13 2 11 3 12 4 8 6 7 7 5 8 6 9 4 11 3 12 1 13 2 14
REMARK SMILES IDX 81 15 69 16 70 17 82 18 83 19 88 20 84 21 87 22 85 23 86 24
REMARK SMILES IDX 71 25 72 26 80 27 73 28 79 29 74 30 75 31 76 32 77 33 78 34
REMARK SMILES IDX 9 35 10 36 15 38 16 39 17 40 18 41 19 42 20 44 21 45 22 46
REMARK SMILES IDX 68 47 23 48 67 49 24 50 25 51 26 52 61 53 27 54 66 55 60 56
REMARK SMILES IDX 62 57 28 58 65 59 59 60 58 61 29 63 51 64 36 65 50 66 37 67
REMARK SMILES IDX 40 68 49 69 63 70 38 71 39 72 48 74 64 75 41 76 30 77 31 78
REMARK SMILES IDX 35 79 32 80 34 81 33 82 52 83 53 84 57 85 54 86 56 87 55 88
REMARK SMILES IDX 42 89 43 90 47 91 44 92 46 93 45 94
REMARK H PARENT 13 5 7 10 10 37 18 43 62 62 40 73
REMARK Flexibility Score: inf
ROOT
ATOM      1  C   UNL A   1      38.072  20.674  25.301  1.00  0.00     0.116 C 
ENDROOT
BRANCH   1   2
ATOM      2  N   UNL A   1      36.575  20.534  25.264  1.00  0.00    -0.354 N 
ATOM      3  C   UNL A   1      35.376  20.927  24.747  1.00  0.00     0.244 C 
ATOM      4  O   UNL A   1      34.506  20.085  25.064  1.00  0.00    -0.273 OA
ATOM      5  H   UNL A   1      36.361  19.829  25.916  1.00  0.00     0.163 HD
BRANCH   3   6
ATOM      6  C   UNL A   1      34.809  22.227  23.981  1.00  0.00     0.197 C 
BRANCH   6   7
ATOM      7  N   UNL A   1      33.762  22.241  22.960  1.00  0.00    -0.342 N 
ATOM      8  C   UNL A   1      32.462  21.885  23.197  1.00  0.00     0.225 C 
ATOM      9  O   UNL A   1      31.827  21.278  22.337  1.00  0.00    -0.275 OA
ATOM     10  H   UNL A   1      34.006  22.522  22.049  1.00  0.00     0.164 HD
BRANCH   8  11
ATOM     11  C   UNL A   1      31.843  22.420  24.451  1.00  0.00     0.137 C 
BRANCH  11  12
ATOM     12  C   UNL A   1      31.633  23.900  24.611  1.00  0.00    -0.017 A 
ATOM     13  C   UNL A   1      33.569  24.282  26.249  1.00  0.00     0.065 C 
ATOM     14  C   UNL A   1      32.428  24.720  25.390  1.00  0.00     0.024 A 
ATOM     15  N   UNL A   1      31.927  26.016  25.338  1.00  0.00    -0.314 N 
ATOM     16  C   UNL A   1      30.550  24.735  24.196  1.00  0.00     0.033 A 
ATOM     17  C   UNL A   1      30.808  26.048  24.517  1.00  0.00     0.053 A 
BRANCH  15  18
ATOM     18  C   UNL A   1      32.459  27.137  26.009  1.00  0.00     0.046 A 
ATOM     19  C   UNL A   1      33.709  27.642  25.627  1.00  0.00     0.029 A 
ATOM     20  C   UNL A   1      31.743  27.693  27.072  1.00  0.00     0.029 A 
ATOM     21  C   UNL A   1      34.240  28.723  26.321  1.00  0.00     0.041 A 
ATOM     22  C   UNL A   1      32.284  28.769  27.760  1.00  0.00     0.041 A 
ATOM     23  C   UNL A   1      33.524  29.273  27.379  1.00  0.00     0.123 A 
ATOM     24  F   UNL A   1      34.043  30.307  28.053  1.00  0.00    -0.207 F 
ENDBRANCH  15  18
BRANCH  17  25
ATOM     25  C   UNL A   1      30.168  27.258  23.962  1.00  0.00    -0.001 A 
ATOM     26  C   UNL A   1      28.798  27.217  23.659  1.00  0.00     0.011 A 
ATOM     27  C   UNL A   1      30.859  28.465  23.773  1.00  0.00     0.011 A 
ATOM     28  C   UNL A   1      28.141  28.324  23.120  1.00  0.00     0.021 A 
ATOM     29  C   UNL A   1      30.207  29.583  23.222  1.00  0.00     0.021 A 
ATOM     30  C   UNL A   1      28.854  29.497  22.879  1.00  0.00     0.067 A 
BRANCH  30  31
ATOM     31  S   UNL A   1      28.005  30.885  22.158  1.00  0.00     0.175 S 
ATOM     32  C   UNL A   1      29.191  32.207  22.220  1.00  0.00     0.163 C 
ATOM     33  O   UNL A   1      27.784  30.550  20.753  1.00  0.00    -0.224 OA
ATOM     34  O   UNL A   1      26.908  31.240  23.020  1.00  0.00    -0.224 OA
ENDBRANCH  30  31
ENDBRANCH  17  25
ENDBRANCH  11  12
ENDBRANCH   8  11
ENDBRANCH   6   7
BRANCH   6  35
ATOM     35  C   UNL A   1      35.840  23.361  23.583  1.00  0.00     0.191 C 
BRANCH  35  36
ATOM     36  O   UNL A   1      36.794  23.707  24.568  1.00  0.00    -0.394 OA
ATOM     37  H   UNL A   1      37.550  24.146  24.147  1.00  0.00     0.210 HD
ENDBRANCH  35  36
ENDBRANCH   6  35
ENDBRANCH   3   6
ENDBRANCH   1   2
BRANCH   1  38
ATOM     38  C   UNL A   1      38.887  19.348  25.398  1.00  0.00     0.023 C 
BRANCH  38  39
ATOM     39  C   UNL A   1      40.346  19.337  25.975  1.00  0.00     0.023 C 
BRANCH  39  40
ATOM     40  C   UNL A   1      40.750  20.384  27.035  1.00  0.00     0.116 C 
BRANCH  40  41
ATOM     41  N   UNL A   1      41.906  21.207  26.640  1.00  0.00    -0.352 N 
ATOM     42  C   UNL A   1      42.284  22.536  26.760  1.00  0.00     0.251 C 
ATOM     43  H   UNL A   1      42.588  20.675  26.169  1.00  0.00     0.163 HD
ATOM     44  O   UNL A   1      43.402  22.829  26.322  1.00  0.00    -0.269 OA
BRANCH  42  45
ATOM     45  C   UNL A   1      41.474  23.649  27.380  1.00  0.00     0.039 A 
ATOM     46  C   UNL A   1      40.171  23.947  26.937  1.00  0.00     0.014 A 
ATOM     47  C   UNL A   1      41.992  24.565  28.265  1.00  0.00     0.014 A 
ATOM     48  C   UNL A   1      39.422  25.124  27.363  1.00  0.00     0.010 A 
ATOM     49  C   UNL A   1      41.226  25.722  28.691  1.00  0.00     0.010 A 
ATOM     50  C   UNL A   1      39.930  26.135  28.220  1.00  0.00    -0.014 A 
BRANCH  50  51
ATOM     51  C   UNL A   1      39.272  27.707  28.072  1.00  0.00     0.031 A 
ATOM     52  C   UNL A   1      40.257  28.467  27.203  1.00  0.00     0.074 A 
ATOM     53  C   UNL A   1      38.525  28.760  28.674  1.00  0.00     0.049 A 
ATOM     54  N   UNL A   1      40.987  29.337  27.838  1.00  0.00    -0.248 NA
ATOM     55  C   UNL A   1      40.919  27.927  26.017  1.00  0.00     0.031 C 
ATOM     56  C   UNL A   1      38.293  30.117  28.011  1.00  0.00     0.029 A 
ATOM     57  N   UNL A   1      37.900  29.040  29.910  1.00  0.00    -0.354 N 
ATOM     58  C   UNL A   1      42.230  28.825  27.663  1.00  0.00     0.074 A 
ATOM     59  C   UNL A   1      42.194  28.120  26.383  1.00  0.00     0.031 C 
ATOM     60  C   UNL A   1      37.608  30.991  28.791  1.00  0.00     0.029 A 
ATOM     61  C   UNL A   1      37.329  30.376  30.072  1.00  0.00     0.049 A 
ATOM     62  H   UNL A   1      37.850  28.367  30.627  1.00  0.00     0.167 HD
ATOM     63  C   UNL A   1      43.054  28.687  28.732  1.00  0.00     0.031 A 
ATOM     64  C   UNL A   1      36.807  30.996  31.196  1.00  0.00     0.031 A 
ATOM     65  C   UNL A   1      42.416  28.758  30.059  1.00  0.00     0.049 A 
ATOM     66  C   UNL A   1      37.941  30.809  32.139  1.00  0.00     0.074 A 
ATOM     67  C   UNL A   1      41.310  28.186  30.661  1.00  0.00     0.029 A 
ATOM     68  N   UNL A   1      42.771  29.698  31.015  1.00  0.00    -0.354 N 
ATOM     69  N   UNL A   1      38.947  31.627  32.274  1.00  0.00    -0.248 NA
ATOM     70  C   UNL A   1      37.939  29.633  32.995  1.00  0.00     0.031 C 
ATOM     71  C   UNL A   1      41.358  28.375  32.048  1.00  0.00     0.029 A 
ATOM     72  C   UNL A   1      41.802  29.674  32.036  1.00  0.00     0.049 A 
ATOM     73  H   UNL A   1      43.564  30.282  30.985  1.00  0.00     0.167 HD
ATOM     74  C   UNL A   1      39.893  30.859  32.918  1.00  0.00     0.074 A 
ATOM     75  C   UNL A   1      39.161  29.746  33.506  1.00  0.00     0.031 C 
ATOM     76  C   UNL A   1      41.181  30.900  32.482  1.00  0.00     0.031 A 
BRANCH  63  77
ATOM     77  C   UNL A   1      44.506  28.419  28.532  1.00  0.00    -0.014 A 
ATOM     78  C   UNL A   1      45.248  28.993  27.482  1.00  0.00     0.009 A 
ATOM     79  C   UNL A   1      45.220  27.759  29.540  1.00  0.00     0.009 A 
ATOM     80  C   UNL A   1      46.638  28.968  27.466  1.00  0.00     0.001 A 
ATOM     81  C   UNL A   1      46.614  27.791  29.561  1.00  0.00     0.001 A 
ATOM     82  C   UNL A   1      47.320  28.406  28.532  1.00  0.00     0.000 A 
ENDBRANCH  63  77
BRANCH  64  83
ATOM     83  C   UNL A   1      35.920  32.113  31.787  1.00  0.00    -0.014 A 
ATOM     84  C   UNL A   1      35.470  32.386  33.086  1.00  0.00     0.009 A 
ATOM     85  C   UNL A   1      35.415  33.018  30.796  1.00  0.00     0.009 A 
ATOM     86  C   UNL A   1      34.593  33.491  33.351  1.00  0.00     0.001 A 
ATOM     87  C   UNL A   1      34.538  34.087  31.044  1.00  0.00     0.001 A 
ATOM     88  C   UNL A   1      34.132  34.337  32.337  1.00  0.00     0.000 A 
ENDBRANCH  64  83
BRANCH  76  89
ATOM     89  C   UNL A   1      41.715  32.204  32.023  1.00  0.00    -0.014 A 
ATOM     90  C   UNL A   1      41.346  32.617  30.741  1.00  0.00     0.009 A 
ATOM     91  C   UNL A   1      42.354  33.100  32.895  1.00  0.00     0.009 A 
ATOM     92  C   UNL A   1      41.512  33.944  30.371  1.00  0.00     0.001 A 
ATOM     93  C   UNL A   1      42.484  34.438  32.534  1.00  0.00     0.001 A 
ATOM     94  C   UNL A   1      42.046  34.861  31.278  1.00  0.00     0.000 A 
ENDBRANCH  76  89
ENDBRANCH  50  51
ENDBRANCH  42  45
ENDBRANCH  40  41
ENDBRANCH  39  40
ENDBRANCH  38  39
ENDBRANCH   1  38
TORSDOF 19
ENDMDL
MODEL 2
REMARK VINA RESULT:     -12.6      3.303      9.110
REMARK SMILES Cc1c(CC(=O)N[C@H](CO)C(=O)NCCCCNC(=O)c2ccc(-c3c4nc(c(-c5ccccc5)c5ccc([nH]5)c(-c5ccccc5)c5nc(c(-c6ccccc6)c6ccc3[nH]6)C=C5)C=C4)cc2)cc(-c2ccc(S(C)(=O)=O)cc2)n1-c1ccc(F)cc1
REMARK SMILES IDX 14 1 13 2 11 3 12 4 8 6 7 7 5 8 6 9 4 11 3 12 1 13 2 14
REMARK SMILES IDX 81 15 69 16 70 17 82 18 83 19 88 20 84 21 87 22 85 23 86 24
REMARK SMILES IDX 71 25 72 26 80 27 73 28 79 29 74 30 75 31 76 32 77 33 78 34
REMARK SMILES IDX 9 35 10 36 15 38 16 39 17 40 18 41 19 42 20 44 21 45 22 46
REMARK SMILES IDX 68 47 23 48 67 49 24 50 25 51 26 52 61 53 27 54 66 55 60 56
REMARK SMILES IDX 62 57 28 58 65 59 59 60 58 61 29 63 51 64 36 65 50 66 37 67
REMARK SMILES IDX 40 68 49 69 63 70 38 71 39 72 48 74 64 75 41 76 30 77 31 78
REMARK SMILES IDX 35 79 32 80 34 81 33 82 52 83 53 84 57 85 54 86 56 87 55 88
REMARK SMILES IDX 42 89 43 90 47 91 44 92 46 93 45 94
REMARK H PARENT 13 5 7 10 10 37 18 43 62 62 40 73
REMARK Flexibility Score: inf
ROOT
ATOM      1  C   UNL A   1      31.822  26.242  26.062  1.00  0.00     0.116 C 
ENDROOT
BRANCH   1   2
ATOM      2  N   UNL A   1      30.671  26.606  25.163  1.00  0.00    -0.354 N 
ATOM      3  C   UNL A   1      30.227  27.124  23.982  1.00  0.00     0.244 C 
ATOM      4  O   UNL A   1      29.019  26.830  23.843  1.00  0.00    -0.273 OA
ATOM      5  H   UNL A   1      29.861  26.348  25.658  1.00  0.00     0.163 HD
BRANCH   3   6
ATOM      6  C   UNL A   1      30.821  28.098  22.844  1.00  0.00     0.197 C 
BRANCH   6   7
ATOM      7  N   UNL A   1      32.219  28.502  22.694  1.00  0.00    -0.342 N 
ATOM      8  C   UNL A   1      33.281  27.676  22.942  1.00  0.00     0.225 C 
ATOM      9  O   UNL A   1      34.303  28.128  23.454  1.00  0.00    -0.275 OA
ATOM     10  H   UNL A   1      32.407  29.422  22.399  1.00  0.00     0.164 HD
BRANCH   8  11
ATOM     11  C   UNL A   1      33.179  26.281  22.406  1.00  0.00     0.137 C 
BRANCH  11  12
ATOM     12  C   UNL A   1      33.753  25.134  23.190  1.00  0.00    -0.017 A 
ATOM     13  C   UNL A   1      31.631  23.691  23.167  1.00  0.00     0.065 C 
ATOM     14  C   UNL A   1      33.061  23.975  23.494  1.00  0.00     0.024 A 
ATOM     15  N   UNL A   1      33.878  23.148  24.258  1.00  0.00    -0.314 N 
ATOM     16  C   UNL A   1      34.976  25.026  23.921  1.00  0.00     0.033 A 
ATOM     17  C   UNL A   1      35.110  23.761  24.447  1.00  0.00     0.053 A 
BRANCH  15  18
ATOM     18  C   UNL A   1      33.529  21.882  24.770  1.00  0.00     0.046 A 
ATOM     19  C   UNL A   1      33.504  21.680  26.156  1.00  0.00     0.029 A 
ATOM     20  C   UNL A   1      33.256  20.842  23.878  1.00  0.00     0.029 A 
ATOM     21  C   UNL A   1      33.196  20.418  26.649  1.00  0.00     0.041 A 
ATOM     22  C   UNL A   1      32.953  19.585  24.380  1.00  0.00     0.041 A 
ATOM     23  C   UNL A   1      32.926  19.385  25.757  1.00  0.00     0.123 A 
ATOM     24  F   UNL A   1      32.640  18.167  26.234  1.00  0.00    -0.207 F 
ENDBRANCH  15  18
BRANCH  17  25
ATOM     25  C   UNL A   1      36.342  23.110  24.934  1.00  0.00    -0.001 A 
ATOM     26  C   UNL A   1      37.128  23.779  25.886  1.00  0.00     0.011 A 
ATOM     27  C   UNL A   1      36.736  21.826  24.524  1.00  0.00     0.011 A 
ATOM     28  C   UNL A   1      38.310  23.219  26.374  1.00  0.00     0.021 A 
ATOM     29  C   UNL A   1      37.931  21.259  25.004  1.00  0.00     0.021 A 
ATOM     30  C   UNL A   1      38.722  21.970  25.911  1.00  0.00     0.067 A 
BRANCH  30  31
ATOM     31  S   UNL A   1      40.251  21.291  26.519  1.00  0.00     0.175 S 
ATOM     32  C   UNL A   1      41.510  22.264  25.727  1.00  0.00     0.163 C 
ATOM     33  O   UNL A   1      40.294  21.587  27.950  1.00  0.00    -0.224 OA
ATOM     34  O   UNL A   1      40.369  19.942  26.034  1.00  0.00    -0.224 OA
ENDBRANCH  30  31
ENDBRANCH  17  25
ENDBRANCH  11  12
ENDBRANCH   8  11
ENDBRANCH   6   7
BRANCH   6  35
ATOM     35  C   UNL A   1      29.945  29.340  22.400  1.00  0.00     0.191 C 
BRANCH  35  36
ATOM     36  O   UNL A   1      30.451  30.103  21.321  1.00  0.00    -0.394 OA
ATOM     37  H   UNL A   1      30.468  31.041  21.569  1.00  0.00     0.210 HD
ENDBRANCH  35  36
ENDBRANCH   6  35
ENDBRANCH   3   6
ENDBRANCH   1   2
BRANCH   1  38
ATOM     38  C   UNL A   1      32.522  27.424  26.799  1.00  0.00     0.023 C 
BRANCH  38  39
ATOM     39  C   UNL A   1      31.823  28.822  26.927  1.00  0.00     0.023 C 
BRANCH  39  40
ATOM     40  C   UNL A   1      32.313  29.999  26.056  1.00  0.00     0.116 C 
BRANCH  40  41
ATOM     41  N   UNL A   1      32.386  31.278  26.781  1.00  0.00    -0.352 N 
ATOM     42  C   UNL A   1      33.362  32.002  27.451  1.00  0.00     0.251 C 
ATOM     43  H   UNL A   1      31.517  31.741  26.792  1.00  0.00     0.163 HD
ATOM     44  O   UNL A   1      33.019  33.101  27.898  1.00  0.00    -0.269 OA
BRANCH  42  45
ATOM     45  C   UNL A   1      34.796  31.584  27.676  1.00  0.00     0.039 A 
ATOM     46  C   UNL A   1      35.177  30.229  27.680  1.00  0.00     0.014 A 
ATOM     47  C   UNL A   1      35.785  32.450  28.079  1.00  0.00     0.014 A 
ATOM     48  C   UNL A   1      36.500  29.762  28.080  1.00  0.00     0.010 A 
ATOM     49  C   UNL A   1      37.102  31.969  28.458  1.00  0.00     0.010 A 
ATOM     50  C   UNL A   1      37.536  30.601  28.566  1.00  0.00    -0.014 A 
BRANCH  50  51
ATOM     51  C   UNL A   1      38.698  29.905  29.611  1.00  0.00     0.031 A 
ATOM     52  C   UNL A   1      38.051  29.913  30.984  1.00  0.00     0.074 A 
ATOM     53  C   UNL A   1      40.075  29.723  29.928  1.00  0.00     0.049 A 
ATOM     54  N   UNL A   1      38.526  30.801  31.807  1.00  0.00    -0.248 NA
ATOM     55  C   UNL A   1      36.654  29.578  31.253  1.00  0.00     0.031 C 
ATOM     56  C   UNL A   1      40.565  28.976  31.168  1.00  0.00     0.029 A 
ATOM     57  N   UNL A   1      41.336  30.140  29.443  1.00  0.00    -0.354 N 
ATOM     58  C   UNL A   1      37.442  31.588  32.010  1.00  0.00     0.074 A 
ATOM     59  C   UNL A   1      36.280  30.714  31.861  1.00  0.00     0.031 C 
ATOM     60  C   UNL A   1      41.915  28.978  31.303  1.00  0.00     0.029 A 
ATOM     61  C   UNL A   1      42.506  29.744  30.225  1.00  0.00     0.049 A 
ATOM     62  H   UNL A   1      41.421  30.671  28.618  1.00  0.00     0.167 HD
ATOM     63  C   UNL A   1      37.561  32.935  31.897  1.00  0.00     0.031 A 
ATOM     64  C   UNL A   1      43.832  30.126  30.107  1.00  0.00     0.031 A 
ATOM     65  C   UNL A   1      38.766  33.426  31.203  1.00  0.00     0.049 A 
ATOM     66  C   UNL A   1      43.675  31.604  30.137  1.00  0.00     0.074 A 
ATOM     67  C   UNL A   1      39.423  33.128  30.024  1.00  0.00     0.029 A 
ATOM     68  N   UNL A   1      39.685  34.275  31.802  1.00  0.00    -0.354 N 
ATOM     69  N   UNL A   1      43.662  32.334  31.216  1.00  0.00    -0.248 NA
ATOM     70  C   UNL A   1      43.535  32.309  28.873  1.00  0.00     0.031 C 
ATOM     71  C   UNL A   1      40.352  34.131  29.717  1.00  0.00     0.029 A 
ATOM     72  C   UNL A   1      40.833  34.324  30.988  1.00  0.00     0.049 A 
ATOM     73  H   UNL A   1      39.557  34.758  32.650  1.00  0.00     0.167 HD
ATOM     74  C   UNL A   1      43.099  33.517  30.789  1.00  0.00     0.074 A 
ATOM     75  C   UNL A   1      43.235  33.516  29.340  1.00  0.00     0.031 C 
ATOM     76  C   UNL A   1      42.141  34.105  31.558  1.00  0.00     0.031 A 
BRANCH  63  77
ATOM     77  C   UNL A   1      36.483  33.831  32.403  1.00  0.00    -0.014 A 
ATOM     78  C   UNL A   1      35.424  34.279  31.593  1.00  0.00     0.009 A 
ATOM     79  C   UNL A   1      36.382  34.060  33.781  1.00  0.00     0.009 A 
ATOM     80  C   UNL A   1      34.287  34.872  32.131  1.00  0.00     0.001 A 
ATOM     81  C   UNL A   1      35.216  34.592  34.330  1.00  0.00     0.001 A 
ATOM     82  C   UNL A   1      34.165  34.985  33.506  1.00  0.00     0.000 A 
ENDBRANCH  63  77
BRANCH  64  83
ATOM     83  C   UNL A   1      45.316  29.832  30.416  1.00  0.00    -0.014 A 
ATOM     84  C   UNL A   1      45.974  29.340  31.552  1.00  0.00     0.009 A 
ATOM     85  C   UNL A   1      46.198  30.188  29.343  1.00  0.00     0.009 A 
ATOM     86  C   UNL A   1      47.403  29.209  31.584  1.00  0.00     0.001 A 
ATOM     87  C   UNL A   1      47.599  30.084  29.376  1.00  0.00     0.001 A 
ATOM     88  C   UNL A   1      48.210  29.577  30.502  1.00  0.00     0.000 A 
ENDBRANCH  64  83
BRANCH  76  89
ATOM     89  C   UNL A   1      42.302  34.042  33.031  1.00  0.00    -0.014 A 
ATOM     90  C   UNL A   1      42.883  35.153  33.645  1.00  0.00     0.009 A 
ATOM     91  C   UNL A   1      41.694  33.044  33.808  1.00  0.00     0.009 A 
ATOM     92  C   UNL A   1      42.761  35.323  35.017  1.00  0.00     0.001 A 
ATOM     93  C   UNL A   1      41.541  33.236  35.178  1.00  0.00     0.001 A 
ATOM     94  C   UNL A   1      42.060  34.385  35.777  1.00  0.00     0.000 A 
ENDBRANCH  76  89
ENDBRANCH  50  51
ENDBRANCH  42  45
ENDBRANCH  40  41
ENDBRANCH  39  40
ENDBRANCH  38  39
ENDBRANCH   1  38
TORSDOF 19
ENDMDL
MODEL 3
REMARK VINA RESULT:     -12.4      3.240      9.040
REMARK SMILES Cc1c(CC(=O)N[C@H](CO)C(=O)NCCCCNC(=O)c2ccc(-c3c4nc(c(-c5ccccc5)c5ccc([nH]5)c(-c5ccccc5)c5nc(c(-c6ccccc6)c6ccc3[nH]6)C=C5)C=C4)cc2)cc(-c2ccc(S(C)(=O)=O)cc2)n1-c1ccc(F)cc1
REMARK SMILES IDX 14 1 13 2 11 3 12 4 8 6 7 7 5 8 6 9 4 11 3 12 1 13 2 14
REMARK SMILES IDX 81 15 69 16 70 17 82 18 83 19 88 20 84 21 87 22 85 23 86 24
REMARK SMILES IDX 71 25 72 26 80 27 73 28 79 29 74 30 75 31 76 32 77 33 78 34
REMARK SMILES IDX 9 35 10 36 15 38 16 39 17 40 18 41 19 42 20 44 21 45 22 46
REMARK SMILES IDX 68 47 23 48 67 49 24 50 25 51 26 52 61 53 27 54 66 55 60 56
REMARK SMILES IDX 62 57 28 58 65 59 59 60 58 61 29 63 51 64 36 65 50 66 37 67
REMARK SMILES IDX 40 68 49 69 63 70 38 71 39 72 48 74 64 75 41 76 30 77 31 78
REMARK SMILES IDX 35 79 32 80 34 81 33 82 52 83 53 84 57 85 54 86 56 87 55 88
REMARK SMILES IDX 42 89 43 90 47 91 44 92 46 93 45 94
REMARK H PARENT 13 5 7 10 10 37 18 43 62 62 40 73
REMARK Flexibility Score: inf
ROOT
ATOM      1  C   UNL A   1      32.497  29.567  25.586  1.00  0.00     0.116 C 
ENDROOT
BRANCH   1   2
ATOM      2  N   UNL A   1      31.334  30.096  24.791  1.00  0.00    -0.354 N 
ATOM      3  C   UNL A   1      30.187  29.855  24.094  1.00  0.00     0.244 C 
ATOM      4  O   UNL A   1      29.583  30.938  23.927  1.00  0.00    -0.273 OA
ATOM      5  H   UNL A   1      31.459  31.072  24.763  1.00  0.00     0.163 HD
BRANCH   3   6
ATOM      6  C   UNL A   1      29.524  28.590  23.347  1.00  0.00     0.197 C 
BRANCH   6   7
ATOM      7  N   UNL A   1      30.108  27.841  22.234  1.00  0.00    -0.342 N 
ATOM      8  C   UNL A   1      31.073  26.883  22.384  1.00  0.00     0.225 C 
ATOM      9  O   UNL A   1      31.965  26.775  21.545  1.00  0.00    -0.275 OA
ATOM     10  H   UNL A   1      29.787  28.036  21.324  1.00  0.00     0.164 HD
BRANCH   8  11
ATOM     11  C   UNL A   1      30.874  25.905  23.501  1.00  0.00     0.137 C 
BRANCH  11  12
ATOM     12  C   UNL A   1      31.827  24.754  23.668  1.00  0.00    -0.017 A 
ATOM     13  C   UNL A   1      33.791  26.145  24.557  1.00  0.00     0.065 C 
ATOM     14  C   UNL A   1      33.111  24.873  24.168  1.00  0.00     0.024 A 
ATOM     15  N   UNL A   1      33.721  23.623  24.149  1.00  0.00    -0.314 N 
ATOM     16  C   UNL A   1      31.737  23.400  23.220  1.00  0.00     0.033 A 
ATOM     17  C   UNL A   1      32.832  22.682  23.645  1.00  0.00     0.053 A 
BRANCH  15  18
ATOM     18  C   UNL A   1      35.035  23.335  24.572  1.00  0.00     0.046 A 
ATOM     19  C   UNL A   1      36.008  22.999  23.621  1.00  0.00     0.029 A 
ATOM     20  C   UNL A   1      35.326  23.350  25.938  1.00  0.00     0.029 A 
ATOM     21  C   UNL A   1      37.290  22.679  24.052  1.00  0.00     0.041 A 
ATOM     22  C   UNL A   1      36.608  23.026  26.358  1.00  0.00     0.041 A 
ATOM     23  C   UNL A   1      37.576  22.695  25.414  1.00  0.00     0.123 A 
ATOM     24  F   UNL A   1      38.808  22.376  25.827  1.00  0.00    -0.207 F 
ENDBRANCH  15  18
BRANCH  17  25
ATOM     25  C   UNL A   1      32.972  21.215  23.736  1.00  0.00    -0.001 A 
ATOM     26  C   UNL A   1      33.887  20.681  24.657  1.00  0.00     0.011 A 
ATOM     27  C   UNL A   1      32.191  20.328  22.977  1.00  0.00     0.011 A 
ATOM     28  C   UNL A   1      34.072  19.302  24.779  1.00  0.00     0.021 A 
ATOM     29  C   UNL A   1      32.378  18.938  23.087  1.00  0.00     0.021 A 
ATOM     30  C   UNL A   1      33.335  18.435  23.974  1.00  0.00     0.067 A 
BRANCH  30  31
ATOM     31  S   UNL A   1      33.613  16.683  24.121  1.00  0.00     0.175 S 
ATOM     32  C   UNL A   1      35.010  16.549  25.211  1.00  0.00     0.163 C 
ATOM     33  O   UNL A   1      32.450  16.137  24.818  1.00  0.00    -0.224 OA
ATOM     34  O   UNL A   1      34.012  16.181  22.833  1.00  0.00    -0.224 OA
ENDBRANCH  30  31
ENDBRANCH  17  25
ENDBRANCH  11  12
ENDBRANCH   8  11
ENDBRANCH   6   7
BRANCH   6  35
ATOM     35  C   UNL A   1      27.960  28.608  23.105  1.00  0.00     0.191 C 
BRANCH  35  36
ATOM     36  O   UNL A   1      27.470  29.651  22.285  1.00  0.00    -0.394 OA
ATOM     37  H   UNL A   1      27.896  30.486  22.535  1.00  0.00     0.210 HD
ENDBRANCH  35  36
ENDBRANCH   6  35
ENDBRANCH   3   6
ENDBRANCH   1   2
BRANCH   1  38
ATOM     38  C   UNL A   1      32.637  30.102  27.044  1.00  0.00     0.023 C 
BRANCH  38  39
ATOM     39  C   UNL A   1      33.348  31.470  27.335  1.00  0.00     0.023 C 
BRANCH  39  40
ATOM     40  C   UNL A   1      32.504  32.759  27.429  1.00  0.00     0.116 C 
BRANCH  40  41
ATOM     41  N   UNL A   1      33.290  33.955  27.776  1.00  0.00    -0.352 N 
ATOM     42  C   UNL A   1      34.505  34.217  28.391  1.00  0.00     0.251 C 
ATOM     43  H   UNL A   1      32.836  34.784  27.498  1.00  0.00     0.163 HD
ATOM     44  O   UNL A   1      34.846  35.403  28.447  1.00  0.00    -0.269 OA
BRANCH  42  45
ATOM     45  C   UNL A   1      35.451  33.201  28.985  1.00  0.00     0.039 A 
ATOM     46  C   UNL A   1      36.586  32.752  28.284  1.00  0.00     0.014 A 
ATOM     47  C   UNL A   1      35.188  32.501  30.139  1.00  0.00     0.014 A 
ATOM     48  C   UNL A   1      37.420  31.639  28.724  1.00  0.00     0.010 A 
ATOM     49  C   UNL A   1      36.038  31.407  30.571  1.00  0.00     0.010 A 
ATOM     50  C   UNL A   1      37.160  30.841  29.868  1.00  0.00    -0.014 A 
BRANCH  50  51
ATOM     51  C   UNL A   1      37.751  29.236  29.870  1.00  0.00     0.031 A 
ATOM     52  C   UNL A   1      37.903  28.871  31.335  1.00  0.00     0.074 A 
ATOM     53  C   UNL A   1      38.554  28.249  29.229  1.00  0.00     0.049 A 
ATOM     54  N   UNL A   1      39.130  28.829  31.763  1.00  0.00    -0.248 NA
ATOM     55  C   UNL A   1      36.945  29.210  32.386  1.00  0.00     0.031 C 
ATOM     56  C   UNL A   1      38.788  26.850  29.797  1.00  0.00     0.029 A 
ATOM     57  N   UNL A   1      39.407  28.146  28.106  1.00  0.00    -0.354 N 
ATOM     58  C   UNL A   1      39.129  29.823  32.684  1.00  0.00     0.074 A 
ATOM     59  C   UNL A   1      37.766  29.880  33.208  1.00  0.00     0.031 C 
ATOM     60  C   UNL A   1      39.636  26.098  29.052  1.00  0.00     0.029 A 
ATOM     61  C   UNL A   1      40.115  26.879  27.931  1.00  0.00     0.049 A 
ATOM     62  H   UNL A   1      39.517  28.892  27.472  1.00  0.00     0.167 HD
ATOM     63  C   UNL A   1      40.113  30.757  32.663  1.00  0.00     0.031 A 
ATOM     64  C   UNL A   1      41.122  26.532  27.045  1.00  0.00     0.031 A 
ATOM     65  C   UNL A   1      40.906  30.840  31.422  1.00  0.00     0.049 A 
ATOM     66  C   UNL A   1      42.092  27.624  27.322  1.00  0.00     0.074 A 
ATOM     67  C   UNL A   1      40.628  30.899  30.069  1.00  0.00     0.029 A 
ATOM     68  N   UNL A   1      42.281  30.659  31.394  1.00  0.00    -0.354 N 
ATOM     69  N   UNL A   1      43.019  27.589  28.238  1.00  0.00    -0.248 NA
ATOM     70  C   UNL A   1      42.025  28.829  26.510  1.00  0.00     0.031 C 
ATOM     71  C   UNL A   1      41.770  31.282  29.353  1.00  0.00     0.029 A 
ATOM     72  C   UNL A   1      42.679  30.524  30.050  1.00  0.00     0.049 A 
ATOM     73  H   UNL A   1      42.875  30.628  32.179  1.00  0.00     0.167 HD
ATOM     74  C   UNL A   1      43.363  28.915  28.387  1.00  0.00     0.074 A 
ATOM     75  C   UNL A   1      42.886  29.583  27.186  1.00  0.00     0.031 C 
ATOM     76  C   UNL A   1      43.513  29.418  29.644  1.00  0.00     0.031 A 
BRANCH  63  77
ATOM     77  C   UNL A   1      40.310  31.669  33.825  1.00  0.00    -0.014 A 
ATOM     78  C   UNL A   1      40.716  31.209  35.092  1.00  0.00     0.009 A 
ATOM     79  C   UNL A   1      40.314  33.053  33.610  1.00  0.00     0.009 A 
ATOM     80  C   UNL A   1      41.166  32.078  36.079  1.00  0.00     0.001 A 
ATOM     81  C   UNL A   1      40.828  33.920  34.573  1.00  0.00     0.001 A 
ATOM     82  C   UNL A   1      41.265  33.431  35.800  1.00  0.00     0.000 A 
ENDBRANCH  63  77
BRANCH  64  83
ATOM     83  C   UNL A   1      41.906  25.417  26.319  1.00  0.00    -0.014 A 
ATOM     84  C   UNL A   1      42.827  25.432  25.262  1.00  0.00     0.009 A 
ATOM     85  C   UNL A   1      41.583  24.101  26.789  1.00  0.00     0.009 A 
ATOM     86  C   UNL A   1      43.378  24.214  24.740  1.00  0.00     0.001 A 
ATOM     87  C   UNL A   1      42.101  22.904  26.267  1.00  0.00     0.001 A 
ATOM     88  C   UNL A   1      43.019  22.959  25.241  1.00  0.00     0.000 A 
ENDBRANCH  64  83
BRANCH  76  89
ATOM     89  C   UNL A   1      44.129  28.544  30.670  1.00  0.00    -0.014 A 
ATOM     90  C   UNL A   1      45.444  28.838  31.036  1.00  0.00     0.009 A 
ATOM     91  C   UNL A   1      43.377  27.625  31.419  1.00  0.00     0.009 A 
ATOM     92  C   UNL A   1      45.969  28.303  32.204  1.00  0.00     0.001 A 
ATOM     93  C   UNL A   1      43.894  27.121  32.609  1.00  0.00     0.001 A 
ATOM     94  C   UNL A   1      45.183  27.476  33.008  1.00  0.00     0.000 A 
ENDBRANCH  76  89
ENDBRANCH  50  51
ENDBRANCH  42  45
ENDBRANCH  40  41
ENDBRANCH  39  40
ENDBRANCH  38  39
ENDBRANCH   1  38
TORSDOF 19
ENDMDL
