MODEL 1
REMARK VINA RESULT:     -12.0      0.000      0.000
REMARK SMILES O=C(NCCCCNC(=O)[C@@H]1CC(=O)N(c2ccc(Cl)cc2C(=O)c2ccccc2)C1)c1ccc(-c2c3nc(c(-c4ccccc4)c4ccc([nH]4)c(-c4ccccc4)c4nc(c(-c5ccccc5)c5ccc2[nH]5)C=C4)C=C3)cc1
REMARK SMILES IDX 6 1 5 2 4 3 3 4 1 5 2 6 32 8 33 9 79 10 34 11 78 12 35 13
REMARK SMILES IDX 36 14 37 15 72 16 38 17 77 18 71 19 73 20 39 21 76 22 70 23
REMARK SMILES IDX 69 24 40 26 62 27 47 28 61 29 48 30 51 31 60 32 74 33 49 34
REMARK SMILES IDX 50 35 59 37 75 38 52 39 41 40 42 41 46 42 43 43 45 44 44 45
REMARK SMILES IDX 63 46 64 47 68 48 65 49 67 50 66 51 53 52 54 53 58 54 55 55
REMARK SMILES IDX 57 56 56 57 7 58 8 59 9 60 10 62 11 63 12 64 31 65 13 66
REMARK SMILES IDX 15 67 14 68 16 69 17 70 22 71 18 72 21 73 19 74 20 75 23 76
REMARK SMILES IDX 24 77 25 78 26 79 30 80 27 81 29 82 28 83
REMARK H PARENT 3 7 73 25 51 36 8 61
REMARK Flexibility Score: inf
ROOT
ATOM      1  C   UNL A   1      33.317  28.438  24.681  1.00  0.00     0.023 C 
ENDROOT
BRANCH   1   2
ATOM      2  C   UNL A   1      34.186  28.081  25.890  1.00  0.00     0.023 C 
BRANCH   2   3
ATOM      3  C   UNL A   1      33.589  28.396  27.259  1.00  0.00     0.116 C 
BRANCH   3   4
ATOM      4  N   UNL A   1      33.551  29.819  27.553  1.00  0.00    -0.352 N 
ATOM      5  O   UNL A   1      34.189  31.801  28.406  1.00  0.00    -0.269 OA
ATOM      6  C   UNL A   1      34.495  30.649  28.109  1.00  0.00     0.251 C 
ATOM      7  H   UNL A   1      32.707  30.264  27.312  1.00  0.00     0.163 HD
BRANCH   6   8
ATOM      8  C   UNL A   1      35.870  30.169  28.379  1.00  0.00     0.039 A 
ATOM      9  C   UNL A   1      36.868  30.261  27.409  1.00  0.00     0.014 A 
ATOM     10  C   UNL A   1      36.182  29.657  29.644  1.00  0.00     0.014 A 
ATOM     11  C   UNL A   1      38.115  29.690  27.641  1.00  0.00     0.010 A 
ATOM     12  C   UNL A   1      37.470  29.179  29.912  1.00  0.00     0.010 A 
ATOM     13  C   UNL A   1      38.441  29.160  28.901  1.00  0.00    -0.014 A 
BRANCH  13  14
ATOM     14  C   UNL A   1      39.825  28.670  29.134  1.00  0.00     0.031 A 
ATOM     15  C   UNL A   1      40.253  27.286  28.729  1.00  0.00     0.074 A 
ATOM     16  C   UNL A   1      40.726  29.523  29.662  1.00  0.00     0.049 A 
ATOM     17  N   UNL A   1      41.449  26.750  28.775  1.00  0.00    -0.248 NA
ATOM     18  C   UNL A   1      39.215  26.383  28.211  1.00  0.00     0.031 C 
ATOM     19  C   UNL A   1      40.430  30.885  30.116  1.00  0.00     0.029 A 
ATOM     20  N   UNL A   1      42.074  29.390  29.875  1.00  0.00    -0.354 N 
ATOM     21  C   UNL A   1      41.308  25.454  28.297  1.00  0.00     0.074 A 
ATOM     22  C   UNL A   1      39.902  25.268  28.001  1.00  0.00     0.031 C 
ATOM     23  C   UNL A   1      41.570  31.483  30.490  1.00  0.00     0.029 A 
ATOM     24  C   UNL A   1      42.665  30.528  30.369  1.00  0.00     0.049 A 
ATOM     25  H   UNL A   1      42.572  28.560  29.692  1.00  0.00     0.167 HD
ATOM     26  C   UNL A   1      42.262  24.509  28.107  1.00  0.00     0.031 A 
ATOM     27  C   UNL A   1      43.944  30.780  30.702  1.00  0.00     0.031 A 
ATOM     28  C   UNL A   1      43.658  24.688  28.417  1.00  0.00     0.049 A 
ATOM     29  C   UNL A   1      44.971  29.703  30.512  1.00  0.00     0.074 A 
ATOM     30  C   UNL A   1      44.700  23.789  28.254  1.00  0.00     0.029 A 
ATOM     31  N   UNL A   1      44.208  25.840  28.957  1.00  0.00    -0.354 N 
ATOM     32  N   UNL A   1      44.821  28.497  30.023  1.00  0.00    -0.248 NA
ATOM     33  C   UNL A   1      46.346  30.027  30.915  1.00  0.00     0.031 C 
ATOM     34  C   UNL A   1      45.870  24.380  28.745  1.00  0.00     0.029 A 
ATOM     35  C   UNL A   1      45.570  25.669  29.152  1.00  0.00     0.049 A 
ATOM     36  H   UNL A   1      43.705  26.660  29.171  1.00  0.00     0.167 HD
ATOM     37  C   UNL A   1      46.085  27.921  30.047  1.00  0.00     0.074 A 
ATOM     38  C   UNL A   1      46.992  28.925  30.564  1.00  0.00     0.031 C 
ATOM     39  C   UNL A   1      46.459  26.671  29.681  1.00  0.00     0.031 A 
BRANCH  26  40
ATOM     40  C   UNL A   1      41.827  23.181  27.546  1.00  0.00    -0.014 A 
ATOM     41  C   UNL A   1      41.854  22.933  26.164  1.00  0.00     0.009 A 
ATOM     42  C   UNL A   1      41.446  22.144  28.413  1.00  0.00     0.009 A 
ATOM     43  C   UNL A   1      41.482  21.684  25.661  1.00  0.00     0.001 A 
ATOM     44  C   UNL A   1      41.103  20.887  27.908  1.00  0.00     0.001 A 
ATOM     45  C   UNL A   1      41.114  20.660  26.533  1.00  0.00     0.000 A 
ENDBRANCH  26  40
BRANCH  27  46
ATOM     46  C   UNL A   1      44.316  32.101  31.276  1.00  0.00    -0.014 A 
ATOM     47  C   UNL A   1      44.258  32.332  32.658  1.00  0.00     0.009 A 
ATOM     48  C   UNL A   1      44.725  33.145  30.432  1.00  0.00     0.009 A 
ATOM     49  C   UNL A   1      44.570  33.590  33.178  1.00  0.00     0.001 A 
ATOM     50  C   UNL A   1      45.073  34.390  30.956  1.00  0.00     0.001 A 
ATOM     51  C   UNL A   1      44.982  34.616  32.328  1.00  0.00     0.000 A 
ENDBRANCH  27  46
BRANCH  39  52
ATOM     52  C   UNL A   1      47.919  26.337  29.808  1.00  0.00    -0.014 A 
ATOM     53  C   UNL A   1      48.807  26.533  28.739  1.00  0.00     0.009 A 
ATOM     54  C   UNL A   1      48.411  25.819  31.015  1.00  0.00     0.009 A 
ATOM     55  C   UNL A   1      50.151  26.170  28.861  1.00  0.00     0.001 A 
ATOM     56  C   UNL A   1      49.762  25.489  31.146  1.00  0.00     0.001 A 
ATOM     57  C   UNL A   1      50.627  25.651  30.065  1.00  0.00     0.000 A 
ENDBRANCH  39  52
ENDBRANCH  13  14
ENDBRANCH   6   8
ENDBRANCH   3   4
ENDBRANCH   2   3
ENDBRANCH   1   2
BRANCH   1  58
ATOM     58  C   UNL A   1      32.759  27.259  23.891  1.00  0.00     0.116 C 
BRANCH  58  59
ATOM     59  N   UNL A   1      33.322  25.979  24.273  1.00  0.00    -0.356 N 
ATOM     60  C   UNL A   1      33.345  24.965  23.355  1.00  0.00     0.225 C 
ATOM     61  H   UNL A   1      33.681  25.842  25.178  1.00  0.00     0.163 HD
ATOM     62  O   UNL A   1      34.397  24.744  22.764  1.00  0.00    -0.275 OA
BRANCH  60  63
ATOM     63  C   UNL A   1      32.043  24.260  23.028  1.00  0.00     0.107 C 
ATOM     64  C   UNL A   1      31.116  24.109  24.238  1.00  0.00     0.116 C 
ATOM     65  C   UNL A   1      32.329  22.823  22.613  1.00  0.00     0.139 C 
ATOM     66  C   UNL A   1      31.382  22.708  24.741  1.00  0.00     0.227 C 
ATOM     67  N   UNL A   1      32.256  22.090  23.853  1.00  0.00    -0.311 N 
ATOM     68  O   UNL A   1      30.896  22.230  25.758  1.00  0.00    -0.274 OA
BRANCH  67  69
ATOM     69  C   UNL A   1      32.609  20.730  23.916  1.00  0.00     0.055 A 
ATOM     70  C   UNL A   1      32.078  19.880  22.932  1.00  0.00     0.028 A 
ATOM     71  C   UNL A   1      33.539  20.223  24.844  1.00  0.00     0.048 A 
ATOM     72  C   UNL A   1      32.495  18.550  22.837  1.00  0.00     0.023 A 
ATOM     73  C   UNL A   1      33.948  18.879  24.735  1.00  0.00     0.035 A 
ATOM     74  C   UNL A   1      33.434  18.058  23.735  1.00  0.00     0.041 A 
ATOM     75  Cl  UNL A   1      33.976  16.432  23.599  1.00  0.00    -0.084 Cl
BRANCH  71  76
ATOM     76  C   UNL A   1      34.208  20.993  25.931  1.00  0.00     0.195 C 
ATOM     77  O   UNL A   1      33.680  20.959  27.045  1.00  0.00    -0.289 OA
BRANCH  76  78
ATOM     78  C   UNL A   1      35.427  21.829  25.759  1.00  0.00     0.023 A 
ATOM     79  C   UNL A   1      35.293  23.217  25.923  1.00  0.00     0.012 A 
ATOM     80  C   UNL A   1      36.677  21.308  25.421  1.00  0.00     0.012 A 
ATOM     81  C   UNL A   1      36.405  24.059  25.843  1.00  0.00     0.001 A 
ATOM     82  C   UNL A   1      37.795  22.149  25.358  1.00  0.00     0.001 A 
ATOM     83  C   UNL A   1      37.662  23.520  25.581  1.00  0.00     0.000 A 
ENDBRANCH  76  78
ENDBRANCH  71  76
ENDBRANCH  67  69
ENDBRANCH  60  63
ENDBRANCH  58  59
ENDBRANCH   1  58
TORSDOF 14
ENDMDL
MODEL 2
REMARK VINA RESULT:     -11.8      3.246      8.233
REMARK SMILES O=C(NCCCCNC(=O)[C@@H]1CC(=O)N(c2ccc(Cl)cc2C(=O)c2ccccc2)C1)c1ccc(-c2c3nc(c(-c4ccccc4)c4ccc([nH]4)c(-c4ccccc4)c4nc(c(-c5ccccc5)c5ccc2[nH]5)C=C4)C=C3)cc1
REMARK SMILES IDX 6 1 5 2 4 3 3 4 1 5 2 6 32 8 33 9 79 10 34 11 78 12 35 13
REMARK SMILES IDX 36 14 37 15 72 16 38 17 77 18 71 19 73 20 39 21 76 22 70 23
REMARK SMILES IDX 69 24 40 26 62 27 47 28 61 29 48 30 51 31 60 32 74 33 49 34
REMARK SMILES IDX 50 35 59 37 75 38 52 39 41 40 42 41 46 42 43 43 45 44 44 45
REMARK SMILES IDX 63 46 64 47 68 48 65 49 67 50 66 51 53 52 54 53 58 54 55 55
REMARK SMILES IDX 57 56 56 57 7 58 8 59 9 60 10 62 11 63 12 64 31 65 13 66
REMARK SMILES IDX 15 67 14 68 16 69 17 70 22 71 18 72 21 73 19 74 20 75 23 76
REMARK SMILES IDX 24 77 25 78 26 79 30 80 27 81 29 82 28 83
REMARK H PARENT 3 7 73 25 51 36 8 61
REMARK Flexibility Score: inf
ROOT
ATOM      1  C   UNL A   1      34.992  22.638  26.182  1.00  0.00     0.023 C 
ENDROOT
BRANCH   1   2
ATOM      2  C   UNL A   1      35.946  23.833  26.104  1.00  0.00     0.023 C 
BRANCH   2   3
ATOM      3  C   UNL A   1      37.057  23.735  25.063  1.00  0.00     0.116 C 
BRANCH   3   4
ATOM      4  N   UNL A   1      38.083  22.765  25.410  1.00  0.00    -0.352 N 
ATOM      5  O   UNL A   1      40.055  21.974  26.150  1.00  0.00    -0.269 OA
ATOM      6  C   UNL A   1      39.261  22.910  26.104  1.00  0.00     0.251 C 
ATOM      7  H   UNL A   1      37.903  21.849  25.096  1.00  0.00     0.163 HD
BRANCH   6   8
ATOM      8  C   UNL A   1      39.599  24.186  26.776  1.00  0.00     0.039 A 
ATOM      9  C   UNL A   1      39.252  24.412  28.108  1.00  0.00     0.014 A 
ATOM     10  C   UNL A   1      40.318  25.161  26.074  1.00  0.00     0.014 A 
ATOM     11  C   UNL A   1      39.468  25.662  28.678  1.00  0.00     0.010 A 
ATOM     12  C   UNL A   1      40.629  26.381  26.686  1.00  0.00     0.010 A 
ATOM     13  C   UNL A   1      40.177  26.657  27.983  1.00  0.00    -0.014 A 
BRANCH  13  14
ATOM     14  C   UNL A   1      40.485  27.933  28.682  1.00  0.00     0.031 A 
ATOM     15  C   UNL A   1      39.469  29.036  28.798  1.00  0.00     0.074 A 
ATOM     16  C   UNL A   1      41.688  28.063  29.277  1.00  0.00     0.049 A 
ATOM     17  N   UNL A   1      39.555  30.165  29.460  1.00  0.00    -0.248 NA
ATOM     18  C   UNL A   1      38.197  28.861  28.080  1.00  0.00     0.031 C 
ATOM     19  C   UNL A   1      42.767  27.073  29.219  1.00  0.00     0.029 A 
ATOM     20  N   UNL A   1      42.194  29.057  30.075  1.00  0.00    -0.354 N 
ATOM     21  C   UNL A   1      38.357  30.831  29.239  1.00  0.00     0.074 A 
ATOM     22  C   UNL A   1      37.573  30.000  28.349  1.00  0.00     0.031 C 
ATOM     23  C   UNL A   1      43.779  27.477  30.001  1.00  0.00     0.029 A 
ATOM     24  C   UNL A   1      43.450  28.783  30.559  1.00  0.00     0.049 A 
ATOM     25  H   UNL A   1      41.705  29.887  30.282  1.00  0.00     0.167 HD
ATOM     26  C   UNL A   1      37.940  32.020  29.742  1.00  0.00     0.031 A 
ATOM     27  C   UNL A   1      44.260  29.503  31.356  1.00  0.00     0.031 A 
ATOM     28  C   UNL A   1      38.726  32.856  30.613  1.00  0.00     0.049 A 
ATOM     29  C   UNL A   1      43.785  30.830  31.870  1.00  0.00     0.074 A 
ATOM     30  C   UNL A   1      38.387  34.075  31.178  1.00  0.00     0.029 A 
ATOM     31  N   UNL A   1      40.011  32.563  31.045  1.00  0.00    -0.354 N 
ATOM     32  N   UNL A   1      42.632  31.424  31.679  1.00  0.00    -0.248 NA
ATOM     33  C   UNL A   1      44.721  31.582  32.716  1.00  0.00     0.031 C 
ATOM     34  C   UNL A   1      39.485  34.543  31.907  1.00  0.00     0.029 A 
ATOM     35  C   UNL A   1      40.486  33.586  31.852  1.00  0.00     0.049 A 
ATOM     36  H   UNL A   1      40.513  31.748  30.813  1.00  0.00     0.167 HD
ATOM     37  C   UNL A   1      42.700  32.614  32.390  1.00  0.00     0.074 A 
ATOM     38  C   UNL A   1      43.991  32.638  33.045  1.00  0.00     0.031 C 
ATOM     39  C   UNL A   1      41.778  33.603  32.486  1.00  0.00     0.031 A 
BRANCH  26  40
ATOM     40  C   UNL A   1      36.568  32.501  29.351  1.00  0.00    -0.014 A 
ATOM     41  C   UNL A   1      35.452  32.252  30.165  1.00  0.00     0.009 A 
ATOM     42  C   UNL A   1      36.398  33.267  28.185  1.00  0.00     0.009 A 
ATOM     43  C   UNL A   1      34.191  32.736  29.807  1.00  0.00     0.001 A 
ATOM     44  C   UNL A   1      35.142  33.774  27.845  1.00  0.00     0.001 A 
ATOM     45  C   UNL A   1      34.038  33.502  28.652  1.00  0.00     0.000 A 
ENDBRANCH  26  40
BRANCH  27  46
ATOM     46  C   UNL A   1      45.617  28.994  31.693  1.00  0.00    -0.014 A 
ATOM     47  C   UNL A   1      45.832  28.207  32.834  1.00  0.00     0.009 A 
ATOM     48  C   UNL A   1      46.710  29.306  30.869  1.00  0.00     0.009 A 
ATOM     49  C   UNL A   1      47.119  27.772  33.159  1.00  0.00     0.001 A 
ATOM     50  C   UNL A   1      47.989  28.840  31.175  1.00  0.00     0.001 A 
ATOM     51  C   UNL A   1      48.195  28.084  32.327  1.00  0.00     0.000 A 
ENDBRANCH  27  46
BRANCH  39  52
ATOM     52  C   UNL A   1      42.134  34.779  33.353  1.00  0.00    -0.014 A 
ATOM     53  C   UNL A   1      42.908  35.841  32.859  1.00  0.00     0.009 A 
ATOM     54  C   UNL A   1      41.688  34.823  34.682  1.00  0.00     0.009 A 
ATOM     55  C   UNL A   1      43.268  36.900  33.696  1.00  0.00     0.001 A 
ATOM     56  C   UNL A   1      42.021  35.900  35.506  1.00  0.00     0.001 A 
ATOM     57  C   UNL A   1      42.823  36.930  35.016  1.00  0.00     0.000 A 
ENDBRANCH  39  52
ENDBRANCH  13  14
ENDBRANCH   6   8
ENDBRANCH   3   4
ENDBRANCH   2   3
ENDBRANCH   1   2
BRANCH   1  58
ATOM     58  C   UNL A   1      33.545  22.913  25.788  1.00  0.00     0.116 C 
BRANCH  58  59
ATOM     59  N   UNL A   1      33.249  24.319  25.592  1.00  0.00    -0.356 N 
ATOM     60  C   UNL A   1      31.972  24.762  25.803  1.00  0.00     0.225 C 
ATOM     61  H   UNL A   1      33.955  24.943  25.312  1.00  0.00     0.163 HD
ATOM     62  O   UNL A   1      31.723  25.321  26.867  1.00  0.00    -0.275 OA
BRANCH  60  63
ATOM     63  C   UNL A   1      30.913  24.427  24.771  1.00  0.00     0.107 C 
ATOM     64  C   UNL A   1      31.460  24.367  23.341  1.00  0.00     0.116 C 
ATOM     65  C   UNL A   1      29.882  25.546  24.713  1.00  0.00     0.139 C 
ATOM     66  C   UNL A   1      31.145  25.727  22.762  1.00  0.00     0.227 C 
ATOM     67  N   UNL A   1      30.396  26.432  23.698  1.00  0.00    -0.311 N 
ATOM     68  O   UNL A   1      31.500  26.111  21.655  1.00  0.00    -0.274 OA
BRANCH  67  69
ATOM     69  C   UNL A   1      29.795  27.678  23.448  1.00  0.00     0.055 A 
ATOM     70  C   UNL A   1      28.405  27.694  23.245  1.00  0.00     0.028 A 
ATOM     71  C   UNL A   1      30.504  28.894  23.497  1.00  0.00     0.048 A 
ATOM     72  C   UNL A   1      27.713  28.902  23.137  1.00  0.00     0.023 A 
ATOM     73  C   UNL A   1      29.791  30.105  23.385  1.00  0.00     0.035 A 
ATOM     74  C   UNL A   1      28.409  30.103  23.215  1.00  0.00     0.041 A 
ATOM     75  Cl  UNL A   1      27.557  31.593  23.117  1.00  0.00    -0.084 Cl
BRANCH  71  76
ATOM     76  C   UNL A   1      31.969  29.051  23.723  1.00  0.00     0.195 C 
ATOM     77  O   UNL A   1      32.696  28.999  22.729  1.00  0.00    -0.289 OA
BRANCH  76  78
ATOM     78  C   UNL A   1      32.614  29.217  25.054  1.00  0.00     0.023 A 
ATOM     79  C   UNL A   1      33.645  28.325  25.394  1.00  0.00     0.012 A 
ATOM     80  C   UNL A   1      32.231  30.187  25.981  1.00  0.00     0.012 A 
ATOM     81  C   UNL A   1      34.342  28.459  26.597  1.00  0.00     0.001 A 
ATOM     82  C   UNL A   1      32.941  30.334  27.179  1.00  0.00     0.001 A 
ATOM     83  C   UNL A   1      34.003  29.480  27.481  1.00  0.00     0.000 A 
ENDBRANCH  76  78
ENDBRANCH  71  76
ENDBRANCH  67  69
ENDBRANCH  60  63
ENDBRANCH  58  59
ENDBRANCH   1  58
TORSDOF 14
ENDMDL
MODEL 3
REMARK VINA RESULT:     -11.8      0.824      5.883
REMARK SMILES O=C(NCCCCNC(=O)[C@@H]1CC(=O)N(c2ccc(Cl)cc2C(=O)c2ccccc2)C1)c1ccc(-c2c3nc(c(-c4ccccc4)c4ccc([nH]4)c(-c4ccccc4)c4nc(c(-c5ccccc5)c5ccc2[nH]5)C=C4)C=C3)cc1
REMARK SMILES IDX 6 1 5 2 4 3 3 4 1 5 2 6 32 8 33 9 79 10 34 11 78 12 35 13
REMARK SMILES IDX 36 14 37 15 72 16 38 17 77 18 71 19 73 20 39 21 76 22 70 23
REMARK SMILES IDX 69 24 40 26 62 27 47 28 61 29 48 30 51 31 60 32 74 33 49 34
REMARK SMILES IDX 50 35 59 37 75 38 52 39 41 40 42 41 46 42 43 43 45 44 44 45
REMARK SMILES IDX 63 46 64 47 68 48 65 49 67 50 66 51 53 52 54 53 58 54 55 55
REMARK SMILES IDX 57 56 56 57 7 58 8 59 9 60 10 62 11 63 12 64 31 65 13 66
REMARK SMILES IDX 15 67 14 68 16 69 17 70 22 71 18 72 21 73 19 74 20 75 23 76
REMARK SMILES IDX 24 77 25 78 26 79 30 80 27 81 29 82 28 83
REMARK H PARENT 3 7 73 25 51 36 8 61
REMARK Flexibility Score: inf
ROOT
ATOM      1  C   UNL A   1      33.226  28.258  24.706  1.00  0.00     0.023 C 
ENDROOT
BRANCH   1   2
ATOM      2  C   UNL A   1      33.998  27.901  25.980  1.00  0.00     0.023 C 
BRANCH   2   3
ATOM      3  C   UNL A   1      33.341  28.308  27.296  1.00  0.00     0.116 C 
BRANCH   3   4
ATOM      4  N   UNL A   1      33.285  29.748  27.487  1.00  0.00    -0.352 N 
ATOM      5  O   UNL A   1      33.903  31.795  28.184  1.00  0.00    -0.269 OA
ATOM      6  C   UNL A   1      34.223  30.630  27.968  1.00  0.00     0.251 C 
ATOM      7  H   UNL A   1      32.430  30.162  27.227  1.00  0.00     0.163 HD
BRANCH   6   8
ATOM      8  C   UNL A   1      35.609  30.191  28.252  1.00  0.00     0.039 A 
ATOM      9  C   UNL A   1      35.962  29.682  29.501  1.00  0.00     0.014 A 
ATOM     10  C   UNL A   1      36.568  30.246  27.233  1.00  0.00     0.014 A 
ATOM     11  C   UNL A   1      37.293  29.396  29.783  1.00  0.00     0.010 A 
ATOM     12  C   UNL A   1      37.888  29.855  27.487  1.00  0.00     0.010 A 
ATOM     13  C   UNL A   1      38.271  29.458  28.775  1.00  0.00    -0.014 A 
BRANCH  13  14
ATOM     14  C   UNL A   1      39.657  29.026  29.098  1.00  0.00     0.031 A 
ATOM     15  C   UNL A   1      40.583  29.885  29.916  1.00  0.00     0.074 A 
ATOM     16  C   UNL A   1      40.057  27.803  28.696  1.00  0.00     0.049 A 
ATOM     17  N   UNL A   1      41.784  29.604  30.362  1.00  0.00    -0.248 NA
ATOM     18  C   UNL A   1      40.113  31.231  30.276  1.00  0.00     0.031 C 
ATOM     19  C   UNL A   1      39.260  26.883  27.879  1.00  0.00     0.029 A 
ATOM     20  N   UNL A   1      41.211  27.106  28.946  1.00  0.00    -0.354 N 
ATOM     21  C   UNL A   1      42.210  30.731  31.052  1.00  0.00     0.074 A 
ATOM     22  C   UNL A   1      41.157  31.718  30.933  1.00  0.00     0.031 C 
ATOM     23  C   UNL A   1      39.919  25.723  27.751  1.00  0.00     0.029 A 
ATOM     24  C   UNL A   1      41.211  25.839  28.415  1.00  0.00     0.049 A 
ATOM     25  H   UNL A   1      41.968  27.478  29.455  1.00  0.00     0.167 HD
ATOM     26  C   UNL A   1      43.366  30.923  31.734  1.00  0.00     0.031 A 
ATOM     27  C   UNL A   1      42.148  24.874  28.446  1.00  0.00     0.031 A 
ATOM     28  C   UNL A   1      44.422  29.948  31.838  1.00  0.00     0.049 A 
ATOM     29  C   UNL A   1      43.431  25.128  29.181  1.00  0.00     0.074 A 
ATOM     30  C   UNL A   1      45.628  30.050  32.512  1.00  0.00     0.029 A 
ATOM     31  N   UNL A   1      44.401  28.692  31.250  1.00  0.00    -0.354 N 
ATOM     32  N   UNL A   1      43.798  26.189  29.858  1.00  0.00    -0.248 NA
ATOM     33  C   UNL A   1      44.427  24.048  29.160  1.00  0.00     0.031 C 
ATOM     34  C   UNL A   1      46.357  28.877  32.288  1.00  0.00     0.029 A 
ATOM     35  C   UNL A   1      45.580  28.018  31.528  1.00  0.00     0.049 A 
ATOM     36  H   UNL A   1      43.658  28.332  30.713  1.00  0.00     0.167 HD
ATOM     37  C   UNL A   1      45.062  25.899  30.355  1.00  0.00     0.074 A 
ATOM     38  C   UNL A   1      45.379  24.551  29.932  1.00  0.00     0.031 C 
ATOM     39  C   UNL A   1      45.889  26.682  31.089  1.00  0.00     0.031 A 
BRANCH  26  40
ATOM     40  C   UNL A   1      43.561  32.251  32.417  1.00  0.00    -0.014 A 
ATOM     41  C   UNL A   1      43.183  32.442  33.755  1.00  0.00     0.009 A 
ATOM     42  C   UNL A   1      44.190  33.306  31.734  1.00  0.00     0.009 A 
ATOM     43  C   UNL A   1      43.403  33.668  34.386  1.00  0.00     0.001 A 
ATOM     44  C   UNL A   1      44.435  34.521  32.377  1.00  0.00     0.001 A 
ATOM     45  C   UNL A   1      44.036  34.704  33.699  1.00  0.00     0.000 A 
ENDBRANCH  26  40
BRANCH  27  46
ATOM     46  C   UNL A   1      41.916  23.589  27.734  1.00  0.00    -0.014 A 
ATOM     47  C   UNL A   1      42.332  23.411  26.407  1.00  0.00     0.009 A 
ATOM     48  C   UNL A   1      41.262  22.531  28.386  1.00  0.00     0.009 A 
ATOM     49  C   UNL A   1      42.068  22.214  25.738  1.00  0.00     0.001 A 
ATOM     50  C   UNL A   1      41.032  21.322  27.729  1.00  0.00     0.001 A 
ATOM     51  C   UNL A   1      41.424  21.169  26.400  1.00  0.00     0.000 A 
ENDBRANCH  27  46
BRANCH  39  52
ATOM     52  C   UNL A   1      47.205  26.081  31.498  1.00  0.00    -0.014 A 
ATOM     53  C   UNL A   1      47.374  25.484  32.758  1.00  0.00     0.009 A 
ATOM     54  C   UNL A   1      48.290  26.113  30.609  1.00  0.00     0.009 A 
ATOM     55  C   UNL A   1      48.619  24.975  33.136  1.00  0.00     0.001 A 
ATOM     56  C   UNL A   1      49.524  25.573  30.978  1.00  0.00     0.001 A 
ATOM     57  C   UNL A   1      49.691  25.017  32.246  1.00  0.00     0.000 A 
ENDBRANCH  39  52
ENDBRANCH  13  14
ENDBRANCH   6   8
ENDBRANCH   3   4
ENDBRANCH   2   3
ENDBRANCH   1   2
BRANCH   1  58
ATOM     58  C   UNL A   1      33.157  27.168  23.642  1.00  0.00     0.116 C 
BRANCH  58  59
ATOM     59  N   UNL A   1      33.638  25.878  24.094  1.00  0.00    -0.356 N 
ATOM     60  C   UNL A   1      33.652  24.831  23.213  1.00  0.00     0.225 C 
ATOM     61  H   UNL A   1      33.948  25.757  25.019  1.00  0.00     0.163 HD
ATOM     62  O   UNL A   1      34.718  24.538  22.681  1.00  0.00    -0.275 OA
BRANCH  60  63
ATOM     63  C   UNL A   1      32.333  24.178  22.849  1.00  0.00     0.107 C 
ATOM     64  C   UNL A   1      31.348  24.108  24.020  1.00  0.00     0.116 C 
ATOM     65  C   UNL A   1      32.566  22.716  22.490  1.00  0.00     0.139 C 
ATOM     66  C   UNL A   1      31.524  22.713  24.576  1.00  0.00     0.227 C 
ATOM     67  N   UNL A   1      32.405  22.027  23.746  1.00  0.00    -0.311 N 
ATOM     68  O   UNL A   1      30.972  22.290  25.583  1.00  0.00    -0.274 OA
BRANCH  67  69
ATOM     69  C   UNL A   1      32.689  20.655  23.864  1.00  0.00     0.055 A 
ATOM     70  C   UNL A   1      32.145  19.797  22.893  1.00  0.00     0.028 A 
ATOM     71  C   UNL A   1      33.565  20.135  24.837  1.00  0.00     0.048 A 
ATOM     72  C   UNL A   1      32.499  18.447  22.854  1.00  0.00     0.023 A 
ATOM     73  C   UNL A   1      33.911  18.770  24.785  1.00  0.00     0.035 A 
ATOM     74  C   UNL A   1      33.387  17.942  23.797  1.00  0.00     0.041 A 
ATOM     75  Cl  UNL A   1      33.852  16.287  23.731  1.00  0.00    -0.084 Cl
BRANCH  71  76
ATOM     76  C   UNL A   1      34.239  20.909  25.918  1.00  0.00     0.195 C 
ATOM     77  O   UNL A   1      33.686  20.926  27.020  1.00  0.00    -0.289 OA
BRANCH  76  78
ATOM     78  C   UNL A   1      35.493  21.693  25.752  1.00  0.00     0.023 A 
ATOM     79  C   UNL A   1      35.427  23.080  25.963  1.00  0.00     0.012 A 
ATOM     80  C   UNL A   1      36.712  21.126  25.375  1.00  0.00     0.012 A 
ATOM     81  C   UNL A   1      36.577  23.872  25.891  1.00  0.00     0.001 A 
ATOM     82  C   UNL A   1      37.867  21.917  25.320  1.00  0.00     0.001 A 
ATOM     83  C   UNL A   1      37.802  23.284  25.590  1.00  0.00     0.000 A 
ENDBRANCH  76  78
ENDBRANCH  71  76
ENDBRANCH  67  69
ENDBRANCH  60  63
ENDBRANCH  58  59
ENDBRANCH   1  58
TORSDOF 14
ENDMDL
