MODEL 1
REMARK VINA RESULT:     -12.1      0.000      0.000
REMARK SMILES O=C(NCCCCNC(=O)c1cc(-c2ccccc2)nc(Nc2nc3ccccc3s2)n1)c1ccc(-c2c3nc(c(-c4ccccc4)c4ccc([nH]4)c(-c4ccccc4)c4nc(c(-c5ccccc5)c5ccc2[nH]5)C=C4)C=C3)cc1
REMARK SMILES IDX 5 1 4 2 3 3 1 4 2 5 33 7 34 8 80 9 35 10 79 11 36 12 37 13
REMARK SMILES IDX 38 14 73 15 39 16 78 17 72 18 74 19 40 20 77 21 71 22 70 23
REMARK SMILES IDX 41 25 63 26 48 27 62 28 49 29 52 30 61 31 75 32 50 33 51 34
REMARK SMILES IDX 60 36 76 37 53 38 42 39 43 40 47 41 44 42 46 43 45 44 64 45
REMARK SMILES IDX 65 46 69 47 66 48 68 49 67 50 54 51 55 52 59 53 56 54 58 55
REMARK SMILES IDX 57 56 6 57 7 58 8 59 9 60 10 62 11 63 12 64 32 65 13 66
REMARK SMILES IDX 21 67 20 68 14 69 15 70 19 71 16 72 18 73 17 74 22 75 23 77
REMARK SMILES IDX 24 78 31 79 25 80 30 81 26 82 29 83 27 84 28 85
REMARK H PARENT 3 6 74 24 52 35 8 61 22 76
REMARK Flexibility Score: inf
ROOT
ATOM      1  C   UNL A   1      34.078  28.218  25.812  1.00  0.00     0.023 C 
ENDROOT
BRANCH   1   2
ATOM      2  C   UNL A   1      33.527  28.511  27.201  1.00  0.00     0.116 C 
BRANCH   2   3
ATOM      3  N   UNL A   1      33.495  29.929  27.524  1.00  0.00    -0.352 N 
ATOM      4  O   UNL A   1      34.232  31.880  28.387  1.00  0.00    -0.269 OA
ATOM      5  C   UNL A   1      34.471  30.717  28.090  1.00  0.00     0.251 C 
ATOM      6  H   UNL A   1      32.653  30.391  27.306  1.00  0.00     0.163 HD
BRANCH   5   7
ATOM      7  C   UNL A   1      35.802  30.139  28.378  1.00  0.00     0.039 A 
ATOM      8  C   UNL A   1      36.079  29.568  29.622  1.00  0.00     0.014 A 
ATOM      9  C   UNL A   1      36.795  30.195  27.397  1.00  0.00     0.014 A 
ATOM     10  C   UNL A   1      37.384  29.219  29.943  1.00  0.00     0.010 A 
ATOM     11  C   UNL A   1      38.090  29.756  27.690  1.00  0.00     0.010 A 
ATOM     12  C   UNL A   1      38.406  29.308  28.982  1.00  0.00    -0.014 A 
BRANCH  12  13
ATOM     13  C   UNL A   1      39.784  28.896  29.351  1.00  0.00     0.031 A 
ATOM     14  C   UNL A   1      40.611  29.707  30.312  1.00  0.00     0.074 A 
ATOM     15  C   UNL A   1      40.271  27.743  28.852  1.00  0.00     0.049 A 
ATOM     16  N   UNL A   1      41.803  29.447  30.792  1.00  0.00    -0.248 NA
ATOM     17  C   UNL A   1      40.036  30.973  30.793  1.00  0.00     0.031 C 
ATOM     18  C   UNL A   1      39.568  26.869  27.910  1.00  0.00     0.029 A 
ATOM     19  N   UNL A   1      41.453  27.092  29.093  1.00  0.00    -0.354 N 
ATOM     20  C   UNL A   1      42.130  30.526  31.605  1.00  0.00     0.074 A 
ATOM     21  C   UNL A   1      41.020  31.452  31.541  1.00  0.00     0.031 C 
ATOM     22  C   UNL A   1      40.299  25.764  27.708  1.00  0.00     0.029 A 
ATOM     23  C   UNL A   1      41.546  25.878  28.456  1.00  0.00     0.049 A 
ATOM     24  H   UNL A   1      42.165  27.457  29.666  1.00  0.00     0.167 HD
ATOM     25  C   UNL A   1      43.251  30.725  32.341  1.00  0.00     0.031 A 
ATOM     26  C   UNL A   1      42.525  24.957  28.469  1.00  0.00     0.031 A 
ATOM     27  C   UNL A   1      44.349  29.797  32.419  1.00  0.00     0.049 A 
ATOM     28  C   UNL A   1      43.759  25.209  29.281  1.00  0.00     0.074 A 
ATOM     29  C   UNL A   1      45.508  29.893  33.171  1.00  0.00     0.029 A 
ATOM     30  N   UNL A   1      44.427  28.604  31.718  1.00  0.00    -0.354 N 
ATOM     31  N   UNL A   1      44.036  26.220  30.067  1.00  0.00    -0.248 NA
ATOM     32  C   UNL A   1      44.817  24.193  29.202  1.00  0.00     0.031 C 
ATOM     33  C   UNL A   1      46.307  28.779  32.890  1.00  0.00     0.029 A 
ATOM     34  C   UNL A   1      45.624  27.967  32.000  1.00  0.00     0.049 A 
ATOM     35  H   UNL A   1      43.733  28.261  31.109  1.00  0.00     0.167 HD
ATOM     36  C   UNL A   1      45.294  25.956  30.591  1.00  0.00     0.074 A 
ATOM     37  C   UNL A   1      45.716  24.681  30.046  1.00  0.00     0.031 C 
ATOM     38  C   UNL A   1      46.033  26.705  31.443  1.00  0.00     0.031 A 
BRANCH  25  39
ATOM     39  C   UNL A   1      43.360  32.016  33.104  1.00  0.00    -0.014 A 
ATOM     40  C   UNL A   1      43.919  33.165  32.523  1.00  0.00     0.009 A 
ATOM     41  C   UNL A   1      42.855  32.093  34.412  1.00  0.00     0.009 A 
ATOM     42  C   UNL A   1      43.999  34.356  33.251  1.00  0.00     0.001 A 
ATOM     43  C   UNL A   1      42.915  33.290  35.127  1.00  0.00     0.001 A 
ATOM     44  C   UNL A   1      43.495  34.418  34.549  1.00  0.00     0.000 A 
ENDBRANCH  25  39
BRANCH  26  45
ATOM     45  C   UNL A   1      42.368  23.706  27.686  1.00  0.00    -0.014 A 
ATOM     46  C   UNL A   1      42.712  23.671  26.327  1.00  0.00     0.009 A 
ATOM     47  C   UNL A   1      41.891  22.536  28.298  1.00  0.00     0.009 A 
ATOM     48  C   UNL A   1      42.569  22.492  25.592  1.00  0.00     0.001 A 
ATOM     49  C   UNL A   1      41.775  21.353  27.569  1.00  0.00     0.001 A 
ATOM     50  C   UNL A   1      42.106  21.334  26.215  1.00  0.00     0.000 A 
ENDBRANCH  26  45
BRANCH  38  51
ATOM     51  C   UNL A   1      47.365  26.145  31.852  1.00  0.00    -0.014 A 
ATOM     52  C   UNL A   1      48.515  26.375  31.083  1.00  0.00     0.009 A 
ATOM     53  C   UNL A   1      47.470  25.390  33.030  1.00  0.00     0.009 A 
ATOM     54  C   UNL A   1      49.741  25.827  31.467  1.00  0.00     0.001 A 
ATOM     55  C   UNL A   1      48.701  24.863  33.423  1.00  0.00     0.001 A 
ATOM     56  C   UNL A   1      49.833  25.074  32.637  1.00  0.00     0.000 A 
ENDBRANCH  38  51
ENDBRANCH  12  13
ENDBRANCH   5   7
ENDBRANCH   2   3
ENDBRANCH   1   2
BRANCH   1  57
ATOM     57  C   UNL A   1      33.147  28.550  24.651  1.00  0.00     0.023 C 
BRANCH  57  58
ATOM     58  C   UNL A   1      32.347  27.377  24.095  1.00  0.00     0.116 C 
BRANCH  58  59
ATOM     59  N   UNL A   1      32.685  27.045  22.720  1.00  0.00    -0.351 N 
ATOM     60  C   UNL A   1      33.196  25.864  22.227  1.00  0.00     0.270 C 
ATOM     61  H   UNL A   1      32.528  27.755  22.056  1.00  0.00     0.163 HD
ATOM     62  O   UNL A   1      33.396  25.729  21.024  1.00  0.00    -0.268 OA
BRANCH  60  63
ATOM     63  C   UNL A   1      33.470  24.761  23.176  1.00  0.00     0.134 A 
ATOM     64  C   UNL A   1      34.692  24.679  23.781  1.00  0.00     0.063 A 
ATOM     65  N   UNL A   1      32.524  23.821  23.262  1.00  0.00    -0.207 NA
ATOM     66  C   UNL A   1      34.937  23.490  24.426  1.00  0.00     0.077 A 
ATOM     67  C   UNL A   1      32.803  22.723  23.966  1.00  0.00     0.230 A 
ATOM     68  N   UNL A   1      34.002  22.515  24.542  1.00  0.00    -0.213 NA
BRANCH  66  69
ATOM     69  C   UNL A   1      36.300  23.182  24.882  1.00  0.00     0.000 A 
ATOM     70  C   UNL A   1      36.995  24.079  25.712  1.00  0.00     0.010 A 
ATOM     71  C   UNL A   1      36.893  21.935  24.615  1.00  0.00     0.010 A 
ATOM     72  C   UNL A   1      38.218  23.726  26.287  1.00  0.00     0.001 A 
ATOM     73  C   UNL A   1      38.118  21.582  25.186  1.00  0.00     0.001 A 
ATOM     74  C   UNL A   1      38.774  22.475  26.031  1.00  0.00     0.000 A 
ENDBRANCH  66  69
BRANCH  67  75
ATOM     75  N   UNL A   1      31.812  21.768  24.176  1.00  0.00    -0.300 N 
ATOM     76  H   UNL A   1      30.890  22.075  24.326  1.00  0.00     0.172 HD
BRANCH  75  77
ATOM     77  C   UNL A   1      32.057  20.441  24.184  1.00  0.00     0.190 A 
ATOM     78  N   UNL A   1      32.027  19.670  25.247  1.00  0.00    -0.220 NA
ATOM     79  S   UNL A   1      32.463  19.610  22.726  1.00  0.00    -0.097 S 
ATOM     80  C   UNL A   1      32.558  18.429  24.973  1.00  0.00     0.084 A 
ATOM     81  C   UNL A   1      32.889  18.208  23.638  1.00  0.00     0.056 A 
ATOM     82  C   UNL A   1      32.802  17.416  25.920  1.00  0.00     0.030 A 
ATOM     83  C   UNL A   1      33.476  17.003  23.216  1.00  0.00     0.021 A 
ATOM     84  C   UNL A   1      33.401  16.220  25.515  1.00  0.00     0.002 A 
ATOM     85  C   UNL A   1      33.736  16.021  24.180  1.00  0.00     0.002 A 
ENDBRANCH  75  77
ENDBRANCH  67  75
ENDBRANCH  60  63
ENDBRANCH  58  59
ENDBRANCH  57  58
ENDBRANCH   1  57
TORSDOF 14
ENDMDL
MODEL 2
REMARK VINA RESULT:     -12.0      2.421      7.863
REMARK SMILES O=C(NCCCCNC(=O)c1cc(-c2ccccc2)nc(Nc2nc3ccccc3s2)n1)c1ccc(-c2c3nc(c(-c4ccccc4)c4ccc([nH]4)c(-c4ccccc4)c4nc(c(-c5ccccc5)c5ccc2[nH]5)C=C4)C=C3)cc1
REMARK SMILES IDX 5 1 4 2 3 3 1 4 2 5 33 7 34 8 80 9 35 10 79 11 36 12 37 13
REMARK SMILES IDX 38 14 73 15 39 16 78 17 72 18 74 19 40 20 77 21 71 22 70 23
REMARK SMILES IDX 41 25 63 26 48 27 62 28 49 29 52 30 61 31 75 32 50 33 51 34
REMARK SMILES IDX 60 36 76 37 53 38 42 39 43 40 47 41 44 42 46 43 45 44 64 45
REMARK SMILES IDX 65 46 69 47 66 48 68 49 67 50 54 51 55 52 59 53 56 54 58 55
REMARK SMILES IDX 57 56 6 57 7 58 8 59 9 60 10 62 11 63 12 64 32 65 13 66
REMARK SMILES IDX 21 67 20 68 14 69 15 70 19 71 16 72 18 73 17 74 22 75 23 77
REMARK SMILES IDX 24 78 31 79 25 80 30 81 26 82 29 83 27 84 28 85
REMARK H PARENT 3 6 74 24 52 35 8 61 22 76
REMARK Flexibility Score: inf
ROOT
ATOM      1  C   UNL A   1      39.218  21.414  25.728  1.00  0.00     0.023 C 
ENDROOT
BRANCH   1   2
ATOM      2  C   UNL A   1      39.826  20.299  26.568  1.00  0.00     0.116 C 
BRANCH   2   3
ATOM      3  N   UNL A   1      41.002  19.693  25.964  1.00  0.00    -0.352 N 
ATOM      4  O   UNL A   1      43.129  19.581  25.214  1.00  0.00    -0.269 OA
ATOM      5  C   UNL A   1      42.280  20.193  25.849  1.00  0.00     0.251 C 
ATOM      6  H   UNL A   1      40.865  18.795  25.583  1.00  0.00     0.163 HD
BRANCH   5   7
ATOM      7  C   UNL A   1      42.613  21.498  26.463  1.00  0.00     0.039 A 
ATOM      8  C   UNL A   1      42.658  21.644  27.850  1.00  0.00     0.014 A 
ATOM      9  C   UNL A   1      42.856  22.596  25.633  1.00  0.00     0.014 A 
ATOM     10  C   UNL A   1      42.768  22.913  28.404  1.00  0.00     0.010 A 
ATOM     11  C   UNL A   1      43.060  23.860  26.195  1.00  0.00     0.010 A 
ATOM     12  C   UNL A   1      42.971  24.037  27.584  1.00  0.00    -0.014 A 
BRANCH  12  13
ATOM     13  C   UNL A   1      43.115  25.374  28.214  1.00  0.00     0.031 A 
ATOM     14  C   UNL A   1      44.466  25.919  28.590  1.00  0.00     0.074 A 
ATOM     15  C   UNL A   1      42.013  26.127  28.395  1.00  0.00     0.049 A 
ATOM     16  N   UNL A   1      44.770  27.095  29.081  1.00  0.00    -0.248 NA
ATOM     17  C   UNL A   1      45.626  25.033  28.400  1.00  0.00     0.031 C 
ATOM     18  C   UNL A   1      40.646  25.711  28.073  1.00  0.00     0.029 A 
ATOM     19  N   UNL A   1      41.871  27.409  28.860  1.00  0.00    -0.354 N 
ATOM     20  C   UNL A   1      46.145  27.081  29.284  1.00  0.00     0.074 A 
ATOM     21  C   UNL A   1      46.616  25.773  28.880  1.00  0.00     0.031 C 
ATOM     22  C   UNL A   1      39.814  26.740  28.282  1.00  0.00     0.029 A 
ATOM     23  C   UNL A   1      40.576  27.866  28.809  1.00  0.00     0.049 A 
ATOM     24  H   UNL A   1      42.621  27.948  29.197  1.00  0.00     0.167 HD
ATOM     25  C   UNL A   1      46.944  28.067  29.760  1.00  0.00     0.031 A 
ATOM     26  C   UNL A   1      40.056  29.058  29.150  1.00  0.00     0.031 A 
ATOM     27  C   UNL A   1      46.480  29.374  30.147  1.00  0.00     0.049 A 
ATOM     28  C   UNL A   1      40.961  30.127  29.685  1.00  0.00     0.074 A 
ATOM     29  C   UNL A   1      47.220  30.454  30.601  1.00  0.00     0.029 A 
ATOM     30  N   UNL A   1      45.155  29.780  30.130  1.00  0.00    -0.354 N 
ATOM     31  N   UNL A   1      42.261  30.104  29.840  1.00  0.00    -0.248 NA
ATOM     32  C   UNL A   1      40.321  31.383  30.098  1.00  0.00     0.031 C 
ATOM     33  C   UNL A   1      46.337  31.496  30.901  1.00  0.00     0.029 A 
ATOM     34  C   UNL A   1      45.052  31.083  30.588  1.00  0.00     0.049 A 
ATOM     35  H   UNL A   1      44.398  29.223  29.836  1.00  0.00     0.167 HD
ATOM     36  C   UNL A   1      42.601  31.349  30.354  1.00  0.00     0.074 A 
ATOM     37  C   UNL A   1      41.370  32.106  30.465  1.00  0.00     0.031 C 
ATOM     38  C   UNL A   1      43.822  31.819  30.703  1.00  0.00     0.031 A 
BRANCH  25  39
ATOM     39  C   UNL A   1      48.408  27.761  29.916  1.00  0.00    -0.014 A 
ATOM     40  C   UNL A   1      49.325  28.028  28.889  1.00  0.00     0.009 A 
ATOM     41  C   UNL A   1      48.879  27.234  31.129  1.00  0.00     0.009 A 
ATOM     42  C   UNL A   1      50.683  27.743  29.063  1.00  0.00     0.001 A 
ATOM     43  C   UNL A   1      50.239  26.973  31.309  1.00  0.00     0.001 A 
ATOM     44  C   UNL A   1      51.137  27.219  30.273  1.00  0.00     0.000 A 
ENDBRANCH  25  39
BRANCH  26  45
ATOM     45  C   UNL A   1      38.601  29.300  28.985  1.00  0.00    -0.014 A 
ATOM     46  C   UNL A   1      37.726  29.126  30.067  1.00  0.00     0.009 A 
ATOM     47  C   UNL A   1      38.083  29.724  27.752  1.00  0.00     0.009 A 
ATOM     48  C   UNL A   1      36.358  29.359  29.913  1.00  0.00     0.001 A 
ATOM     49  C   UNL A   1      36.720  29.983  27.607  1.00  0.00     0.001 A 
ATOM     50  C   UNL A   1      35.858  29.792  28.685  1.00  0.00     0.000 A 
ENDBRANCH  26  45
BRANCH  38  51
ATOM     51  C   UNL A   1      43.880  33.228  31.218  1.00  0.00    -0.014 A 
ATOM     52  C   UNL A   1      44.002  34.316  30.342  1.00  0.00     0.009 A 
ATOM     53  C   UNL A   1      43.800  33.467  32.599  1.00  0.00     0.009 A 
ATOM     54  C   UNL A   1      44.078  35.618  30.842  1.00  0.00     0.001 A 
ATOM     55  C   UNL A   1      43.853  34.771  33.093  1.00  0.00     0.001 A 
ATOM     56  C   UNL A   1      44.002  35.844  32.215  1.00  0.00     0.000 A 
ENDBRANCH  38  51
ENDBRANCH  12  13
ENDBRANCH   5   7
ENDBRANCH   2   3
ENDBRANCH   1   2
BRANCH   1  57
ATOM     57  C   UNL A   1      38.803  22.664  26.496  1.00  0.00     0.023 C 
BRANCH  57  58
ATOM     58  C   UNL A   1      37.578  23.391  25.952  1.00  0.00     0.116 C 
BRANCH  58  59
ATOM     59  N   UNL A   1      37.496  23.382  24.500  1.00  0.00    -0.351 N 
ATOM     60  C   UNL A   1      36.479  22.902  23.704  1.00  0.00     0.270 C 
ATOM     61  H   UNL A   1      38.267  23.769  24.025  1.00  0.00     0.163 HD
ATOM     62  O   UNL A   1      36.547  23.000  22.483  1.00  0.00    -0.268 OA
BRANCH  60  63
ATOM     63  C   UNL A   1      35.298  22.292  24.356  1.00  0.00     0.134 A 
ATOM     64  C   UNL A   1      35.277  20.946  24.591  1.00  0.00     0.063 A 
ATOM     65  N   UNL A   1      34.253  23.104  24.541  1.00  0.00    -0.207 NA
ATOM     66  C   UNL A   1      34.049  20.443  24.949  1.00  0.00     0.077 A 
ATOM     67  C   UNL A   1      33.111  22.559  24.960  1.00  0.00     0.230 A 
ATOM     68  N   UNL A   1      32.966  21.235  25.154  1.00  0.00    -0.213 NA
BRANCH  66  69
ATOM     69  C   UNL A   1      33.840  18.988  24.969  1.00  0.00     0.000 A 
ATOM     70  C   UNL A   1      32.738  18.435  25.643  1.00  0.00     0.010 A 
ATOM     71  C   UNL A   1      34.652  18.126  24.209  1.00  0.00     0.010 A 
ATOM     72  C   UNL A   1      32.435  17.075  25.529  1.00  0.00     0.001 A 
ATOM     73  C   UNL A   1      34.352  16.766  24.098  1.00  0.00     0.001 A 
ATOM     74  C   UNL A   1      33.237  16.244  24.750  1.00  0.00     0.000 A 
ENDBRANCH  66  69
BRANCH  67  75
ATOM     75  N   UNL A   1      32.029  23.378  25.272  1.00  0.00    -0.300 N 
ATOM     76  H   UNL A   1      31.165  22.956  25.478  1.00  0.00     0.172 HD
BRANCH  75  77
ATOM     77  C   UNL A   1      32.110  24.725  25.304  1.00  0.00     0.190 A 
ATOM     78  N   UNL A   1      32.423  25.442  26.359  1.00  0.00    -0.220 NA
ATOM     79  S   UNL A   1      31.777  25.663  23.893  1.00  0.00    -0.097 S 
ATOM     80  C   UNL A   1      32.180  26.779  26.139  1.00  0.00     0.084 A 
ATOM     81  C   UNL A   1      31.786  27.104  24.843  1.00  0.00     0.056 A 
ATOM     82  C   UNL A   1      32.275  27.799  27.106  1.00  0.00     0.030 A 
ATOM     83  C   UNL A   1      31.465  28.423  24.480  1.00  0.00     0.021 A 
ATOM     84  C   UNL A   1      31.943  29.112  26.762  1.00  0.00     0.002 A 
ATOM     85  C   UNL A   1      31.540  29.416  25.465  1.00  0.00     0.002 A 
ENDBRANCH  75  77
ENDBRANCH  67  75
ENDBRANCH  60  63
ENDBRANCH  58  59
ENDBRANCH  57  58
ENDBRANCH   1  57
TORSDOF 14
ENDMDL
MODEL 3
REMARK VINA RESULT:     -11.9      1.118      5.800
REMARK SMILES O=C(NCCCCNC(=O)c1cc(-c2ccccc2)nc(Nc2nc3ccccc3s2)n1)c1ccc(-c2c3nc(c(-c4ccccc4)c4ccc([nH]4)c(-c4ccccc4)c4nc(c(-c5ccccc5)c5ccc2[nH]5)C=C4)C=C3)cc1
REMARK SMILES IDX 5 1 4 2 3 3 1 4 2 5 33 7 34 8 80 9 35 10 79 11 36 12 37 13
REMARK SMILES IDX 38 14 73 15 39 16 78 17 72 18 74 19 40 20 77 21 71 22 70 23
REMARK SMILES IDX 41 25 63 26 48 27 62 28 49 29 52 30 61 31 75 32 50 33 51 34
REMARK SMILES IDX 60 36 76 37 53 38 42 39 43 40 47 41 44 42 46 43 45 44 64 45
REMARK SMILES IDX 65 46 69 47 66 48 68 49 67 50 54 51 55 52 59 53 56 54 58 55
REMARK SMILES IDX 57 56 6 57 7 58 8 59 9 60 10 62 11 63 12 64 32 65 13 66
REMARK SMILES IDX 21 67 20 68 14 69 15 70 19 71 16 72 18 73 17 74 22 75 23 77
REMARK SMILES IDX 24 78 31 79 25 80 30 81 26 82 29 83 27 84 28 85
REMARK H PARENT 3 6 74 24 52 35 8 61 22 76
REMARK Flexibility Score: inf
ROOT
ATOM      1  C   UNL A   1      32.435  27.953  26.733  1.00  0.00     0.023 C 
ENDROOT
BRANCH   1   2
ATOM      2  C   UNL A   1      33.789  28.483  27.187  1.00  0.00     0.116 C 
BRANCH   2   3
ATOM      3  N   UNL A   1      33.739  29.845  27.694  1.00  0.00    -0.352 N 
ATOM      4  O   UNL A   1      34.471  31.690  28.770  1.00  0.00    -0.269 OA
ATOM      5  C   UNL A   1      34.723  30.582  28.314  1.00  0.00     0.251 C 
ATOM      6  H   UNL A   1      32.877  30.307  27.576  1.00  0.00     0.163 HD
BRANCH   5   7
ATOM      7  C   UNL A   1      36.080  30.011  28.464  1.00  0.00     0.039 A 
ATOM      8  C   UNL A   1      36.454  29.358  29.640  1.00  0.00     0.014 A 
ATOM      9  C   UNL A   1      36.998  30.157  27.421  1.00  0.00     0.014 A 
ATOM     10  C   UNL A   1      37.784  29.012  29.841  1.00  0.00     0.010 A 
ATOM     11  C   UNL A   1      38.317  29.724  27.589  1.00  0.00     0.010 A 
ATOM     12  C   UNL A   1      38.732  29.190  28.819  1.00  0.00    -0.014 A 
BRANCH  12  13
ATOM     13  C   UNL A   1      40.139  28.780  29.059  1.00  0.00     0.031 A 
ATOM     14  C   UNL A   1      40.646  27.432  28.624  1.00  0.00     0.074 A 
ATOM     15  C   UNL A   1      40.983  29.663  29.629  1.00  0.00     0.049 A 
ATOM     16  N   UNL A   1      41.862  26.949  28.694  1.00  0.00    -0.248 NA
ATOM     17  C   UNL A   1      39.666  26.502  28.041  1.00  0.00     0.031 C 
ATOM     18  C   UNL A   1      40.613  31.001  30.097  1.00  0.00     0.029 A 
ATOM     19  N   UNL A   1      42.328  29.583  29.879  1.00  0.00    -0.354 N 
ATOM     20  C   UNL A   1      41.789  25.655  28.194  1.00  0.00     0.074 A 
ATOM     21  C   UNL A   1      40.406  25.420  27.838  1.00  0.00     0.031 C 
ATOM     22  C   UNL A   1      41.715  31.641  30.510  1.00  0.00     0.029 A 
ATOM     23  C   UNL A   1      42.856  30.741  30.395  1.00  0.00     0.049 A 
ATOM     24  H   UNL A   1      42.863  28.776  29.706  1.00  0.00     0.167 HD
ATOM     25  C   UNL A   1      42.783  24.746  28.041  1.00  0.00     0.031 A 
ATOM     26  C   UNL A   1      44.119  31.049  30.740  1.00  0.00     0.031 A 
ATOM     27  C   UNL A   1      44.162  24.984  28.378  1.00  0.00     0.049 A 
ATOM     28  C   UNL A   1      45.196  30.020  30.571  1.00  0.00     0.074 A 
ATOM     29  C   UNL A   1      45.248  24.138  28.219  1.00  0.00     0.029 A 
ATOM     30  N   UNL A   1      44.647  26.151  28.947  1.00  0.00    -0.354 N 
ATOM     31  N   UNL A   1      45.112  28.814  30.068  1.00  0.00    -0.248 NA
ATOM     32  C   UNL A   1      46.541  30.397  31.025  1.00  0.00     0.031 C 
ATOM     33  C   UNL A   1      46.381  24.778  28.733  1.00  0.00     0.029 A 
ATOM     34  C   UNL A   1      46.009  26.040  29.168  1.00  0.00     0.049 A 
ATOM     35  H   UNL A   1      44.102  26.943  29.162  1.00  0.00     0.167 HD
ATOM     36  C   UNL A   1      46.397  28.290  30.128  1.00  0.00     0.074 A 
ATOM     37  C   UNL A   1      47.242  29.319  30.700  1.00  0.00     0.031 C 
ATOM     38  C   UNL A   1      46.834  27.067  29.747  1.00  0.00     0.031 A 
BRANCH  25  39
ATOM     39  C   UNL A   1      42.408  23.391  27.506  1.00  0.00    -0.014 A 
ATOM     40  C   UNL A   1      42.633  23.046  26.165  1.00  0.00     0.009 A 
ATOM     41  C   UNL A   1      41.859  22.432  28.372  1.00  0.00     0.009 A 
ATOM     42  C   UNL A   1      42.285  21.776  25.695  1.00  0.00     0.001 A 
ATOM     43  C   UNL A   1      41.535  21.157  27.906  1.00  0.00     0.001 A 
ATOM     44  C   UNL A   1      41.740  20.834  26.566  1.00  0.00     0.000 A 
ENDBRANCH  25  39
BRANCH  26  45
ATOM     45  C   UNL A   1      44.428  32.398  31.274  1.00  0.00    -0.014 A 
ATOM     46  C   UNL A   1      44.780  33.442  30.406  1.00  0.00     0.009 A 
ATOM     47  C   UNL A   1      44.352  32.655  32.652  1.00  0.00     0.009 A 
ATOM     48  C   UNL A   1      45.065  34.713  30.909  1.00  0.00     0.001 A 
ATOM     49  C   UNL A   1      44.611  33.932  33.150  1.00  0.00     0.001 A 
ATOM     50  C   UNL A   1      44.975  34.958  32.279  1.00  0.00     0.000 A 
ENDBRANCH  26  45
BRANCH  38  51
ATOM     51  C   UNL A   1      48.300  26.790  29.919  1.00  0.00    -0.014 A 
ATOM     52  C   UNL A   1      48.792  26.191  31.088  1.00  0.00     0.009 A 
ATOM     53  C   UNL A   1      49.195  27.122  28.892  1.00  0.00     0.009 A 
ATOM     54  C   UNL A   1      50.161  25.962  31.240  1.00  0.00     0.001 A 
ATOM     55  C   UNL A   1      50.560  26.870  29.037  1.00  0.00     0.001 A 
ATOM     56  C   UNL A   1      51.043  26.300  30.215  1.00  0.00     0.000 A 
ENDBRANCH  38  51
ENDBRANCH  12  13
ENDBRANCH   5   7
ENDBRANCH   2   3
ENDBRANCH   1   2
BRANCH   1  57
ATOM     57  C   UNL A   1      32.110  28.159  25.258  1.00  0.00     0.023 C 
BRANCH  57  58
ATOM     58  C   UNL A   1      31.954  26.883  24.437  1.00  0.00     0.116 C 
BRANCH  58  59
ATOM     59  N   UNL A   1      32.537  26.975  23.107  1.00  0.00    -0.351 N 
ATOM     60  C   UNL A   1      33.242  26.014  22.415  1.00  0.00     0.270 C 
ATOM     61  H   UNL A   1      32.411  27.833  22.642  1.00  0.00     0.163 HD
ATOM     62  O   UNL A   1      33.642  26.238  21.277  1.00  0.00    -0.268 OA
BRANCH  60  63
ATOM     63  C   UNL A   1      33.482  24.706  23.066  1.00  0.00     0.134 A 
ATOM     64  C   UNL A   1      34.633  24.504  23.772  1.00  0.00     0.063 A 
ATOM     65  N   UNL A   1      32.593  23.748  22.785  1.00  0.00    -0.207 NA
ATOM     66  C   UNL A   1      34.882  23.194  24.106  1.00  0.00     0.077 A 
ATOM     67  C   UNL A   1      32.864  22.511  23.203  1.00  0.00     0.230 A 
ATOM     68  N   UNL A   1      34.003  22.194  23.846  1.00  0.00    -0.213 NA
BRANCH  66  69
ATOM     69  C   UNL A   1      36.204  22.818  24.627  1.00  0.00     0.000 A 
ATOM     70  C   UNL A   1      36.933  23.711  25.431  1.00  0.00     0.010 A 
ATOM     71  C   UNL A   1      36.715  21.520  24.451  1.00  0.00     0.010 A 
ATOM     72  C   UNL A   1      38.109  23.307  26.069  1.00  0.00     0.001 A 
ATOM     73  C   UNL A   1      37.892  21.116  25.084  1.00  0.00     0.001 A 
ATOM     74  C   UNL A   1      38.583  22.008  25.902  1.00  0.00     0.000 A 
ENDBRANCH  66  69
BRANCH  67  75
ATOM     75  N   UNL A   1      31.919  21.503  23.031  1.00  0.00    -0.300 N 
ATOM     76  H   UNL A   1      31.051  21.737  22.632  1.00  0.00     0.172 HD
BRANCH  75  77
ATOM     77  C   UNL A   1      32.136  20.220  23.389  1.00  0.00     0.190 A 
ATOM     78  N   UNL A   1      32.102  19.757  24.618  1.00  0.00    -0.220 NA
ATOM     79  S   UNL A   1      32.508  19.024  22.201  1.00  0.00    -0.097 S 
ATOM     80  C   UNL A   1      32.603  18.477  24.679  1.00  0.00     0.084 A 
ATOM     81  C   UNL A   1      32.915  17.903  23.449  1.00  0.00     0.056 A 
ATOM     82  C   UNL A   1      32.837  17.744  25.859  1.00  0.00     0.030 A 
ATOM     83  C   UNL A   1      33.472  16.617  23.356  1.00  0.00     0.021 A 
ATOM     84  C   UNL A   1      33.407  16.471  25.782  1.00  0.00     0.002 A 
ATOM     85  C   UNL A   1      33.722  15.918  24.545  1.00  0.00     0.002 A 
ENDBRANCH  75  77
ENDBRANCH  67  75
ENDBRANCH  60  63
ENDBRANCH  58  59
ENDBRANCH  57  58
ENDBRANCH   1  57
TORSDOF 14
ENDMDL
