MODEL 1
REMARK VINA RESULT:     -12.7      0.000      0.000
REMARK SMILES CC1(C)S[C@H]2[C@H](NC(=O)[C@H](NN3CCNC3=O)c3ccccc3)C(=O)N2[C@H]1C(=O)NCCCCNC(=O)c1ccc(-c2c3nc(c(-c4ccccc4)c4ccc([nH]4)c(-c4ccccc4)c4nc(c(-c5ccccc5)c5ccc2[nH]5)C=C4)C=C3)cc1
REMARK SMILES IDX 31 1 30 2 28 3 29 4 27 6 1 7 2 8 3 9 4 10 5 11 26 12 6 13
REMARK SMILES IDX 24 14 25 15 7 16 8 17 9 19 10 20 18 21 19 22 23 23 20 24
REMARK SMILES IDX 22 25 21 26 11 27 12 29 13 30 16 31 14 32 15 33 17 34 32 36
REMARK SMILES IDX 33 37 34 38 35 39 36 40 37 42 38 43 39 44 85 45 40 46 84 47
REMARK SMILES IDX 41 48 42 49 43 50 78 51 44 52 83 53 77 54 79 55 45 56 82 57
REMARK SMILES IDX 76 58 75 59 46 61 68 62 53 63 67 64 54 65 57 66 66 67 80 68
REMARK SMILES IDX 55 69 56 70 65 72 81 73 58 74 47 75 48 76 52 77 49 78 51 79
REMARK SMILES IDX 50 80 69 81 70 82 74 83 71 84 73 85 72 86 59 87 60 88 64 89
REMARK SMILES IDX 61 90 63 91 62 92
REMARK H PARENT 30 5 7 18 11 28 15 35 35 41 79 60 57 71
REMARK Flexibility Score: inf
ROOT
ATOM      1  C   UNL A   1      34.944  21.608  25.477  1.00  0.00     0.116 C 
ENDROOT
BRANCH   1   2
ATOM      2  N   UNL A   1      33.725  20.826  25.409  1.00  0.00    -0.354 N 
ATOM      3  C   UNL A   1      32.483  21.057  24.924  1.00  0.00     0.244 C 
ATOM      4  O   UNL A   1      31.746  20.057  24.941  1.00  0.00    -0.273 OA
ATOM      5  H   UNL A   1      33.823  19.929  25.802  1.00  0.00     0.163 HD
BRANCH   3   6
ATOM      6  C   UNL A   1      31.845  22.433  24.602  1.00  0.00     0.191 C 
ATOM      7  C   UNL A   1      30.375  22.564  26.692  1.00  0.00     0.026 C 
ATOM      8  C   UNL A   1      31.470  23.247  25.862  1.00  0.00     0.042 C 
ATOM      9  C   UNL A   1      32.637  23.605  26.780  1.00  0.00     0.026 C 
ATOM     10  S   UNL A   1      30.796  24.843  25.193  1.00  0.00    -0.125 SA
ATOM     11  C   UNL A   1      31.689  24.726  23.591  1.00  0.00     0.176 C 
ATOM     12  N   UNL A   1      32.270  23.365  23.560  1.00  0.00    -0.313 N 
ATOM     13  C   UNL A   1      33.139  25.292  23.606  1.00  0.00     0.205 C 
ATOM     14  C   UNL A   1      33.501  23.802  23.223  1.00  0.00     0.249 C 
ATOM     15  O   UNL A   1      34.424  23.192  22.736  1.00  0.00    -0.272 OA
BRANCH  13  16
ATOM     16  N   UNL A   1      33.559  26.262  22.569  1.00  0.00    -0.340 N 
ATOM     17  C   UNL A   1      33.400  27.622  22.541  1.00  0.00     0.244 C 
ATOM     18  H   UNL A   1      34.017  25.875  21.789  1.00  0.00     0.164 HD
ATOM     19  O   UNL A   1      34.165  28.234  21.782  1.00  0.00    -0.273 OA
BRANCH  17  20
ATOM     20  C   UNL A   1      32.342  28.416  23.363  1.00  0.00     0.194 C 
BRANCH  20  21
ATOM     21  C   UNL A   1      32.772  28.987  24.710  1.00  0.00    -0.020 A 
ATOM     22  C   UNL A   1      33.961  28.554  25.322  1.00  0.00     0.006 A 
ATOM     23  C   UNL A   1      32.075  30.028  25.337  1.00  0.00     0.006 A 
ATOM     24  C   UNL A   1      34.310  28.966  26.609  1.00  0.00     0.000 A 
ATOM     25  C   UNL A   1      32.445  30.477  26.607  1.00  0.00     0.000 A 
ATOM     26  C   UNL A   1      33.533  29.911  27.263  1.00  0.00     0.000 A 
ENDBRANCH  20  21
BRANCH  20  27
ATOM     27  N   UNL A   1      31.480  29.281  22.497  1.00  0.00    -0.213 NA
ATOM     28  H   UNL A   1      31.687  29.046  21.526  1.00  0.00     0.149 HD
BRANCH  27  29
ATOM     29  N   UNL A   1      30.091  29.178  22.669  1.00  0.00    -0.257 N 
ATOM     30  C   UNL A   1      29.431  28.078  23.341  1.00  0.00     0.163 C 
ATOM     31  C   UNL A   1      29.175  29.926  21.939  1.00  0.00     0.331 C 
ATOM     32  C   UNL A   1      27.976  28.188  22.912  1.00  0.00     0.141 C 
ATOM     33  N   UNL A   1      27.917  29.430  22.206  1.00  0.00    -0.335 N 
ATOM     34  O   UNL A   1      29.392  30.866  21.196  1.00  0.00    -0.247 OA
ATOM     35  H   UNL A   1      27.080  29.877  21.942  1.00  0.00     0.165 HD
ENDBRANCH  27  29
ENDBRANCH  20  27
ENDBRANCH  17  20
ENDBRANCH  13  16
ENDBRANCH   3   6
ENDBRANCH   1   2
BRANCH   1  36
ATOM     36  C   UNL A   1      36.160  20.790  25.028  1.00  0.00     0.023 C 
BRANCH  36  37
ATOM     37  C   UNL A   1      37.412  21.585  24.645  1.00  0.00     0.023 C 
BRANCH  37  38
ATOM     38  C   UNL A   1      38.170  22.344  25.733  1.00  0.00     0.116 C 
BRANCH  38  39
ATOM     39  N   UNL A   1      39.610  22.122  25.776  1.00  0.00    -0.352 N 
ATOM     40  C   UNL A   1      40.655  22.911  26.214  1.00  0.00     0.251 C 
ATOM     41  H   UNL A   1      39.890  21.244  25.429  1.00  0.00     0.163 HD
ATOM     42  O   UNL A   1      41.818  22.536  26.090  1.00  0.00    -0.269 OA
BRANCH  40  43
ATOM     43  C   UNL A   1      40.383  24.249  26.785  1.00  0.00     0.039 A 
ATOM     44  C   UNL A   1      39.660  24.365  27.975  1.00  0.00     0.014 A 
ATOM     45  C   UNL A   1      40.906  25.388  26.186  1.00  0.00     0.014 A 
ATOM     46  C   UNL A   1      39.632  25.593  28.646  1.00  0.00     0.010 A 
ATOM     47  C   UNL A   1      41.028  26.551  26.932  1.00  0.00     0.010 A 
ATOM     48  C   UNL A   1      40.406  26.669  28.182  1.00  0.00    -0.014 A 
BRANCH  48  49
ATOM     49  C   UNL A   1      40.617  27.907  28.984  1.00  0.00     0.031 A 
ATOM     50  C   UNL A   1      41.846  28.055  29.847  1.00  0.00     0.074 A 
ATOM     51  C   UNL A   1      39.644  28.843  29.045  1.00  0.00     0.049 A 
ATOM     52  N   UNL A   1      42.128  28.974  30.736  1.00  0.00    -0.248 NA
ATOM     53  C   UNL A   1      42.864  26.995  29.745  1.00  0.00     0.031 C 
ATOM     54  C   UNL A   1      38.359  28.792  28.340  1.00  0.00     0.029 A 
ATOM     55  N   UNL A   1      39.581  30.023  29.747  1.00  0.00    -0.354 N 
ATOM     56  C   UNL A   1      43.315  28.568  31.333  1.00  0.00     0.074 A 
ATOM     57  C   UNL A   1      43.665  27.290  30.756  1.00  0.00     0.031 C 
ATOM     58  C   UNL A   1      37.664  29.910  28.601  1.00  0.00     0.029 A 
ATOM     59  C   UNL A   1      38.424  30.734  29.532  1.00  0.00     0.049 A 
ATOM     60  H   UNL A   1      40.298  30.330  30.348  1.00  0.00     0.167 HD
ATOM     61  C   UNL A   1      44.070  29.212  32.254  1.00  0.00     0.031 A 
ATOM     62  C   UNL A   1      38.017  31.918  30.028  1.00  0.00     0.031 A 
ATOM     63  C   UNL A   1      43.765  30.516  32.772  1.00  0.00     0.049 A 
ATOM     64  C   UNL A   1      38.908  32.652  30.990  1.00  0.00     0.074 A 
ATOM     65  C   UNL A   1      44.520  31.305  33.623  1.00  0.00     0.029 A 
ATOM     66  N   UNL A   1      42.617  31.232  32.472  1.00  0.00    -0.354 N 
ATOM     67  N   UNL A   1      40.071  32.292  31.477  1.00  0.00    -0.248 NA
ATOM     68  C   UNL A   1      38.437  33.963  31.461  1.00  0.00     0.031 C 
ATOM     69  C   UNL A   1      43.810  32.485  33.866  1.00  0.00     0.029 A 
ATOM     70  C   UNL A   1      42.636  32.448  33.129  1.00  0.00     0.049 A 
ATOM     71  H   UNL A   1      41.896  30.920  31.878  1.00  0.00     0.167 HD
ATOM     72  C   UNL A   1      40.481  33.341  32.289  1.00  0.00     0.074 A 
ATOM     73  C   UNL A   1      39.453  34.358  32.214  1.00  0.00     0.031 C 
ATOM     74  C   UNL A   1      41.608  33.450  33.034  1.00  0.00     0.031 A 
BRANCH  61  75
ATOM     75  C   UNL A   1      45.313  28.516  32.742  1.00  0.00    -0.014 A 
ATOM     76  C   UNL A   1      46.506  28.549  32.000  1.00  0.00     0.009 A 
ATOM     77  C   UNL A   1      45.297  27.832  33.967  1.00  0.00     0.009 A 
ATOM     78  C   UNL A   1      47.639  27.869  32.449  1.00  0.00     0.001 A 
ATOM     79  C   UNL A   1      46.442  27.182  34.431  1.00  0.00     0.001 A 
ATOM     80  C   UNL A   1      47.607  27.190  33.666  1.00  0.00     0.000 A 
ENDBRANCH  61  75
BRANCH  62  81
ATOM     81  C   UNL A   1      36.719  32.507  29.599  1.00  0.00    -0.014 A 
ATOM     82  C   UNL A   1      36.642  33.259  28.417  1.00  0.00     0.009 A 
ATOM     83  C   UNL A   1      35.559  32.335  30.369  1.00  0.00     0.009 A 
ATOM     84  C   UNL A   1      35.438  33.852  28.029  1.00  0.00     0.001 A 
ATOM     85  C   UNL A   1      34.349  32.905  29.964  1.00  0.00     0.001 A 
ATOM     86  C   UNL A   1      34.292  33.672  28.801  1.00  0.00     0.000 A 
ENDBRANCH  62  81
BRANCH  74  87
ATOM     87  C   UNL A   1      41.805  34.729  33.796  1.00  0.00    -0.014 A 
ATOM     88  C   UNL A   1      41.301  34.885  35.096  1.00  0.00     0.009 A 
ATOM     89  C   UNL A   1      42.548  35.771  33.220  1.00  0.00     0.009 A 
ATOM     90  C   UNL A   1      41.515  36.075  35.794  1.00  0.00     0.001 A 
ATOM     91  C   UNL A   1      42.784  36.947  33.931  1.00  0.00     0.001 A 
ATOM     92  C   UNL A   1      42.259  37.102  35.214  1.00  0.00     0.000 A 
ENDBRANCH  74  87
ENDBRANCH  48  49
ENDBRANCH  40  43
ENDBRANCH  38  39
ENDBRANCH  37  38
ENDBRANCH  36  37
ENDBRANCH   1  36
TORSDOF 16
ENDMDL
MODEL 2
REMARK VINA RESULT:     -12.6      2.119      3.219
REMARK SMILES CC1(C)S[C@H]2[C@H](NC(=O)[C@H](NN3CCNC3=O)c3ccccc3)C(=O)N2[C@H]1C(=O)NCCCCNC(=O)c1ccc(-c2c3nc(c(-c4ccccc4)c4ccc([nH]4)c(-c4ccccc4)c4nc(c(-c5ccccc5)c5ccc2[nH]5)C=C4)C=C3)cc1
REMARK SMILES IDX 31 1 30 2 28 3 29 4 27 6 1 7 2 8 3 9 4 10 5 11 26 12 6 13
REMARK SMILES IDX 24 14 25 15 7 16 8 17 9 19 10 20 18 21 19 22 23 23 20 24
REMARK SMILES IDX 22 25 21 26 11 27 12 29 13 30 16 31 14 32 15 33 17 34 32 36
REMARK SMILES IDX 33 37 34 38 35 39 36 40 37 42 38 43 39 44 85 45 40 46 84 47
REMARK SMILES IDX 41 48 42 49 43 50 78 51 44 52 83 53 77 54 79 55 45 56 82 57
REMARK SMILES IDX 76 58 75 59 46 61 68 62 53 63 67 64 54 65 57 66 66 67 80 68
REMARK SMILES IDX 55 69 56 70 65 72 81 73 58 74 47 75 48 76 52 77 49 78 51 79
REMARK SMILES IDX 50 80 69 81 70 82 74 83 71 84 73 85 72 86 59 87 60 88 64 89
REMARK SMILES IDX 61 90 63 91 62 92
REMARK H PARENT 30 5 7 18 11 28 15 35 35 41 79 60 57 71
REMARK Flexibility Score: inf
ROOT
ATOM      1  C   UNL A   1      35.038  21.557  25.104  1.00  0.00     0.116 C 
ENDROOT
BRANCH   1   2
ATOM      2  N   UNL A   1      33.833  20.756  25.016  1.00  0.00    -0.354 N 
ATOM      3  C   UNL A   1      32.584  20.979  24.547  1.00  0.00     0.244 C 
ATOM      4  O   UNL A   1      31.866  19.966  24.533  1.00  0.00    -0.273 OA
ATOM      5  H   UNL A   1      33.950  19.847  25.378  1.00  0.00     0.163 HD
BRANCH   3   6
ATOM      6  C   UNL A   1      31.919  22.353  24.275  1.00  0.00     0.191 C 
ATOM      7  C   UNL A   1      30.449  22.379  26.369  1.00  0.00     0.026 C 
ATOM      8  C   UNL A   1      31.530  23.113  25.564  1.00  0.00     0.042 C 
ATOM      9  C   UNL A   1      32.691  23.460  26.495  1.00  0.00     0.026 C 
ATOM     10  S   UNL A   1      30.824  24.720  24.955  1.00  0.00    -0.125 SA
ATOM     11  C   UNL A   1      31.717  24.679  23.349  1.00  0.00     0.176 C 
ATOM     12  N   UNL A   1      32.325  23.331  23.268  1.00  0.00    -0.313 N 
ATOM     13  C   UNL A   1      33.156  25.272  23.384  1.00  0.00     0.205 C 
ATOM     14  C   UNL A   1      33.546  23.805  22.947  1.00  0.00     0.249 C 
ATOM     15  O   UNL A   1      34.480  23.231  22.437  1.00  0.00    -0.272 OA
BRANCH  13  16
ATOM     16  N   UNL A   1      33.555  26.288  22.383  1.00  0.00    -0.340 N 
ATOM     17  C   UNL A   1      33.306  27.635  22.370  1.00  0.00     0.244 C 
ATOM     18  H   UNL A   1      34.074  25.947  21.619  1.00  0.00     0.164 HD
ATOM     19  O   UNL A   1      34.061  28.311  21.656  1.00  0.00    -0.273 OA
BRANCH  17  20
ATOM     20  C   UNL A   1      32.160  28.340  23.154  1.00  0.00     0.194 C 
BRANCH  20  21
ATOM     21  C   UNL A   1      32.477  28.873  24.547  1.00  0.00    -0.020 A 
ATOM     22  C   UNL A   1      33.606  28.414  25.247  1.00  0.00     0.006 A 
ATOM     23  C   UNL A   1      31.737  29.905  25.138  1.00  0.00     0.006 A 
ATOM     24  C   UNL A   1      33.847  28.790  26.569  1.00  0.00     0.000 A 
ATOM     25  C   UNL A   1      31.999  30.318  26.447  1.00  0.00     0.000 A 
ATOM     26  C   UNL A   1      33.023  29.726  27.178  1.00  0.00     0.000 A 
ENDBRANCH  20  21
BRANCH  20  27
ATOM     27  N   UNL A   1      31.309  29.197  22.270  1.00  0.00    -0.213 NA
ATOM     28  H   UNL A   1      31.432  28.868  21.312  1.00  0.00     0.149 HD
BRANCH  27  29
ATOM     29  N   UNL A   1      29.931  29.221  22.535  1.00  0.00    -0.257 N 
ATOM     30  C   UNL A   1      29.207  28.150  23.186  1.00  0.00     0.163 C 
ATOM     31  C   UNL A   1      29.052  30.104  21.919  1.00  0.00     0.331 C 
ATOM     32  C   UNL A   1      27.746  28.432  22.869  1.00  0.00     0.141 C 
ATOM     33  N   UNL A   1      27.769  29.719  22.245  1.00  0.00    -0.335 N 
ATOM     34  O   UNL A   1      29.316  31.066  21.219  1.00  0.00    -0.247 OA
ATOM     35  H   UNL A   1      26.968  30.263  22.069  1.00  0.00     0.165 HD
ENDBRANCH  27  29
ENDBRANCH  20  27
ENDBRANCH  17  20
ENDBRANCH  13  16
ENDBRANCH   3   6
ENDBRANCH   1   2
BRANCH   1  36
ATOM     36  C   UNL A   1      36.297  20.682  25.072  1.00  0.00     0.023 C 
BRANCH  36  37
ATOM     37  C   UNL A   1      37.615  21.398  24.761  1.00  0.00     0.023 C 
BRANCH  37  38
ATOM     38  C   UNL A   1      38.738  21.366  25.797  1.00  0.00     0.116 C 
BRANCH  38  39
ATOM     39  N   UNL A   1      39.625  20.211  25.735  1.00  0.00    -0.352 N 
ATOM     40  C   UNL A   1      40.960  20.052  26.051  1.00  0.00     0.251 C 
ATOM     41  H   UNL A   1      39.191  19.390  25.409  1.00  0.00     0.163 HD
ATOM     42  O   UNL A   1      41.528  18.982  25.853  1.00  0.00    -0.269 OA
BRANCH  40  43
ATOM     43  C   UNL A   1      41.736  21.196  26.579  1.00  0.00     0.039 A 
ATOM     44  C   UNL A   1      42.303  22.121  25.698  1.00  0.00     0.014 A 
ATOM     45  C   UNL A   1      41.843  21.401  27.949  1.00  0.00     0.014 A 
ATOM     46  C   UNL A   1      42.802  23.330  26.195  1.00  0.00     0.010 A 
ATOM     47  C   UNL A   1      42.172  22.662  28.423  1.00  0.00     0.010 A 
ATOM     48  C   UNL A   1      42.643  23.654  27.552  1.00  0.00    -0.014 A 
BRANCH  48  49
ATOM     49  C   UNL A   1      42.921  25.017  28.087  1.00  0.00     0.031 A 
ATOM     50  C   UNL A   1      44.317  25.396  28.516  1.00  0.00     0.074 A 
ATOM     51  C   UNL A   1      41.899  25.871  28.316  1.00  0.00     0.049 A 
ATOM     52  N   UNL A   1      44.726  26.464  29.153  1.00  0.00    -0.248 NA
ATOM     53  C   UNL A   1      45.385  24.416  28.251  1.00  0.00     0.031 C 
ATOM     54  C   UNL A   1      40.483  25.608  28.041  1.00  0.00     0.029 A 
ATOM     55  N   UNL A   1      41.895  27.139  28.846  1.00  0.00    -0.354 N 
ATOM     56  C   UNL A   1      46.074  26.253  29.414  1.00  0.00     0.074 A 
ATOM     57  C   UNL A   1      46.399  24.931  28.929  1.00  0.00     0.031 C 
ATOM     58  C   UNL A   1      39.760  26.695  28.352  1.00  0.00     0.029 A 
ATOM     59  C   UNL A   1      40.647  27.714  28.898  1.00  0.00     0.049 A 
ATOM     60  H   UNL A   1      42.710  27.594  29.159  1.00  0.00     0.167 HD
ATOM     61  C   UNL A   1      46.976  27.093  29.976  1.00  0.00     0.031 A 
ATOM     62  C   UNL A   1      40.257  28.927  29.335  1.00  0.00     0.031 A 
ATOM     63  C   UNL A   1      46.675  28.435  30.388  1.00  0.00     0.049 A 
ATOM     64  C   UNL A   1      41.288  29.872  29.883  1.00  0.00     0.074 A 
ATOM     65  C   UNL A   1      47.539  29.405  30.865  1.00  0.00     0.029 A 
ATOM     66  N   UNL A   1      45.411  29.001  30.356  1.00  0.00    -0.354 N 
ATOM     67  N   UNL A   1      42.577  29.686  30.042  1.00  0.00    -0.248 NA
ATOM     68  C   UNL A   1      40.815  31.200  30.300  1.00  0.00     0.031 C 
ATOM     69  C   UNL A   1      46.789  30.550  31.154  1.00  0.00     0.029 A 
ATOM     70  C   UNL A   1      45.468  30.304  30.815  1.00  0.00     0.049 A 
ATOM     71  H   UNL A   1      44.594  28.543  30.051  1.00  0.00     0.167 HD
ATOM     72  C   UNL A   1      43.071  30.880  30.551  1.00  0.00     0.074 A 
ATOM     73  C   UNL A   1      41.948  31.789  30.657  1.00  0.00     0.031 C 
ATOM     74  C   UNL A   1      44.341  31.195  30.903  1.00  0.00     0.031 A 
BRANCH  61  75
ATOM     75  C   UNL A   1      48.381  26.583  30.153  1.00  0.00    -0.014 A 
ATOM     76  C   UNL A   1      49.356  26.768  29.158  1.00  0.00     0.009 A 
ATOM     77  C   UNL A   1      48.741  25.924  31.339  1.00  0.00     0.009 A 
ATOM     78  C   UNL A   1      50.645  26.258  29.325  1.00  0.00     0.001 A 
ATOM     79  C   UNL A   1      50.041  25.446  31.518  1.00  0.00     0.001 A 
ATOM     80  C   UNL A   1      50.987  25.601  30.506  1.00  0.00     0.000 A 
ENDBRANCH  61  75
BRANCH  62  81
ATOM     81  C   UNL A   1      38.829  29.336  29.243  1.00  0.00    -0.014 A 
ATOM     82  C   UNL A   1      37.970  29.155  30.338  1.00  0.00     0.009 A 
ATOM     83  C   UNL A   1      38.314  29.896  28.064  1.00  0.00     0.009 A 
ATOM     84  C   UNL A   1      36.619  29.496  30.245  1.00  0.00     0.001 A 
ATOM     85  C   UNL A   1      36.968  30.263  27.983  1.00  0.00     0.001 A 
ATOM     86  C   UNL A   1      36.119  30.052  29.069  1.00  0.00     0.000 A 
ENDBRANCH  62  81
BRANCH  74  87
ATOM     87  C   UNL A   1      44.590  32.590  31.399  1.00  0.00    -0.014 A 
ATOM     88  C   UNL A   1      44.521  32.898  32.766  1.00  0.00     0.009 A 
ATOM     89  C   UNL A   1      44.945  33.596  30.488  1.00  0.00     0.009 A 
ATOM     90  C   UNL A   1      44.777  34.197  33.207  1.00  0.00     0.001 A 
ATOM     91  C   UNL A   1      45.227  34.886  30.935  1.00  0.00     0.001 A 
ATOM     92  C   UNL A   1      45.134  35.188  32.293  1.00  0.00     0.000 A 
ENDBRANCH  74  87
ENDBRANCH  48  49
ENDBRANCH  40  43
ENDBRANCH  38  39
ENDBRANCH  37  38
ENDBRANCH  36  37
ENDBRANCH   1  36
TORSDOF 16
ENDMDL
MODEL 3
REMARK VINA RESULT:     -12.6      2.393      6.422
REMARK SMILES CC1(C)S[C@H]2[C@H](NC(=O)[C@H](NN3CCNC3=O)c3ccccc3)C(=O)N2[C@H]1C(=O)NCCCCNC(=O)c1ccc(-c2c3nc(c(-c4ccccc4)c4ccc([nH]4)c(-c4ccccc4)c4nc(c(-c5ccccc5)c5ccc2[nH]5)C=C4)C=C3)cc1
REMARK SMILES IDX 31 1 30 2 28 3 29 4 27 6 1 7 2 8 3 9 4 10 5 11 26 12 6 13
REMARK SMILES IDX 24 14 25 15 7 16 8 17 9 19 10 20 18 21 19 22 23 23 20 24
REMARK SMILES IDX 22 25 21 26 11 27 12 29 13 30 16 31 14 32 15 33 17 34 32 36
REMARK SMILES IDX 33 37 34 38 35 39 36 40 37 42 38 43 39 44 85 45 40 46 84 47
REMARK SMILES IDX 41 48 42 49 43 50 78 51 44 52 83 53 77 54 79 55 45 56 82 57
REMARK SMILES IDX 76 58 75 59 46 61 68 62 53 63 67 64 54 65 57 66 66 67 80 68
REMARK SMILES IDX 55 69 56 70 65 72 81 73 58 74 47 75 48 76 52 77 49 78 51 79
REMARK SMILES IDX 50 80 69 81 70 82 74 83 71 84 73 85 72 86 59 87 60 88 64 89
REMARK SMILES IDX 61 90 63 91 62 92
REMARK H PARENT 30 5 7 18 11 28 15 35 35 41 79 60 57 71
REMARK Flexibility Score: inf
ROOT
ATOM      1  C   UNL A   1      34.955  21.733  25.348  1.00  0.00     0.116 C 
ENDROOT
BRANCH   1   2
ATOM      2  N   UNL A   1      33.761  20.913  25.287  1.00  0.00    -0.354 N 
ATOM      3  C   UNL A   1      32.513  21.100  24.800  1.00  0.00     0.244 C 
ATOM      4  O   UNL A   1      31.808  20.078  24.826  1.00  0.00    -0.273 OA
ATOM      5  H   UNL A   1      33.887  20.023  25.689  1.00  0.00     0.163 HD
BRANCH   3   6
ATOM      6  C   UNL A   1      31.833  22.452  24.465  1.00  0.00     0.191 C 
ATOM      7  C   UNL A   1      30.336  22.542  26.538  1.00  0.00     0.026 C 
ATOM      8  C   UNL A   1      31.417  23.258  25.717  1.00  0.00     0.042 C 
ATOM      9  C   UNL A   1      32.561  23.659  26.646  1.00  0.00     0.026 C 
ATOM     10  S   UNL A   1      30.697  24.828  25.034  1.00  0.00    -0.125 SA
ATOM     11  C   UNL A   1      31.611  24.735  23.442  1.00  0.00     0.176 C 
ATOM     12  N   UNL A   1      32.237  23.394  23.423  1.00  0.00    -0.313 N 
ATOM     13  C   UNL A   1      33.040  25.349  23.470  1.00  0.00     0.205 C 
ATOM     14  C   UNL A   1      33.457  23.872  23.098  1.00  0.00     0.249 C 
ATOM     15  O   UNL A   1      34.405  23.290  22.623  1.00  0.00    -0.272 OA
BRANCH  13  16
ATOM     16  N   UNL A   1      33.438  26.329  22.433  1.00  0.00    -0.340 N 
ATOM     17  C   UNL A   1      33.214  27.680  22.387  1.00  0.00     0.244 C 
ATOM     18  H   UNL A   1      33.935  25.957  21.669  1.00  0.00     0.164 HD
ATOM     19  O   UNL A   1      33.968  28.321  21.640  1.00  0.00    -0.273 OA
BRANCH  17  20
ATOM     20  C   UNL A   1      32.098  28.428  23.173  1.00  0.00     0.194 C 
BRANCH  20  21
ATOM     21  C   UNL A   1      32.452  28.994  24.544  1.00  0.00    -0.020 A 
ATOM     22  C   UNL A   1      33.649  28.622  25.181  1.00  0.00     0.006 A 
ATOM     23  C   UNL A   1      31.674  29.974  25.172  1.00  0.00     0.006 A 
ATOM     24  C   UNL A   1      33.935  29.024  26.487  1.00  0.00     0.000 A 
ATOM     25  C   UNL A   1      31.978  30.415  26.462  1.00  0.00     0.000 A 
ATOM     26  C   UNL A   1      33.081  29.904  27.137  1.00  0.00     0.000 A 
ENDBRANCH  20  21
BRANCH  20  27
ATOM     27  N   UNL A   1      31.245  29.277  22.282  1.00  0.00    -0.213 NA
ATOM     28  H   UNL A   1      31.386  28.955  21.324  1.00  0.00     0.149 HD
BRANCH  27  29
ATOM     29  N   UNL A   1      29.864  29.279  22.529  1.00  0.00    -0.257 N 
ATOM     30  C   UNL A   1      29.141  28.178  23.132  1.00  0.00     0.163 C 
ATOM     31  C   UNL A   1      28.984  30.175  21.932  1.00  0.00     0.331 C 
ATOM     32  C   UNL A   1      27.682  28.458  22.805  1.00  0.00     0.141 C 
ATOM     33  N   UNL A   1      27.701  29.766  22.227  1.00  0.00    -0.335 N 
ATOM     34  O   UNL A   1      29.248  31.163  21.271  1.00  0.00    -0.247 OA
ATOM     35  H   UNL A   1      26.897  30.308  22.060  1.00  0.00     0.165 HD
ENDBRANCH  27  29
ENDBRANCH  20  27
ENDBRANCH  17  20
ENDBRANCH  13  16
ENDBRANCH   3   6
ENDBRANCH   1   2
BRANCH   1  36
ATOM     36  C   UNL A   1      36.209  20.925  24.995  1.00  0.00     0.023 C 
BRANCH  36  37
ATOM     37  C   UNL A   1      37.490  21.729  24.746  1.00  0.00     0.023 C 
BRANCH  37  38
ATOM     38  C   UNL A   1      38.638  21.621  25.748  1.00  0.00     0.116 C 
BRANCH  38  39
ATOM     39  N   UNL A   1      39.406  20.383  25.702  1.00  0.00    -0.352 N 
ATOM     40  C   UNL A   1      40.711  20.091  26.044  1.00  0.00     0.251 C 
ATOM     41  H   UNL A   1      38.898  19.609  25.366  1.00  0.00     0.163 HD
ATOM     42  O   UNL A   1      41.173  18.969  25.856  1.00  0.00    -0.269 OA
BRANCH  40  43
ATOM     43  C   UNL A   1      41.588  21.152  26.588  1.00  0.00     0.039 A 
ATOM     44  C   UNL A   1      42.178  22.079  25.726  1.00  0.00     0.014 A 
ATOM     45  C   UNL A   1      41.769  21.279  27.960  1.00  0.00     0.014 A 
ATOM     46  C   UNL A   1      42.782  23.225  26.256  1.00  0.00     0.010 A 
ATOM     47  C   UNL A   1      42.206  22.489  28.477  1.00  0.00     0.010 A 
ATOM     48  C   UNL A   1      42.706  23.490  27.633  1.00  0.00    -0.014 A 
BRANCH  48  49
ATOM     49  C   UNL A   1      43.102  24.802  28.219  1.00  0.00     0.031 A 
ATOM     50  C   UNL A   1      42.056  25.846  28.523  1.00  0.00     0.074 A 
ATOM     51  C   UNL A   1      44.410  25.112  28.353  1.00  0.00     0.049 A 
ATOM     52  N   UNL A   1      42.213  27.097  28.876  1.00  0.00    -0.248 NA
ATOM     53  C   UNL A   1      40.648  25.451  28.344  1.00  0.00     0.031 C 
ATOM     54  C   UNL A   1      45.538  24.240  28.010  1.00  0.00     0.029 A 
ATOM     55  N   UNL A   1      45.016  26.260  28.806  1.00  0.00    -0.354 N 
ATOM     56  C   UNL A   1      40.935  27.645  28.899  1.00  0.00     0.074 A 
ATOM     57  C   UNL A   1      40.024  26.613  28.461  1.00  0.00     0.031 C 
ATOM     58  C   UNL A   1      46.689  24.859  28.315  1.00  0.00     0.029 A 
ATOM     59  C   UNL A   1      46.389  26.191  28.824  1.00  0.00     0.049 A 
ATOM     60  H   UNL A   1      44.513  27.056  29.092  1.00  0.00     0.167 HD
ATOM     61  C   UNL A   1      40.545  28.883  29.284  1.00  0.00     0.031 A 
ATOM     62  C   UNL A   1      47.308  27.099  29.208  1.00  0.00     0.031 A 
ATOM     63  C   UNL A   1      41.440  29.885  29.793  1.00  0.00     0.049 A 
ATOM     64  C   UNL A   1      46.847  28.440  29.704  1.00  0.00     0.074 A 
ATOM     65  C   UNL A   1      41.134  31.130  30.313  1.00  0.00     0.029 A 
ATOM     66  N   UNL A   1      42.816  29.746  29.861  1.00  0.00    -0.354 N 
ATOM     67  N   UNL A   1      45.626  28.909  29.802  1.00  0.00    -0.248 NA
ATOM     68  C   UNL A   1      47.889  29.372  30.156  1.00  0.00     0.031 C 
ATOM     69  C   UNL A   1      42.332  31.760  30.664  1.00  0.00     0.029 A 
ATOM     70  C   UNL A   1      43.377  30.888  30.404  1.00  0.00     0.049 A 
ATOM     71  H   UNL A   1      43.320  28.953  29.566  1.00  0.00     0.167 HD
ATOM     72  C   UNL A   1      45.752  30.178  30.350  1.00  0.00     0.074 A 
ATOM     73  C   UNL A   1      47.165  30.398  30.581  1.00  0.00     0.031 C 
ATOM     74  C   UNL A   1      44.784  31.083  30.633  1.00  0.00     0.031 A 
BRANCH  61  75
ATOM     75  C   UNL A   1      39.079  29.210  29.186  1.00  0.00    -0.014 A 
ATOM     76  C   UNL A   1      38.218  29.036  30.282  1.00  0.00     0.009 A 
ATOM     77  C   UNL A   1      38.554  29.714  27.986  1.00  0.00     0.009 A 
ATOM     78  C   UNL A   1      36.854  29.310  30.163  1.00  0.00     0.001 A 
ATOM     79  C   UNL A   1      37.196  30.021  27.881  1.00  0.00     0.001 A 
ATOM     80  C   UNL A   1      36.346  29.806  28.964  1.00  0.00     0.000 A 
ENDBRANCH  61  75
BRANCH  62  81
ATOM     81  C   UNL A   1      48.757  26.762  29.174  1.00  0.00    -0.014 A 
ATOM     82  C   UNL A   1      49.361  26.131  30.272  1.00  0.00     0.009 A 
ATOM     83  C   UNL A   1      49.545  27.077  28.057  1.00  0.00     0.009 A 
ATOM     84  C   UNL A   1      50.729  25.851  30.267  1.00  0.00     0.001 A 
ATOM     85  C   UNL A   1      50.908  26.770  28.042  1.00  0.00     0.001 A 
ATOM     86  C   UNL A   1      51.502  26.167  29.151  1.00  0.00     0.000 A 
ENDBRANCH  62  81
BRANCH  74  87
ATOM     87  C   UNL A   1      45.217  32.377  31.260  1.00  0.00    -0.014 A 
ATOM     88  C   UNL A   1      45.328  32.509  32.653  1.00  0.00     0.009 A 
ATOM     89  C   UNL A   1      45.564  33.462  30.441  1.00  0.00     0.009 A 
ATOM     90  C   UNL A   1      45.752  33.714  33.213  1.00  0.00     0.001 A 
ATOM     91  C   UNL A   1      46.014  34.656  31.004  1.00  0.00     0.001 A 
ATOM     92  C   UNL A   1      46.099  34.785  32.389  1.00  0.00     0.000 A 
ENDBRANCH  74  87
ENDBRANCH  48  49
ENDBRANCH  40  43
ENDBRANCH  38  39
ENDBRANCH  37  38
ENDBRANCH  36  37
ENDBRANCH   1  36
TORSDOF 16
ENDMDL
