MODEL 1
REMARK VINA RESULT:     -10.4      0.000      0.000
REMARK SMILES CSCc1ccc(C(=O)N2C[C@@H](O)C[C@@H]2C(=O)NCCCCNC(=O)c2ccc(-c3c4nc(c(-c5ccccc5)c5ccc([nH]5)c(-c5ccccc5)c5nc(c(-c6ccccc6)c6ccc3[nH]6)C=C5)C=C4)cc2)o1
REMARK SMILES IDX 19 1 18 2 16 3 17 4 15 6 10 7 11 8 12 9 14 10 8 11 9 12 7 13
REMARK SMILES IDX 4 14 5 15 74 16 6 17 3 18 2 19 1 20 13 21 20 23 21 24 22 25
REMARK SMILES IDX 23 26 24 27 25 29 26 30 27 31 73 32 28 33 72 34 29 35 30 36
REMARK SMILES IDX 31 37 66 38 32 39 71 40 65 41 67 42 33 43 70 44 64 45 63 46
REMARK SMILES IDX 34 48 56 49 41 50 55 51 42 52 45 53 54 54 68 55 43 56 44 57
REMARK SMILES IDX 53 59 69 60 46 61 35 62 36 63 40 64 37 65 39 66 38 67 57 68
REMARK SMILES IDX 58 69 62 70 59 71 61 72 60 73 47 74 48 75 52 76 49 77 51 78
REMARK SMILES IDX 50 79
REMARK H PARENT 18 5 13 22 23 28 67 47 45 58
REMARK Flexibility Score: inf
ROOT
ATOM      1  C   UNL A   1      33.011  26.141  25.645  1.00  0.00     0.116 C 
ENDROOT
BRANCH   1   2
ATOM      2  N   UNL A   1      33.273  24.869  26.286  1.00  0.00    -0.354 N 
ATOM      3  C   UNL A   1      34.330  24.022  26.118  1.00  0.00     0.242 C 
ATOM      4  O   UNL A   1      34.371  23.004  26.815  1.00  0.00    -0.273 OA
ATOM      5  H   UNL A   1      32.593  24.574  26.934  1.00  0.00     0.163 HD
BRANCH   3   6
ATOM      6  C   UNL A   1      35.465  24.400  25.143  1.00  0.00     0.177 C 
ATOM      7  N   UNL A   1      35.380  23.544  23.962  1.00  0.00    -0.321 N 
ATOM      8  C   UNL A   1      36.520  22.647  23.874  1.00  0.00     0.152 C 
ATOM      9  C   UNL A   1      37.091  22.638  25.291  1.00  0.00     0.136 C 
ATOM     10  C   UNL A   1      36.819  24.066  25.771  1.00  0.00     0.069 C 
BRANCH   7  11
ATOM     11  C   UNL A   1      34.308  23.690  23.099  1.00  0.00     0.290 C 
ATOM     12  O   UNL A   1      34.135  24.784  22.544  1.00  0.00    -0.265 OA
BRANCH  11  13
ATOM     13  C   UNL A   1      33.353  22.602  22.985  1.00  0.00     0.191 A 
ATOM     14  C   UNL A   1      32.564  20.605  23.521  1.00  0.00     0.114 A 
ATOM     15  C   UNL A   1      31.916  20.976  22.364  1.00  0.00     0.047 A 
ATOM     16  O   UNL A   1      33.414  21.595  23.918  1.00  0.00    -0.455 OA
ATOM     17  C   UNL A   1      32.441  22.239  22.006  1.00  0.00     0.056 A 
BRANCH  14  18
ATOM     18  C   UNL A   1      32.565  19.360  24.325  1.00  0.00     0.144 C 
BRANCH  18  19
ATOM     19  S   UNL A   1      32.829  17.881  23.304  1.00  0.00    -0.157 SA
ATOM     20  C   UNL A   1      34.242  17.182  24.191  1.00  0.00     0.085 C 
ENDBRANCH  18  19
ENDBRANCH  14  18
ENDBRANCH  11  13
ENDBRANCH   7  11
BRANCH   9  21
ATOM     21  O   UNL A   1      38.471  22.324  25.340  1.00  0.00    -0.391 OA
ATOM     22  H   UNL A   1      38.729  21.871  24.523  1.00  0.00     0.211 HD
ENDBRANCH   9  21
ENDBRANCH   3   6
ENDBRANCH   1   2
BRANCH   1  23
ATOM     23  C   UNL A   1      31.795  26.856  26.231  1.00  0.00     0.023 C 
BRANCH  23  24
ATOM     24  C   UNL A   1      32.096  27.875  27.337  1.00  0.00     0.023 C 
BRANCH  24  25
ATOM     25  C   UNL A   1      33.470  28.541  27.288  1.00  0.00     0.116 C 
BRANCH  25  26
ATOM     26  N   UNL A   1      33.445  29.949  27.639  1.00  0.00    -0.352 N 
ATOM     27  C   UNL A   1      34.441  30.732  28.171  1.00  0.00     0.251 C 
ATOM     28  H   UNL A   1      32.590  30.409  27.474  1.00  0.00     0.163 HD
ATOM     29  O   UNL A   1      34.198  31.896  28.482  1.00  0.00    -0.269 OA
BRANCH  27  30
ATOM     30  C   UNL A   1      35.795  30.180  28.408  1.00  0.00     0.039 A 
ATOM     31  C   UNL A   1      36.713  30.197  27.351  1.00  0.00     0.014 A 
ATOM     32  C   UNL A   1      36.159  29.623  29.636  1.00  0.00     0.014 A 
ATOM     33  C   UNL A   1      38.011  29.712  27.543  1.00  0.00     0.010 A 
ATOM     34  C   UNL A   1      37.467  29.182  29.841  1.00  0.00     0.010 A 
ATOM     35  C   UNL A   1      38.406  29.225  28.798  1.00  0.00    -0.014 A 
BRANCH  35  36
ATOM     36  C   UNL A   1      39.793  28.754  29.037  1.00  0.00     0.031 A 
ATOM     37  C   UNL A   1      40.814  29.678  29.643  1.00  0.00     0.074 A 
ATOM     38  C   UNL A   1      40.154  27.511  28.664  1.00  0.00     0.049 A 
ATOM     39  N   UNL A   1      42.092  29.479  29.843  1.00  0.00    -0.248 NA
ATOM     40  C   UNL A   1      40.337  31.005  30.063  1.00  0.00     0.031 C 
ATOM     41  C   UNL A   1      39.269  26.517  28.053  1.00  0.00     0.029 A 
ATOM     42  N   UNL A   1      41.368  26.876  28.740  1.00  0.00    -0.354 N 
ATOM     43  C   UNL A   1      42.576  30.658  30.395  1.00  0.00     0.074 A 
ATOM     44  C   UNL A   1      41.460  31.577  30.473  1.00  0.00     0.031 C 
ATOM     45  C   UNL A   1      39.967  25.391  27.827  1.00  0.00     0.029 A 
ATOM     46  C   UNL A   1      41.351  25.595  28.244  1.00  0.00     0.049 A 
ATOM     47  H   UNL A   1      42.175  27.299  29.114  1.00  0.00     0.167 HD
ATOM     48  C   UNL A   1      43.832  30.947  30.810  1.00  0.00     0.031 A 
ATOM     49  C   UNL A   1      42.339  24.688  28.134  1.00  0.00     0.031 A 
ATOM     50  C   UNL A   1      44.944  30.038  30.751  1.00  0.00     0.049 A 
ATOM     51  C   UNL A   1      43.723  25.037  28.600  1.00  0.00     0.074 A 
ATOM     52  C   UNL A   1      46.251  30.244  31.159  1.00  0.00     0.029 A 
ATOM     53  N   UNL A   1      44.876  28.744  30.262  1.00  0.00    -0.354 N 
ATOM     54  N   UNL A   1      44.160  26.153  29.130  1.00  0.00    -0.248 NA
ATOM     55  C   UNL A   1      44.749  23.992  28.460  1.00  0.00     0.031 C 
ATOM     56  C   UNL A   1      46.980  29.077  30.901  1.00  0.00     0.029 A 
ATOM     57  C   UNL A   1      46.117  28.138  30.360  1.00  0.00     0.049 A 
ATOM     58  H   UNL A   1      44.066  28.319  29.898  1.00  0.00     0.167 HD
ATOM     59  C   UNL A   1      45.502  25.936  29.411  1.00  0.00     0.074 A 
ATOM     60  C   UNL A   1      45.807  24.581  29.001  1.00  0.00     0.031 C 
ATOM     61  C   UNL A   1      46.400  26.786  29.963  1.00  0.00     0.031 A 
BRANCH  48  62
ATOM     62  C   UNL A   1      44.067  32.319  31.371  1.00  0.00    -0.014 A 
ATOM     63  C   UNL A   1      44.477  33.374  30.540  1.00  0.00     0.009 A 
ATOM     64  C   UNL A   1      43.848  32.568  32.734  1.00  0.00     0.009 A 
ATOM     65  C   UNL A   1      44.690  34.648  31.072  1.00  0.00     0.001 A 
ATOM     66  C   UNL A   1      44.043  33.846  33.259  1.00  0.00     0.001 A 
ATOM     67  C   UNL A   1      44.469  34.883  32.430  1.00  0.00     0.000 A 
ENDBRANCH  48  62
BRANCH  49  68
ATOM     68  C   UNL A   1      42.058  23.345  27.568  1.00  0.00    -0.014 A 
ATOM     69  C   UNL A   1      42.347  23.072  26.223  1.00  0.00     0.009 A 
ATOM     70  C   UNL A   1      41.482  22.341  28.361  1.00  0.00     0.009 A 
ATOM     71  C   UNL A   1      42.041  21.825  25.675  1.00  0.00     0.001 A 
ATOM     72  C   UNL A   1      41.195  21.089  27.814  1.00  0.00     0.001 A 
ATOM     73  C   UNL A   1      41.467  20.835  26.470  1.00  0.00     0.000 A 
ENDBRANCH  49  68
BRANCH  61  74
ATOM     74  C   UNL A   1      47.784  26.257  30.200  1.00  0.00    -0.014 A 
ATOM     75  C   UNL A   1      48.738  26.235  29.172  1.00  0.00     0.009 A 
ATOM     76  C   UNL A   1      48.142  25.801  31.477  1.00  0.00     0.009 A 
ATOM     77  C   UNL A   1      50.022  25.741  29.415  1.00  0.00     0.001 A 
ATOM     78  C   UNL A   1      49.430  25.323  31.721  1.00  0.00     0.001 A 
ATOM     79  C   UNL A   1      50.365  25.288  30.689  1.00  0.00     0.000 A 
ENDBRANCH  61  74
ENDBRANCH  35  36
ENDBRANCH  27  30
ENDBRANCH  25  26
ENDBRANCH  24  25
ENDBRANCH  23  24
ENDBRANCH   1  23
TORSDOF 16
ENDMDL
MODEL 2
REMARK VINA RESULT:     -10.2      3.526      5.425
REMARK SMILES CSCc1ccc(C(=O)N2C[C@@H](O)C[C@@H]2C(=O)NCCCCNC(=O)c2ccc(-c3c4nc(c(-c5ccccc5)c5ccc([nH]5)c(-c5ccccc5)c5nc(c(-c6ccccc6)c6ccc3[nH]6)C=C5)C=C4)cc2)o1
REMARK SMILES IDX 19 1 18 2 16 3 17 4 15 6 10 7 11 8 12 9 14 10 8 11 9 12 7 13
REMARK SMILES IDX 4 14 5 15 74 16 6 17 3 18 2 19 1 20 13 21 20 23 21 24 22 25
REMARK SMILES IDX 23 26 24 27 25 29 26 30 27 31 73 32 28 33 72 34 29 35 30 36
REMARK SMILES IDX 31 37 66 38 32 39 71 40 65 41 67 42 33 43 70 44 64 45 63 46
REMARK SMILES IDX 34 48 56 49 41 50 55 51 42 52 45 53 54 54 68 55 43 56 44 57
REMARK SMILES IDX 53 59 69 60 46 61 35 62 36 63 40 64 37 65 39 66 38 67 57 68
REMARK SMILES IDX 58 69 62 70 59 71 61 72 60 73 47 74 48 75 52 76 49 77 51 78
REMARK SMILES IDX 50 79
REMARK H PARENT 18 5 13 22 23 28 67 47 45 58
REMARK Flexibility Score: inf
ROOT
ATOM      1  C   UNL A   1      32.301  29.590  26.884  1.00  0.00     0.116 C 
ENDROOT
BRANCH   1   2
ATOM      2  N   UNL A   1      31.523  28.373  26.995  1.00  0.00    -0.354 N 
ATOM      3  C   UNL A   1      31.764  27.146  26.451  1.00  0.00     0.242 C 
ATOM      4  O   UNL A   1      30.983  26.229  26.723  1.00  0.00    -0.273 OA
ATOM      5  H   UNL A   1      30.705  28.442  27.539  1.00  0.00     0.163 HD
BRANCH   3   6
ATOM      6  C   UNL A   1      33.033  26.922  25.600  1.00  0.00     0.177 C 
ATOM      7  N   UNL A   1      32.653  26.873  24.189  1.00  0.00    -0.321 N 
ATOM      8  C   UNL A   1      32.865  25.549  23.629  1.00  0.00     0.152 C 
ATOM      9  C   UNL A   1      32.945  24.640  24.854  1.00  0.00     0.136 C 
ATOM     10  C   UNL A   1      33.617  25.539  25.895  1.00  0.00     0.069 C 
BRANCH   7  11
ATOM     11  C   UNL A   1      32.192  28.024  23.575  1.00  0.00     0.290 C 
ATOM     12  O   UNL A   1      32.968  28.980  23.441  1.00  0.00    -0.265 OA
BRANCH  11  13
ATOM     13  C   UNL A   1      30.782  28.115  23.237  1.00  0.00     0.191 A 
ATOM     14  C   UNL A   1      28.991  29.203  22.524  1.00  0.00     0.114 A 
ATOM     15  C   UNL A   1      28.531  28.040  23.101  1.00  0.00     0.047 A 
ATOM     16  O   UNL A   1      30.353  29.242  22.577  1.00  0.00    -0.455 OA
ATOM     17  C   UNL A   1      29.673  27.359  23.582  1.00  0.00     0.056 A 
BRANCH  14  18
ATOM     18  C   UNL A   1      28.308  30.391  21.960  1.00  0.00     0.144 C 
BRANCH  18  19
ATOM     19  S   UNL A   1      27.771  31.553  23.247  1.00  0.00    -0.157 SA
ATOM     20  C   UNL A   1      28.868  32.935  22.847  1.00  0.00     0.085 C 
ENDBRANCH  18  19
ENDBRANCH  14  18
ENDBRANCH  11  13
ENDBRANCH   7  11
BRANCH   9  21
ATOM     21  O   UNL A   1      33.690  23.456  24.629  1.00  0.00    -0.391 OA
ATOM     22  H   UNL A   1      33.122  22.684  24.771  1.00  0.00     0.211 HD
ENDBRANCH   9  21
ENDBRANCH   3   6
ENDBRANCH   1   2
BRANCH   1  23
ATOM     23  C   UNL A   1      31.569  30.689  26.115  1.00  0.00     0.023 C 
BRANCH  23  24
ATOM     24  C   UNL A   1      31.393  32.015  26.865  1.00  0.00     0.023 C 
BRANCH  24  25
ATOM     25  C   UNL A   1      32.653  32.857  27.057  1.00  0.00     0.116 C 
BRANCH  25  26
ATOM     26  N   UNL A   1      32.419  34.096  27.776  1.00  0.00    -0.352 N 
ATOM     27  C   UNL A   1      33.171  34.686  28.763  1.00  0.00     0.251 C 
ATOM     28  H   UNL A   1      31.603  34.584  27.520  1.00  0.00     0.163 HD
ATOM     29  O   UNL A   1      32.758  35.703  29.315  1.00  0.00    -0.269 OA
BRANCH  27  30
ATOM     30  C   UNL A   1      34.456  34.089  29.196  1.00  0.00     0.039 A 
ATOM     31  C   UNL A   1      34.454  33.246  30.314  1.00  0.00     0.014 A 
ATOM     32  C   UNL A   1      35.657  34.371  28.540  1.00  0.00     0.014 A 
ATOM     33  C   UNL A   1      35.641  32.640  30.736  1.00  0.00     0.010 A 
ATOM     34  C   UNL A   1      36.833  33.731  28.934  1.00  0.00     0.010 A 
ATOM     35  C   UNL A   1      36.835  32.857  30.033  1.00  0.00    -0.014 A 
BRANCH  35  36
ATOM     36  C   UNL A   1      38.096  32.183  30.434  1.00  0.00     0.031 A 
ATOM     37  C   UNL A   1      39.015  32.827  31.434  1.00  0.00     0.074 A 
ATOM     38  C   UNL A   1      38.443  31.014  29.862  1.00  0.00     0.049 A 
ATOM     39  N   UNL A   1      40.198  32.438  31.839  1.00  0.00    -0.248 NA
ATOM     40  C   UNL A   1      38.551  34.082  32.048  1.00  0.00     0.031 C 
ATOM     41  C   UNL A   1      37.651  30.286  28.868  1.00  0.00     0.029 A 
ATOM     42  N   UNL A   1      39.560  30.236  30.034  1.00  0.00    -0.354 N 
ATOM     43  C   UNL A   1      40.627  33.405  32.739  1.00  0.00     0.074 A 
ATOM     44  C   UNL A   1      39.590  34.414  32.800  1.00  0.00     0.031 C 
ATOM     45  C   UNL A   1      38.300  29.159  28.532  1.00  0.00     0.029 A 
ATOM     46  C   UNL A   1      39.565  29.101  29.259  1.00  0.00     0.049 A 
ATOM     47  H   UNL A   1      40.289  30.469  30.653  1.00  0.00     0.167 HD
ATOM     48  C   UNL A   1      41.773  33.446  33.458  1.00  0.00     0.031 A 
ATOM     49  C   UNL A   1      40.485  28.127  29.143  1.00  0.00     0.031 A 
ATOM     50  C   UNL A   1      42.803  32.444  33.416  1.00  0.00     0.049 A 
ATOM     51  C   UNL A   1      41.749  28.199  29.951  1.00  0.00     0.074 A 
ATOM     52  C   UNL A   1      43.995  32.399  34.119  1.00  0.00     0.029 A 
ATOM     53  N   UNL A   1      42.756  31.301  32.634  1.00  0.00    -0.354 N 
ATOM     54  N   UNL A   1      42.133  29.116  30.805  1.00  0.00    -0.248 NA
ATOM     55  C   UNL A   1      42.704  27.093  29.784  1.00  0.00     0.031 C 
ATOM     56  C   UNL A   1      44.679  31.236  33.749  1.00  0.00     0.029 A 
ATOM     57  C   UNL A   1      43.897  30.544  32.839  1.00  0.00     0.049 A 
ATOM     58  H   UNL A   1      42.022  31.064  32.023  1.00  0.00     0.167 HD
ATOM     59  C   UNL A   1      43.358  28.685  31.296  1.00  0.00     0.074 A 
ATOM     60  C   UNL A   1      43.652  27.421  30.652  1.00  0.00     0.031 C 
ATOM     61  C   UNL A   1      44.166  29.283  32.203  1.00  0.00     0.031 A 
BRANCH  48  62
ATOM     62  C   UNL A   1      41.972  34.629  34.360  1.00  0.00    -0.014 A 
ATOM     63  C   UNL A   1      41.574  34.581  35.706  1.00  0.00     0.009 A 
ATOM     64  C   UNL A   1      42.591  35.789  33.871  1.00  0.00     0.009 A 
ATOM     65  C   UNL A   1      41.768  35.686  36.537  1.00  0.00     0.001 A 
ATOM     66  C   UNL A   1      42.801  36.884  34.709  1.00  0.00     0.001 A 
ATOM     67  C   UNL A   1      42.384  36.835  36.039  1.00  0.00     0.000 A 
ENDBRANCH  48  62
BRANCH  49  68
ATOM     68  C   UNL A   1      40.245  26.979  28.234  1.00  0.00    -0.014 A 
ATOM     69  C   UNL A   1      39.556  25.847  28.694  1.00  0.00     0.009 A 
ATOM     70  C   UNL A   1      40.720  27.000  26.914  1.00  0.00     0.009 A 
ATOM     71  C   UNL A   1      39.370  24.745  27.856  1.00  0.00     0.001 A 
ATOM     72  C   UNL A   1      40.515  25.905  26.074  1.00  0.00     0.001 A 
ATOM     73  C   UNL A   1      39.847  24.775  26.547  1.00  0.00     0.000 A 
ENDBRANCH  49  68
BRANCH  61  74
ATOM     74  C   UNL A   1      45.419  28.553  32.586  1.00  0.00    -0.014 A 
ATOM     75  C   UNL A   1      45.427  27.631  33.642  1.00  0.00     0.009 A 
ATOM     76  C   UNL A   1      46.599  28.775  31.861  1.00  0.00     0.009 A 
ATOM     77  C   UNL A   1      46.605  26.960  33.982  1.00  0.00     0.001 A 
ATOM     78  C   UNL A   1      47.770  28.091  32.191  1.00  0.00     0.001 A 
ATOM     79  C   UNL A   1      47.773  27.190  33.254  1.00  0.00     0.000 A 
ENDBRANCH  61  74
ENDBRANCH  35  36
ENDBRANCH  27  30
ENDBRANCH  25  26
ENDBRANCH  24  25
ENDBRANCH  23  24
ENDBRANCH   1  23
TORSDOF 16
ENDMDL
MODEL 3
REMARK VINA RESULT:     -10.2      2.172      7.550
REMARK SMILES CSCc1ccc(C(=O)N2C[C@@H](O)C[C@@H]2C(=O)NCCCCNC(=O)c2ccc(-c3c4nc(c(-c5ccccc5)c5ccc([nH]5)c(-c5ccccc5)c5nc(c(-c6ccccc6)c6ccc3[nH]6)C=C5)C=C4)cc2)o1
REMARK SMILES IDX 19 1 18 2 16 3 17 4 15 6 10 7 11 8 12 9 14 10 8 11 9 12 7 13
REMARK SMILES IDX 4 14 5 15 74 16 6 17 3 18 2 19 1 20 13 21 20 23 21 24 22 25
REMARK SMILES IDX 23 26 24 27 25 29 26 30 27 31 73 32 28 33 72 34 29 35 30 36
REMARK SMILES IDX 31 37 66 38 32 39 71 40 65 41 67 42 33 43 70 44 64 45 63 46
REMARK SMILES IDX 34 48 56 49 41 50 55 51 42 52 45 53 54 54 68 55 43 56 44 57
REMARK SMILES IDX 53 59 69 60 46 61 35 62 36 63 40 64 37 65 39 66 38 67 57 68
REMARK SMILES IDX 58 69 62 70 59 71 61 72 60 73 47 74 48 75 52 76 49 77 51 78
REMARK SMILES IDX 50 79
REMARK H PARENT 18 5 13 22 23 28 67 47 45 58
REMARK Flexibility Score: inf
ROOT
ATOM      1  C   UNL A   1      37.740  23.213  25.513  1.00  0.00     0.116 C 
ENDROOT
BRANCH   1   2
ATOM      2  N   UNL A   1      36.576  23.364  26.360  1.00  0.00    -0.354 N 
ATOM      3  C   UNL A   1      35.348  22.781  26.247  1.00  0.00     0.242 C 
ATOM      4  O   UNL A   1      34.511  23.020  27.123  1.00  0.00    -0.273 OA
ATOM      5  H   UNL A   1      36.686  23.974  27.125  1.00  0.00     0.163 HD
BRANCH   3   6
ATOM      6  C   UNL A   1      35.075  21.789  25.095  1.00  0.00     0.177 C 
ATOM      7  N   UNL A   1      34.220  22.438  24.104  1.00  0.00    -0.321 N 
ATOM      8  C   UNL A   1      32.908  21.815  24.047  1.00  0.00     0.152 C 
ATOM      9  C   UNL A   1      32.805  21.054  25.368  1.00  0.00     0.136 C 
ATOM     10  C   UNL A   1      34.249  20.610  25.613  1.00  0.00     0.069 C 
BRANCH   7  11
ATOM     11  C   UNL A   1      34.727  23.487  23.358  1.00  0.00     0.290 C 
ATOM     12  O   UNL A   1      35.779  23.314  22.726  1.00  0.00    -0.265 OA
BRANCH  11  13
ATOM     13  C   UNL A   1      34.085  24.786  23.456  1.00  0.00     0.191 A 
ATOM     14  C   UNL A   1      33.506  26.623  24.547  1.00  0.00     0.114 A 
ATOM     15  C   UNL A   1      32.745  26.600  23.399  1.00  0.00     0.047 A 
ATOM     16  O   UNL A   1      34.339  25.543  24.575  1.00  0.00    -0.455 OA
ATOM     17  C   UNL A   1      33.094  25.413  22.717  1.00  0.00     0.056 A 
BRANCH  14  18
ATOM     18  C   UNL A   1      33.525  27.515  25.730  1.00  0.00     0.144 C 
BRANCH  18  19
ATOM     19  S   UNL A   1      32.092  28.628  25.777  1.00  0.00    -0.157 SA
ATOM     20  C   UNL A   1      32.635  29.721  27.113  1.00  0.00     0.085 C 
ENDBRANCH  18  19
ENDBRANCH  14  18
ENDBRANCH  11  13
ENDBRANCH   7  11
BRANCH   9  21
ATOM     21  O   UNL A   1      31.922  19.947  25.312  1.00  0.00    -0.391 OA
ATOM     22  H   UNL A   1      31.213  20.066  25.964  1.00  0.00     0.211 HD
ENDBRANCH   9  21
ENDBRANCH   3   6
ENDBRANCH   1   2
BRANCH   1  23
ATOM     23  C   UNL A   1      38.785  22.270  26.109  1.00  0.00     0.023 C 
BRANCH  23  24
ATOM     24  C   UNL A   1      38.920  20.909  25.416  1.00  0.00     0.023 C 
BRANCH  24  25
ATOM     25  C   UNL A   1      39.348  19.739  26.300  1.00  0.00     0.116 C 
BRANCH  25  26
ATOM     26  N   UNL A   1      40.573  19.096  25.858  1.00  0.00    -0.352 N 
ATOM     27  C   UNL A   1      41.860  19.575  25.868  1.00  0.00     0.251 C 
ATOM     28  H   UNL A   1      40.465  18.186  25.499  1.00  0.00     0.163 HD
ATOM     29  O   UNL A   1      42.762  18.906  25.368  1.00  0.00    -0.269 OA
BRANCH  27  30
ATOM     30  C   UNL A   1      42.170  20.906  26.443  1.00  0.00     0.039 A 
ATOM     31  C   UNL A   1      42.551  21.933  25.571  1.00  0.00     0.014 A 
ATOM     32  C   UNL A   1      42.120  21.144  27.818  1.00  0.00     0.014 A 
ATOM     33  C   UNL A   1      42.823  23.210  26.070  1.00  0.00     0.010 A 
ATOM     34  C   UNL A   1      42.348  22.430  28.311  1.00  0.00     0.010 A 
ATOM     35  C   UNL A   1      42.698  23.475  27.442  1.00  0.00    -0.014 A 
BRANCH  35  36
ATOM     36  C   UNL A   1      42.931  24.837  27.985  1.00  0.00     0.031 A 
ATOM     37  C   UNL A   1      44.311  25.256  28.413  1.00  0.00     0.074 A 
ATOM     38  C   UNL A   1      41.896  25.683  28.144  1.00  0.00     0.049 A 
ATOM     39  N   UNL A   1      44.694  26.365  28.992  1.00  0.00    -0.248 NA
ATOM     40  C   UNL A   1      45.399  24.295  28.170  1.00  0.00     0.031 C 
ATOM     41  C   UNL A   1      40.504  25.400  27.784  1.00  0.00     0.029 A 
ATOM     42  N   UNL A   1      41.856  26.955  28.658  1.00  0.00    -0.354 N 
ATOM     43  C   UNL A   1      46.060  26.231  29.201  1.00  0.00     0.074 A 
ATOM     44  C   UNL A   1      46.435  24.921  28.710  1.00  0.00     0.031 C 
ATOM     45  C   UNL A   1      39.751  26.475  28.073  1.00  0.00     0.029 A 
ATOM     46  C   UNL A   1      40.597  27.506  28.666  1.00  0.00     0.049 A 
ATOM     47  H   UNL A   1      42.653  27.427  28.990  1.00  0.00     0.167 HD
ATOM     48  C   UNL A   1      46.928  27.119  29.740  1.00  0.00     0.031 A 
ATOM     49  C   UNL A   1      40.171  28.704  29.106  1.00  0.00     0.031 A 
ATOM     50  C   UNL A   1      46.570  28.427  30.218  1.00  0.00     0.049 A 
ATOM     51  C   UNL A   1      41.155  29.669  29.703  1.00  0.00     0.074 A 
ATOM     52  C   UNL A   1      47.387  29.398  30.771  1.00  0.00     0.029 A 
ATOM     53  N   UNL A   1      45.289  28.951  30.186  1.00  0.00    -0.354 N 
ATOM     54  N   UNL A   1      42.446  29.528  29.881  1.00  0.00    -0.248 NA
ATOM     55  C   UNL A   1      40.621  30.964  30.150  1.00  0.00     0.031 C 
ATOM     56  C   UNL A   1      46.595  30.507  31.092  1.00  0.00     0.029 A 
ATOM     57  C   UNL A   1      45.293  30.234  30.708  1.00  0.00     0.049 A 
ATOM     58  H   UNL A   1      44.494  28.483  29.845  1.00  0.00     0.167 HD
ATOM     59  C   UNL A   1      42.882  30.724  30.436  1.00  0.00     0.074 A 
ATOM     60  C   UNL A   1      41.722  31.583  30.557  1.00  0.00     0.031 C 
ATOM     61  C   UNL A   1      44.134  31.079  30.808  1.00  0.00     0.031 A 
BRANCH  48  62
ATOM     62  C   UNL A   1      48.364  26.696  29.843  1.00  0.00    -0.014 A 
ATOM     63  C   UNL A   1      48.807  25.907  30.917  1.00  0.00     0.009 A 
ATOM     64  C   UNL A   1      49.277  27.061  28.842  1.00  0.00     0.009 A 
ATOM     65  C   UNL A   1      50.145  25.516  31.000  1.00  0.00     0.001 A 
ATOM     66  C   UNL A   1      50.609  26.652  28.918  1.00  0.00     0.001 A 
ATOM     67  C   UNL A   1      51.044  25.886  29.999  1.00  0.00     0.000 A 
ENDBRANCH  48  62
BRANCH  49  68
ATOM     68  C   UNL A   1      38.740  29.076  28.988  1.00  0.00    -0.014 A 
ATOM     69  C   UNL A   1      38.244  29.600  27.785  1.00  0.00     0.009 A 
ATOM     70  C   UNL A   1      37.870  28.929  30.078  1.00  0.00     0.009 A 
ATOM     71  C   UNL A   1      36.909  29.995  27.684  1.00  0.00     0.001 A 
ATOM     72  C   UNL A   1      36.530  29.307  29.968  1.00  0.00     0.001 A 
ATOM     73  C   UNL A   1      36.053  29.847  28.773  1.00  0.00     0.000 A 
ENDBRANCH  49  68
BRANCH  61  74
ATOM     74  C   UNL A   1      44.321  32.471  31.335  1.00  0.00    -0.014 A 
ATOM     75  C   UNL A   1      44.230  32.745  32.708  1.00  0.00     0.009 A 
ATOM     76  C   UNL A   1      44.619  33.515  30.447  1.00  0.00     0.009 A 
ATOM     77  C   UNL A   1      44.410  34.048  33.178  1.00  0.00     0.001 A 
ATOM     78  C   UNL A   1      44.815  34.812  30.921  1.00  0.00     0.001 A 
ATOM     79  C   UNL A   1      44.704  35.078  32.284  1.00  0.00     0.000 A 
ENDBRANCH  61  74
ENDBRANCH  35  36
ENDBRANCH  27  30
ENDBRANCH  25  26
ENDBRANCH  24  25
ENDBRANCH  23  24
ENDBRANCH   1  23
TORSDOF 16
ENDMDL
