MODEL 1
REMARK VINA RESULT:     -13.2      0.000      0.000
REMARK SMILES Cc1ccccc1[C@@H]1[NH2+][C@@H](C(=O)NCCCCNC(=O)c2ccc(-c3c4nc(c(-c5ccccc5)c5ccc([nH]5)c(-c5ccccc5)c5nc(c(-c6ccccc6)c6ccc3[nH]6)C=C5)C=C4)cc2)CC2=c3ccccc3=N[C@H]21
REMARK SMILES IDX 16 1 15 2 14 3 13 4 11 5 12 6 10 8 8 9 9 10 78 11 70 14
REMARK SMILES IDX 77 15 69 16 71 17 76 18 72 19 75 20 73 21 74 22 7 23 1 24
REMARK SMILES IDX 2 25 3 26 4 27 6 28 5 29 17 30 18 31 19 32 20 34 21 35 22 36
REMARK SMILES IDX 68 37 23 38 67 39 24 40 25 41 26 42 61 43 27 44 66 45 60 46
REMARK SMILES IDX 62 47 28 48 65 49 59 50 58 51 29 53 51 54 36 55 50 56 37 57
REMARK SMILES IDX 40 58 49 59 63 60 38 61 39 62 48 64 64 65 41 66 30 67 31 68
REMARK SMILES IDX 35 69 32 70 34 71 33 72 52 73 53 74 57 75 54 76 56 77 55 78
REMARK SMILES IDX 42 79 43 80 47 81 44 82 46 83 45 84
REMARK H PARENT 13 7 9 12 9 13 18 33 62 52 40 63
REMARK Flexibility Score: inf
ROOT
ATOM      1  C   UNL A   1      34.808  31.991  29.261  1.00  0.00     0.023 C 
ENDROOT
BRANCH   1   2
ATOM      2  C   UNL A   1      35.176  31.541  27.850  1.00  0.00     0.023 C 
BRANCH   2   3
ATOM      3  C   UNL A   1      35.132  30.023  27.608  1.00  0.00     0.116 C 
BRANCH   3   4
ATOM      4  N   UNL A   1      33.861  29.342  27.832  1.00  0.00    -0.351 N 
ATOM      5  C   UNL A   1      33.082  28.577  27.004  1.00  0.00     0.278 C 
ATOM      6  O   UNL A   1      32.399  27.696  27.543  1.00  0.00    -0.268 OA
ATOM      7  H   UNL A   1      33.499  29.451  28.740  1.00  0.00     0.163 HD
BRANCH   5   8
ATOM      8  C   UNL A   1      32.896  28.909  25.497  1.00  0.00     0.277 C 
ATOM      9  C   UNL A   1      31.018  27.896  24.044  1.00  0.00     0.243 C 
ATOM     10  N   UNL A   1      31.452  28.819  25.127  1.00  0.00    -0.327 N 
ATOM     11  C   UNL A   1      32.100  27.294  23.094  1.00  0.00     0.196 C 
ATOM     12  H   UNL A   1      30.949  28.542  25.969  1.00  0.00     0.347 HD
ATOM     13  H   UNL A   1      31.251  29.742  24.741  1.00  0.00     0.347 HD
ATOM     14  C   UNL A   1      33.340  27.068  23.882  1.00  0.00    -0.024 C 
ATOM     15  N   UNL A   1      31.744  25.936  22.573  1.00  0.00    -0.270 NA
ATOM     16  C   UNL A   1      33.897  28.253  24.546  1.00  0.00     0.109 C 
ATOM     17  C   UNL A   1      33.700  25.795  23.910  1.00  0.00     0.002 A 
ATOM     18  C   UNL A   1      32.693  25.178  23.036  1.00  0.00     0.066 A 
ATOM     19  C   UNL A   1      34.710  25.041  24.574  1.00  0.00     0.010 A 
ATOM     20  C   UNL A   1      32.880  23.736  22.765  1.00  0.00     0.028 A 
ATOM     21  C   UNL A   1      34.783  23.724  24.327  1.00  0.00     0.001 A 
ATOM     22  C   UNL A   1      33.882  23.083  23.381  1.00  0.00     0.002 A 
BRANCH   9  23
ATOM     23  C   UNL A   1      29.916  28.556  23.198  1.00  0.00     0.015 A 
ATOM     24  C   UNL A   1      28.058  26.905  23.900  1.00  0.00     0.045 C 
ATOM     25  C   UNL A   1      28.569  28.114  23.162  1.00  0.00    -0.042 A 
ATOM     26  C   UNL A   1      27.613  28.875  22.462  1.00  0.00     0.004 A 
ATOM     27  C   UNL A   1      27.970  30.030  21.772  1.00  0.00     0.000 A 
ATOM     28  C   UNL A   1      30.255  29.720  22.475  1.00  0.00     0.010 A 
ATOM     29  C   UNL A   1      29.294  30.447  21.768  1.00  0.00     0.001 A 
ENDBRANCH   9  23
ENDBRANCH   5   8
ENDBRANCH   3   4
ENDBRANCH   2   3
ENDBRANCH   1   2
BRANCH   1  30
ATOM     30  C   UNL A   1      34.831  33.502  29.460  1.00  0.00     0.116 C 
BRANCH  30  31
ATOM     31  N   UNL A   1      33.897  34.025  30.454  1.00  0.00    -0.352 N 
ATOM     32  C   UNL A   1      34.100  34.165  31.827  1.00  0.00     0.251 C 
ATOM     33  H   UNL A   1      33.019  34.311  30.114  1.00  0.00     0.163 HD
ATOM     34  O   UNL A   1      33.249  34.634  32.545  1.00  0.00    -0.269 OA
BRANCH  32  35
ATOM     35  C   UNL A   1      35.453  33.850  32.361  1.00  0.00     0.039 A 
ATOM     36  C   UNL A   1      36.493  34.727  32.045  1.00  0.00     0.014 A 
ATOM     37  C   UNL A   1      35.726  32.594  32.897  1.00  0.00     0.014 A 
ATOM     38  C   UNL A   1      37.796  34.238  31.997  1.00  0.00     0.010 A 
ATOM     39  C   UNL A   1      37.001  32.076  32.753  1.00  0.00     0.010 A 
ATOM     40  C   UNL A   1      38.017  32.876  32.225  1.00  0.00    -0.014 A 
BRANCH  40  41
ATOM     41  C   UNL A   1      39.243  32.210  31.795  1.00  0.00     0.031 A 
ATOM     42  C   UNL A   1      39.182  31.023  30.925  1.00  0.00     0.074 A 
ATOM     43  C   UNL A   1      40.452  32.613  32.250  1.00  0.00     0.049 A 
ATOM     44  N   UNL A   1      39.938  29.984  31.070  1.00  0.00    -0.248 NA
ATOM     45  C   UNL A   1      38.222  30.909  29.836  1.00  0.00     0.031 C 
ATOM     46  C   UNL A   1      41.758  32.107  31.831  1.00  0.00     0.029 A 
ATOM     47  N   UNL A   1      40.735  33.391  33.372  1.00  0.00    -0.354 N 
ATOM     48  C   UNL A   1      39.774  29.212  29.944  1.00  0.00     0.074 A 
ATOM     49  C   UNL A   1      38.633  29.778  29.256  1.00  0.00     0.031 C 
ATOM     50  C   UNL A   1      42.628  32.294  32.837  1.00  0.00     0.029 A 
ATOM     51  C   UNL A   1      41.892  32.851  33.959  1.00  0.00     0.049 A 
ATOM     52  H   UNL A   1      40.222  34.168  33.692  1.00  0.00     0.167 HD
ATOM     53  C   UNL A   1      40.704  28.275  29.605  1.00  0.00     0.031 A 
ATOM     54  C   UNL A   1      41.969  32.443  35.257  1.00  0.00     0.031 A 
ATOM     55  C   UNL A   1      41.813  28.214  30.553  1.00  0.00     0.049 A 
ATOM     56  C   UNL A   1      42.370  30.992  35.406  1.00  0.00     0.074 A 
ATOM     57  C   UNL A   1      43.101  28.725  30.517  1.00  0.00     0.029 A 
ATOM     58  N   UNL A   1      41.593  27.793  31.858  1.00  0.00    -0.354 N 
ATOM     59  N   UNL A   1      42.432  30.150  34.413  1.00  0.00    -0.248 NA
ATOM     60  C   UNL A   1      42.627  30.351  36.695  1.00  0.00     0.031 C 
ATOM     61  C   UNL A   1      43.639  28.655  31.826  1.00  0.00     0.029 A 
ATOM     62  C   UNL A   1      42.684  28.093  32.652  1.00  0.00     0.049 A 
ATOM     63  H   UNL A   1      40.776  27.343  32.173  1.00  0.00     0.167 HD
ATOM     64  C   UNL A   1      42.661  28.888  34.897  1.00  0.00     0.074 A 
ATOM     65  C   UNL A   1      42.811  29.070  36.328  1.00  0.00     0.031 C 
ATOM     66  C   UNL A   1      42.668  27.798  34.077  1.00  0.00     0.031 A 
BRANCH  53  67
ATOM     67  C   UNL A   1      40.749  27.661  28.227  1.00  0.00    -0.014 A 
ATOM     68  C   UNL A   1      40.196  26.385  28.007  1.00  0.00     0.009 A 
ATOM     69  C   UNL A   1      41.368  28.266  27.121  1.00  0.00     0.009 A 
ATOM     70  C   UNL A   1      40.363  25.704  26.795  1.00  0.00     0.001 A 
ATOM     71  C   UNL A   1      41.581  27.572  25.921  1.00  0.00     0.001 A 
ATOM     72  C   UNL A   1      41.090  26.283  25.764  1.00  0.00     0.000 A 
ENDBRANCH  53  67
BRANCH  54  73
ATOM     73  C   UNL A   1      41.029  33.148  36.167  1.00  0.00    -0.014 A 
ATOM     74  C   UNL A   1      41.406  34.417  36.652  1.00  0.00     0.009 A 
ATOM     75  C   UNL A   1      39.679  32.776  36.228  1.00  0.00     0.009 A 
ATOM     76  C   UNL A   1      40.440  35.338  37.061  1.00  0.00     0.001 A 
ATOM     77  C   UNL A   1      38.718  33.698  36.653  1.00  0.00     0.001 A 
ATOM     78  C   UNL A   1      39.093  34.989  37.029  1.00  0.00     0.000 A 
ENDBRANCH  54  73
BRANCH  66  79
ATOM     79  C   UNL A   1      42.730  26.359  34.521  1.00  0.00    -0.014 A 
ATOM     80  C   UNL A   1      41.757  25.732  35.312  1.00  0.00     0.009 A 
ATOM     81  C   UNL A   1      43.767  25.538  34.023  1.00  0.00     0.009 A 
ATOM     82  C   UNL A   1      41.848  24.371  35.636  1.00  0.00     0.001 A 
ATOM     83  C   UNL A   1      43.838  24.172  34.308  1.00  0.00     0.001 A 
ATOM     84  C   UNL A   1      42.883  23.590  35.130  1.00  0.00     0.000 A 
ENDBRANCH  66  79
ENDBRANCH  40  41
ENDBRANCH  32  35
ENDBRANCH  30  31
ENDBRANCH   1  30
TORSDOF 12
ENDMDL
MODEL 2
REMARK VINA RESULT:     -13.1      4.928     10.260
REMARK SMILES Cc1ccccc1[C@@H]1[NH2+][C@@H](C(=O)NCCCCNC(=O)c2ccc(-c3c4nc(c(-c5ccccc5)c5ccc([nH]5)c(-c5ccccc5)c5nc(c(-c6ccccc6)c6ccc3[nH]6)C=C5)C=C4)cc2)CC2=c3ccccc3=N[C@H]21
REMARK SMILES IDX 16 1 15 2 14 3 13 4 11 5 12 6 10 8 8 9 9 10 78 11 70 14
REMARK SMILES IDX 77 15 69 16 71 17 76 18 72 19 75 20 73 21 74 22 7 23 1 24
REMARK SMILES IDX 2 25 3 26 4 27 6 28 5 29 17 30 18 31 19 32 20 34 21 35 22 36
REMARK SMILES IDX 68 37 23 38 67 39 24 40 25 41 26 42 61 43 27 44 66 45 60 46
REMARK SMILES IDX 62 47 28 48 65 49 59 50 58 51 29 53 51 54 36 55 50 56 37 57
REMARK SMILES IDX 40 58 49 59 63 60 38 61 39 62 48 64 64 65 41 66 30 67 31 68
REMARK SMILES IDX 35 69 32 70 34 71 33 72 52 73 53 74 57 75 54 76 56 77 55 78
REMARK SMILES IDX 42 79 43 80 47 81 44 82 46 83 45 84
REMARK H PARENT 13 7 9 12 9 13 18 33 62 52 40 63
REMARK Flexibility Score: inf
ROOT
ATOM      1  C   UNL A   1      40.653  20.500  26.783  1.00  0.00     0.023 C 
ENDROOT
BRANCH   1   2
ATOM      2  C   UNL A   1      39.931  21.761  26.318  1.00  0.00     0.023 C 
BRANCH   2   3
ATOM      3  C   UNL A   1      38.565  21.533  25.648  1.00  0.00     0.116 C 
BRANCH   3   4
ATOM      4  N   UNL A   1      37.782  22.713  25.298  1.00  0.00    -0.351 N 
ATOM      5  C   UNL A   1      36.608  23.208  25.805  1.00  0.00     0.278 C 
ATOM      6  O   UNL A   1      36.455  24.436  25.749  1.00  0.00    -0.268 OA
ATOM      7  H   UNL A   1      38.164  23.250  24.568  1.00  0.00     0.163 HD
BRANCH   5   8
ATOM      8  C   UNL A   1      35.439  22.284  26.245  1.00  0.00     0.277 C 
ATOM      9  C   UNL A   1      33.571  21.504  24.642  1.00  0.00     0.243 C 
ATOM     10  N   UNL A   1      34.987  21.446  25.094  1.00  0.00    -0.327 N 
ATOM     11  C   UNL A   1      32.514  22.170  25.577  1.00  0.00     0.196 C 
ATOM     12  H   UNL A   1      35.561  21.711  24.293  1.00  0.00     0.347 HD
ATOM     13  H   UNL A   1      35.081  20.494  25.445  1.00  0.00     0.347 HD
ATOM     14  C   UNL A   1      33.166  23.299  26.291  1.00  0.00    -0.024 C 
ATOM     15  N   UNL A   1      31.384  22.813  24.833  1.00  0.00    -0.270 NA
ATOM     16  C   UNL A   1      34.350  22.948  27.087  1.00  0.00     0.109 C 
ATOM     17  C   UNL A   1      32.600  24.465  26.026  1.00  0.00     0.002 A 
ATOM     18  C   UNL A   1      31.480  24.067  25.163  1.00  0.00     0.066 A 
ATOM     19  C   UNL A   1      32.877  25.824  26.350  1.00  0.00     0.010 A 
ATOM     20  C   UNL A   1      30.560  25.155  24.766  1.00  0.00     0.028 A 
ATOM     21  C   UNL A   1      32.032  26.767  25.905  1.00  0.00     0.001 A 
ATOM     22  C   UNL A   1      30.844  26.415  25.143  1.00  0.00     0.002 A 
BRANCH   9  23
ATOM     23  C   UNL A   1      33.084  20.097  24.254  1.00  0.00     0.015 A 
ATOM     24  C   UNL A   1      32.080  20.814  21.984  1.00  0.00     0.045 C 
ATOM     25  C   UNL A   1      32.432  19.791  23.032  1.00  0.00    -0.042 A 
ATOM     26  C   UNL A   1      32.153  18.447  22.718  1.00  0.00     0.004 A 
ATOM     27  C   UNL A   1      32.467  17.417  23.601  1.00  0.00     0.000 A 
ATOM     28  C   UNL A   1      33.374  19.036  25.139  1.00  0.00     0.010 A 
ATOM     29  C   UNL A   1      33.067  17.712  24.817  1.00  0.00     0.001 A 
ENDBRANCH   9  23
ENDBRANCH   5   8
ENDBRANCH   3   4
ENDBRANCH   2   3
ENDBRANCH   1   2
BRANCH   1  30
ATOM     30  C   UNL A   1      42.169  20.636  26.844  1.00  0.00     0.116 C 
BRANCH  30  31
ATOM     31  N   UNL A   1      42.906  20.005  25.752  1.00  0.00    -0.352 N 
ATOM     32  C   UNL A   1      43.848  20.591  24.906  1.00  0.00     0.251 C 
ATOM     33  H   UNL A   1      42.715  19.053  25.594  1.00  0.00     0.163 HD
ATOM     34  O   UNL A   1      44.407  19.952  24.046  1.00  0.00    -0.269 OA
BRANCH  32  35
ATOM     35  C   UNL A   1      44.248  21.998  25.185  1.00  0.00     0.039 A 
ATOM     36  C   UNL A   1      45.252  22.207  26.134  1.00  0.00     0.014 A 
ATOM     37  C   UNL A   1      43.460  23.057  24.744  1.00  0.00     0.014 A 
ATOM     38  C   UNL A   1      45.270  23.406  26.841  1.00  0.00     0.010 A 
ATOM     39  C   UNL A   1      43.409  24.207  25.511  1.00  0.00     0.010 A 
ATOM     40  C   UNL A   1      44.259  24.344  26.610  1.00  0.00    -0.014 A 
BRANCH  40  41
ATOM     41  C   UNL A   1      43.957  25.406  27.566  1.00  0.00     0.031 A 
ATOM     42  C   UNL A   1      42.635  26.056  27.567  1.00  0.00     0.074 A 
ATOM     43  C   UNL A   1      44.904  25.873  28.413  1.00  0.00     0.049 A 
ATOM     44  N   UNL A   1      42.458  27.327  27.728  1.00  0.00    -0.248 NA
ATOM     45  C   UNL A   1      41.405  25.311  27.344  1.00  0.00     0.031 C 
ATOM     46  C   UNL A   1      44.718  26.853  29.480  1.00  0.00     0.029 A 
ATOM     47  N   UNL A   1      46.289  25.738  28.315  1.00  0.00    -0.354 N 
ATOM     48  C   UNL A   1      41.111  27.520  27.923  1.00  0.00     0.074 A 
ATOM     49  C   UNL A   1      40.491  26.256  27.582  1.00  0.00     0.031 C 
ATOM     50  C   UNL A   1      45.892  27.468  29.701  1.00  0.00     0.029 A 
ATOM     51  C   UNL A   1      46.845  26.960  28.730  1.00  0.00     0.049 A 
ATOM     52  H   UNL A   1      46.782  24.941  28.012  1.00  0.00     0.167 HD
ATOM     53  C   UNL A   1      40.652  28.662  28.508  1.00  0.00     0.031 A 
ATOM     54  C   UNL A   1      47.702  27.703  27.975  1.00  0.00     0.031 A 
ATOM     55  C   UNL A   1      41.727  29.585  28.862  1.00  0.00     0.049 A 
ATOM     56  C   UNL A   1      47.208  29.109  27.716  1.00  0.00     0.074 A 
ATOM     57  C   UNL A   1      42.360  29.865  30.062  1.00  0.00     0.029 A 
ATOM     58  N   UNL A   1      42.490  30.180  27.866  1.00  0.00    -0.354 N 
ATOM     59  N   UNL A   1      46.002  29.517  27.995  1.00  0.00    -0.248 NA
ATOM     60  C   UNL A   1      47.995  30.131  27.027  1.00  0.00     0.031 C 
ATOM     61  C   UNL A   1      43.542  30.593  29.777  1.00  0.00     0.029 A 
ATOM     62  C   UNL A   1      43.620  30.763  28.408  1.00  0.00     0.049 A 
ATOM     63  H   UNL A   1      42.258  30.187  26.908  1.00  0.00     0.167 HD
ATOM     64  C   UNL A   1      45.819  30.779  27.491  1.00  0.00     0.074 A 
ATOM     65  C   UNL A   1      47.106  31.134  26.925  1.00  0.00     0.031 C 
ATOM     66  C   UNL A   1      44.608  31.404  27.552  1.00  0.00     0.031 A 
BRANCH  53  67
ATOM     67  C   UNL A   1      39.248  28.769  29.052  1.00  0.00    -0.014 A 
ATOM     68  C   UNL A   1      38.220  29.291  28.245  1.00  0.00     0.009 A 
ATOM     69  C   UNL A   1      38.889  28.422  30.365  1.00  0.00     0.009 A 
ATOM     70  C   UNL A   1      36.945  29.567  28.756  1.00  0.00     0.001 A 
ATOM     71  C   UNL A   1      37.631  28.740  30.896  1.00  0.00     0.001 A 
ATOM     72  C   UNL A   1      36.663  29.328  30.093  1.00  0.00     0.000 A 
ENDBRANCH  53  67
BRANCH  54  73
ATOM     73  C   UNL A   1      48.499  26.905  27.006  1.00  0.00    -0.014 A 
ATOM     74  C   UNL A   1      47.933  26.646  25.741  1.00  0.00     0.009 A 
ATOM     75  C   UNL A   1      49.882  26.757  27.171  1.00  0.00     0.009 A 
ATOM     76  C   UNL A   1      48.748  26.377  24.640  1.00  0.00     0.001 A 
ATOM     77  C   UNL A   1      50.691  26.473  26.066  1.00  0.00     0.001 A 
ATOM     78  C   UNL A   1      50.130  26.325  24.797  1.00  0.00     0.000 A 
ENDBRANCH  54  73
BRANCH  66  79
ATOM     79  C   UNL A   1      44.250  32.704  26.878  1.00  0.00    -0.014 A 
ATOM     80  C   UNL A   1      44.156  32.876  25.490  1.00  0.00     0.009 A 
ATOM     81  C   UNL A   1      43.867  33.803  27.680  1.00  0.00     0.009 A 
ATOM     82  C   UNL A   1      43.757  34.100  24.933  1.00  0.00     0.001 A 
ATOM     83  C   UNL A   1      43.428  35.010  27.130  1.00  0.00     0.001 A 
ATOM     84  C   UNL A   1      43.387  35.163  25.751  1.00  0.00     0.000 A 
ENDBRANCH  66  79
ENDBRANCH  40  41
ENDBRANCH  32  35
ENDBRANCH  30  31
ENDBRANCH   1  30
TORSDOF 12
ENDMDL
MODEL 3
REMARK VINA RESULT:     -12.8      2.413      5.289
REMARK SMILES Cc1ccccc1[C@@H]1[NH2+][C@@H](C(=O)NCCCCNC(=O)c2ccc(-c3c4nc(c(-c5ccccc5)c5ccc([nH]5)c(-c5ccccc5)c5nc(c(-c6ccccc6)c6ccc3[nH]6)C=C5)C=C4)cc2)CC2=c3ccccc3=N[C@H]21
REMARK SMILES IDX 16 1 15 2 14 3 13 4 11 5 12 6 10 8 8 9 9 10 78 11 70 14
REMARK SMILES IDX 77 15 69 16 71 17 76 18 72 19 75 20 73 21 74 22 7 23 1 24
REMARK SMILES IDX 2 25 3 26 4 27 6 28 5 29 17 30 18 31 19 32 20 34 21 35 22 36
REMARK SMILES IDX 68 37 23 38 67 39 24 40 25 41 26 42 61 43 27 44 66 45 60 46
REMARK SMILES IDX 62 47 28 48 65 49 59 50 58 51 29 53 51 54 36 55 50 56 37 57
REMARK SMILES IDX 40 58 49 59 63 60 38 61 39 62 48 64 64 65 41 66 30 67 31 68
REMARK SMILES IDX 35 69 32 70 34 71 33 72 52 73 53 74 57 75 54 76 56 77 55 78
REMARK SMILES IDX 42 79 43 80 47 81 44 82 46 83 45 84
REMARK H PARENT 13 7 9 12 9 13 18 33 62 52 40 63
REMARK Flexibility Score: inf
ROOT
ATOM      1  C   UNL A   1      32.465  28.294  27.358  1.00  0.00     0.023 C 
ENDROOT
BRANCH   1   2
ATOM      2  C   UNL A   1      31.530  27.431  26.516  1.00  0.00     0.023 C 
BRANCH   2   3
ATOM      3  C   UNL A   1      31.833  25.923  26.528  1.00  0.00     0.116 C 
BRANCH   3   4
ATOM      4  N   UNL A   1      30.724  25.016  26.809  1.00  0.00    -0.351 N 
ATOM      5  C   UNL A   1      30.626  23.651  26.738  1.00  0.00     0.278 C 
ATOM      6  O   UNL A   1      29.833  23.111  27.521  1.00  0.00    -0.268 OA
ATOM      7  H   UNL A   1      29.899  25.466  27.102  1.00  0.00     0.163 HD
BRANCH   5   8
ATOM      8  C   UNL A   1      31.311  22.827  25.613  1.00  0.00     0.277 C 
ATOM      9  C   UNL A   1      33.793  23.113  24.959  1.00  0.00     0.243 C 
ATOM     10  N   UNL A   1      32.760  22.644  25.922  1.00  0.00    -0.327 N 
ATOM     11  C   UNL A   1      33.351  23.477  23.507  1.00  0.00     0.196 C 
ATOM     12  H   UNL A   1      32.938  23.128  26.802  1.00  0.00     0.347 HD
ATOM     13  H   UNL A   1      32.876  21.630  25.912  1.00  0.00     0.347 HD
ATOM     14  C   UNL A   1      31.991  24.075  23.569  1.00  0.00    -0.024 C 
ATOM     15  N   UNL A   1      34.192  24.547  22.881  1.00  0.00    -0.270 NA
ATOM     16  C   UNL A   1      30.955  23.234  24.183  1.00  0.00     0.109 C 
ATOM     17  C   UNL A   1      31.959  25.316  23.113  1.00  0.00     0.002 A 
ATOM     18  C   UNL A   1      33.344  25.507  22.662  1.00  0.00     0.066 A 
ATOM     19  C   UNL A   1      30.976  26.344  23.039  1.00  0.00     0.010 A 
ATOM     20  C   UNL A   1      33.624  26.792  21.985  1.00  0.00     0.028 A 
ATOM     21  C   UNL A   1      31.318  27.508  22.466  1.00  0.00     0.001 A 
ATOM     22  C   UNL A   1      32.643  27.709  21.900  1.00  0.00     0.002 A 
BRANCH   9  23
ATOM     23  C   UNL A   1      34.951  22.103  24.894  1.00  0.00     0.015 A 
ATOM     24  C   UNL A   1      36.815  23.864  25.203  1.00  0.00     0.045 C 
ATOM     25  C   UNL A   1      36.318  22.453  25.033  1.00  0.00    -0.042 A 
ATOM     26  C   UNL A   1      37.287  21.433  25.097  1.00  0.00     0.004 A 
ATOM     27  C   UNL A   1      36.934  20.090  24.985  1.00  0.00     0.000 A 
ATOM     28  C   UNL A   1      34.622  20.736  24.765  1.00  0.00     0.010 A 
ATOM     29  C   UNL A   1      35.602  19.742  24.807  1.00  0.00     0.001 A 
ENDBRANCH   9  23
ENDBRANCH   5   8
ENDBRANCH   3   4
ENDBRANCH   2   3
ENDBRANCH   1   2
BRANCH   1  30
ATOM     30  C   UNL A   1      33.197  29.373  26.569  1.00  0.00     0.116 C 
BRANCH  30  31
ATOM     31  N   UNL A   1      33.342  30.662  27.242  1.00  0.00    -0.352 N 
ATOM     32  C   UNL A   1      34.382  31.081  28.072  1.00  0.00     0.251 C 
ATOM     33  H   UNL A   1      32.619  31.312  27.092  1.00  0.00     0.163 HD
ATOM     34  O   UNL A   1      34.395  32.188  28.556  1.00  0.00    -0.269 OA
BRANCH  32  35
ATOM     35  C   UNL A   1      35.549  30.170  28.231  1.00  0.00     0.039 A 
ATOM     36  C   UNL A   1      35.790  29.647  29.504  1.00  0.00     0.014 A 
ATOM     37  C   UNL A   1      36.518  30.082  27.235  1.00  0.00     0.014 A 
ATOM     38  C   UNL A   1      37.093  29.300  29.854  1.00  0.00     0.010 A 
ATOM     39  C   UNL A   1      37.827  29.836  27.606  1.00  0.00     0.010 A 
ATOM     40  C   UNL A   1      38.123  29.526  28.936  1.00  0.00    -0.014 A 
BRANCH  40  41
ATOM     41  C   UNL A   1      39.523  29.591  29.346  1.00  0.00     0.031 A 
ATOM     42  C   UNL A   1      40.374  28.389  29.293  1.00  0.00     0.074 A 
ATOM     43  C   UNL A   1      40.047  30.728  29.861  1.00  0.00     0.049 A 
ATOM     44  N   UNL A   1      41.232  28.073  30.206  1.00  0.00    -0.248 NA
ATOM     45  C   UNL A   1      40.285  27.426  28.205  1.00  0.00     0.031 C 
ATOM     46  C   UNL A   1      41.444  30.964  30.218  1.00  0.00     0.029 A 
ATOM     47  N   UNL A   1      39.370  31.820  30.402  1.00  0.00    -0.354 N 
ATOM     48  C   UNL A   1      41.999  27.053  29.697  1.00  0.00     0.074 A 
ATOM     49  C   UNL A   1      41.314  26.624  28.495  1.00  0.00     0.031 C 
ATOM     50  C   UNL A   1      41.484  31.908  31.173  1.00  0.00     0.029 A 
ATOM     51  C   UNL A   1      40.114  32.247  31.515  1.00  0.00     0.049 A 
ATOM     52  H   UNL A   1      38.531  32.215  30.069  1.00  0.00     0.167 HD
ATOM     53  C   UNL A   1      43.220  26.769  30.232  1.00  0.00     0.031 A 
ATOM     54  C   UNL A   1      39.602  32.370  32.772  1.00  0.00     0.031 A 
ATOM     55  C   UNL A   1      43.561  27.643  31.351  1.00  0.00     0.049 A 
ATOM     56  C   UNL A   1      40.336  31.539  33.801  1.00  0.00     0.074 A 
ATOM     57  C   UNL A   1      44.376  28.760  31.450  1.00  0.00     0.029 A 
ATOM     58  N   UNL A   1      42.825  27.588  32.528  1.00  0.00    -0.354 N 
ATOM     59  N   UNL A   1      41.225  30.634  33.504  1.00  0.00    -0.248 NA
ATOM     60  C   UNL A   1      40.047  31.584  35.235  1.00  0.00     0.031 C 
ATOM     61  C   UNL A   1      44.088  29.408  32.676  1.00  0.00     0.029 A 
ATOM     62  C   UNL A   1      43.109  28.681  33.326  1.00  0.00     0.049 A 
ATOM     63  H   UNL A   1      42.191  26.871  32.761  1.00  0.00     0.167 HD
ATOM     64  C   UNL A   1      41.576  29.948  34.637  1.00  0.00     0.074 A 
ATOM     65  C   UNL A   1      40.839  30.602  35.701  1.00  0.00     0.031 C 
ATOM     66  C   UNL A   1      42.417  28.874  34.592  1.00  0.00     0.031 A 
BRANCH  53  67
ATOM     67  C   UNL A   1      44.229  25.913  29.505  1.00  0.00    -0.014 A 
ATOM     68  C   UNL A   1      44.995  26.464  28.461  1.00  0.00     0.009 A 
ATOM     69  C   UNL A   1      44.429  24.548  29.766  1.00  0.00     0.009 A 
ATOM     70  C   UNL A   1      45.816  25.673  27.647  1.00  0.00     0.001 A 
ATOM     71  C   UNL A   1      45.210  23.741  28.927  1.00  0.00     0.001 A 
ATOM     72  C   UNL A   1      45.893  24.303  27.856  1.00  0.00     0.000 A 
ENDBRANCH  53  67
BRANCH  54  73
ATOM     73  C   UNL A   1      38.141  32.643  32.804  1.00  0.00    -0.014 A 
ATOM     74  C   UNL A   1      37.690  33.884  32.310  1.00  0.00     0.009 A 
ATOM     75  C   UNL A   1      37.222  31.594  32.936  1.00  0.00     0.009 A 
ATOM     76  C   UNL A   1      36.386  34.028  31.835  1.00  0.00     0.001 A 
ATOM     77  C   UNL A   1      35.912  31.750  32.472  1.00  0.00     0.001 A 
ATOM     78  C   UNL A   1      35.507  32.950  31.885  1.00  0.00     0.000 A 
ENDBRANCH  54  73
BRANCH  66  79
ATOM     79  C   UNL A   1      42.727  27.946  35.737  1.00  0.00    -0.014 A 
ATOM     80  C   UNL A   1      41.842  26.979  36.234  1.00  0.00     0.009 A 
ATOM     81  C   UNL A   1      44.029  27.954  36.286  1.00  0.00     0.009 A 
ATOM     82  C   UNL A   1      42.220  26.105  37.264  1.00  0.00     0.001 A 
ATOM     83  C   UNL A   1      44.423  27.058  37.283  1.00  0.00     0.001 A 
ATOM     84  C   UNL A   1      43.510  26.140  37.783  1.00  0.00     0.000 A 
ENDBRANCH  66  79
ENDBRANCH  40  41
ENDBRANCH  32  35
ENDBRANCH  30  31
ENDBRANCH   1  30
TORSDOF 12
ENDMDL
