MODEL 1
REMARK VINA RESULT:     -13.0      0.000      0.000
REMARK SMILES CC(=O)Nc1cnc(N2CC=C(c3ccccc3C)CC2)c(C(=O)NCCCCNC(=O)c2ccc(-c3c4nc(c(-c5ccccc5)c5ccc([nH]5)c(-c5ccccc5)c5nc(c(-c6ccccc6)c6ccc3[nH]6)C=C5)C=C4)cc2)c1
REMARK SMILES IDX 27 1 26 2 25 3 23 4 24 5 22 7 5 8 6 9 81 10 7 11 8 12 4 13
REMARK SMILES IDX 1 14 2 15 3 16 9 18 10 19 21 20 11 21 20 22 12 23 13 24
REMARK SMILES IDX 14 25 18 26 15 27 17 28 19 29 16 30 28 31 29 32 30 33 31 34
REMARK SMILES IDX 32 36 33 37 34 38 80 39 35 40 79 41 36 42 37 43 38 44 73 45
REMARK SMILES IDX 39 46 78 47 72 48 74 49 40 50 77 51 71 52 70 53 41 55 63 56
REMARK SMILES IDX 48 57 62 58 49 59 52 60 61 61 75 62 50 63 51 64 60 66 76 67
REMARK SMILES IDX 53 68 42 69 43 70 47 71 44 72 46 73 45 74 64 75 65 76 69 77
REMARK SMILES IDX 66 78 68 79 67 80 54 81 55 82 59 83 56 84 58 85 57 86
REMARK H PARENT 25 6 4 17 30 35 74 54 52 65
REMARK Flexibility Score: inf
ROOT
ATOM      1  C   UNL A   1      37.772  23.414  25.599  1.00  0.00     0.023 C 
ENDROOT
BRANCH   1   2
ATOM      2  C   UNL A   1      36.271  23.488  25.281  1.00  0.00     0.116 C 
BRANCH   2   3
ATOM      3  N   UNL A   1      35.436  22.957  26.344  1.00  0.00    -0.352 N 
ATOM      4  C   UNL A   1      34.548  21.918  26.498  1.00  0.00     0.255 C 
ATOM      5  O   UNL A   1      34.237  21.743  27.677  1.00  0.00    -0.269 OA
ATOM      6  H   UNL A   1      35.532  23.479  27.174  1.00  0.00     0.163 HD
BRANCH   4   7
ATOM      7  C   UNL A   1      34.003  21.036  25.400  1.00  0.00     0.084 A 
ATOM      8  C   UNL A   1      33.831  18.825  24.356  1.00  0.00     0.060 A 
ATOM      9  C   UNL A   1      32.875  19.353  23.518  1.00  0.00     0.139 A 
ATOM     10  C   UNL A   1      34.422  19.700  25.265  1.00  0.00     0.045 A 
ATOM     11  N   UNL A   1      32.455  20.630  23.586  1.00  0.00    -0.236 NA
ATOM     12  C   UNL A   1      33.002  21.481  24.502  1.00  0.00     0.141 A 
BRANCH   8  13
ATOM     13  N   UNL A   1      34.196  17.475  24.226  1.00  0.00    -0.325 N 
ATOM     14  C   UNL A   1      32.530  16.429  25.757  1.00  0.00     0.114 C 
ATOM     15  C   UNL A   1      33.775  16.370  24.911  1.00  0.00     0.221 C 
ATOM     16  O   UNL A   1      34.388  15.310  24.776  1.00  0.00    -0.275 OA
ATOM     17  H   UNL A   1      34.866  17.295  23.526  1.00  0.00     0.169 HD
ENDBRANCH   8  13
BRANCH  12  18
ATOM     18  N   UNL A   1      32.509  22.758  24.402  1.00  0.00    -0.352 N 
ATOM     19  C   UNL A   1      33.066  23.637  23.383  1.00  0.00     0.146 C 
ATOM     20  C   UNL A   1      31.468  23.265  25.284  1.00  0.00     0.123 C 
ATOM     21  C   UNL A   1      32.995  25.085  23.794  1.00  0.00    -0.002 C 
ATOM     22  C   UNL A   1      31.943  24.551  25.973  1.00  0.00     0.057 C 
ATOM     23  C   UNL A   1      32.503  25.523  24.968  1.00  0.00    -0.041 C 
BRANCH  23  24
ATOM     24  C   UNL A   1      32.454  26.964  25.278  1.00  0.00    -0.020 A 
ATOM     25  C   UNL A   1      33.555  27.532  25.945  1.00  0.00     0.008 A 
ATOM     26  C   UNL A   1      31.366  27.788  24.929  1.00  0.00    -0.044 A 
ATOM     27  C   UNL A   1      33.588  28.892  26.253  1.00  0.00     0.001 A 
ATOM     28  C   UNL A   1      31.421  29.160  25.231  1.00  0.00     0.004 A 
ATOM     29  C   UNL A   1      30.148  27.256  24.226  1.00  0.00     0.045 C 
ATOM     30  C   UNL A   1      32.521  29.708  25.892  1.00  0.00     0.000 A 
ENDBRANCH  23  24
ENDBRANCH  12  18
ENDBRANCH   4   7
ENDBRANCH   2   3
ENDBRANCH   1   2
BRANCH   1  31
ATOM     31  C   UNL A   1      38.325  21.992  25.766  1.00  0.00     0.023 C 
BRANCH  31  32
ATOM     32  C   UNL A   1      39.677  21.926  26.468  1.00  0.00     0.116 C 
BRANCH  32  33
ATOM     33  N   UNL A   1      40.548  20.835  26.051  1.00  0.00    -0.352 N 
ATOM     34  C   UNL A   1      41.934  20.735  26.095  1.00  0.00     0.251 C 
ATOM     35  H   UNL A   1      40.085  20.048  25.684  1.00  0.00     0.163 HD
ATOM     36  O   UNL A   1      42.491  19.778  25.585  1.00  0.00    -0.269 OA
BRANCH  34  37
ATOM     37  C   UNL A   1      42.725  21.708  26.898  1.00  0.00     0.039 A 
ATOM     38  C   UNL A   1      42.494  21.743  28.280  1.00  0.00     0.014 A 
ATOM     39  C   UNL A   1      43.459  22.721  26.292  1.00  0.00     0.014 A 
ATOM     40  C   UNL A   1      42.725  22.924  28.980  1.00  0.00     0.010 A 
ATOM     41  C   UNL A   1      43.573  23.929  26.950  1.00  0.00     0.010 A 
ATOM     42  C   UNL A   1      43.127  24.051  28.269  1.00  0.00    -0.014 A 
BRANCH  42  43
ATOM     43  C   UNL A   1      42.969  25.412  28.766  1.00  0.00     0.031 A 
ATOM     44  C   UNL A   1      41.825  26.239  28.334  1.00  0.00     0.074 A 
ATOM     45  C   UNL A   1      43.835  25.894  29.687  1.00  0.00     0.049 A 
ATOM     46  N   UNL A   1      41.779  27.523  28.454  1.00  0.00    -0.248 NA
ATOM     47  C   UNL A   1      40.665  25.688  27.639  1.00  0.00     0.031 C 
ATOM     48  C   UNL A   1      43.671  27.066  30.543  1.00  0.00     0.029 A 
ATOM     49  N   UNL A   1      45.155  25.525  29.890  1.00  0.00    -0.354 N 
ATOM     50  C   UNL A   1      40.495  27.915  28.168  1.00  0.00     0.074 A 
ATOM     51  C   UNL A   1      39.890  26.771  27.533  1.00  0.00     0.031 C 
ATOM     52  C   UNL A   1      44.876  27.454  30.992  1.00  0.00     0.029 A 
ATOM     53  C   UNL A   1      45.874  26.647  30.309  1.00  0.00     0.049 A 
ATOM     54  H   UNL A   1      45.524  24.622  29.760  1.00  0.00     0.167 HD
ATOM     55  C   UNL A   1      40.048  29.108  28.648  1.00  0.00     0.031 A 
ATOM     56  C   UNL A   1      46.890  27.161  29.553  1.00  0.00     0.031 A 
ATOM     57  C   UNL A   1      41.146  29.923  29.172  1.00  0.00     0.049 A 
ATOM     58  C   UNL A   1      46.635  28.574  29.063  1.00  0.00     0.074 A 
ATOM     59  C   UNL A   1      41.555  30.264  30.450  1.00  0.00     0.029 A 
ATOM     60  N   UNL A   1      42.177  30.295  28.316  1.00  0.00    -0.354 N 
ATOM     61  N   UNL A   1      45.461  29.144  29.046  1.00  0.00    -0.248 NA
ATOM     62  C   UNL A   1      47.677  29.441  28.515  1.00  0.00     0.031 C 
ATOM     63  C   UNL A   1      42.883  30.767  30.362  1.00  0.00     0.029 A 
ATOM     64  C   UNL A   1      43.259  30.769  29.030  1.00  0.00     0.049 A 
ATOM     65  H   UNL A   1      42.140  30.229  27.334  1.00  0.00     0.167 HD
ATOM     66  C   UNL A   1      45.561  30.398  28.502  1.00  0.00     0.074 A 
ATOM     67  C   UNL A   1      46.974  30.544  28.199  1.00  0.00     0.031 C 
ATOM     68  C   UNL A   1      44.467  31.198  28.334  1.00  0.00     0.031 A 
BRANCH  55  69
ATOM     69  C   UNL A   1      38.586  29.442  28.871  1.00  0.00    -0.014 A 
ATOM     70  C   UNL A   1      38.017  29.242  30.143  1.00  0.00     0.009 A 
ATOM     71  C   UNL A   1      37.687  29.842  27.866  1.00  0.00     0.009 A 
ATOM     72  C   UNL A   1      36.641  29.391  30.379  1.00  0.00     0.001 A 
ATOM     73  C   UNL A   1      36.314  30.008  28.095  1.00  0.00     0.001 A 
ATOM     74  C   UNL A   1      35.787  29.770  29.352  1.00  0.00     0.000 A 
ENDBRANCH  55  69
BRANCH  56  75
ATOM     75  C   UNL A   1      47.646  26.128  28.791  1.00  0.00    -0.014 A 
ATOM     76  C   UNL A   1      47.381  25.991  27.414  1.00  0.00     0.009 A 
ATOM     77  C   UNL A   1      48.834  25.583  29.302  1.00  0.00     0.009 A 
ATOM     78  C   UNL A   1      48.334  25.437  26.553  1.00  0.00     0.001 A 
ATOM     79  C   UNL A   1      49.779  25.017  28.436  1.00  0.00     0.001 A 
ATOM     80  C   UNL A   1      49.546  24.980  27.063  1.00  0.00     0.000 A 
ENDBRANCH  56  75
BRANCH  68  81
ATOM     81  C   UNL A   1      44.414  32.488  27.546  1.00  0.00    -0.014 A 
ATOM     82  C   UNL A   1      44.621  32.590  26.165  1.00  0.00     0.009 A 
ATOM     83  C   UNL A   1      43.999  33.670  28.206  1.00  0.00     0.009 A 
ATOM     84  C   UNL A   1      44.469  33.810  25.488  1.00  0.00     0.001 A 
ATOM     85  C   UNL A   1      43.799  34.876  27.530  1.00  0.00     0.001 A 
ATOM     86  C   UNL A   1      44.047  34.949  26.168  1.00  0.00     0.000 A 
ENDBRANCH  68  81
ENDBRANCH  42  43
ENDBRANCH  34  37
ENDBRANCH  32  33
ENDBRANCH  31  32
ENDBRANCH   1  31
TORSDOF 14
ENDMDL
MODEL 2
REMARK VINA RESULT:     -13.0      3.627      8.961
REMARK SMILES CC(=O)Nc1cnc(N2CC=C(c3ccccc3C)CC2)c(C(=O)NCCCCNC(=O)c2ccc(-c3c4nc(c(-c5ccccc5)c5ccc([nH]5)c(-c5ccccc5)c5nc(c(-c6ccccc6)c6ccc3[nH]6)C=C5)C=C4)cc2)c1
REMARK SMILES IDX 27 1 26 2 25 3 23 4 24 5 22 7 5 8 6 9 81 10 7 11 8 12 4 13
REMARK SMILES IDX 1 14 2 15 3 16 9 18 10 19 21 20 11 21 20 22 12 23 13 24
REMARK SMILES IDX 14 25 18 26 15 27 17 28 19 29 16 30 28 31 29 32 30 33 31 34
REMARK SMILES IDX 32 36 33 37 34 38 80 39 35 40 79 41 36 42 37 43 38 44 73 45
REMARK SMILES IDX 39 46 78 47 72 48 74 49 40 50 77 51 71 52 70 53 41 55 63 56
REMARK SMILES IDX 48 57 62 58 49 59 52 60 61 61 75 62 50 63 51 64 60 66 76 67
REMARK SMILES IDX 53 68 42 69 43 70 47 71 44 72 46 73 45 74 64 75 65 76 69 77
REMARK SMILES IDX 66 78 68 79 67 80 54 81 55 82 59 83 56 84 58 85 57 86
REMARK H PARENT 25 6 4 17 30 35 74 54 52 65
REMARK Flexibility Score: inf
ROOT
ATOM      1  C   UNL A   1      32.593  28.703  27.129  1.00  0.00     0.023 C 
ENDROOT
BRANCH   1   2
ATOM      2  C   UNL A   1      31.288  28.058  27.620  1.00  0.00     0.116 C 
BRANCH   2   3
ATOM      3  N   UNL A   1      30.971  26.820  26.931  1.00  0.00    -0.352 N 
ATOM      4  C   UNL A   1      30.818  26.408  25.628  1.00  0.00     0.255 C 
ATOM      5  O   UNL A   1      30.748  25.182  25.533  1.00  0.00    -0.269 OA
ATOM      6  H   UNL A   1      30.829  26.080  27.565  1.00  0.00     0.163 HD
BRANCH   4   7
ATOM      7  C   UNL A   1      30.764  27.297  24.409  1.00  0.00     0.084 A 
ATOM      8  C   UNL A   1      29.665  29.087  23.147  1.00  0.00     0.060 A 
ATOM      9  C   UNL A   1      30.739  29.070  22.286  1.00  0.00     0.139 A 
ATOM     10  C   UNL A   1      29.674  28.155  24.181  1.00  0.00     0.045 A 
ATOM     11  N   UNL A   1      31.797  28.253  22.440  1.00  0.00    -0.236 NA
ATOM     12  C   UNL A   1      31.829  27.364  23.476  1.00  0.00     0.141 A 
BRANCH   8  13
ATOM     13  N   UNL A   1      28.610  29.987  22.919  1.00  0.00    -0.325 N 
ATOM     14  C   UNL A   1      29.386  31.916  24.295  1.00  0.00     0.114 C 
ATOM     15  C   UNL A   1      28.333  31.196  23.494  1.00  0.00     0.221 C 
ATOM     16  O   UNL A   1      27.234  31.717  23.295  1.00  0.00    -0.275 OA
ATOM     17  H   UNL A   1      27.966  29.700  22.232  1.00  0.00     0.169 HD
ENDBRANCH   8  13
BRANCH  12  18
ATOM     18  N   UNL A   1      32.945  26.566  23.458  1.00  0.00    -0.352 N 
ATOM     19  C   UNL A   1      33.099  25.616  22.365  1.00  0.00     0.146 C 
ATOM     20  C   UNL A   1      33.966  26.625  24.495  1.00  0.00     0.123 C 
ATOM     21  C   UNL A   1      33.890  24.404  22.785  1.00  0.00    -0.002 C 
ATOM     22  C   UNL A   1      34.179  25.233  25.102  1.00  0.00     0.057 C 
ATOM     23  C   UNL A   1      34.379  24.201  24.023  1.00  0.00    -0.041 C 
BRANCH  23  24
ATOM     24  C   UNL A   1      35.161  22.991  24.339  1.00  0.00    -0.020 A 
ATOM     25  C   UNL A   1      36.560  23.058  24.205  1.00  0.00     0.008 A 
ATOM     26  C   UNL A   1      34.571  21.788  24.774  1.00  0.00    -0.044 A 
ATOM     27  C   UNL A   1      37.365  21.959  24.507  1.00  0.00     0.001 A 
ATOM     28  C   UNL A   1      35.397  20.695  25.089  1.00  0.00     0.004 A 
ATOM     29  C   UNL A   1      33.084  21.632  24.930  1.00  0.00     0.045 C 
ATOM     30  C   UNL A   1      36.783  20.778  24.953  1.00  0.00     0.000 A 
ENDBRANCH  23  24
ENDBRANCH  12  18
ENDBRANCH   4   7
ENDBRANCH   2   3
ENDBRANCH   1   2
BRANCH   1  31
ATOM     31  C   UNL A   1      32.706  30.211  27.397  1.00  0.00     0.023 C 
BRANCH  31  32
ATOM     32  C   UNL A   1      34.043  30.819  26.991  1.00  0.00     0.116 C 
BRANCH  32  33
ATOM     33  N   UNL A   1      34.684  31.656  27.997  1.00  0.00    -0.352 N 
ATOM     34  C   UNL A   1      35.701  31.351  28.894  1.00  0.00     0.251 C 
ATOM     35  H   UNL A   1      34.346  32.579  28.048  1.00  0.00     0.163 HD
ATOM     36  O   UNL A   1      36.023  32.161  29.746  1.00  0.00    -0.269 OA
BRANCH  34  37
ATOM     37  C   UNL A   1      36.501  30.108  28.717  1.00  0.00     0.039 A 
ATOM     38  C   UNL A   1      36.668  29.283  29.837  1.00  0.00     0.014 A 
ATOM     39  C   UNL A   1      37.275  29.899  27.581  1.00  0.00     0.014 A 
ATOM     40  C   UNL A   1      37.798  28.474  29.926  1.00  0.00     0.010 A 
ATOM     41  C   UNL A   1      38.457  29.199  27.714  1.00  0.00     0.010 A 
ATOM     42  C   UNL A   1      38.755  28.556  28.918  1.00  0.00    -0.014 A 
BRANCH  42  43
ATOM     43  C   UNL A   1      40.141  28.138  29.092  1.00  0.00     0.031 A 
ATOM     44  C   UNL A   1      40.596  26.827  28.591  1.00  0.00     0.074 A 
ATOM     45  C   UNL A   1      41.033  28.989  29.650  1.00  0.00     0.049 A 
ATOM     46  N   UNL A   1      41.683  26.246  28.975  1.00  0.00    -0.248 NA
ATOM     47  C   UNL A   1      39.807  26.010  27.672  1.00  0.00     0.031 C 
ATOM     48  C   UNL A   1      42.491  28.909  29.612  1.00  0.00     0.029 A 
ATOM     49  N   UNL A   1      40.786  30.007  30.556  1.00  0.00    -0.354 N 
ATOM     50  C   UNL A   1      41.894  25.178  28.140  1.00  0.00     0.074 A 
ATOM     51  C   UNL A   1      40.641  24.991  27.451  1.00  0.00     0.031 C 
ATOM     52  C   UNL A   1      42.997  29.660  30.604  1.00  0.00     0.029 A 
ATOM     53  C   UNL A   1      41.881  30.116  31.417  1.00  0.00     0.049 A 
ATOM     54  H   UNL A   1      39.973  30.561  30.589  1.00  0.00     0.167 HD
ATOM     55  C   UNL A   1      43.155  24.679  28.013  1.00  0.00     0.031 A 
ATOM     56  C   UNL A   1      41.758  29.874  32.756  1.00  0.00     0.031 A 
ATOM     57  C   UNL A   1      44.050  25.213  29.042  1.00  0.00     0.049 A 
ATOM     58  C   UNL A   1      42.583  28.698  33.246  1.00  0.00     0.074 A 
ATOM     59  C   UNL A   1      45.078  26.140  29.025  1.00  0.00     0.029 A 
ATOM     60  N   UNL A   1      43.753  24.981  30.381  1.00  0.00    -0.354 N 
ATOM     61  N   UNL A   1      43.093  27.786  32.465  1.00  0.00    -0.248 NA
ATOM     62  C   UNL A   1      42.864  28.438  34.656  1.00  0.00     0.031 C 
ATOM     63  C   UNL A   1      45.338  26.528  30.368  1.00  0.00     0.029 A 
ATOM     64  C   UNL A   1      44.497  25.807  31.199  1.00  0.00     0.049 A 
ATOM     65  H   UNL A   1      43.099  24.317  30.702  1.00  0.00     0.167 HD
ATOM     66  C   UNL A   1      43.738  26.839  33.217  1.00  0.00     0.074 A 
ATOM     67  C   UNL A   1      43.580  27.301  34.584  1.00  0.00     0.031 C 
ATOM     68  C   UNL A   1      44.331  25.749  32.647  1.00  0.00     0.031 A 
BRANCH  55  69
ATOM     69  C   UNL A   1      43.645  23.898  26.811  1.00  0.00    -0.014 A 
ATOM     70  C   UNL A   1      44.298  24.576  25.765  1.00  0.00     0.009 A 
ATOM     71  C   UNL A   1      43.402  22.531  26.584  1.00  0.00     0.009 A 
ATOM     72  C   UNL A   1      44.644  23.939  24.562  1.00  0.00     0.001 A 
ATOM     73  C   UNL A   1      43.758  21.882  25.393  1.00  0.00     0.001 A 
ATOM     74  C   UNL A   1      44.369  22.591  24.374  1.00  0.00     0.000 A 
ENDBRANCH  55  69
BRANCH  56  75
ATOM     75  C   UNL A   1      40.430  30.261  33.311  1.00  0.00    -0.014 A 
ATOM     76  C   UNL A   1      40.166  31.631  33.507  1.00  0.00     0.009 A 
ATOM     77  C   UNL A   1      39.349  29.367  33.279  1.00  0.00     0.009 A 
ATOM     78  C   UNL A   1      38.852  32.109  33.543  1.00  0.00     0.001 A 
ATOM     79  C   UNL A   1      38.035  29.851  33.329  1.00  0.00     0.001 A 
ATOM     80  C   UNL A   1      37.788  31.219  33.421  1.00  0.00     0.000 A 
ENDBRANCH  56  75
BRANCH  68  81
ATOM     81  C   UNL A   1      44.865  24.536  33.376  1.00  0.00    -0.014 A 
ATOM     82  C   UNL A   1      46.162  24.421  33.892  1.00  0.00     0.009 A 
ATOM     83  C   UNL A   1      43.973  23.482  33.685  1.00  0.00     0.009 A 
ATOM     84  C   UNL A   1      46.559  23.298  34.635  1.00  0.00     0.001 A 
ATOM     85  C   UNL A   1      44.348  22.385  34.464  1.00  0.00     0.001 A 
ATOM     86  C   UNL A   1      45.650  22.287  34.930  1.00  0.00     0.000 A 
ENDBRANCH  68  81
ENDBRANCH  42  43
ENDBRANCH  34  37
ENDBRANCH  32  33
ENDBRANCH  31  32
ENDBRANCH   1  31
TORSDOF 14
ENDMDL
MODEL 3
REMARK VINA RESULT:     -12.9      4.372      9.552
REMARK SMILES CC(=O)Nc1cnc(N2CC=C(c3ccccc3C)CC2)c(C(=O)NCCCCNC(=O)c2ccc(-c3c4nc(c(-c5ccccc5)c5ccc([nH]5)c(-c5ccccc5)c5nc(c(-c6ccccc6)c6ccc3[nH]6)C=C5)C=C4)cc2)c1
REMARK SMILES IDX 27 1 26 2 25 3 23 4 24 5 22 7 5 8 6 9 81 10 7 11 8 12 4 13
REMARK SMILES IDX 1 14 2 15 3 16 9 18 10 19 21 20 11 21 20 22 12 23 13 24
REMARK SMILES IDX 14 25 18 26 15 27 17 28 19 29 16 30 28 31 29 32 30 33 31 34
REMARK SMILES IDX 32 36 33 37 34 38 80 39 35 40 79 41 36 42 37 43 38 44 73 45
REMARK SMILES IDX 39 46 78 47 72 48 74 49 40 50 77 51 71 52 70 53 41 55 63 56
REMARK SMILES IDX 48 57 62 58 49 59 52 60 61 61 75 62 50 63 51 64 60 66 76 67
REMARK SMILES IDX 53 68 42 69 43 70 47 71 44 72 46 73 45 74 64 75 65 76 69 77
REMARK SMILES IDX 66 78 68 79 67 80 54 81 55 82 59 83 56 84 58 85 57 86
REMARK H PARENT 25 6 4 17 30 35 74 54 52 65
REMARK Flexibility Score: inf
ROOT
ATOM      1  C   UNL A   1      34.250  29.218  27.337  1.00  0.00     0.023 C 
ENDROOT
BRANCH   1   2
ATOM      2  C   UNL A   1      33.654  28.149  26.408  1.00  0.00     0.116 C 
BRANCH   2   3
ATOM      3  N   UNL A   1      33.895  28.418  25.003  1.00  0.00    -0.352 N 
ATOM      4  C   UNL A   1      33.134  28.674  23.885  1.00  0.00     0.255 C 
ATOM      5  O   UNL A   1      33.819  29.050  22.932  1.00  0.00    -0.269 OA
ATOM      6  H   UNL A   1      34.857  28.418  24.794  1.00  0.00     0.163 HD
BRANCH   4   7
ATOM      7  C   UNL A   1      31.633  28.558  23.779  1.00  0.00     0.084 A 
ATOM      8  C   UNL A   1      29.447  29.628  23.487  1.00  0.00     0.060 A 
ATOM      9  C   UNL A   1      28.901  28.368  23.391  1.00  0.00     0.139 A 
ATOM     10  C   UNL A   1      30.816  29.703  23.729  1.00  0.00     0.045 A 
ATOM     11  N   UNL A   1      29.630  27.239  23.457  1.00  0.00    -0.236 NA
ATOM     12  C   UNL A   1      30.979  27.308  23.655  1.00  0.00     0.141 A 
BRANCH   8  13
ATOM     13  N   UNL A   1      28.612  30.753  23.389  1.00  0.00    -0.325 N 
ATOM     14  C   UNL A   1      28.450  30.955  20.909  1.00  0.00     0.114 C 
ATOM     15  C   UNL A   1      28.238  31.492  22.301  1.00  0.00     0.221 C 
ATOM     16  O   UNL A   1      27.668  32.570  22.474  1.00  0.00    -0.275 OA
ATOM     17  H   UNL A   1      28.233  31.060  24.244  1.00  0.00     0.169 HD
ENDBRANCH   8  13
BRANCH  12  18
ATOM     18  N   UNL A   1      31.565  26.071  23.757  1.00  0.00    -0.352 N 
ATOM     19  C   UNL A   1      31.548  25.402  25.051  1.00  0.00     0.146 C 
ATOM     20  C   UNL A   1      32.212  25.416  22.629  1.00  0.00     0.123 C 
ATOM     21  C   UNL A   1      32.734  24.488  25.223  1.00  0.00    -0.002 C 
ATOM     22  C   UNL A   1      33.656  25.048  22.992  1.00  0.00     0.057 C 
ATOM     23  C   UNL A   1      33.710  24.320  24.310  1.00  0.00    -0.041 C 
BRANCH  23  24
ATOM     24  C   UNL A   1      34.825  23.387  24.556  1.00  0.00    -0.020 A 
ATOM     25  C   UNL A   1      36.082  23.932  24.877  1.00  0.00     0.008 A 
ATOM     26  C   UNL A   1      34.682  21.987  24.491  1.00  0.00    -0.044 A 
ATOM     27  C   UNL A   1      37.176  23.110  25.143  1.00  0.00     0.001 A 
ATOM     28  C   UNL A   1      35.791  21.171  24.776  1.00  0.00     0.004 A 
ATOM     29  C   UNL A   1      33.377  21.327  24.142  1.00  0.00     0.045 C 
ATOM     30  C   UNL A   1      37.030  21.728  25.096  1.00  0.00     0.000 A 
ENDBRANCH  23  24
ENDBRANCH  12  18
ENDBRANCH   4   7
ENDBRANCH   2   3
ENDBRANCH   1   2
BRANCH   1  31
ATOM     31  C   UNL A   1      33.536  30.577  27.297  1.00  0.00     0.023 C 
BRANCH  31  32
ATOM     32  C   UNL A   1      34.395  31.748  27.758  1.00  0.00     0.116 C 
BRANCH  32  33
ATOM     33  N   UNL A   1      33.664  32.902  28.266  1.00  0.00    -0.352 N 
ATOM     34  C   UNL A   1      33.994  33.789  29.283  1.00  0.00     0.251 C 
ATOM     35  H   UNL A   1      32.805  33.081  27.819  1.00  0.00     0.163 HD
ATOM     36  O   UNL A   1      33.187  34.630  29.642  1.00  0.00    -0.269 OA
BRANCH  34  37
ATOM     37  C   UNL A   1      35.381  33.818  29.824  1.00  0.00     0.039 A 
ATOM     38  C   UNL A   1      36.405  34.212  28.952  1.00  0.00     0.014 A 
ATOM     39  C   UNL A   1      35.696  33.231  31.044  1.00  0.00     0.014 A 
ATOM     40  C   UNL A   1      37.698  33.741  29.163  1.00  0.00     0.010 A 
ATOM     41  C   UNL A   1      36.944  32.659  31.191  1.00  0.00     0.010 A 
ATOM     42  C   UNL A   1      37.918  32.846  30.207  1.00  0.00    -0.014 A 
BRANCH  42  43
ATOM     43  C   UNL A   1      39.066  31.949  30.267  1.00  0.00     0.031 A 
ATOM     44  C   UNL A   1      38.939  30.541  29.843  1.00  0.00     0.074 A 
ATOM     45  C   UNL A   1      40.274  32.430  30.642  1.00  0.00     0.049 A 
ATOM     46  N   UNL A   1      39.781  29.615  30.160  1.00  0.00    -0.248 NA
ATOM     47  C   UNL A   1      37.790  30.037  29.096  1.00  0.00     0.031 C 
ATOM     48  C   UNL A   1      41.582  31.810  30.453  1.00  0.00     0.029 A 
ATOM     49  N   UNL A   1      40.541  33.508  31.470  1.00  0.00    -0.354 N 
ATOM     50  C   UNL A   1      39.473  28.508  29.410  1.00  0.00     0.074 A 
ATOM     51  C   UNL A   1      38.157  28.771  28.883  1.00  0.00     0.031 C 
ATOM     52  C   UNL A   1      42.458  32.363  31.309  1.00  0.00     0.029 A 
ATOM     53  C   UNL A   1      41.707  33.240  32.192  1.00  0.00     0.049 A 
ATOM     54  H   UNL A   1      39.998  34.326  31.539  1.00  0.00     0.167 HD
ATOM     55  C   UNL A   1      40.435  27.569  29.194  1.00  0.00     0.031 A 
ATOM     56  C   UNL A   1      41.687  33.124  33.554  1.00  0.00     0.031 A 
ATOM     57  C   UNL A   1      41.594  27.778  30.064  1.00  0.00     0.049 A 
ATOM     58  C   UNL A   1      42.086  31.749  34.058  1.00  0.00     0.074 A 
ATOM     59  C   UNL A   1      42.877  28.251  29.848  1.00  0.00     0.029 A 
ATOM     60  N   UNL A   1      41.418  27.736  31.444  1.00  0.00    -0.354 N 
ATOM     61  N   UNL A   1      42.117  30.677  33.315  1.00  0.00    -0.248 NA
ATOM     62  C   UNL A   1      42.441  31.468  35.447  1.00  0.00     0.031 C 
ATOM     63  C   UNL A   1      43.440  28.576  31.113  1.00  0.00     0.029 A 
ATOM     64  C   UNL A   1      42.516  28.261  32.094  1.00  0.00     0.049 A 
ATOM     65  H   UNL A   1      40.618  27.379  31.895  1.00  0.00     0.167 HD
ATOM     66  C   UNL A   1      42.468  29.594  34.077  1.00  0.00     0.074 A 
ATOM     67  C   UNL A   1      42.677  30.145  35.405  1.00  0.00     0.031 C 
ATOM     68  C   UNL A   1      42.539  28.336  33.551  1.00  0.00     0.031 A 
BRANCH  55  69
ATOM     69  C   UNL A   1      40.438  26.607  28.023  1.00  0.00    -0.014 A 
ATOM     70  C   UNL A   1      39.748  25.384  28.131  1.00  0.00     0.009 A 
ATOM     71  C   UNL A   1      41.180  26.777  26.840  1.00  0.00     0.009 A 
ATOM     72  C   UNL A   1      39.832  24.389  27.145  1.00  0.00     0.001 A 
ATOM     73  C   UNL A   1      41.258  25.796  25.842  1.00  0.00     0.001 A 
ATOM     74  C   UNL A   1      40.592  24.593  26.001  1.00  0.00     0.000 A 
ENDBRANCH  55  69
BRANCH  56  75
ATOM     75  C   UNL A   1      40.681  34.004  34.212  1.00  0.00    -0.014 A 
ATOM     76  C   UNL A   1      39.540  33.402  34.777  1.00  0.00     0.009 A 
ATOM     77  C   UNL A   1      41.014  35.309  34.604  1.00  0.00     0.009 A 
ATOM     78  C   UNL A   1      38.826  34.037  35.799  1.00  0.00     0.001 A 
ATOM     79  C   UNL A   1      40.288  35.946  35.619  1.00  0.00     0.001 A 
ATOM     80  C   UNL A   1      39.222  35.296  36.241  1.00  0.00     0.000 A 
ENDBRANCH  56  75
BRANCH  68  81
ATOM     81  C   UNL A   1      42.688  27.047  34.327  1.00  0.00    -0.014 A 
ATOM     82  C   UNL A   1      41.724  26.522  35.198  1.00  0.00     0.009 A 
ATOM     83  C   UNL A   1      43.815  26.228  34.075  1.00  0.00     0.009 A 
ATOM     84  C   UNL A   1      41.896  25.275  35.817  1.00  0.00     0.001 A 
ATOM     85  C   UNL A   1      43.969  24.964  34.651  1.00  0.00     0.001 A 
ATOM     86  C   UNL A   1      43.011  24.492  35.535  1.00  0.00     0.000 A 
ENDBRANCH  68  81
ENDBRANCH  42  43
ENDBRANCH  34  37
ENDBRANCH  32  33
ENDBRANCH  31  32
ENDBRANCH   1  31
TORSDOF 14
ENDMDL
