MODEL 1
REMARK VINA RESULT:      -9.8      0.000      0.000
REMARK SMILES C#CCN(CC(=O)NCCCCNC(=O)c1ccc(-c2c3nc(c(-c4ccccc4)c4ccc([nH]4)c(-c4ccccc4)c4nc(c(-c5ccccc5)c5ccc2[nH]5)C=C4)C=C3)cc1)C(=O)NCCc1ccco1
REMARK SMILES IDX 9 1 8 2 6 3 7 4 5 6 4 7 3 8 2 9 1 10 64 11 65 12 66 13 67 15
REMARK SMILES IDX 68 16 69 17 70 18 73 19 71 20 72 21 10 22 11 23 12 24 13 25
REMARK SMILES IDX 14 26 15 28 16 29 17 30 63 31 18 32 62 33 19 34 20 35 21 36
REMARK SMILES IDX 56 37 22 38 61 39 55 40 57 41 23 42 60 43 54 44 53 45 24 47
REMARK SMILES IDX 46 48 31 49 45 50 32 51 35 52 44 53 58 54 33 55 34 56 43 58
REMARK SMILES IDX 59 59 36 60 25 61 26 62 30 63 27 64 29 65 28 66 47 67 48 68
REMARK SMILES IDX 52 69 49 70 51 71 50 72 37 73 38 74 42 75 39 76 41 77 40 78
REMARK H PARENT 8 5 66 14 13 27 57 46 35 57
REMARK Flexibility Score: inf
ROOT
ATOM      1  C   UNL A   1      36.997  22.544  24.362  1.00  0.00     0.116 C 
ENDROOT
BRANCH   1   2
ATOM      2  N   UNL A   1      35.991  23.077  23.471  1.00  0.00    -0.355 N 
ATOM      3  C   UNL A   1      34.989  23.966  23.731  1.00  0.00     0.239 C 
ATOM      4  O   UNL A   1      34.451  24.504  22.758  1.00  0.00    -0.273 OA
ATOM      5  H   UNL A   1      36.036  22.752  22.543  1.00  0.00     0.163 HD
BRANCH   3   6
ATOM      6  C   UNL A   1      34.635  24.403  25.163  1.00  0.00     0.222 C 
BRANCH   6   7
ATOM      7  N   UNL A   1      33.415  23.812  25.702  1.00  0.00    -0.304 N 
BRANCH   7   8
ATOM      8  C   UNL A   1      32.219  24.651  25.659  1.00  0.00     0.211 C 
BRANCH   8   9
ATOM      9  C   UNL A   1      31.355  24.379  24.439  1.00  0.00    -0.085 C 
ATOM     10  C   UNL A   1      30.613  24.146  23.392  1.00  0.00     0.006 C 
ENDBRANCH   8   9
ENDBRANCH   7   8
BRANCH   7  11
ATOM     11  C   UNL A   1      33.262  22.562  26.231  1.00  0.00     0.318 C 
ATOM     12  O   UNL A   1      33.280  22.376  27.453  1.00  0.00    -0.249 OA
ATOM     13  N   UNL A   1      33.101  21.447  25.505  1.00  0.00    -0.337 N 
ATOM     14  H   UNL A   1      32.995  20.666  26.095  1.00  0.00     0.165 HD
BRANCH  13  15
ATOM     15  C   UNL A   1      33.035  21.040  24.105  1.00  0.00     0.125 C 
BRANCH  15  16
ATOM     16  C   UNL A   1      32.209  19.762  23.926  1.00  0.00     0.096 C 
BRANCH  16  17
ATOM     17  C   UNL A   1      33.081  18.562  23.815  1.00  0.00     0.105 A 
ATOM     18  C   UNL A   1      33.016  17.398  23.078  1.00  0.00     0.045 A 
ATOM     19  O   UNL A   1      34.211  18.569  24.577  1.00  0.00    -0.469 OA
ATOM     20  C   UNL A   1      34.175  16.654  23.409  1.00  0.00     0.042 A 
ATOM     21  C   UNL A   1      34.867  17.409  24.325  1.00  0.00     0.195 A 
ENDBRANCH  16  17
ENDBRANCH  15  16
ENDBRANCH  13  15
ENDBRANCH   7  11
ENDBRANCH   6   7
ENDBRANCH   3   6
ENDBRANCH   1   2
BRANCH   1  22
ATOM     22  C   UNL A   1      36.633  21.177  24.937  1.00  0.00     0.023 C 
BRANCH  22  23
ATOM     23  C   UNL A   1      37.753  20.139  24.924  1.00  0.00     0.023 C 
BRANCH  23  24
ATOM     24  C   UNL A   1      38.965  20.476  25.782  1.00  0.00     0.116 C 
BRANCH  24  25
ATOM     25  N   UNL A   1      40.003  19.457  25.757  1.00  0.00    -0.352 N 
ATOM     26  C   UNL A   1      41.325  19.578  26.112  1.00  0.00     0.251 C 
ATOM     27  H   UNL A   1      39.723  18.567  25.445  1.00  0.00     0.163 HD
ATOM     28  O   UNL A   1      42.098  18.635  25.967  1.00  0.00    -0.269 OA
BRANCH  26  29
ATOM     29  C   UNL A   1      41.820  20.870  26.627  1.00  0.00     0.039 A 
ATOM     30  C   UNL A   1      42.285  21.820  25.716  1.00  0.00     0.014 A 
ATOM     31  C   UNL A   1      41.777  21.160  27.994  1.00  0.00     0.014 A 
ATOM     32  C   UNL A   1      42.640  23.092  26.168  1.00  0.00     0.010 A 
ATOM     33  C   UNL A   1      42.060  22.448  28.432  1.00  0.00     0.010 A 
ATOM     34  C   UNL A   1      42.491  23.427  27.524  1.00  0.00    -0.014 A 
BRANCH  34  35
ATOM     35  C   UNL A   1      42.770  24.798  28.012  1.00  0.00     0.031 A 
ATOM     36  C   UNL A   1      44.164  25.187  28.415  1.00  0.00     0.074 A 
ATOM     37  C   UNL A   1      41.755  25.670  28.164  1.00  0.00     0.049 A 
ATOM     38  N   UNL A   1      44.592  26.315  28.924  1.00  0.00    -0.248 NA
ATOM     39  C   UNL A   1      45.209  24.164  28.253  1.00  0.00     0.031 C 
ATOM     40  C   UNL A   1      40.349  25.398  27.855  1.00  0.00     0.029 A 
ATOM     41  N   UNL A   1      41.750  26.961  28.629  1.00  0.00    -0.354 N 
ATOM     42  C   UNL A   1      45.947  26.129  29.162  1.00  0.00     0.074 A 
ATOM     43  C   UNL A   1      46.260  24.768  28.787  1.00  0.00     0.031 C 
ATOM     44  C   UNL A   1      39.622  26.498  28.117  1.00  0.00     0.029 A 
ATOM     45  C   UNL A   1      40.503  27.535  28.643  1.00  0.00     0.049 A 
ATOM     46  H   UNL A   1      42.563  27.430  28.925  1.00  0.00     0.167 HD
ATOM     47  C   UNL A   1      46.853  27.018  29.633  1.00  0.00     0.031 A 
ATOM     48  C   UNL A   1      40.110  28.760  29.041  1.00  0.00     0.031 A 
ATOM     49  C   UNL A   1      46.545  28.375  29.994  1.00  0.00     0.049 A 
ATOM     50  C   UNL A   1      41.134  29.730  29.558  1.00  0.00     0.074 A 
ATOM     51  C   UNL A   1      47.406  29.372  30.416  1.00  0.00     0.029 A 
ATOM     52  N   UNL A   1      45.272  28.925  29.977  1.00  0.00    -0.354 N 
ATOM     53  N   UNL A   1      42.426  29.564  29.706  1.00  0.00    -0.248 NA
ATOM     54  C   UNL A   1      40.646  31.059  29.950  1.00  0.00     0.031 C 
ATOM     55  C   UNL A   1      46.647  30.513  30.700  1.00  0.00     0.029 A 
ATOM     56  C   UNL A   1      45.320  30.241  30.405  1.00  0.00     0.049 A 
ATOM     57  H   UNL A   1      44.455  28.449  29.701  1.00  0.00     0.167 HD
ATOM     58  C   UNL A   1      42.910  30.774  30.185  1.00  0.00     0.074 A 
ATOM     59  C   UNL A   1      41.774  31.668  30.289  1.00  0.00     0.031 C 
ATOM     60  C   UNL A   1      44.182  31.114  30.509  1.00  0.00     0.031 A 
BRANCH  47  61
ATOM     61  C   UNL A   1      48.268  26.535  29.794  1.00  0.00    -0.014 A 
ATOM     62  C   UNL A   1      48.692  25.904  30.974  1.00  0.00     0.009 A 
ATOM     63  C   UNL A   1      49.185  26.699  28.744  1.00  0.00     0.009 A 
ATOM     64  C   UNL A   1      50.017  25.486  31.116  1.00  0.00     0.001 A 
ATOM     65  C   UNL A   1      50.501  26.255  28.878  1.00  0.00     0.001 A 
ATOM     66  C   UNL A   1      50.919  25.659  30.067  1.00  0.00     0.000 A 
ENDBRANCH  47  61
BRANCH  48  67
ATOM     67  C   UNL A   1      38.678  29.144  28.944  1.00  0.00    -0.014 A 
ATOM     68  C   UNL A   1      38.155  29.627  27.734  1.00  0.00     0.009 A 
ATOM     69  C   UNL A   1      37.826  29.018  30.051  1.00  0.00     0.009 A 
ATOM     70  C   UNL A   1      36.811  29.995  27.643  1.00  0.00     0.001 A 
ATOM     71  C   UNL A   1      36.477  29.364  29.949  1.00  0.00     0.001 A 
ATOM     72  C   UNL A   1      35.973  29.858  28.748  1.00  0.00     0.000 A 
ENDBRANCH  48  67
BRANCH  60  73
ATOM     73  C   UNL A   1      44.416  32.521  30.980  1.00  0.00    -0.014 A 
ATOM     74  C   UNL A   1      44.681  33.558  30.073  1.00  0.00     0.009 A 
ATOM     75  C   UNL A   1      44.327  32.819  32.349  1.00  0.00     0.009 A 
ATOM     76  C   UNL A   1      44.883  34.862  30.531  1.00  0.00     0.001 A 
ATOM     77  C   UNL A   1      44.502  34.127  32.801  1.00  0.00     0.001 A 
ATOM     78  C   UNL A   1      44.789  35.145  31.894  1.00  0.00     0.000 A 
ENDBRANCH  60  73
ENDBRANCH  34  35
ENDBRANCH  26  29
ENDBRANCH  24  25
ENDBRANCH  23  24
ENDBRANCH  22  23
ENDBRANCH   1  22
TORSDOF 18
ENDMDL
MODEL 2
REMARK VINA RESULT:      -9.7      4.880     10.087
REMARK SMILES C#CCN(CC(=O)NCCCCNC(=O)c1ccc(-c2c3nc(c(-c4ccccc4)c4ccc([nH]4)c(-c4ccccc4)c4nc(c(-c5ccccc5)c5ccc2[nH]5)C=C4)C=C3)cc1)C(=O)NCCc1ccco1
REMARK SMILES IDX 9 1 8 2 6 3 7 4 5 6 4 7 3 8 2 9 1 10 64 11 65 12 66 13 67 15
REMARK SMILES IDX 68 16 69 17 70 18 73 19 71 20 72 21 10 22 11 23 12 24 13 25
REMARK SMILES IDX 14 26 15 28 16 29 17 30 63 31 18 32 62 33 19 34 20 35 21 36
REMARK SMILES IDX 56 37 22 38 61 39 55 40 57 41 23 42 60 43 54 44 53 45 24 47
REMARK SMILES IDX 46 48 31 49 45 50 32 51 35 52 44 53 58 54 33 55 34 56 43 58
REMARK SMILES IDX 59 59 36 60 25 61 26 62 30 63 27 64 29 65 28 66 47 67 48 68
REMARK SMILES IDX 52 69 49 70 51 71 50 72 37 73 38 74 42 75 39 76 41 77 40 78
REMARK H PARENT 8 5 66 14 13 27 57 46 35 57
REMARK Flexibility Score: inf
ROOT
ATOM      1  C   UNL A   1      32.251  29.620  27.170  1.00  0.00     0.116 C 
ENDROOT
BRANCH   1   2
ATOM      2  N   UNL A   1      31.603  28.334  27.048  1.00  0.00    -0.355 N 
ATOM      3  C   UNL A   1      32.113  27.148  26.606  1.00  0.00     0.239 C 
ATOM      4  O   UNL A   1      31.472  26.127  26.877  1.00  0.00    -0.273 OA
ATOM      5  H   UNL A   1      30.658  28.310  27.324  1.00  0.00     0.163 HD
BRANCH   3   6
ATOM      6  C   UNL A   1      33.493  27.051  25.933  1.00  0.00     0.222 C 
BRANCH   6   7
ATOM      7  N   UNL A   1      33.462  26.989  24.475  1.00  0.00    -0.304 N 
BRANCH   7   8
ATOM      8  C   UNL A   1      33.692  25.673  23.882  1.00  0.00     0.211 C 
BRANCH   8   9
ATOM      9  C   UNL A   1      34.637  24.814  24.706  1.00  0.00    -0.085 C 
ATOM     10  C   UNL A   1      35.447  24.077  25.414  1.00  0.00     0.006 C 
ENDBRANCH   8   9
ENDBRANCH   7   8
BRANCH   7  11
ATOM     11  C   UNL A   1      33.234  28.017  23.605  1.00  0.00     0.318 C 
ATOM     12  O   UNL A   1      34.168  28.636  23.085  1.00  0.00    -0.249 OA
ATOM     13  N   UNL A   1      32.017  28.454  23.254  1.00  0.00    -0.337 N 
ATOM     14  H   UNL A   1      32.093  29.191  22.605  1.00  0.00     0.165 HD
BRANCH  13  15
ATOM     15  C   UNL A   1      30.615  28.169  23.540  1.00  0.00     0.125 C 
BRANCH  15  16
ATOM     16  C   UNL A   1      29.706  28.574  22.376  1.00  0.00     0.096 C 
BRANCH  16  17
ATOM     17  C   UNL A   1      29.077  29.902  22.612  1.00  0.00     0.105 A 
ATOM     18  C   UNL A   1      28.113  30.633  21.951  1.00  0.00     0.045 A 
ATOM     19  O   UNL A   1      29.500  30.578  23.717  1.00  0.00    -0.469 OA
ATOM     20  C   UNL A   1      27.936  31.823  22.699  1.00  0.00     0.042 A 
ATOM     21  C   UNL A   1      28.805  31.742  23.761  1.00  0.00     0.195 A 
ENDBRANCH  16  17
ENDBRANCH  15  16
ENDBRANCH  13  15
ENDBRANCH   7  11
ENDBRANCH   6   7
ENDBRANCH   3   6
ENDBRANCH   1   2
BRANCH   1  22
ATOM     22  C   UNL A   1      31.770  30.640  26.139  1.00  0.00     0.023 C 
BRANCH  22  23
ATOM     23  C   UNL A   1      31.457  32.030  26.687  1.00  0.00     0.023 C 
BRANCH  23  24
ATOM     24  C   UNL A   1      32.650  32.799  27.238  1.00  0.00     0.116 C 
BRANCH  24  25
ATOM     25  N   UNL A   1      32.338  34.166  27.627  1.00  0.00    -0.352 N 
ATOM     26  C   UNL A   1      32.969  34.952  28.561  1.00  0.00     0.251 C 
ATOM     27  H   UNL A   1      31.576  34.581  27.162  1.00  0.00     0.163 HD
ATOM     28  O   UNL A   1      32.539  36.070  28.827  1.00  0.00    -0.269 OA
BRANCH  26  29
ATOM     29  C   UNL A   1      34.145  34.419  29.278  1.00  0.00     0.039 A 
ATOM     30  C   UNL A   1      33.940  33.682  30.445  1.00  0.00     0.014 A 
ATOM     31  C   UNL A   1      35.435  34.604  28.773  1.00  0.00     0.014 A 
ATOM     32  C   UNL A   1      35.024  33.064  31.069  1.00  0.00     0.010 A 
ATOM     33  C   UNL A   1      36.502  33.929  29.353  1.00  0.00     0.010 A 
ATOM     34  C   UNL A   1      36.308  33.150  30.505  1.00  0.00    -0.014 A 
BRANCH  34  35
ATOM     35  C   UNL A   1      37.458  32.426  31.095  1.00  0.00     0.031 A 
ATOM     36  C   UNL A   1      38.075  32.907  32.378  1.00  0.00     0.074 A 
ATOM     37  C   UNL A   1      37.995  31.381  30.437  1.00  0.00     0.049 A 
ATOM     38  N   UNL A   1      39.122  32.445  33.014  1.00  0.00    -0.248 NA
ATOM     39  C   UNL A   1      37.451  34.077  33.014  1.00  0.00     0.031 C 
ATOM     40  C   UNL A   1      37.519  30.848  29.158  1.00  0.00     0.029 A 
ATOM     41  N   UNL A   1      39.069  30.587  30.750  1.00  0.00    -0.354 N 
ATOM     42  C   UNL A   1      39.294  33.280  34.109  1.00  0.00     0.074 A 
ATOM     43  C   UNL A   1      38.275  34.303  34.027  1.00  0.00     0.031 C 
ATOM     44  C   UNL A   1      38.283  29.800  28.809  1.00  0.00     0.029 A 
ATOM     45  C   UNL A   1      39.321  29.611  29.817  1.00  0.00     0.049 A 
ATOM     46  H   UNL A   1      39.608  30.706  31.565  1.00  0.00     0.167 HD
ATOM     47  C   UNL A   1      40.207  33.192  35.105  1.00  0.00     0.031 A 
ATOM     48  C   UNL A   1      40.284  28.670  29.776  1.00  0.00     0.031 A 
ATOM     49  C   UNL A   1      41.212  32.168  35.194  1.00  0.00     0.049 A 
ATOM     50  C   UNL A   1      41.284  28.591  30.894  1.00  0.00     0.074 A 
ATOM     51  C   UNL A   1      42.139  31.955  36.200  1.00  0.00     0.029 A 
ATOM     52  N   UNL A   1      41.423  31.187  34.239  1.00  0.00    -0.354 N 
ATOM     53  N   UNL A   1      41.387  29.342  31.963  1.00  0.00    -0.248 NA
ATOM     54  C   UNL A   1      42.292  27.526  30.803  1.00  0.00     0.031 C 
ATOM     55  C   UNL A   1      42.942  30.870  35.829  1.00  0.00     0.029 A 
ATOM     56  C   UNL A   1      42.482  30.378  34.618  1.00  0.00     0.049 A 
ATOM     57  H   UNL A   1      40.898  31.080  33.413  1.00  0.00     0.167 HD
ATOM     58  C   UNL A   1      42.456  28.828  32.685  1.00  0.00     0.074 A 
ATOM     59  C   UNL A   1      42.957  27.691  31.938  1.00  0.00     0.031 C 
ATOM     60  C   UNL A   1      42.973  29.257  33.862  1.00  0.00     0.031 A 
BRANCH  47  61
ATOM     61  C   UNL A   1      40.160  34.249  36.173  1.00  0.00    -0.014 A 
ATOM     62  C   UNL A   1      39.447  34.049  37.366  1.00  0.00     0.009 A 
ATOM     63  C   UNL A   1      40.852  35.457  35.991  1.00  0.00     0.009 A 
ATOM     64  C   UNL A   1      39.392  35.052  38.335  1.00  0.00     0.001 A 
ATOM     65  C   UNL A   1      40.820  36.447  36.974  1.00  0.00     0.001 A 
ATOM     66  C   UNL A   1      40.081  36.249  38.140  1.00  0.00     0.000 A 
ENDBRANCH  47  61
BRANCH  48  67
ATOM     67  C   UNL A   1      40.331  27.712  28.642  1.00  0.00    -0.014 A 
ATOM     68  C   UNL A   1      41.064  28.020  27.485  1.00  0.00     0.009 A 
ATOM     69  C   UNL A   1      39.657  26.484  28.713  1.00  0.00     0.009 A 
ATOM     70  C   UNL A   1      41.104  27.123  26.415  1.00  0.00     0.001 A 
ATOM     71  C   UNL A   1      39.720  25.579  27.651  1.00  0.00     0.001 A 
ATOM     72  C   UNL A   1      40.437  25.902  26.501  1.00  0.00     0.000 A 
ENDBRANCH  48  67
BRANCH  60  73
ATOM     73  C   UNL A   1      44.126  28.478  34.428  1.00  0.00    -0.014 A 
ATOM     74  C   UNL A   1      43.915  27.380  35.277  1.00  0.00     0.009 A 
ATOM     75  C   UNL A   1      45.439  28.822  34.073  1.00  0.00     0.009 A 
ATOM     76  C   UNL A   1      45.000  26.661  35.782  1.00  0.00     0.001 A 
ATOM     77  C   UNL A   1      46.520  28.086  34.558  1.00  0.00     0.001 A 
ATOM     78  C   UNL A   1      46.300  27.012  35.419  1.00  0.00     0.000 A 
ENDBRANCH  60  73
ENDBRANCH  34  35
ENDBRANCH  26  29
ENDBRANCH  24  25
ENDBRANCH  23  24
ENDBRANCH  22  23
ENDBRANCH   1  22
TORSDOF 18
ENDMDL
MODEL 3
REMARK VINA RESULT:      -9.6      1.155      6.111
REMARK SMILES C#CCN(CC(=O)NCCCCNC(=O)c1ccc(-c2c3nc(c(-c4ccccc4)c4ccc([nH]4)c(-c4ccccc4)c4nc(c(-c5ccccc5)c5ccc2[nH]5)C=C4)C=C3)cc1)C(=O)NCCc1ccco1
REMARK SMILES IDX 9 1 8 2 6 3 7 4 5 6 4 7 3 8 2 9 1 10 64 11 65 12 66 13 67 15
REMARK SMILES IDX 68 16 69 17 70 18 73 19 71 20 72 21 10 22 11 23 12 24 13 25
REMARK SMILES IDX 14 26 15 28 16 29 17 30 63 31 18 32 62 33 19 34 20 35 21 36
REMARK SMILES IDX 56 37 22 38 61 39 55 40 57 41 23 42 60 43 54 44 53 45 24 47
REMARK SMILES IDX 46 48 31 49 45 50 32 51 35 52 44 53 58 54 33 55 34 56 43 58
REMARK SMILES IDX 59 59 36 60 25 61 26 62 30 63 27 64 29 65 28 66 47 67 48 68
REMARK SMILES IDX 52 69 49 70 51 71 50 72 37 73 38 74 42 75 39 76 41 77 40 78
REMARK H PARENT 8 5 66 14 13 27 57 46 35 57
REMARK Flexibility Score: inf
ROOT
ATOM      1  C   UNL A   1      37.082  22.601  24.431  1.00  0.00     0.116 C 
ENDROOT
BRANCH   1   2
ATOM      2  N   UNL A   1      36.044  23.099  23.556  1.00  0.00    -0.355 N 
ATOM      3  C   UNL A   1      35.011  23.944  23.834  1.00  0.00     0.239 C 
ATOM      4  O   UNL A   1      34.439  24.467  22.871  1.00  0.00    -0.273 OA
ATOM      5  H   UNL A   1      36.092  22.782  22.625  1.00  0.00     0.163 HD
BRANCH   3   6
ATOM      6  C   UNL A   1      34.656  24.356  25.274  1.00  0.00     0.222 C 
BRANCH   6   7
ATOM      7  N   UNL A   1      33.400  23.811  25.777  1.00  0.00    -0.304 N 
BRANCH   7   8
ATOM      8  C   UNL A   1      32.234  24.687  25.684  1.00  0.00     0.211 C 
BRANCH   8   9
ATOM      9  C   UNL A   1      31.366  24.381  24.474  1.00  0.00    -0.085 C 
ATOM     10  C   UNL A   1      30.621  24.119  23.436  1.00  0.00     0.006 C 
ENDBRANCH   8   9
ENDBRANCH   7   8
BRANCH   7  11
ATOM     11  C   UNL A   1      33.189  22.574  26.315  1.00  0.00     0.318 C 
ATOM     12  O   UNL A   1      33.069  22.416  27.535  1.00  0.00    -0.249 OA
ATOM     13  N   UNL A   1      33.113  21.441  25.603  1.00  0.00    -0.337 N 
ATOM     14  H   UNL A   1      32.941  20.674  26.196  1.00  0.00     0.165 HD
BRANCH  13  15
ATOM     15  C   UNL A   1      33.206  21.001  24.214  1.00  0.00     0.125 C 
BRANCH  15  16
ATOM     16  C   UNL A   1      32.328  19.773  23.951  1.00  0.00     0.096 C 
BRANCH  16  17
ATOM     17  C   UNL A   1      33.145  18.534  23.842  1.00  0.00     0.105 A 
ATOM     18  C   UNL A   1      33.016  17.365  23.121  1.00  0.00     0.045 A 
ATOM     19  O   UNL A   1      34.286  18.500  24.585  1.00  0.00    -0.469 OA
ATOM     20  C   UNL A   1      34.146  16.575  23.443  1.00  0.00     0.042 A 
ATOM     21  C   UNL A   1      34.886  17.309  24.339  1.00  0.00     0.195 A 
ENDBRANCH  16  17
ENDBRANCH  15  16
ENDBRANCH  13  15
ENDBRANCH   7  11
ENDBRANCH   6   7
ENDBRANCH   3   6
ENDBRANCH   1   2
BRANCH   1  22
ATOM     22  C   UNL A   1      36.754  21.243  25.047  1.00  0.00     0.023 C 
BRANCH  22  23
ATOM     23  C   UNL A   1      37.847  20.184  24.925  1.00  0.00     0.023 C 
BRANCH  23  24
ATOM     24  C   UNL A   1      39.093  20.434  25.765  1.00  0.00     0.116 C 
BRANCH  24  25
ATOM     25  N   UNL A   1      40.012  19.306  25.800  1.00  0.00    -0.352 N 
ATOM     26  C   UNL A   1      41.351  19.306  26.112  1.00  0.00     0.251 C 
ATOM     27  H   UNL A   1      39.626  18.431  25.570  1.00  0.00     0.163 HD
ATOM     28  O   UNL A   1      42.010  18.274  26.027  1.00  0.00    -0.269 OA
BRANCH  26  29
ATOM     29  C   UNL A   1      42.001  20.572  26.504  1.00  0.00     0.039 A 
ATOM     30  C   UNL A   1      42.448  21.434  25.501  1.00  0.00     0.014 A 
ATOM     31  C   UNL A   1      42.121  20.927  27.851  1.00  0.00     0.014 A 
ATOM     32  C   UNL A   1      42.951  22.689  25.846  1.00  0.00     0.010 A 
ATOM     33  C   UNL A   1      42.554  22.204  28.187  1.00  0.00     0.010 A 
ATOM     34  C   UNL A   1      42.970  23.099  27.189  1.00  0.00    -0.014 A 
BRANCH  34  35
ATOM     35  C   UNL A   1      43.411  24.461  27.572  1.00  0.00     0.031 A 
ATOM     36  C   UNL A   1      42.397  25.513  27.921  1.00  0.00     0.074 A 
ATOM     37  C   UNL A   1      44.721  24.773  27.530  1.00  0.00     0.049 A 
ATOM     38  N   UNL A   1      42.585  26.773  28.219  1.00  0.00    -0.248 NA
ATOM     39  C   UNL A   1      40.985  25.101  27.906  1.00  0.00     0.031 C 
ATOM     40  C   UNL A   1      45.801  23.855  27.159  1.00  0.00     0.029 A 
ATOM     41  N   UNL A   1      45.365  25.955  27.794  1.00  0.00    -0.354 N 
ATOM     42  C   UNL A   1      41.317  27.308  28.404  1.00  0.00     0.074 A 
ATOM     43  C   UNL A   1      40.368  26.249  28.140  1.00  0.00     0.031 C 
ATOM     44  C   UNL A   1      46.974  24.503  27.242  1.00  0.00     0.029 A 
ATOM     45  C   UNL A   1      46.727  25.885  27.636  1.00  0.00     0.049 A 
ATOM     46  H   UNL A   1      44.895  26.774  28.070  1.00  0.00     0.167 HD
ATOM     47  C   UNL A   1      40.974  28.563  28.778  1.00  0.00     0.031 A 
ATOM     48  C   UNL A   1      47.673  26.832  27.788  1.00  0.00     0.031 A 
ATOM     49  C   UNL A   1      41.918  29.613  29.053  1.00  0.00     0.049 A 
ATOM     50  C   UNL A   1      47.269  28.217  28.206  1.00  0.00     0.074 A 
ATOM     51  C   UNL A   1      41.671  30.897  29.505  1.00  0.00     0.029 A 
ATOM     52  N   UNL A   1      43.290  29.498  28.899  1.00  0.00    -0.354 N 
ATOM     53  N   UNL A   1      46.070  28.687  28.451  1.00  0.00    -0.248 NA
ATOM     54  C   UNL A   1      48.350  29.196  28.380  1.00  0.00     0.031 C 
ATOM     55  C   UNL A   1      42.894  31.575  29.579  1.00  0.00     0.029 A 
ATOM     56  C   UNL A   1      43.904  30.696  29.223  1.00  0.00     0.049 A 
ATOM     57  H   UNL A   1      43.760  28.684  28.603  1.00  0.00     0.167 HD
ATOM     58  C   UNL A   1      46.253  30.010  28.831  1.00  0.00     0.074 A 
ATOM     59  C   UNL A   1      47.680  30.261  28.798  1.00  0.00     0.031 C 
ATOM     60  C   UNL A   1      45.323  30.933  29.179  1.00  0.00     0.031 A 
BRANCH  47  61
ATOM     61  C   UNL A   1      39.506  28.866  28.899  1.00  0.00    -0.014 A 
ATOM     62  C   UNL A   1      38.781  29.398  27.821  1.00  0.00     0.009 A 
ATOM     63  C   UNL A   1      38.836  28.601  30.103  1.00  0.00     0.009 A 
ATOM     64  C   UNL A   1      37.425  29.698  27.960  1.00  0.00     0.001 A 
ATOM     65  C   UNL A   1      37.473  28.875  30.230  1.00  0.00     0.001 A 
ATOM     66  C   UNL A   1      36.771  29.434  29.162  1.00  0.00     0.000 A 
ENDBRANCH  47  61
BRANCH  48  67
ATOM     67  C   UNL A   1      49.101  26.491  27.562  1.00  0.00    -0.014 A 
ATOM     68  C   UNL A   1      49.896  26.032  28.623  1.00  0.00     0.009 A 
ATOM     69  C   UNL A   1      49.672  26.610  26.286  1.00  0.00     0.009 A 
ATOM     70  C   UNL A   1      51.241  25.718  28.414  1.00  0.00     0.001 A 
ATOM     71  C   UNL A   1      51.010  26.271  26.075  1.00  0.00     0.001 A 
ATOM     72  C   UNL A   1      51.795  25.832  27.140  1.00  0.00     0.000 A 
ENDBRANCH  48  67
BRANCH  60  73
ATOM     73  C   UNL A   1      45.822  32.293  29.577  1.00  0.00    -0.014 A 
ATOM     74  C   UNL A   1      46.106  32.600  30.916  1.00  0.00     0.009 A 
ATOM     75  C   UNL A   1      46.050  33.264  28.591  1.00  0.00     0.009 A 
ATOM     76  C   UNL A   1      46.581  33.866  31.263  1.00  0.00     0.001 A 
ATOM     77  C   UNL A   1      46.551  34.519  28.937  1.00  0.00     0.001 A 
ATOM     78  C   UNL A   1      46.807  34.823  30.273  1.00  0.00     0.000 A 
ENDBRANCH  60  73
ENDBRANCH  34  35
ENDBRANCH  26  29
ENDBRANCH  24  25
ENDBRANCH  23  24
ENDBRANCH  22  23
ENDBRANCH   1  22
TORSDOF 18
ENDMDL
