MODEL 1
REMARK VINA RESULT:     -11.1      0.000      0.000
REMARK SMILES CC[C@H](C)[C@H](NS(=O)(=O)c1ccc(C)cc1)C(=O)NCCCCNC(=O)c1ccc(-c2c3nc(c(-c4ccccc4)c4ccc([nH]4)c(-c4ccccc4)c4nc(c(-c5ccccc5)c5ccc2[nH]5)C=C4)C=C3)cc1
REMARK SMILES IDX 21 1 20 2 19 3 17 4 18 5 5 7 3 8 4 9 2 10 1 11 6 12 7 14
REMARK SMILES IDX 8 15 9 16 10 17 11 18 16 19 12 20 15 21 13 22 14 23 22 24
REMARK SMILES IDX 23 25 24 26 25 27 26 29 27 30 28 31 74 32 29 33 73 34 30 35
REMARK SMILES IDX 31 36 32 37 67 38 33 39 72 40 66 41 68 42 34 43 71 44 65 45
REMARK SMILES IDX 64 46 35 48 57 49 42 50 56 51 43 52 46 53 55 54 69 55 44 56
REMARK SMILES IDX 45 57 54 59 70 60 47 61 36 62 37 63 41 64 38 65 40 66 39 67
REMARK SMILES IDX 58 68 59 69 63 70 60 71 62 72 61 73 48 74 49 75 53 76 50 77
REMARK SMILES IDX 52 78 51 79
REMARK H PARENT 19 6 6 13 24 28 68 47 46 58
REMARK Flexibility Score: inf
ROOT
ATOM      1  C   UNL A   1      32.671  30.458  26.863  1.00  0.00     0.023 C 
ENDROOT
BRANCH   1   2
ATOM      2  C   UNL A   1      32.245  29.751  25.581  1.00  0.00     0.116 C 
BRANCH   2   3
ATOM      3  N   UNL A   1      33.260  29.736  24.542  1.00  0.00    -0.355 N 
ATOM      4  C   UNL A   1      33.672  28.720  23.722  1.00  0.00     0.238 C 
ATOM      5  O   UNL A   1      34.473  29.007  22.828  1.00  0.00    -0.273 OA
ATOM      6  H   UNL A   1      33.727  30.592  24.406  1.00  0.00     0.163 HD
BRANCH   4   7
ATOM      7  C   UNL A   1      33.215  27.250  23.924  1.00  0.00     0.161 C 
BRANCH   7   8
ATOM      8  C   UNL A   1      33.705  26.639  25.264  1.00  0.00     0.013 C 
ATOM      9  C   UNL A   1      32.529  26.333  26.206  1.00  0.00     0.010 C 
BRANCH   8  10
ATOM     10  C   UNL A   1      34.685  25.455  25.154  1.00  0.00     0.002 C 
ATOM     11  C   UNL A   1      34.348  24.221  25.981  1.00  0.00     0.004 C 
ENDBRANCH   8  10
ENDBRANCH   7   8
BRANCH   7  12
ATOM     12  N   UNL A   1      33.532  26.532  22.677  1.00  0.00    -0.198 NA
ATOM     13  H   UNL A   1      34.361  25.977  22.893  1.00  0.00     0.142 HD
BRANCH  12  14
ATOM     14  S   UNL A   1      32.518  25.504  21.858  1.00  0.00     0.241 S 
ATOM     15  O   UNL A   1      31.222  26.130  21.915  1.00  0.00    -0.207 OA
ATOM     16  O   UNL A   1      33.145  25.186  20.589  1.00  0.00    -0.207 OA
BRANCH  14  17
ATOM     17  C   UNL A   1      32.408  24.008  22.802  1.00  0.00     0.082 A 
ATOM     18  C   UNL A   1      31.409  23.817  23.760  1.00  0.00     0.022 A 
ATOM     19  C   UNL A   1      33.338  22.998  22.541  1.00  0.00     0.022 A 
ATOM     20  C   UNL A   1      31.359  22.614  24.473  1.00  0.00     0.005 A 
ATOM     21  C   UNL A   1      33.269  21.791  23.239  1.00  0.00     0.005 A 
ATOM     22  C   UNL A   1      32.283  21.592  24.213  1.00  0.00    -0.051 A 
ATOM     23  C   UNL A   1      32.210  20.281  24.940  1.00  0.00     0.044 C 
ENDBRANCH  14  17
ENDBRANCH  12  14
ENDBRANCH   7  12
ENDBRANCH   4   7
ENDBRANCH   2   3
ENDBRANCH   1   2
BRANCH   1  24
ATOM     24  C   UNL A   1      34.082  30.158  27.345  1.00  0.00     0.023 C 
BRANCH  24  25
ATOM     25  C   UNL A   1      34.817  31.339  27.948  1.00  0.00     0.116 C 
BRANCH  25  26
ATOM     26  N   UNL A   1      34.000  32.506  28.227  1.00  0.00    -0.352 N 
ATOM     27  C   UNL A   1      34.091  33.430  29.254  1.00  0.00     0.251 C 
ATOM     28  H   UNL A   1      33.269  32.666  27.587  1.00  0.00     0.163 HD
ATOM     29  O   UNL A   1      33.182  34.248  29.389  1.00  0.00    -0.269 OA
BRANCH  27  30
ATOM     30  C   UNL A   1      35.343  33.592  30.051  1.00  0.00     0.039 A 
ATOM     31  C   UNL A   1      36.461  34.095  29.363  1.00  0.00     0.014 A 
ATOM     32  C   UNL A   1      35.540  32.859  31.208  1.00  0.00     0.014 A 
ATOM     33  C   UNL A   1      37.711  33.555  29.619  1.00  0.00     0.010 A 
ATOM     34  C   UNL A   1      36.700  32.154  31.318  1.00  0.00     0.010 A 
ATOM     35  C   UNL A   1      37.765  32.475  30.483  1.00  0.00    -0.014 A 
BRANCH  35  36
ATOM     36  C   UNL A   1      38.913  31.642  30.723  1.00  0.00     0.031 A 
ATOM     37  C   UNL A   1      38.896  30.329  30.070  1.00  0.00     0.074 A 
ATOM     38  C   UNL A   1      40.000  32.241  31.256  1.00  0.00     0.049 A 
ATOM     39  N   UNL A   1      39.703  29.380  30.360  1.00  0.00    -0.248 NA
ATOM     40  C   UNL A   1      37.921  29.952  29.039  1.00  0.00     0.031 C 
ATOM     41  C   UNL A   1      41.397  31.834  31.213  1.00  0.00     0.029 A 
ATOM     42  N   UNL A   1      39.992  33.314  32.148  1.00  0.00    -0.354 N 
ATOM     43  C   UNL A   1      39.598  28.445  29.357  1.00  0.00     0.074 A 
ATOM     44  C   UNL A   1      38.402  28.775  28.629  1.00  0.00     0.031 C 
ATOM     45  C   UNL A   1      42.055  32.429  32.226  1.00  0.00     0.029 A 
ATOM     46  C   UNL A   1      41.060  33.110  33.041  1.00  0.00     0.049 A 
ATOM     47  H   UNL A   1      39.361  34.069  32.152  1.00  0.00     0.167 HD
ATOM     48  C   UNL A   1      40.648  27.605  29.167  1.00  0.00     0.031 A 
ATOM     49  C   UNL A   1      40.788  32.806  34.349  1.00  0.00     0.031 A 
ATOM     50  C   UNL A   1      41.674  27.862  30.172  1.00  0.00     0.049 A 
ATOM     51  C   UNL A   1      41.215  31.395  34.702  1.00  0.00     0.074 A 
ATOM     52  C   UNL A   1      42.824  28.633  30.153  1.00  0.00     0.029 A 
ATOM     53  N   UNL A   1      41.356  27.647  31.503  1.00  0.00    -0.354 N 
ATOM     54  N   UNL A   1      41.320  30.421  33.838  1.00  0.00    -0.248 NA
ATOM     55  C   UNL A   1      41.609  30.989  36.047  1.00  0.00     0.031 C 
ATOM     56  C   UNL A   1      43.173  28.915  31.503  1.00  0.00     0.029 A 
ATOM     57  C   UNL A   1      42.248  28.298  32.326  1.00  0.00     0.049 A 
ATOM     58  H   UNL A   1      40.597  27.104  31.816  1.00  0.00     0.167 HD
ATOM     59  C   UNL A   1      41.836  29.308  34.454  1.00  0.00     0.074 A 
ATOM     60  C   UNL A   1      41.978  29.711  35.843  1.00  0.00     0.031 C 
ATOM     61  C   UNL A   1      42.121  28.159  33.770  1.00  0.00     0.031 A 
BRANCH  48  62
ATOM     62  C   UNL A   1      40.881  26.748  27.958  1.00  0.00    -0.014 A 
ATOM     63  C   UNL A   1      40.359  25.440  27.962  1.00  0.00     0.009 A 
ATOM     64  C   UNL A   1      41.591  27.134  26.812  1.00  0.00     0.009 A 
ATOM     65  C   UNL A   1      40.561  24.554  26.901  1.00  0.00     0.001 A 
ATOM     66  C   UNL A   1      41.811  26.244  25.749  1.00  0.00     0.001 A 
ATOM     67  C   UNL A   1      41.296  24.954  25.795  1.00  0.00     0.000 A 
ENDBRANCH  48  62
BRANCH  49  68
ATOM     68  C   UNL A   1      39.548  33.501  34.830  1.00  0.00    -0.014 A 
ATOM     69  C   UNL A   1      38.311  32.887  34.517  1.00  0.00     0.009 A 
ATOM     70  C   UNL A   1      39.600  34.363  35.935  1.00  0.00     0.009 A 
ATOM     71  C   UNL A   1      37.237  32.951  35.410  1.00  0.00     0.001 A 
ATOM     72  C   UNL A   1      38.500  34.458  36.801  1.00  0.00     0.001 A 
ATOM     73  C   UNL A   1      37.350  33.699  36.577  1.00  0.00     0.000 A 
ENDBRANCH  49  68
BRANCH  61  74
ATOM     74  C   UNL A   1      42.357  26.776  34.350  1.00  0.00    -0.014 A 
ATOM     75  C   UNL A   1      41.463  26.085  35.170  1.00  0.00     0.009 A 
ATOM     76  C   UNL A   1      43.510  26.050  33.947  1.00  0.00     0.009 A 
ATOM     77  C   UNL A   1      41.713  24.767  35.582  1.00  0.00     0.001 A 
ATOM     78  C   UNL A   1      43.731  24.718  34.296  1.00  0.00     0.001 A 
ATOM     79  C   UNL A   1      42.834  24.078  35.130  1.00  0.00     0.000 A 
ENDBRANCH  61  74
ENDBRANCH  35  36
ENDBRANCH  27  30
ENDBRANCH  25  26
ENDBRANCH  24  25
ENDBRANCH   1  24
TORSDOF 16
ENDMDL
MODEL 2
REMARK VINA RESULT:     -11.0      1.888      2.603
REMARK SMILES CC[C@H](C)[C@H](NS(=O)(=O)c1ccc(C)cc1)C(=O)NCCCCNC(=O)c1ccc(-c2c3nc(c(-c4ccccc4)c4ccc([nH]4)c(-c4ccccc4)c4nc(c(-c5ccccc5)c5ccc2[nH]5)C=C4)C=C3)cc1
REMARK SMILES IDX 21 1 20 2 19 3 17 4 18 5 5 7 3 8 4 9 2 10 1 11 6 12 7 14
REMARK SMILES IDX 8 15 9 16 10 17 11 18 16 19 12 20 15 21 13 22 14 23 22 24
REMARK SMILES IDX 23 25 24 26 25 27 26 29 27 30 28 31 74 32 29 33 73 34 30 35
REMARK SMILES IDX 31 36 32 37 67 38 33 39 72 40 66 41 68 42 34 43 71 44 65 45
REMARK SMILES IDX 64 46 35 48 57 49 42 50 56 51 43 52 46 53 55 54 69 55 44 56
REMARK SMILES IDX 45 57 54 59 70 60 47 61 36 62 37 63 41 64 38 65 40 66 39 67
REMARK SMILES IDX 58 68 59 69 63 70 60 71 62 72 61 73 48 74 49 75 53 76 50 77
REMARK SMILES IDX 52 78 51 79
REMARK H PARENT 19 6 6 13 24 28 68 47 46 58
REMARK Flexibility Score: inf
ROOT
ATOM      1  C   UNL A   1      33.274  28.165  26.817  1.00  0.00     0.023 C 
ENDROOT
BRANCH   1   2
ATOM      2  C   UNL A   1      32.977  27.176  25.695  1.00  0.00     0.116 C 
BRANCH   2   3
ATOM      3  N   UNL A   1      31.623  27.252  25.175  1.00  0.00    -0.355 N 
ATOM      4  C   UNL A   1      30.829  26.280  24.629  1.00  0.00     0.238 C 
ATOM      5  O   UNL A   1      29.658  26.584  24.379  1.00  0.00    -0.273 OA
ATOM      6  H   UNL A   1      31.210  28.145  25.222  1.00  0.00     0.163 HD
BRANCH   4   7
ATOM      7  C   UNL A   1      31.367  24.869  24.272  1.00  0.00     0.161 C 
BRANCH   7   8
ATOM      8  C   UNL A   1      31.637  24.686  22.755  1.00  0.00     0.013 C 
ATOM      9  C   UNL A   1      31.667  26.039  22.024  1.00  0.00     0.010 C 
BRANCH   8  10
ATOM     10  C   UNL A   1      32.837  23.795  22.379  1.00  0.00     0.002 C 
ATOM     11  C   UNL A   1      34.139  24.068  23.121  1.00  0.00     0.004 C 
ENDBRANCH   8  10
ENDBRANCH   7   8
BRANCH   7  12
ATOM     12  N   UNL A   1      30.484  23.897  24.941  1.00  0.00    -0.198 NA
ATOM     13  H   UNL A   1      30.200  23.246  24.208  1.00  0.00     0.142 HD
BRANCH  12  14
ATOM     14  S   UNL A   1      30.889  22.943  26.239  1.00  0.00     0.241 S 
ATOM     15  O   UNL A   1      31.084  23.861  27.333  1.00  0.00    -0.207 OA
ATOM     16  O   UNL A   1      29.913  21.873  26.320  1.00  0.00    -0.207 OA
BRANCH  14  17
ATOM     17  C   UNL A   1      32.468  22.217  25.889  1.00  0.00     0.082 A 
ATOM     18  C   UNL A   1      33.633  22.654  26.524  1.00  0.00     0.022 A 
ATOM     19  C   UNL A   1      32.515  21.163  24.973  1.00  0.00     0.022 A 
ATOM     20  C   UNL A   1      34.854  22.042  26.220  1.00  0.00     0.005 A 
ATOM     21  C   UNL A   1      33.732  20.541  24.692  1.00  0.00     0.005 A 
ATOM     22  C   UNL A   1      34.911  20.979  25.308  1.00  0.00    -0.051 A 
ATOM     23  C   UNL A   1      36.208  20.285  25.010  1.00  0.00     0.044 C 
ENDBRANCH  14  17
ENDBRANCH  12  14
ENDBRANCH   7  12
ENDBRANCH   4   7
ENDBRANCH   2   3
ENDBRANCH   1   2
BRANCH   1  24
ATOM     24  C   UNL A   1      34.437  29.113  26.569  1.00  0.00     0.023 C 
BRANCH  24  25
ATOM     25  C   UNL A   1      34.615  30.195  27.616  1.00  0.00     0.116 C 
BRANCH  25  26
ATOM     26  N   UNL A   1      33.835  31.401  27.408  1.00  0.00    -0.352 N 
ATOM     27  C   UNL A   1      33.850  32.601  28.098  1.00  0.00     0.251 C 
ATOM     28  H   UNL A   1      33.196  31.360  26.659  1.00  0.00     0.163 HD
ATOM     29  O   UNL A   1      32.977  33.431  27.851  1.00  0.00    -0.269 OA
BRANCH  27  30
ATOM     30  C   UNL A   1      35.003  32.989  28.965  1.00  0.00     0.039 A 
ATOM     31  C   UNL A   1      36.103  33.574  28.313  1.00  0.00     0.014 A 
ATOM     32  C   UNL A   1      35.192  32.387  30.196  1.00  0.00     0.014 A 
ATOM     33  C   UNL A   1      37.385  33.224  28.707  1.00  0.00     0.010 A 
ATOM     34  C   UNL A   1      36.418  31.850  30.453  1.00  0.00     0.010 A 
ATOM     35  C   UNL A   1      37.500  32.236  29.669  1.00  0.00    -0.014 A 
BRANCH  35  36
ATOM     36  C   UNL A   1      38.718  31.582  30.067  1.00  0.00     0.031 A 
ATOM     37  C   UNL A   1      39.029  30.331  29.366  1.00  0.00     0.074 A 
ATOM     38  C   UNL A   1      39.587  32.308  30.803  1.00  0.00     0.049 A 
ATOM     39  N   UNL A   1      39.927  29.506  29.750  1.00  0.00    -0.248 NA
ATOM     40  C   UNL A   1      38.311  29.877  28.169  1.00  0.00     0.031 C 
ATOM     41  C   UNL A   1      41.021  32.133  30.982  1.00  0.00     0.029 A 
ATOM     42  N   UNL A   1      39.255  33.301  31.724  1.00  0.00    -0.354 N 
ATOM     43  C   UNL A   1      40.145  28.638  28.706  1.00  0.00     0.074 A 
ATOM     44  C   UNL A   1      39.043  28.823  27.799  1.00  0.00     0.031 C 
ATOM     45  C   UNL A   1      41.397  32.753  32.117  1.00  0.00     0.029 A 
ATOM     46  C   UNL A   1      40.183  33.208  32.777  1.00  0.00     0.049 A 
ATOM     47  H   UNL A   1      38.512  33.944  31.652  1.00  0.00     0.167 HD
ATOM     48  C   UNL A   1      41.338  27.992  28.663  1.00  0.00     0.031 A 
ATOM     49  C   UNL A   1      39.758  32.775  34.006  1.00  0.00     0.031 A 
ATOM     50  C   UNL A   1      42.130  28.338  29.838  1.00  0.00     0.049 A 
ATOM     51  C   UNL A   1      40.354  31.429  34.368  1.00  0.00     0.074 A 
ATOM     52  C   UNL A   1      43.121  29.282  30.049  1.00  0.00     0.029 A 
ATOM     53  N   UNL A   1      41.642  27.983  31.085  1.00  0.00    -0.354 N 
ATOM     54  N   UNL A   1      40.761  30.546  33.494  1.00  0.00    -0.248 NA
ATOM     55  C   UNL A   1      40.588  30.998  35.741  1.00  0.00     0.031 C 
ATOM     56  C   UNL A   1      43.194  29.522  31.449  1.00  0.00     0.029 A 
ATOM     57  C   UNL A   1      42.266  28.709  32.076  1.00  0.00     0.049 A 
ATOM     58  H   UNL A   1      40.945  27.306  31.241  1.00  0.00     0.167 HD
ATOM     59  C   UNL A   1      41.350  29.490  34.142  1.00  0.00     0.074 A 
ATOM     60  C   UNL A   1      41.196  29.813  35.550  1.00  0.00     0.031 C 
ATOM     61  C   UNL A   1      41.932  28.451  33.469  1.00  0.00     0.031 A 
BRANCH  48  62
ATOM     62  C   UNL A   1      41.905  27.268  27.477  1.00  0.00    -0.014 A 
ATOM     63  C   UNL A   1      42.216  28.020  26.328  1.00  0.00     0.009 A 
ATOM     64  C   UNL A   1      42.147  25.888  27.406  1.00  0.00     0.009 A 
ATOM     65  C   UNL A   1      42.708  27.428  25.161  1.00  0.00     0.001 A 
ATOM     66  C   UNL A   1      42.626  25.286  26.232  1.00  0.00     0.001 A 
ATOM     67  C   UNL A   1      42.906  26.057  25.111  1.00  0.00     0.000 A 
ENDBRANCH  48  62
BRANCH  49  68
ATOM     68  C   UNL A   1      38.357  33.227  34.296  1.00  0.00    -0.014 A 
ATOM     69  C   UNL A   1      38.045  34.573  33.987  1.00  0.00     0.009 A 
ATOM     70  C   UNL A   1      37.307  32.298  34.352  1.00  0.00     0.009 A 
ATOM     71  C   UNL A   1      36.772  34.922  33.524  1.00  0.00     0.001 A 
ATOM     72  C   UNL A   1      36.021  32.670  33.929  1.00  0.00     0.001 A 
ATOM     73  C   UNL A   1      35.774  33.957  33.450  1.00  0.00     0.000 A 
ENDBRANCH  49  68
BRANCH  61  74
ATOM     74  C   UNL A   1      42.302  27.086  34.023  1.00  0.00    -0.014 A 
ATOM     75  C   UNL A   1      43.544  26.468  33.871  1.00  0.00     0.009 A 
ATOM     76  C   UNL A   1      41.379  26.416  34.870  1.00  0.00     0.009 A 
ATOM     77  C   UNL A   1      43.839  25.249  34.501  1.00  0.00     0.001 A 
ATOM     78  C   UNL A   1      41.689  25.241  35.554  1.00  0.00     0.001 A 
ATOM     79  C   UNL A   1      42.922  24.647  35.355  1.00  0.00     0.000 A 
ENDBRANCH  61  74
ENDBRANCH  35  36
ENDBRANCH  27  30
ENDBRANCH  25  26
ENDBRANCH  24  25
ENDBRANCH   1  24
TORSDOF 16
ENDMDL
MODEL 3
REMARK VINA RESULT:     -11.0      3.879      8.928
REMARK SMILES CC[C@H](C)[C@H](NS(=O)(=O)c1ccc(C)cc1)C(=O)NCCCCNC(=O)c1ccc(-c2c3nc(c(-c4ccccc4)c4ccc([nH]4)c(-c4ccccc4)c4nc(c(-c5ccccc5)c5ccc2[nH]5)C=C4)C=C3)cc1
REMARK SMILES IDX 21 1 20 2 19 3 17 4 18 5 5 7 3 8 4 9 2 10 1 11 6 12 7 14
REMARK SMILES IDX 8 15 9 16 10 17 11 18 16 19 12 20 15 21 13 22 14 23 22 24
REMARK SMILES IDX 23 25 24 26 25 27 26 29 27 30 28 31 74 32 29 33 73 34 30 35
REMARK SMILES IDX 31 36 32 37 67 38 33 39 72 40 66 41 68 42 34 43 71 44 65 45
REMARK SMILES IDX 64 46 35 48 57 49 42 50 56 51 43 52 46 53 55 54 69 55 44 56
REMARK SMILES IDX 45 57 54 59 70 60 47 61 36 62 37 63 41 64 38 65 40 66 39 67
REMARK SMILES IDX 58 68 59 69 63 70 60 71 62 72 61 73 48 74 49 75 53 76 50 77
REMARK SMILES IDX 52 78 51 79
REMARK H PARENT 19 6 6 13 24 28 68 47 46 58
REMARK Flexibility Score: inf
ROOT
ATOM      1  C   UNL A   1      38.081  23.571  26.215  1.00  0.00     0.023 C 
ENDROOT
BRANCH   1   2
ATOM      2  C   UNL A   1      36.714  23.777  25.571  1.00  0.00     0.116 C 
BRANCH   2   3
ATOM      3  N   UNL A   1      36.587  23.204  24.243  1.00  0.00    -0.355 N 
ATOM      4  C   UNL A   1      35.552  23.263  23.349  1.00  0.00     0.238 C 
ATOM      5  O   UNL A   1      35.750  22.790  22.226  1.00  0.00    -0.273 OA
ATOM      6  H   UNL A   1      37.369  22.690  23.936  1.00  0.00     0.163 HD
BRANCH   4   7
ATOM      7  C   UNL A   1      34.159  23.837  23.725  1.00  0.00     0.161 C 
BRANCH   7   8
ATOM      8  C   UNL A   1      33.305  22.856  24.572  1.00  0.00     0.013 C 
ATOM      9  C   UNL A   1      33.614  21.393  24.217  1.00  0.00     0.010 C 
BRANCH   8  10
ATOM     10  C   UNL A   1      33.300  23.098  26.094  1.00  0.00     0.002 C 
ATOM     11  C   UNL A   1      32.157  23.942  26.640  1.00  0.00     0.004 C 
ENDBRANCH   8  10
ENDBRANCH   7   8
BRANCH   7  12
ATOM     12  N   UNL A   1      33.574  24.373  22.484  1.00  0.00    -0.198 NA
ATOM     13  H   UNL A   1      32.778  23.767  22.281  1.00  0.00     0.142 HD
BRANCH  12  14
ATOM     14  S   UNL A   1      33.012  25.920  22.258  1.00  0.00     0.241 S 
ATOM     15  O   UNL A   1      34.139  26.657  21.744  1.00  0.00    -0.207 OA
ATOM     16  O   UNL A   1      31.769  25.833  21.517  1.00  0.00    -0.207 OA
BRANCH  14  17
ATOM     17  C   UNL A   1      32.649  26.588  23.859  1.00  0.00     0.082 A 
ATOM     18  C   UNL A   1      33.659  27.029  24.717  1.00  0.00     0.022 A 
ATOM     19  C   UNL A   1      31.307  26.693  24.236  1.00  0.00     0.022 A 
ATOM     20  C   UNL A   1      33.320  27.557  25.967  1.00  0.00     0.005 A 
ATOM     21  C   UNL A   1      30.973  27.243  25.474  1.00  0.00     0.005 A 
ATOM     22  C   UNL A   1      31.976  27.673  26.351  1.00  0.00    -0.051 A 
ATOM     23  C   UNL A   1      31.599  28.282  27.671  1.00  0.00     0.044 C 
ENDBRANCH  14  17
ENDBRANCH  12  14
ENDBRANCH   7  12
ENDBRANCH   4   7
ENDBRANCH   2   3
ENDBRANCH   1   2
BRANCH   1  24
ATOM     24  C   UNL A   1      38.682  22.183  26.057  1.00  0.00     0.023 C 
BRANCH  24  25
ATOM     25  C   UNL A   1      39.987  21.963  26.796  1.00  0.00     0.116 C 
BRANCH  25  26
ATOM     26  N   UNL A   1      40.852  20.936  26.244  1.00  0.00    -0.352 N 
ATOM     27  C   UNL A   1      42.231  20.905  26.123  1.00  0.00     0.251 C 
ATOM     28  H   UNL A   1      40.386  20.138  25.904  1.00  0.00     0.163 HD
ATOM     29  O   UNL A   1      42.742  20.000  25.465  1.00  0.00    -0.269 OA
BRANCH  27  30
ATOM     30  C   UNL A   1      43.107  21.803  26.933  1.00  0.00     0.039 A 
ATOM     31  C   UNL A   1      42.837  21.860  28.311  1.00  0.00     0.014 A 
ATOM     32  C   UNL A   1      43.783  22.852  26.335  1.00  0.00     0.014 A 
ATOM     33  C   UNL A   1      42.905  23.081  28.963  1.00  0.00     0.010 A 
ATOM     34  C   UNL A   1      43.635  24.091  26.884  1.00  0.00     0.010 A 
ATOM     35  C   UNL A   1      43.146  24.198  28.182  1.00  0.00    -0.014 A 
BRANCH  35  36
ATOM     36  C   UNL A   1      43.050  25.567  28.613  1.00  0.00     0.031 A 
ATOM     37  C   UNL A   1      41.843  26.286  28.191  1.00  0.00     0.074 A 
ATOM     38  C   UNL A   1      43.899  25.960  29.587  1.00  0.00     0.049 A 
ATOM     39  N   UNL A   1      41.705  27.554  28.277  1.00  0.00    -0.248 NA
ATOM     40  C   UNL A   1      40.679  25.625  27.590  1.00  0.00     0.031 C 
ATOM     41  C   UNL A   1      43.786  27.068  30.525  1.00  0.00     0.029 A 
ATOM     42  N   UNL A   1      45.195  25.484  29.789  1.00  0.00    -0.354 N 
ATOM     43  C   UNL A   1      40.369  27.824  28.091  1.00  0.00     0.074 A 
ATOM     44  C   UNL A   1      39.793  26.623  27.547  1.00  0.00     0.031 C 
ATOM     45  C   UNL A   1      45.013  27.377  30.985  1.00  0.00     0.029 A 
ATOM     46  C   UNL A   1      45.966  26.575  30.232  1.00  0.00     0.049 A 
ATOM     47  H   UNL A   1      45.510  24.563  29.647  1.00  0.00     0.167 HD
ATOM     48  C   UNL A   1      39.887  28.991  28.591  1.00  0.00     0.031 A 
ATOM     49  C   UNL A   1      46.932  27.088  29.408  1.00  0.00     0.031 A 
ATOM     50  C   UNL A   1      40.975  29.760  29.185  1.00  0.00     0.049 A 
ATOM     51  C   UNL A   1      46.592  28.490  28.942  1.00  0.00     0.074 A 
ATOM     52  C   UNL A   1      41.433  29.874  30.487  1.00  0.00     0.029 A 
ATOM     53  N   UNL A   1      42.001  30.190  28.360  1.00  0.00    -0.354 N 
ATOM     54  N   UNL A   1      45.376  28.961  28.856  1.00  0.00    -0.248 NA
ATOM     55  C   UNL A   1      47.598  29.485  28.589  1.00  0.00     0.031 C 
ATOM     56  C   UNL A   1      42.775  30.344  30.430  1.00  0.00     0.029 A 
ATOM     57  C   UNL A   1      43.111  30.531  29.100  1.00  0.00     0.049 A 
ATOM     58  H   UNL A   1      41.944  30.244  27.378  1.00  0.00     0.167 HD
ATOM     59  C   UNL A   1      45.417  30.290  28.514  1.00  0.00     0.074 A 
ATOM     60  C   UNL A   1      46.832  30.562  28.337  1.00  0.00     0.031 C 
ATOM     61  C   UNL A   1      44.288  31.057  28.425  1.00  0.00     0.031 A 
BRANCH  48  62
ATOM     62  C   UNL A   1      38.440  29.333  28.786  1.00  0.00    -0.014 A 
ATOM     63  C   UNL A   1      37.697  29.741  27.661  1.00  0.00     0.009 A 
ATOM     64  C   UNL A   1      37.752  29.291  30.008  1.00  0.00     0.009 A 
ATOM     65  C   UNL A   1      36.356  30.121  27.752  1.00  0.00     0.001 A 
ATOM     66  C   UNL A   1      36.408  29.687  30.108  1.00  0.00     0.001 A 
ATOM     67  C   UNL A   1      35.712  30.102  28.979  1.00  0.00     0.000 A 
ENDBRANCH  48  62
BRANCH  49  68
ATOM     68  C   UNL A   1      47.580  26.016  28.582  1.00  0.00    -0.014 A 
ATOM     69  C   UNL A   1      47.281  26.007  27.199  1.00  0.00     0.009 A 
ATOM     70  C   UNL A   1      48.777  25.419  29.006  1.00  0.00     0.009 A 
ATOM     71  C   UNL A   1      48.247  25.628  26.262  1.00  0.00     0.001 A 
ATOM     72  C   UNL A   1      49.723  24.997  28.058  1.00  0.00     0.001 A 
ATOM     73  C   UNL A   1      49.486  25.168  26.694  1.00  0.00     0.000 A 
ENDBRANCH  49  68
BRANCH  61  74
ATOM     74  C   UNL A   1      44.142  32.404  27.740  1.00  0.00    -0.014 A 
ATOM     75  C   UNL A   1      44.291  32.630  26.371  1.00  0.00     0.009 A 
ATOM     76  C   UNL A   1      43.696  33.517  28.502  1.00  0.00     0.009 A 
ATOM     77  C   UNL A   1      44.039  33.887  25.802  1.00  0.00     0.001 A 
ATOM     78  C   UNL A   1      43.377  34.750  27.934  1.00  0.00     0.001 A 
ATOM     79  C   UNL A   1      43.564  34.939  26.578  1.00  0.00     0.000 A 
ENDBRANCH  61  74
ENDBRANCH  35  36
ENDBRANCH  27  30
ENDBRANCH  25  26
ENDBRANCH  24  25
ENDBRANCH   1  24
TORSDOF 16
ENDMDL
