MODEL 1
REMARK VINA RESULT:     -12.1      0.000      0.000
REMARK SMILES O=C(NCCCCNC(=O)c1ccc(-c2c3nc(c(-c4ccccc4)c4ccc([nH]4)c(-c4ccccc4)c4nc(c(-c5ccccc5)c5ccc2[nH]5)C=C4)C=C3)cc1)C1=Cc2cc(Cl)c(Cl)cc2O[C@@H]1C(F)(F)F
REMARK SMILES IDX 6 1 5 2 4 3 3 4 1 5 2 6 59 8 60 9 70 10 61 11 69 12 62 13
REMARK SMILES IDX 68 14 63 15 67 16 64 17 65 18 66 19 71 20 72 21 73 22 74 23
REMARK SMILES IDX 7 24 8 25 9 26 10 28 11 29 12 30 58 31 13 32 57 33 14 34
REMARK SMILES IDX 15 35 16 36 51 37 17 38 56 39 50 40 52 41 18 42 55 43 49 44
REMARK SMILES IDX 48 45 19 47 41 48 26 49 40 50 27 51 30 52 39 53 53 54 28 55
REMARK SMILES IDX 29 56 38 58 54 59 31 60 20 61 21 62 25 63 22 64 24 65 23 66
REMARK SMILES IDX 42 67 43 68 47 69 44 70 46 71 45 72 32 73 33 74 37 75 34 76
REMARK SMILES IDX 36 77 35 78
REMARK H PARENT 3 7 8 27 52 46 30 57
REMARK Flexibility Score: inf
ROOT
ATOM      1  C   UNL A   1      37.780  22.033  24.883  1.00  0.00     0.023 C 
ENDROOT
BRANCH   1   2
ATOM      2  C   UNL A   1      37.286  23.469  25.036  1.00  0.00     0.023 C 
BRANCH   2   3
ATOM      3  C   UNL A   1      35.765  23.609  25.006  1.00  0.00     0.116 C 
BRANCH   3   4
ATOM      4  N   UNL A   1      35.092  23.171  26.229  1.00  0.00    -0.352 N 
ATOM      5  O   UNL A   1      34.066  21.645  27.567  1.00  0.00    -0.270 OA
ATOM      6  C   UNL A   1      34.349  22.030  26.440  1.00  0.00     0.251 C 
ATOM      7  H   UNL A   1      35.184  23.771  27.004  1.00  0.00     0.163 HD
BRANCH   6   8
ATOM      8  C   UNL A   1      33.966  21.246  25.249  1.00  0.00     0.067 C 
ATOM      9  C   UNL A   1      34.827  20.307  24.836  1.00  0.00     0.025 C 
ATOM     10  C   UNL A   1      32.524  21.261  24.842  1.00  0.00     0.314 C 
ATOM     11  C   UNL A   1      34.186  19.012  24.565  1.00  0.00     0.019 A 
ATOM     12  O   UNL A   1      31.936  19.935  24.896  1.00  0.00    -0.475 OA
ATOM     13  C   UNL A   1      35.002  17.875  24.594  1.00  0.00     0.034 A 
ATOM     14  C   UNL A   1      32.797  18.874  24.747  1.00  0.00     0.129 A 
ATOM     15  C   UNL A   1      34.450  16.629  24.910  1.00  0.00     0.060 A 
ATOM     16  C   UNL A   1      32.242  17.623  25.009  1.00  0.00     0.069 A 
ATOM     17  Cl  UNL A   1      35.548  15.317  25.153  1.00  0.00    -0.083 Cl
ATOM     18  C   UNL A   1      33.073  16.507  25.131  1.00  0.00     0.063 A 
ATOM     19  Cl  UNL A   1      32.351  15.031  25.665  1.00  0.00    -0.083 Cl
BRANCH  10  20
ATOM     20  C   UNL A   1      32.320  21.889  23.453  1.00  0.00     0.429 C 
ATOM     21  F   UNL A   1      32.072  20.934  22.523  1.00  0.00    -0.167 F 
ATOM     22  F   UNL A   1      31.270  22.740  23.430  1.00  0.00    -0.167 F 
ATOM     23  F   UNL A   1      33.408  22.579  23.037  1.00  0.00    -0.167 F 
ENDBRANCH  10  20
ENDBRANCH   6   8
ENDBRANCH   3   4
ENDBRANCH   2   3
ENDBRANCH   1   2
BRANCH   1  24
ATOM     24  C   UNL A   1      38.556  21.461  26.069  1.00  0.00     0.116 C 
BRANCH  24  25
ATOM     25  N   UNL A   1      39.352  20.277  25.766  1.00  0.00    -0.352 N 
ATOM     26  C   UNL A   1      40.701  20.080  25.977  1.00  0.00     0.251 C 
ATOM     27  H   UNL A   1      38.865  19.525  25.360  1.00  0.00     0.163 HD
ATOM     28  O   UNL A   1      41.252  19.039  25.635  1.00  0.00    -0.269 OA
BRANCH  26  29
ATOM     29  C   UNL A   1      41.491  21.177  26.571  1.00  0.00     0.039 A 
ATOM     30  C   UNL A   1      42.000  22.172  25.732  1.00  0.00     0.014 A 
ATOM     31  C   UNL A   1      41.604  21.284  27.958  1.00  0.00     0.014 A 
ATOM     32  C   UNL A   1      42.513  23.343  26.293  1.00  0.00     0.010 A 
ATOM     33  C   UNL A   1      42.041  22.483  28.510  1.00  0.00     0.010 A 
ATOM     34  C   UNL A   1      42.474  23.535  27.683  1.00  0.00    -0.014 A 
BRANCH  34  35
ATOM     35  C   UNL A   1      42.846  24.829  28.310  1.00  0.00     0.031 A 
ATOM     36  C   UNL A   1      41.785  25.866  28.555  1.00  0.00     0.074 A 
ATOM     37  C   UNL A   1      44.143  25.121  28.537  1.00  0.00     0.049 A 
ATOM     38  N   UNL A   1      41.919  27.117  28.908  1.00  0.00    -0.248 NA
ATOM     39  C   UNL A   1      40.390  25.448  28.333  1.00  0.00     0.031 C 
ATOM     40  C   UNL A   1      45.275  24.220  28.301  1.00  0.00     0.029 A 
ATOM     41  N   UNL A   1      44.732  26.273  28.997  1.00  0.00    -0.354 N 
ATOM     42  C   UNL A   1      40.636  27.648  28.902  1.00  0.00     0.074 A 
ATOM     43  C   UNL A   1      39.739  26.592  28.486  1.00  0.00     0.031 C 
ATOM     44  C   UNL A   1      46.416  24.848  28.631  1.00  0.00     0.029 A 
ATOM     45  C   UNL A   1      46.104  26.209  29.056  1.00  0.00     0.049 A 
ATOM     46  H   UNL A   1      44.219  27.071  29.261  1.00  0.00     0.167 HD
ATOM     47  C   UNL A   1      40.238  28.901  29.224  1.00  0.00     0.031 A 
ATOM     48  C   UNL A   1      47.011  27.145  29.396  1.00  0.00     0.031 A 
ATOM     49  C   UNL A   1      41.121  29.934  29.688  1.00  0.00     0.049 A 
ATOM     50  C   UNL A   1      46.534  28.517  29.788  1.00  0.00     0.074 A 
ATOM     51  C   UNL A   1      40.803  31.210  30.118  1.00  0.00     0.029 A 
ATOM     52  N   UNL A   1      42.496  29.804  29.794  1.00  0.00    -0.354 N 
ATOM     53  N   UNL A   1      45.311  28.983  29.837  1.00  0.00    -0.248 NA
ATOM     54  C   UNL A   1      47.565  29.492  30.177  1.00  0.00     0.031 C 
ATOM     55  C   UNL A   1      41.991  31.865  30.455  1.00  0.00     0.029 A 
ATOM     56  C   UNL A   1      43.043  30.981  30.272  1.00  0.00     0.049 A 
ATOM     57  H   UNL A   1      43.008  28.996  29.563  1.00  0.00     0.167 HD
ATOM     58  C   UNL A   1      45.421  30.289  30.295  1.00  0.00     0.074 A 
ATOM     59  C   UNL A   1      46.829  30.541  30.516  1.00  0.00     0.031 C 
ATOM     60  C   UNL A   1      44.443  31.200  30.512  1.00  0.00     0.031 A 
BRANCH  47  61
ATOM     61  C   UNL A   1      38.779  29.226  29.083  1.00  0.00    -0.014 A 
ATOM     62  C   UNL A   1      37.895  29.092  30.164  1.00  0.00     0.009 A 
ATOM     63  C   UNL A   1      38.293  29.722  27.863  1.00  0.00     0.009 A 
ATOM     64  C   UNL A   1      36.546  29.419  30.018  1.00  0.00     0.001 A 
ATOM     65  C   UNL A   1      36.949  30.073  27.727  1.00  0.00     0.001 A 
ATOM     66  C   UNL A   1      36.075  29.914  28.802  1.00  0.00     0.000 A 
ENDBRANCH  47  61
BRANCH  48  67
ATOM     67  C   UNL A   1      48.464  26.832  29.388  1.00  0.00    -0.014 A 
ATOM     68  C   UNL A   1      49.233  27.063  28.237  1.00  0.00     0.009 A 
ATOM     69  C   UNL A   1      49.083  26.268  30.514  1.00  0.00     0.009 A 
ATOM     70  C   UNL A   1      50.582  26.700  28.201  1.00  0.00     0.001 A 
ATOM     71  C   UNL A   1      50.439  25.933  30.485  1.00  0.00     0.001 A 
ATOM     72  C   UNL A   1      51.184  26.139  29.325  1.00  0.00     0.000 A 
ENDBRANCH  48  67
BRANCH  60  73
ATOM     73  C   UNL A   1      44.851  32.532  31.070  1.00  0.00    -0.014 A 
ATOM     74  C   UNL A   1      45.145  33.614  30.228  1.00  0.00     0.009 A 
ATOM     75  C   UNL A   1      44.875  32.719  32.460  1.00  0.00     0.009 A 
ATOM     76  C   UNL A   1      45.477  34.857  30.772  1.00  0.00     0.001 A 
ATOM     77  C   UNL A   1      45.183  33.968  33.000  1.00  0.00     0.001 A 
ATOM     78  C   UNL A   1      45.490  35.034  32.156  1.00  0.00     0.000 A 
ENDBRANCH  60  73
ENDBRANCH  34  35
ENDBRANCH  26  29
ENDBRANCH  24  25
ENDBRANCH   1  24
TORSDOF 12
ENDMDL
MODEL 2
REMARK VINA RESULT:     -12.1      2.543      7.186
REMARK SMILES O=C(NCCCCNC(=O)c1ccc(-c2c3nc(c(-c4ccccc4)c4ccc([nH]4)c(-c4ccccc4)c4nc(c(-c5ccccc5)c5ccc2[nH]5)C=C4)C=C3)cc1)C1=Cc2cc(Cl)c(Cl)cc2O[C@@H]1C(F)(F)F
REMARK SMILES IDX 6 1 5 2 4 3 3 4 1 5 2 6 59 8 60 9 70 10 61 11 69 12 62 13
REMARK SMILES IDX 68 14 63 15 67 16 64 17 65 18 66 19 71 20 72 21 73 22 74 23
REMARK SMILES IDX 7 24 8 25 9 26 10 28 11 29 12 30 58 31 13 32 57 33 14 34
REMARK SMILES IDX 15 35 16 36 51 37 17 38 56 39 50 40 52 41 18 42 55 43 49 44
REMARK SMILES IDX 48 45 19 47 41 48 26 49 40 50 27 51 30 52 39 53 53 54 28 55
REMARK SMILES IDX 29 56 38 58 54 59 31 60 20 61 21 62 25 63 22 64 24 65 23 66
REMARK SMILES IDX 42 67 43 68 47 69 44 70 46 71 45 72 32 73 33 74 37 75 34 76
REMARK SMILES IDX 36 77 35 78
REMARK H PARENT 3 7 8 27 52 46 30 57
REMARK Flexibility Score: inf
ROOT
ATOM      1  C   UNL A   1      33.209  28.502  27.273  1.00  0.00     0.023 C 
ENDROOT
BRANCH   1   2
ATOM      2  C   UNL A   1      31.711  28.253  27.122  1.00  0.00     0.023 C 
BRANCH   2   3
ATOM      3  C   UNL A   1      31.365  27.086  26.200  1.00  0.00     0.116 C 
BRANCH   3   4
ATOM      4  N   UNL A   1      31.189  25.805  26.884  1.00  0.00    -0.352 N 
ATOM      5  O   UNL A   1      31.816  23.707  27.495  1.00  0.00    -0.270 OA
ATOM      6  C   UNL A   1      31.867  24.622  26.685  1.00  0.00     0.251 C 
ATOM      7  H   UNL A   1      30.493  25.786  27.581  1.00  0.00     0.163 HD
BRANCH   6   8
ATOM      8  C   UNL A   1      32.722  24.531  25.485  1.00  0.00     0.067 C 
ATOM      9  C   UNL A   1      34.005  24.889  25.622  1.00  0.00     0.025 C 
ATOM     10  C   UNL A   1      32.231  23.690  24.346  1.00  0.00     0.314 C 
ATOM     11  C   UNL A   1      34.944  23.916  25.045  1.00  0.00     0.019 A 
ATOM     12  O   UNL A   1      33.128  22.583  24.069  1.00  0.00    -0.475 OA
ATOM     13  C   UNL A   1      36.258  23.930  25.526  1.00  0.00     0.034 A 
ATOM     14  C   UNL A   1      34.444  22.754  24.427  1.00  0.00     0.129 A 
ATOM     15  C   UNL A   1      37.027  22.763  25.487  1.00  0.00     0.060 A 
ATOM     16  C   UNL A   1      35.233  21.607  24.340  1.00  0.00     0.069 A 
ATOM     17  Cl  UNL A   1      38.551  22.793  26.302  1.00  0.00    -0.083 Cl
ATOM     18  C   UNL A   1      36.509  21.599  24.907  1.00  0.00     0.063 A 
ATOM     19  Cl  UNL A   1      37.349  20.090  24.956  1.00  0.00    -0.083 Cl
BRANCH  10  20
ATOM     20  C   UNL A   1      31.986  24.520  23.075  1.00  0.00     0.429 C 
ATOM     21  F   UNL A   1      30.672  24.513  22.739  1.00  0.00    -0.167 F 
ATOM     22  F   UNL A   1      32.341  25.814  23.239  1.00  0.00    -0.167 F 
ATOM     23  F   UNL A   1      32.673  24.044  22.010  1.00  0.00    -0.167 F 
ENDBRANCH  10  20
ENDBRANCH   6   8
ENDBRANCH   3   4
ENDBRANCH   2   3
ENDBRANCH   1   2
BRANCH   1  24
ATOM     24  C   UNL A   1      33.725  29.838  26.741  1.00  0.00     0.116 C 
BRANCH  24  25
ATOM     25  N   UNL A   1      33.757  30.917  27.721  1.00  0.00    -0.352 N 
ATOM     26  C   UNL A   1      34.743  31.203  28.642  1.00  0.00     0.251 C 
ATOM     27  H   UNL A   1      32.975  31.516  27.725  1.00  0.00     0.163 HD
ATOM     28  O   UNL A   1      34.619  32.127  29.439  1.00  0.00    -0.269 OA
BRANCH  26  29
ATOM     29  C   UNL A   1      35.934  30.333  28.696  1.00  0.00     0.039 A 
ATOM     30  C   UNL A   1      36.817  30.330  27.612  1.00  0.00     0.014 A 
ATOM     31  C   UNL A   1      36.239  29.637  29.867  1.00  0.00     0.014 A 
ATOM     32  C   UNL A   1      38.069  29.730  27.751  1.00  0.00     0.010 A 
ATOM     33  C   UNL A   1      37.515  29.111  30.029  1.00  0.00     0.010 A 
ATOM     34  C   UNL A   1      38.453  29.176  28.983  1.00  0.00    -0.014 A 
BRANCH  34  35
ATOM     35  C   UNL A   1      39.832  28.684  29.230  1.00  0.00     0.031 A 
ATOM     36  C   UNL A   1      40.865  29.623  29.789  1.00  0.00     0.074 A 
ATOM     37  C   UNL A   1      40.187  27.445  28.834  1.00  0.00     0.049 A 
ATOM     38  N   UNL A   1      42.157  29.458  29.899  1.00  0.00    -0.248 NA
ATOM     39  C   UNL A   1      40.383  30.937  30.247  1.00  0.00     0.031 C 
ATOM     40  C   UNL A   1      39.292  26.450  28.236  1.00  0.00     0.029 A 
ATOM     41  N   UNL A   1      41.409  26.816  28.854  1.00  0.00    -0.354 N 
ATOM     42  C   UNL A   1      42.648  30.661  30.390  1.00  0.00     0.074 A 
ATOM     43  C   UNL A   1      41.520  31.555  30.533  1.00  0.00     0.031 C 
ATOM     44  C   UNL A   1      39.991  25.336  27.960  1.00  0.00     0.029 A 
ATOM     45  C   UNL A   1      41.390  25.550  28.317  1.00  0.00     0.049 A 
ATOM     46  H   UNL A   1      42.223  27.234  29.219  1.00  0.00     0.167 HD
ATOM     47  C   UNL A   1      43.923  30.989  30.705  1.00  0.00     0.031 A 
ATOM     48  C   UNL A   1      42.389  24.670  28.116  1.00  0.00     0.031 A 
ATOM     49  C   UNL A   1      45.034  30.083  30.614  1.00  0.00     0.049 A 
ATOM     50  C   UNL A   1      43.790  25.048  28.513  1.00  0.00     0.074 A 
ATOM     51  C   UNL A   1      46.350  30.295  30.987  1.00  0.00     0.029 A 
ATOM     52  N   UNL A   1      44.957  28.789  30.125  1.00  0.00    -0.354 N 
ATOM     53  N   UNL A   1      44.225  26.168  29.034  1.00  0.00    -0.248 NA
ATOM     54  C   UNL A   1      44.837  24.037  28.297  1.00  0.00     0.031 C 
ATOM     55  C   UNL A   1      47.077  29.138  30.694  1.00  0.00     0.029 A 
ATOM     56  C   UNL A   1      46.204  28.194  30.177  1.00  0.00     0.049 A 
ATOM     57  H   UNL A   1      44.138  28.358  29.791  1.00  0.00     0.167 HD
ATOM     58  C   UNL A   1      45.586  25.984  29.243  1.00  0.00     0.074 A 
ATOM     59  C   UNL A   1      45.903  24.644  28.798  1.00  0.00     0.031 C 
ATOM     60  C   UNL A   1      46.492  26.850  29.756  1.00  0.00     0.031 A 
BRANCH  47  61
ATOM     61  C   UNL A   1      44.186  32.389  31.176  1.00  0.00    -0.014 A 
ATOM     62  C   UNL A   1      44.171  32.713  32.541  1.00  0.00     0.009 A 
ATOM     63  C   UNL A   1      44.503  33.388  30.242  1.00  0.00     0.009 A 
ATOM     64  C   UNL A   1      44.438  34.018  32.959  1.00  0.00     0.001 A 
ATOM     65  C   UNL A   1      44.796  34.685  30.665  1.00  0.00     0.001 A 
ATOM     66  C   UNL A   1      44.756  35.001  32.022  1.00  0.00     0.000 A 
ENDBRANCH  47  61
BRANCH  48  67
ATOM     67  C   UNL A   1      42.115  23.338  27.513  1.00  0.00    -0.014 A 
ATOM     68  C   UNL A   1      41.604  22.294  28.300  1.00  0.00     0.009 A 
ATOM     69  C   UNL A   1      42.396  23.092  26.161  1.00  0.00     0.009 A 
ATOM     70  C   UNL A   1      41.417  21.022  27.756  1.00  0.00     0.001 A 
ATOM     71  C   UNL A   1      42.180  21.825  25.611  1.00  0.00     0.001 A 
ATOM     72  C   UNL A   1      41.702  20.789  26.412  1.00  0.00     0.000 A 
ENDBRANCH  48  67
BRANCH  60  73
ATOM     73  C   UNL A   1      47.900  26.358  29.921  1.00  0.00    -0.014 A 
ATOM     74  C   UNL A   1      48.834  26.464  28.881  1.00  0.00     0.009 A 
ATOM     75  C   UNL A   1      48.309  25.842  31.160  1.00  0.00     0.009 A 
ATOM     76  C   UNL A   1      50.151  26.043  29.074  1.00  0.00     0.001 A 
ATOM     77  C   UNL A   1      49.632  25.443  31.356  1.00  0.00     0.001 A 
ATOM     78  C   UNL A   1      50.550  25.539  30.312  1.00  0.00     0.000 A 
ENDBRANCH  60  73
ENDBRANCH  34  35
ENDBRANCH  26  29
ENDBRANCH  24  25
ENDBRANCH   1  24
TORSDOF 12
ENDMDL
MODEL 3
REMARK VINA RESULT:     -12.1      5.731      9.782
REMARK SMILES O=C(NCCCCNC(=O)c1ccc(-c2c3nc(c(-c4ccccc4)c4ccc([nH]4)c(-c4ccccc4)c4nc(c(-c5ccccc5)c5ccc2[nH]5)C=C4)C=C3)cc1)C1=Cc2cc(Cl)c(Cl)cc2O[C@@H]1C(F)(F)F
REMARK SMILES IDX 6 1 5 2 4 3 3 4 1 5 2 6 59 8 60 9 70 10 61 11 69 12 62 13
REMARK SMILES IDX 68 14 63 15 67 16 64 17 65 18 66 19 71 20 72 21 73 22 74 23
REMARK SMILES IDX 7 24 8 25 9 26 10 28 11 29 12 30 58 31 13 32 57 33 14 34
REMARK SMILES IDX 15 35 16 36 51 37 17 38 56 39 50 40 52 41 18 42 55 43 49 44
REMARK SMILES IDX 48 45 19 47 41 48 26 49 40 50 27 51 30 52 39 53 53 54 28 55
REMARK SMILES IDX 29 56 38 58 54 59 31 60 20 61 21 62 25 63 22 64 24 65 23 66
REMARK SMILES IDX 42 67 43 68 47 69 44 70 46 71 45 72 32 73 33 74 37 75 34 76
REMARK SMILES IDX 36 77 35 78
REMARK H PARENT 3 7 8 27 52 46 30 57
REMARK Flexibility Score: inf
ROOT
ATOM      1  C   UNL A   1      32.624  29.743  27.267  1.00  0.00     0.023 C 
ENDROOT
BRANCH   1   2
ATOM      2  C   UNL A   1      33.450  28.461  27.246  1.00  0.00     0.023 C 
BRANCH   2   3
ATOM      3  C   UNL A   1      33.048  27.481  26.145  1.00  0.00     0.116 C 
BRANCH   3   4
ATOM      4  N   UNL A   1      33.540  27.830  24.813  1.00  0.00    -0.352 N 
ATOM      5  O   UNL A   1      33.424  28.874  22.796  1.00  0.00    -0.270 OA
ATOM      6  C   UNL A   1      32.848  28.384  23.757  1.00  0.00     0.251 C 
ATOM      7  H   UNL A   1      34.494  27.647  24.649  1.00  0.00     0.163 HD
BRANCH   6   8
ATOM      8  C   UNL A   1      31.376  28.427  23.867  1.00  0.00     0.067 C 
ATOM      9  C   UNL A   1      30.840  29.515  24.435  1.00  0.00     0.025 C 
ATOM     10  C   UNL A   1      30.588  27.489  23.004  1.00  0.00     0.314 C 
ATOM     11  C   UNL A   1      29.723  30.081  23.664  1.00  0.00     0.019 A 
ATOM     12  O   UNL A   1      29.725  28.204  22.082  1.00  0.00    -0.475 OA
ATOM     13  C   UNL A   1      29.409  31.427  23.885  1.00  0.00     0.034 A 
ATOM     14  C   UNL A   1      29.329  29.464  22.462  1.00  0.00     0.129 A 
ATOM     15  C   UNL A   1      28.805  32.176  22.871  1.00  0.00     0.060 A 
ATOM     16  C   UNL A   1      28.677  30.201  21.473  1.00  0.00     0.069 A 
ATOM     17  Cl  UNL A   1      28.657  33.879  23.128  1.00  0.00    -0.083 Cl
ATOM     18  C   UNL A   1      28.452  31.566  21.661  1.00  0.00     0.063 A 
ATOM     19  Cl  UNL A   1      27.837  32.463  20.319  1.00  0.00    -0.083 Cl
BRANCH  10  20
ATOM     20  C   UNL A   1      29.778  26.480  23.834  1.00  0.00     0.429 C 
ATOM     21  F   UNL A   1      30.112  26.555  25.146  1.00  0.00    -0.167 F 
ATOM     22  F   UNL A   1      28.447  26.710  23.755  1.00  0.00    -0.167 F 
ATOM     23  F   UNL A   1      29.991  25.203  23.440  1.00  0.00    -0.167 F 
ENDBRANCH  10  20
ENDBRANCH   6   8
ENDBRANCH   3   4
ENDBRANCH   2   3
ENDBRANCH   1   2
BRANCH   1  24
ATOM     24  C   UNL A   1      33.366  31.026  26.895  1.00  0.00     0.116 C 
BRANCH  24  25
ATOM     25  N   UNL A   1      32.645  32.258  27.189  1.00  0.00    -0.352 N 
ATOM     26  C   UNL A   1      33.054  33.321  27.968  1.00  0.00     0.251 C 
ATOM     27  H   UNL A   1      31.753  32.342  26.780  1.00  0.00     0.163 HD
ATOM     28  O   UNL A   1      32.322  34.285  28.163  1.00  0.00    -0.269 OA
BRANCH  26  29
ATOM     29  C   UNL A   1      34.376  33.250  28.622  1.00  0.00     0.039 A 
ATOM     30  C   UNL A   1      34.481  32.621  29.865  1.00  0.00     0.014 A 
ATOM     31  C   UNL A   1      35.516  33.680  27.940  1.00  0.00     0.014 A 
ATOM     32  C   UNL A   1      35.745  32.309  30.371  1.00  0.00     0.010 A 
ATOM     33  C   UNL A   1      36.768  33.297  28.407  1.00  0.00     0.010 A 
ATOM     34  C   UNL A   1      36.894  32.584  29.612  1.00  0.00    -0.014 A 
BRANCH  34  35
ATOM     35  C   UNL A   1      38.241  32.116  30.027  1.00  0.00     0.031 A 
ATOM     36  C   UNL A   1      38.779  30.824  29.477  1.00  0.00     0.074 A 
ATOM     37  C   UNL A   1      38.918  32.777  30.988  1.00  0.00     0.049 A 
ATOM     38  N   UNL A   1      39.832  30.144  29.847  1.00  0.00    -0.248 NA
ATOM     39  C   UNL A   1      38.004  30.195  28.394  1.00  0.00     0.031 C 
ATOM     40  C   UNL A   1      38.487  34.018  31.637  1.00  0.00     0.029 A 
ATOM     41  N   UNL A   1      40.109  32.481  31.605  1.00  0.00    -0.354 N 
ATOM     42  C   UNL A   1      39.819  28.987  29.079  1.00  0.00     0.074 A 
ATOM     43  C   UNL A   1      38.642  29.044  28.241  1.00  0.00     0.031 C 
ATOM     44  C   UNL A   1      39.405  34.382  32.549  1.00  0.00     0.029 A 
ATOM     45  C   UNL A   1      40.465  33.380  32.583  1.00  0.00     0.049 A 
ATOM     46  H   UNL A   1      40.658  31.698  31.369  1.00  0.00     0.167 HD
ATOM     47  C   UNL A   1      40.715  27.971  29.065  1.00  0.00     0.031 A 
ATOM     48  C   UNL A   1      41.516  33.387  33.426  1.00  0.00     0.031 A 
ATOM     49  C   UNL A   1      41.912  27.941  29.858  1.00  0.00     0.049 A 
ATOM     50  C   UNL A   1      42.516  32.265  33.358  1.00  0.00     0.074 A 
ATOM     51  C   UNL A   1      42.923  26.997  29.854  1.00  0.00     0.029 A 
ATOM     52  N   UNL A   1      42.265  28.905  30.788  1.00  0.00    -0.354 N 
ATOM     53  N   UNL A   1      42.521  31.210  32.582  1.00  0.00    -0.248 NA
ATOM     54  C   UNL A   1      43.659  32.338  34.282  1.00  0.00     0.031 C 
ATOM     55  C   UNL A   1      43.874  27.373  30.806  1.00  0.00     0.029 A 
ATOM     56  C   UNL A   1      43.473  28.573  31.373  1.00  0.00     0.049 A 
ATOM     57  H   UNL A   1      41.735  29.707  31.002  1.00  0.00     0.167 HD
ATOM     58  C   UNL A   1      43.681  30.514  32.897  1.00  0.00     0.074 A 
ATOM     59  C   UNL A   1      44.358  31.269  33.929  1.00  0.00     0.031 C 
ATOM     60  C   UNL A   1      44.143  29.352  32.377  1.00  0.00     0.031 A 
BRANCH  47  61
ATOM     61  C   UNL A   1      40.432  26.806  28.163  1.00  0.00    -0.014 A 
ATOM     62  C   UNL A   1      40.971  26.738  26.870  1.00  0.00     0.009 A 
ATOM     63  C   UNL A   1      39.654  25.736  28.633  1.00  0.00     0.009 A 
ATOM     64  C   UNL A   1      40.712  25.635  26.054  1.00  0.00     0.001 A 
ATOM     65  C   UNL A   1      39.418  24.623  27.826  1.00  0.00     0.001 A 
ATOM     66  C   UNL A   1      39.941  24.576  26.534  1.00  0.00     0.000 A 
ENDBRANCH  47  61
BRANCH  48  67
ATOM     67  C   UNL A   1      41.692  34.488  34.409  1.00  0.00    -0.014 A 
ATOM     68  C   UNL A   1      41.137  34.387  35.694  1.00  0.00     0.009 A 
ATOM     69  C   UNL A   1      42.383  35.659  34.060  1.00  0.00     0.009 A 
ATOM     70  C   UNL A   1      41.235  35.450  36.595  1.00  0.00     0.001 A 
ATOM     71  C   UNL A   1      42.506  36.709  34.974  1.00  0.00     0.001 A 
ATOM     72  C   UNL A   1      41.922  36.608  36.236  1.00  0.00     0.000 A 
ENDBRANCH  48  67
BRANCH  60  73
ATOM     73  C   UNL A   1      45.469  28.855  32.871  1.00  0.00    -0.014 A 
ATOM     74  C   UNL A   1      45.557  27.968  33.953  1.00  0.00     0.009 A 
ATOM     75  C   UNL A   1      46.641  29.230  32.196  1.00  0.00     0.009 A 
ATOM     76  C   UNL A   1      46.800  27.481  34.365  1.00  0.00     0.001 A 
ATOM     77  C   UNL A   1      47.879  28.724  32.595  1.00  0.00     0.001 A 
ATOM     78  C   UNL A   1      47.957  27.855  33.682  1.00  0.00     0.000 A 
ENDBRANCH  60  73
ENDBRANCH  34  35
ENDBRANCH  26  29
ENDBRANCH  24  25
ENDBRANCH   1  24
TORSDOF 12
ENDMDL
