MODEL 1
REMARK VINA RESULT:     -11.1      0.000      0.000
REMARK SMILES C[C@@H]1CCN(c2cncc(C(=O)NCCCCNC(=O)c3ccc(-c4c5nc(c(-c6ccccc6)c6ccc([nH]6)c(-c6ccccc6)c6nc(c(-c7ccccc7)c7ccc4[nH]7)C=C6)C=C5)cc3)n2)[C@H](C)C1
REMARK SMILES IDX 16 1 15 2 14 3 13 4 11 5 12 6 10 8 6 9 7 10 69 11 8 12 9 13
REMARK SMILES IDX 5 14 1 15 2 16 3 17 72 18 4 19 70 20 71 21 17 22 18 23 19 24
REMARK SMILES IDX 20 26 21 27 22 28 68 29 23 30 67 31 24 32 25 33 26 34 61 35
REMARK SMILES IDX 27 36 66 37 60 38 62 39 28 40 65 41 59 42 58 43 29 45 51 46
REMARK SMILES IDX 36 47 50 48 37 49 40 50 49 51 63 52 38 53 39 54 48 56 64 57
REMARK SMILES IDX 41 58 30 59 31 60 35 61 32 62 34 63 33 64 52 65 53 66 57 67
REMARK SMILES IDX 54 68 56 69 55 70 42 71 43 72 47 73 44 74 46 75 45 76
REMARK H PARENT 13 7 18 25 62 44 40 55
REMARK Flexibility Score: inf
ROOT
ATOM      1  C   UNL A   1      32.242  28.345  26.957  1.00  0.00     0.023 C 
ENDROOT
BRANCH   1   2
ATOM      2  C   UNL A   1      32.171  27.073  26.106  1.00  0.00     0.023 C 
BRANCH   2   3
ATOM      3  C   UNL A   1      30.756  26.686  25.676  1.00  0.00     0.116 C 
BRANCH   3   4
ATOM      4  N   UNL A   1      30.223  25.604  26.479  1.00  0.00    -0.351 N 
ATOM      5  C   UNL A   1      30.466  24.249  26.436  1.00  0.00     0.271 C 
ATOM      6  O   UNL A   1      29.861  23.544  27.248  1.00  0.00    -0.267 OA
ATOM      7  H   UNL A   1      29.580  25.885  27.170  1.00  0.00     0.163 HD
BRANCH   5   8
ATOM      8  C   UNL A   1      31.403  23.602  25.466  1.00  0.00     0.148 A 
ATOM      9  C   UNL A   1      33.520  22.883  24.854  1.00  0.00     0.148 A 
ATOM     10  C   UNL A   1      32.976  22.491  23.626  1.00  0.00     0.157 A 
ATOM     11  N   UNL A   1      32.713  23.438  25.787  1.00  0.00    -0.222 NA
ATOM     12  N   UNL A   1      31.669  22.625  23.287  1.00  0.00    -0.258 NA
ATOM     13  C   UNL A   1      30.895  23.192  24.242  1.00  0.00     0.145 A 
BRANCH   9  14
ATOM     14  N   UNL A   1      34.852  22.684  25.160  1.00  0.00    -0.353 N 
ATOM     15  C   UNL A   1      38.491  22.157  26.031  1.00  0.00     0.008 C 
ATOM     16  C   UNL A   1      37.701  23.167  25.196  1.00  0.00    -0.011 C 
ATOM     17  C   UNL A   1      36.718  23.981  26.053  1.00  0.00     0.025 C 
ATOM     18  C   UNL A   1      36.982  22.529  23.992  1.00  0.00     0.028 C 
ATOM     19  C   UNL A   1      35.434  23.221  26.382  1.00  0.00     0.118 C 
ATOM     20  C   UNL A   1      35.662  21.805  24.316  1.00  0.00     0.081 C 
ATOM     21  C   UNL A   1      35.874  20.433  24.947  1.00  0.00     0.031 C 
ENDBRANCH   9  14
ENDBRANCH   5   8
ENDBRANCH   3   4
ENDBRANCH   2   3
ENDBRANCH   1   2
BRANCH   1  22
ATOM     22  C   UNL A   1      33.649  28.869  27.235  1.00  0.00     0.116 C 
BRANCH  22  23
ATOM     23  N   UNL A   1      33.674  30.211  27.800  1.00  0.00    -0.352 N 
ATOM     24  C   UNL A   1      34.703  30.847  28.452  1.00  0.00     0.251 C 
ATOM     25  H   UNL A   1      32.844  30.731  27.702  1.00  0.00     0.163 HD
ATOM     26  O   UNL A   1      34.537  31.955  28.953  1.00  0.00    -0.269 OA
BRANCH  24  27
ATOM     27  C   UNL A   1      36.005  30.161  28.588  1.00  0.00     0.039 A 
ATOM     28  C   UNL A   1      36.898  30.193  27.514  1.00  0.00     0.014 A 
ATOM     29  C   UNL A   1      36.358  29.535  29.786  1.00  0.00     0.014 A 
ATOM     30  C   UNL A   1      38.183  29.671  27.671  1.00  0.00     0.010 A 
ATOM     31  C   UNL A   1      37.659  29.073  29.962  1.00  0.00     0.010 A 
ATOM     32  C   UNL A   1      38.586  29.149  28.911  1.00  0.00    -0.014 A 
BRANCH  32  33
ATOM     33  C   UNL A   1      39.985  28.713  29.143  1.00  0.00     0.031 A 
ATOM     34  C   UNL A   1      40.998  29.671  29.700  1.00  0.00     0.074 A 
ATOM     35  C   UNL A   1      40.364  27.476  28.766  1.00  0.00     0.049 A 
ATOM     36  N   UNL A   1      42.280  29.494  29.897  1.00  0.00    -0.248 NA
ATOM     37  C   UNL A   1      40.512  31.013  30.055  1.00  0.00     0.031 C 
ATOM     38  C   UNL A   1      39.490  26.469  28.159  1.00  0.00     0.029 A 
ATOM     39  N   UNL A   1      41.591  26.864  28.818  1.00  0.00    -0.354 N 
ATOM     40  C   UNL A   1      42.757  30.706  30.380  1.00  0.00     0.074 A 
ATOM     41  C   UNL A   1      41.636  31.622  30.402  1.00  0.00     0.031 C 
ATOM     42  C   UNL A   1      40.206  25.361  27.908  1.00  0.00     0.029 A 
ATOM     43  C   UNL A   1      41.592  25.591  28.302  1.00  0.00     0.049 A 
ATOM     44  H   UNL A   1      42.393  27.296  29.191  1.00  0.00     0.167 HD
ATOM     45  C   UNL A   1      44.010  31.024  30.782  1.00  0.00     0.031 A 
ATOM     46  C   UNL A   1      42.599  24.710  28.148  1.00  0.00     0.031 A 
ATOM     47  C   UNL A   1      45.122  30.112  30.766  1.00  0.00     0.049 A 
ATOM     48  C   UNL A   1      43.980  25.083  28.604  1.00  0.00     0.074 A 
ATOM     49  C   UNL A   1      46.413  30.317  31.221  1.00  0.00     0.029 A 
ATOM     50  N   UNL A   1      45.077  28.823  30.258  1.00  0.00    -0.354 N 
ATOM     51  N   UNL A   1      44.397  26.204  29.137  1.00  0.00    -0.248 NA
ATOM     52  C   UNL A   1      45.027  24.063  28.444  1.00  0.00     0.031 C 
ATOM     53  C   UNL A   1      47.162  29.168  30.944  1.00  0.00     0.029 A 
ATOM     54  C   UNL A   1      46.325  28.230  30.362  1.00  0.00     0.049 A 
ATOM     55  H   UNL A   1      44.276  28.392  29.879  1.00  0.00     0.167 HD
ATOM     56  C   UNL A   1      45.750  26.022  29.393  1.00  0.00     0.074 A 
ATOM     57  C   UNL A   1      46.078  24.675  28.972  1.00  0.00     0.031 C 
ATOM     58  C   UNL A   1      46.639  26.893  29.928  1.00  0.00     0.031 A 
BRANCH  45  59
ATOM     59  C   UNL A   1      44.240  32.428  31.265  1.00  0.00    -0.014 A 
ATOM     60  C   UNL A   1      44.083  32.767  32.619  1.00  0.00     0.009 A 
ATOM     61  C   UNL A   1      44.631  33.423  30.357  1.00  0.00     0.009 A 
ATOM     62  C   UNL A   1      44.270  34.083  33.046  1.00  0.00     0.001 A 
ATOM     63  C   UNL A   1      44.846  34.733  30.792  1.00  0.00     0.001 A 
ATOM     64  C   UNL A   1      44.654  35.063  32.132  1.00  0.00     0.000 A 
ENDBRANCH  45  59
BRANCH  46  65
ATOM     65  C   UNL A   1      42.327  23.383  27.540  1.00  0.00    -0.014 A 
ATOM     66  C   UNL A   1      41.851  22.323  28.326  1.00  0.00     0.009 A 
ATOM     67  C   UNL A   1      42.526  23.176  26.166  1.00  0.00     0.009 A 
ATOM     68  C   UNL A   1      41.596  21.076  27.749  1.00  0.00     0.001 A 
ATOM     69  C   UNL A   1      42.246  21.936  25.589  1.00  0.00     0.001 A 
ATOM     70  C   UNL A   1      41.788  20.886  26.382  1.00  0.00     0.000 A 
ENDBRANCH  46  65
BRANCH  58  71
ATOM     71  C   UNL A   1      48.050  26.411  30.102  1.00  0.00    -0.014 A 
ATOM     72  C   UNL A   1      49.013  26.606  29.100  1.00  0.00     0.009 A 
ATOM     73  C   UNL A   1      48.432  25.790  31.303  1.00  0.00     0.009 A 
ATOM     74  C   UNL A   1      50.324  26.162  29.286  1.00  0.00     0.001 A 
ATOM     75  C   UNL A   1      49.749  25.372  31.496  1.00  0.00     0.001 A 
ATOM     76  C   UNL A   1      50.692  25.552  30.484  1.00  0.00     0.000 A 
ENDBRANCH  58  71
ENDBRANCH  32  33
ENDBRANCH  24  27
ENDBRANCH  22  23
ENDBRANCH   1  22
TORSDOF 12
ENDMDL
MODEL 2
REMARK VINA RESULT:     -10.8      2.021      7.483
REMARK SMILES C[C@@H]1CCN(c2cncc(C(=O)NCCCCNC(=O)c3ccc(-c4c5nc(c(-c6ccccc6)c6ccc([nH]6)c(-c6ccccc6)c6nc(c(-c7ccccc7)c7ccc4[nH]7)C=C6)C=C5)cc3)n2)[C@H](C)C1
REMARK SMILES IDX 16 1 15 2 14 3 13 4 11 5 12 6 10 8 6 9 7 10 69 11 8 12 9 13
REMARK SMILES IDX 5 14 1 15 2 16 3 17 72 18 4 19 70 20 71 21 17 22 18 23 19 24
REMARK SMILES IDX 20 26 21 27 22 28 68 29 23 30 67 31 24 32 25 33 26 34 61 35
REMARK SMILES IDX 27 36 66 37 60 38 62 39 28 40 65 41 59 42 58 43 29 45 51 46
REMARK SMILES IDX 36 47 50 48 37 49 40 50 49 51 63 52 38 53 39 54 48 56 64 57
REMARK SMILES IDX 41 58 30 59 31 60 35 61 32 62 34 63 33 64 52 65 53 66 57 67
REMARK SMILES IDX 54 68 56 69 55 70 42 71 43 72 47 73 44 74 46 75 45 76
REMARK H PARENT 13 7 18 25 62 44 40 55
REMARK Flexibility Score: inf
ROOT
ATOM      1  C   UNL A   1      37.614  20.339  24.910  1.00  0.00     0.023 C 
ENDROOT
BRANCH   1   2
ATOM      2  C   UNL A   1      36.699  21.538  24.637  1.00  0.00     0.023 C 
BRANCH   2   3
ATOM      3  C   UNL A   1      35.675  21.807  25.739  1.00  0.00     0.116 C 
BRANCH   3   4
ATOM      4  N   UNL A   1      34.381  21.236  25.426  1.00  0.00    -0.351 N 
ATOM      5  C   UNL A   1      33.330  21.741  24.693  1.00  0.00     0.271 C 
ATOM      6  O   UNL A   1      32.325  21.031  24.589  1.00  0.00    -0.267 OA
ATOM      7  H   UNL A   1      34.226  20.339  25.802  1.00  0.00     0.163 HD
BRANCH   5   8
ATOM      8  C   UNL A   1      33.343  23.084  24.036  1.00  0.00     0.148 A 
ATOM      9  C   UNL A   1      33.018  25.379  24.092  1.00  0.00     0.148 A 
ATOM     10  C   UNL A   1      33.346  25.407  22.732  1.00  0.00     0.157 A 
ATOM     11  N   UNL A   1      33.029  24.197  24.750  1.00  0.00    -0.222 NA
ATOM     12  N   UNL A   1      33.682  24.315  22.000  1.00  0.00    -0.258 NA
ATOM     13  C   UNL A   1      33.673  23.151  22.690  1.00  0.00     0.145 A 
BRANCH   9  14
ATOM     14  N   UNL A   1      32.724  26.530  24.796  1.00  0.00    -0.353 N 
ATOM     15  C   UNL A   1      31.957  29.693  26.716  1.00  0.00     0.008 C 
ATOM     16  C   UNL A   1      32.373  28.267  27.080  1.00  0.00    -0.011 C 
ATOM     17  C   UNL A   1      33.761  27.910  26.523  1.00  0.00     0.025 C 
ATOM     18  C   UNL A   1      31.330  27.207  26.673  1.00  0.00     0.028 C 
ATOM     19  C   UNL A   1      33.739  27.546  25.040  1.00  0.00     0.118 C 
ATOM     20  C   UNL A   1      31.341  26.803  25.187  1.00  0.00     0.081 C 
ATOM     21  C   UNL A   1      30.678  27.837  24.283  1.00  0.00     0.031 C 
ENDBRANCH   9  14
ENDBRANCH   5   8
ENDBRANCH   3   4
ENDBRANCH   2   3
ENDBRANCH   1   2
BRANCH   1  22
ATOM     22  C   UNL A   1      38.848  20.637  25.758  1.00  0.00     0.116 C 
BRANCH  22  23
ATOM     23  N   UNL A   1      39.843  19.574  25.740  1.00  0.00    -0.352 N 
ATOM     24  C   UNL A   1      41.171  19.638  26.087  1.00  0.00     0.251 C 
ATOM     25  H   UNL A   1      39.521  18.694  25.438  1.00  0.00     0.163 HD
ATOM     26  O   UNL A   1      41.906  18.667  25.930  1.00  0.00    -0.269 OA
BRANCH  24  27
ATOM     27  C   UNL A   1      41.721  20.906  26.609  1.00  0.00     0.039 A 
ATOM     28  C   UNL A   1      42.263  21.826  25.707  1.00  0.00     0.014 A 
ATOM     29  C   UNL A   1      41.654  21.204  27.972  1.00  0.00     0.014 A 
ATOM     30  C   UNL A   1      42.659  23.084  26.163  1.00  0.00     0.010 A 
ATOM     31  C   UNL A   1      41.990  22.480  28.413  1.00  0.00     0.010 A 
ATOM     32  C   UNL A   1      42.483  23.435  27.511  1.00  0.00    -0.014 A 
BRANCH  32  33
ATOM     33  C   UNL A   1      42.770  24.809  27.993  1.00  0.00     0.031 A 
ATOM     34  C   UNL A   1      44.155  25.188  28.430  1.00  0.00     0.074 A 
ATOM     35  C   UNL A   1      41.758  25.689  28.123  1.00  0.00     0.049 A 
ATOM     36  N   UNL A   1      44.577  26.312  28.952  1.00  0.00    -0.248 NA
ATOM     37  C   UNL A   1      45.197  24.159  28.290  1.00  0.00     0.031 C 
ATOM     38  C   UNL A   1      40.357  25.426  27.787  1.00  0.00     0.029 A 
ATOM     39  N   UNL A   1      41.751  26.979  28.591  1.00  0.00    -0.354 N 
ATOM     40  C   UNL A   1      45.925  26.120  29.219  1.00  0.00     0.074 A 
ATOM     41  C   UNL A   1      46.241  24.757  28.844  1.00  0.00     0.031 C 
ATOM     42  C   UNL A   1      39.629  26.524  28.049  1.00  0.00     0.029 A 
ATOM     43  C   UNL A   1      40.503  27.553  28.602  1.00  0.00     0.049 A 
ATOM     44  H   UNL A   1      42.563  27.447  28.891  1.00  0.00     0.167 HD
ATOM     45  C   UNL A   1      46.825  27.001  29.717  1.00  0.00     0.031 A 
ATOM     46  C   UNL A   1      40.103  28.767  29.023  1.00  0.00     0.031 A 
ATOM     47  C   UNL A   1      46.514  28.357  30.083  1.00  0.00     0.049 A 
ATOM     48  C   UNL A   1      41.118  29.729  29.569  1.00  0.00     0.074 A 
ATOM     49  C   UNL A   1      47.371  29.349  30.527  1.00  0.00     0.029 A 
ATOM     50  N   UNL A   1      45.243  28.909  30.056  1.00  0.00    -0.354 N 
ATOM     51  N   UNL A   1      42.406  29.562  29.736  1.00  0.00    -0.248 NA
ATOM     52  C   UNL A   1      40.623  31.053  29.975  1.00  0.00     0.031 C 
ATOM     53  C   UNL A   1      46.610  30.487  30.815  1.00  0.00     0.029 A 
ATOM     54  C   UNL A   1      45.287  30.220  30.502  1.00  0.00     0.049 A 
ATOM     55  H   UNL A   1      44.429  28.439  29.762  1.00  0.00     0.167 HD
ATOM     56  C   UNL A   1      42.881  30.760  30.251  1.00  0.00     0.074 A 
ATOM     57  C   UNL A   1      41.744  31.653  30.350  1.00  0.00     0.031 C 
ATOM     58  C   UNL A   1      44.145  31.091  30.608  1.00  0.00     0.031 A 
BRANCH  45  59
ATOM     59  C   UNL A   1      48.234  26.513  29.902  1.00  0.00    -0.014 A 
ATOM     60  C   UNL A   1      48.633  25.879  31.091  1.00  0.00     0.009 A 
ATOM     61  C   UNL A   1      49.171  26.676  28.872  1.00  0.00     0.009 A 
ATOM     62  C   UNL A   1      49.954  25.460  31.259  1.00  0.00     0.001 A 
ATOM     63  C   UNL A   1      50.485  26.230  29.032  1.00  0.00     0.001 A 
ATOM     64  C   UNL A   1      50.877  25.633  30.229  1.00  0.00     0.000 A 
ENDBRANCH  45  59
BRANCH  46  65
ATOM     65  C   UNL A   1      38.668  29.140  28.933  1.00  0.00    -0.014 A 
ATOM     66  C   UNL A   1      37.825  28.997  30.045  1.00  0.00     0.009 A 
ATOM     67  C   UNL A   1      38.140  29.657  27.741  1.00  0.00     0.009 A 
ATOM     68  C   UNL A   1      36.476  29.350  29.958  1.00  0.00     0.001 A 
ATOM     69  C   UNL A   1      36.797  30.032  27.665  1.00  0.00     0.001 A 
ATOM     70  C   UNL A   1      35.965  29.872  28.770  1.00  0.00     0.000 A 
ENDBRANCH  46  65
BRANCH  58  71
ATOM     71  C   UNL A   1      44.369  32.483  31.128  1.00  0.00    -0.014 A 
ATOM     72  C   UNL A   1      44.647  33.546  30.256  1.00  0.00     0.009 A 
ATOM     73  C   UNL A   1      44.257  32.740  32.503  1.00  0.00     0.009 A 
ATOM     74  C   UNL A   1      44.839  34.836  30.756  1.00  0.00     0.001 A 
ATOM     75  C   UNL A   1      44.423  34.035  32.997  1.00  0.00     0.001 A 
ATOM     76  C   UNL A   1      44.721  35.080  32.124  1.00  0.00     0.000 A 
ENDBRANCH  58  71
ENDBRANCH  32  33
ENDBRANCH  24  27
ENDBRANCH  22  23
ENDBRANCH   1  22
TORSDOF 12
ENDMDL
MODEL 3
REMARK VINA RESULT:     -10.8      3.628      6.937
REMARK SMILES C[C@@H]1CCN(c2cncc(C(=O)NCCCCNC(=O)c3ccc(-c4c5nc(c(-c6ccccc6)c6ccc([nH]6)c(-c6ccccc6)c6nc(c(-c7ccccc7)c7ccc4[nH]7)C=C6)C=C5)cc3)n2)[C@H](C)C1
REMARK SMILES IDX 16 1 15 2 14 3 13 4 11 5 12 6 10 8 6 9 7 10 69 11 8 12 9 13
REMARK SMILES IDX 5 14 1 15 2 16 3 17 72 18 4 19 70 20 71 21 17 22 18 23 19 24
REMARK SMILES IDX 20 26 21 27 22 28 68 29 23 30 67 31 24 32 25 33 26 34 61 35
REMARK SMILES IDX 27 36 66 37 60 38 62 39 28 40 65 41 59 42 58 43 29 45 51 46
REMARK SMILES IDX 36 47 50 48 37 49 40 50 49 51 63 52 38 53 39 54 48 56 64 57
REMARK SMILES IDX 41 58 30 59 31 60 35 61 32 62 34 63 33 64 52 65 53 66 57 67
REMARK SMILES IDX 54 68 56 69 55 70 42 71 43 72 47 73 44 74 46 75 45 76
REMARK H PARENT 13 7 18 25 62 44 40 55
REMARK Flexibility Score: inf
ROOT
ATOM      1  C   UNL A   1      35.300  33.382  28.101  1.00  0.00     0.023 C 
ENDROOT
BRANCH   1   2
ATOM      2  C   UNL A   1      34.685  34.785  28.081  1.00  0.00     0.023 C 
BRANCH   2   3
ATOM      3  C   UNL A   1      33.237  34.840  28.569  1.00  0.00     0.116 C 
BRANCH   3   4
ATOM      4  N   UNL A   1      32.973  36.032  29.349  1.00  0.00    -0.351 N 
ATOM      5  C   UNL A   1      33.139  36.280  30.693  1.00  0.00     0.271 C 
ATOM      6  O   UNL A   1      32.823  37.402  31.100  1.00  0.00    -0.267 OA
ATOM      7  H   UNL A   1      32.615  36.789  28.832  1.00  0.00     0.163 HD
BRANCH   5   8
ATOM      8  C   UNL A   1      33.663  35.274  31.667  1.00  0.00     0.148 A 
ATOM      9  C   UNL A   1      35.413  34.102  32.637  1.00  0.00     0.148 A 
ATOM     10  C   UNL A   1      34.461  33.412  33.397  1.00  0.00     0.157 A 
ATOM     11  N   UNL A   1      35.001  35.052  31.768  1.00  0.00    -0.222 NA
ATOM     12  N   UNL A   1      33.123  33.626  33.332  1.00  0.00    -0.258 NA
ATOM     13  C   UNL A   1      32.749  34.578  32.445  1.00  0.00     0.145 A 
BRANCH   9  14
ATOM     14  N   UNL A   1      36.767  33.870  32.776  1.00  0.00    -0.353 N 
ATOM     15  C   UNL A   1      40.468  33.231  33.200  1.00  0.00     0.008 C 
ATOM     16  C   UNL A   1      39.580  34.469  33.061  1.00  0.00    -0.011 C 
ATOM     17  C   UNL A   1      38.589  34.603  34.228  1.00  0.00     0.025 C 
ATOM     18  C   UNL A   1      38.848  34.543  31.707  1.00  0.00     0.028 C 
ATOM     19  C   UNL A   1      37.370  33.692  34.090  1.00  0.00     0.118 C 
ATOM     20  C   UNL A   1      37.590  33.662  31.586  1.00  0.00     0.081 C 
ATOM     21  C   UNL A   1      37.915  32.190  31.357  1.00  0.00     0.031 C 
ENDBRANCH   9  14
ENDBRANCH   5   8
ENDBRANCH   3   4
ENDBRANCH   2   3
ENDBRANCH   1   2
BRANCH   1  22
ATOM     22  C   UNL A   1      34.640  32.391  29.056  1.00  0.00     0.116 C 
BRANCH  22  23
ATOM     23  N   UNL A   1      34.055  31.235  28.390  1.00  0.00    -0.352 N 
ATOM     24  C   UNL A   1      34.665  30.062  28.017  1.00  0.00     0.251 C 
ATOM     25  H   UNL A   1      33.095  31.305  28.180  1.00  0.00     0.163 HD
ATOM     26  O   UNL A   1      34.050  29.213  27.379  1.00  0.00    -0.269 OA
BRANCH  24  27
ATOM     27  C   UNL A   1      36.088  29.851  28.351  1.00  0.00     0.039 A 
ATOM     28  C   UNL A   1      36.416  29.335  29.608  1.00  0.00     0.014 A 
ATOM     29  C   UNL A   1      37.087  30.114  27.411  1.00  0.00     0.014 A 
ATOM     30  C   UNL A   1      37.740  29.000  29.891  1.00  0.00     0.010 A 
ATOM     31  C   UNL A   1      38.396  29.720  27.671  1.00  0.00     0.010 A 
ATOM     32  C   UNL A   1      38.732  29.148  28.908  1.00  0.00    -0.014 A 
BRANCH  32  33
ATOM     33  C   UNL A   1      40.119  28.674  29.136  1.00  0.00     0.031 A 
ATOM     34  C   UNL A   1      41.159  29.604  29.689  1.00  0.00     0.074 A 
ATOM     35  C   UNL A   1      40.463  27.427  28.757  1.00  0.00     0.049 A 
ATOM     36  N   UNL A   1      42.437  29.392  29.882  1.00  0.00    -0.248 NA
ATOM     37  C   UNL A   1      40.711  30.959  30.046  1.00  0.00     0.031 C 
ATOM     38  C   UNL A   1      39.560  26.445  28.154  1.00  0.00     0.029 A 
ATOM     39  N   UNL A   1      41.673  26.782  28.806  1.00  0.00    -0.354 N 
ATOM     40  C   UNL A   1      42.948  30.590  30.364  1.00  0.00     0.074 A 
ATOM     41  C   UNL A   1      41.853  31.537  30.390  1.00  0.00     0.031 C 
ATOM     42  C   UNL A   1      40.245  25.317  27.900  1.00  0.00     0.029 A 
ATOM     43  C   UNL A   1      41.638  25.509  28.289  1.00  0.00     0.049 A 
ATOM     44  H   UNL A   1      42.488  27.191  29.176  1.00  0.00     0.167 HD
ATOM     45  C   UNL A   1      44.210  30.874  30.762  1.00  0.00     0.031 A 
ATOM     46  C   UNL A   1      42.619  24.602  28.133  1.00  0.00     0.031 A 
ATOM     47  C   UNL A   1      45.298  29.932  30.742  1.00  0.00     0.049 A 
ATOM     48  C   UNL A   1      44.012  24.937  28.584  1.00  0.00     0.074 A 
ATOM     49  C   UNL A   1      46.595  30.102  31.193  1.00  0.00     0.029 A 
ATOM     50  N   UNL A   1      45.216  28.644  30.234  1.00  0.00    -0.354 N 
ATOM     51  N   UNL A   1      44.461  26.046  29.116  1.00  0.00    -0.248 NA
ATOM     52  C   UNL A   1      45.030  23.889  28.421  1.00  0.00     0.031 C 
ATOM     53  C   UNL A   1      47.312  28.933  30.914  1.00  0.00     0.029 A 
ATOM     54  C   UNL A   1      46.447  28.018  30.335  1.00  0.00     0.049 A 
ATOM     55  H   UNL A   1      44.403  28.236  29.859  1.00  0.00     0.167 HD
ATOM     56  C   UNL A   1      45.809  25.827  29.367  1.00  0.00     0.074 A 
ATOM     57  C   UNL A   1      46.099  24.471  28.946  1.00  0.00     0.031 C 
ATOM     58  C   UNL A   1      46.723  26.673  29.899  1.00  0.00     0.031 A 
BRANCH  45  59
ATOM     59  C   UNL A   1      44.481  32.271  31.244  1.00  0.00    -0.014 A 
ATOM     60  C   UNL A   1      44.297  32.624  32.591  1.00  0.00     0.009 A 
ATOM     61  C   UNL A   1      44.936  33.245  30.343  1.00  0.00     0.009 A 
ATOM     62  C   UNL A   1      44.522  33.935  33.016  1.00  0.00     0.001 A 
ATOM     63  C   UNL A   1      45.188  34.548  30.777  1.00  0.00     0.001 A 
ATOM     64  C   UNL A   1      44.970  34.894  32.110  1.00  0.00     0.000 A 
ENDBRANCH  45  59
BRANCH  46  65
ATOM     65  C   UNL A   1      42.310  23.282  27.525  1.00  0.00    -0.014 A 
ATOM     66  C   UNL A   1      42.589  23.039  26.172  1.00  0.00     0.009 A 
ATOM     67  C   UNL A   1      41.752  22.255  28.300  1.00  0.00     0.009 A 
ATOM     68  C   UNL A   1      42.298  21.796  25.604  1.00  0.00     0.001 A 
ATOM     69  C   UNL A   1      41.486  21.006  27.736  1.00  0.00     0.001 A 
ATOM     70  C   UNL A   1      41.752  20.780  26.387  1.00  0.00     0.000 A 
ENDBRANCH  46  65
BRANCH  58  71
ATOM     71  C   UNL A   1      48.122  26.152  30.069  1.00  0.00    -0.014 A 
ATOM     72  C   UNL A   1      49.025  26.136  28.996  1.00  0.00     0.009 A 
ATOM     73  C   UNL A   1      48.553  25.712  31.330  1.00  0.00     0.009 A 
ATOM     74  C   UNL A   1      50.326  25.661  29.176  1.00  0.00     0.001 A 
ATOM     75  C   UNL A   1      49.862  25.261  31.514  1.00  0.00     0.001 A 
ATOM     76  C   UNL A   1      50.744  25.230  30.435  1.00  0.00     0.000 A 
ENDBRANCH  58  71
ENDBRANCH  32  33
ENDBRANCH  24  27
ENDBRANCH  22  23
ENDBRANCH   1  22
TORSDOF 12
ENDMDL
