MODEL 1
REMARK VINA RESULT:     -11.8      0.000      0.000
REMARK SMILES COc1ccc(C(=O)C2=C(NCCCCNC(=O)c3ccc(-c4c5nc(c(-c6ccccc6)c6ccc([nH]6)c(-c6ccccc6)c6nc(c(-c7ccccc7)c7ccc4[nH]7)C=C6)C=C5)cc3)C(=O)N(CC(=O)[O-])[C@H]2c2ccccc2)cc1
REMARK SMILES IDX 13 1 12 2 11 3 10 5 9 6 74 7 67 8 69 9 68 10 7 11 8 12 6 13
REMARK SMILES IDX 3 14 4 15 82 16 5 17 81 18 2 19 1 20 75 21 76 22 80 23 77 24
REMARK SMILES IDX 79 25 78 26 70 27 71 28 72 29 73 30 14 31 15 32 16 33 17 34
REMARK SMILES IDX 18 36 19 37 20 38 66 39 21 40 65 41 22 42 23 43 24 44 59 45
REMARK SMILES IDX 25 46 64 47 58 48 60 49 26 50 63 51 57 52 56 53 27 55 49 56
REMARK SMILES IDX 34 57 48 58 35 59 38 60 47 61 61 62 36 63 37 64 46 66 62 67
REMARK SMILES IDX 39 68 28 69 29 70 33 71 30 72 32 73 31 74 50 75 51 76 55 77
REMARK SMILES IDX 52 78 54 79 53 80 40 81 41 82 45 83 42 84 44 85 43 86
REMARK H PARENT 11 4 16 35 60 54 38 65
REMARK Flexibility Score: inf
ROOT
ATOM      1  C   UNL A   1      32.598  28.841  27.249  1.00  0.00     0.023 C 
ENDROOT
BRANCH   1   2
ATOM      2  C   UNL A   1      31.590  27.764  27.645  1.00  0.00     0.113 C 
BRANCH   2   3
ATOM      3  N   UNL A   1      31.109  27.075  26.472  1.00  0.00    -0.380 N 
ATOM      4  H   UNL A   1      30.139  27.140  26.315  1.00  0.00     0.160 HD
BRANCH   3   5
ATOM      5  C   UNL A   1      31.801  26.341  25.544  1.00  0.00     0.110 C 
ATOM      6  C   UNL A   1      32.160  25.059  25.390  1.00  0.00     0.056 C 
ATOM      7  C   UNL A   1      32.876  24.761  24.105  1.00  0.00     0.153 C 
ATOM      8  C   UNL A   1      32.300  27.019  24.298  1.00  0.00     0.271 C 
ATOM      9  N   UNL A   1      32.866  26.066  23.489  1.00  0.00    -0.320 N 
ATOM     10  O   UNL A   1      32.196  28.216  24.077  1.00  0.00    -0.267 OA
BRANCH   6  11
ATOM     11  C   UNL A   1      31.710  23.976  26.279  1.00  0.00     0.193 C 
ATOM     12  O   UNL A   1      30.921  24.232  27.185  1.00  0.00    -0.289 OA
BRANCH  11  13
ATOM     13  C   UNL A   1      32.197  22.579  26.073  1.00  0.00     0.023 A 
ATOM     14  C   UNL A   1      33.220  20.024  25.448  1.00  0.00     0.118 A 
ATOM     15  C   UNL A   1      32.131  20.544  24.746  1.00  0.00     0.047 A 
ATOM     16  C   UNL A   1      33.762  20.765  26.496  1.00  0.00     0.047 A 
ATOM     17  C   UNL A   1      31.626  21.815  25.049  1.00  0.00     0.016 A 
ATOM     18  C   UNL A   1      33.227  22.014  26.827  1.00  0.00     0.016 A 
BRANCH  14  19
ATOM     19  O   UNL A   1      33.665  18.806  25.017  1.00  0.00    -0.497 OA
ATOM     20  C   UNL A   1      32.719  17.981  24.347  1.00  0.00     0.278 C 
ENDBRANCH  14  19
ENDBRANCH  11  13
ENDBRANCH   6  11
BRANCH   7  21
ATOM     21  C   UNL A   1      34.296  24.250  24.301  1.00  0.00    -0.021 A 
ATOM     22  C   UNL A   1      35.098  24.692  25.374  1.00  0.00     0.006 A 
ATOM     23  C   UNL A   1      34.823  23.288  23.429  1.00  0.00     0.006 A 
ATOM     24  C   UNL A   1      36.370  24.164  25.587  1.00  0.00     0.000 A 
ATOM     25  C   UNL A   1      36.106  22.772  23.635  1.00  0.00     0.000 A 
ATOM     26  C   UNL A   1      36.872  23.201  24.718  1.00  0.00     0.000 A 
ENDBRANCH   7  21
BRANCH   9  27
ATOM     27  C   UNL A   1      33.449  26.360  22.187  1.00  0.00     0.173 C 
BRANCH  27  28
ATOM     28  C   UNL A   1      32.642  25.872  20.996  1.00  0.00     0.061 C 
ATOM     29  O   UNL A   1      33.075  25.161  20.100  1.00  0.00    -0.548 OA
ATOM     30  O   UNL A   1      31.334  26.194  21.024  1.00  0.00    -0.548 OA
ENDBRANCH  27  28
ENDBRANCH   9  27
ENDBRANCH   3   5
ENDBRANCH   2   3
ENDBRANCH   1   2
BRANCH   1  31
ATOM     31  C   UNL A   1      32.006  30.243  27.096  1.00  0.00     0.023 C 
BRANCH  31  32
ATOM     32  C   UNL A   1      33.028  31.360  26.917  1.00  0.00     0.116 C 
BRANCH  32  33
ATOM     33  N   UNL A   1      32.503  32.674  27.263  1.00  0.00    -0.352 N 
ATOM     34  C   UNL A   1      33.037  33.617  28.112  1.00  0.00     0.251 C 
ATOM     35  H   UNL A   1      31.653  32.922  26.834  1.00  0.00     0.163 HD
ATOM     36  O   UNL A   1      32.410  34.628  28.404  1.00  0.00    -0.269 OA
BRANCH  34  37
ATOM     37  C   UNL A   1      34.371  33.374  28.697  1.00  0.00     0.039 A 
ATOM     38  C   UNL A   1      34.466  32.728  29.931  1.00  0.00     0.014 A 
ATOM     39  C   UNL A   1      35.521  33.728  27.988  1.00  0.00     0.014 A 
ATOM     40  C   UNL A   1      35.722  32.355  30.416  1.00  0.00     0.010 A 
ATOM     41  C   UNL A   1      36.761  33.290  28.435  1.00  0.00     0.010 A 
ATOM     42  C   UNL A   1      36.874  32.591  29.650  1.00  0.00    -0.014 A 
BRANCH  42  43
ATOM     43  C   UNL A   1      38.217  32.119  30.077  1.00  0.00     0.031 A 
ATOM     44  C   UNL A   1      38.751  30.820  29.542  1.00  0.00     0.074 A 
ATOM     45  C   UNL A   1      38.900  32.796  31.023  1.00  0.00     0.049 A 
ATOM     46  N   UNL A   1      39.812  30.150  29.911  1.00  0.00    -0.248 NA
ATOM     47  C   UNL A   1      37.973  30.173  28.472  1.00  0.00     0.031 C 
ATOM     48  C   UNL A   1      38.478  34.051  31.647  1.00  0.00     0.029 A 
ATOM     49  N   UNL A   1      40.088  32.500  31.648  1.00  0.00    -0.354 N 
ATOM     50  C   UNL A   1      39.805  28.987  29.150  1.00  0.00     0.074 A 
ATOM     51  C   UNL A   1      38.623  29.028  28.319  1.00  0.00     0.031 C 
ATOM     52  C   UNL A   1      39.391  34.420  32.560  1.00  0.00     0.029 A 
ATOM     53  C   UNL A   1      40.436  33.403  32.626  1.00  0.00     0.049 A 
ATOM     54  H   UNL A   1      40.637  31.717  31.418  1.00  0.00     0.167 HD
ATOM     55  C   UNL A   1      40.710  27.982  29.137  1.00  0.00     0.031 A 
ATOM     56  C   UNL A   1      41.464  33.396  33.497  1.00  0.00     0.031 A 
ATOM     57  C   UNL A   1      41.903  27.957  29.939  1.00  0.00     0.049 A 
ATOM     58  C   UNL A   1      42.449  32.259  33.464  1.00  0.00     0.074 A 
ATOM     59  C   UNL A   1      42.920  27.019  29.935  1.00  0.00     0.029 A 
ATOM     60  N   UNL A   1      42.238  28.911  30.885  1.00  0.00    -0.354 N 
ATOM     61  N   UNL A   1      42.472  31.207  32.681  1.00  0.00    -0.248 NA
ATOM     62  C   UNL A   1      43.558  32.310  34.430  1.00  0.00     0.031 C 
ATOM     63  C   UNL A   1      43.842  27.374  30.922  1.00  0.00     0.029 A 
ATOM     64  C   UNL A   1      43.431  28.568  31.492  1.00  0.00     0.049 A 
ATOM     65  H   UNL A   1      41.705  29.712  31.094  1.00  0.00     0.167 HD
ATOM     66  C   UNL A   1      43.611  30.497  33.033  1.00  0.00     0.074 A 
ATOM     67  C   UNL A   1      44.262  31.239  34.092  1.00  0.00     0.031 C 
ATOM     68  C   UNL A   1      44.079  29.331  32.525  1.00  0.00     0.031 A 
BRANCH  55  69
ATOM     69  C   UNL A   1      40.448  26.807  28.236  1.00  0.00    -0.014 A 
ATOM     70  C   UNL A   1      39.644  25.735  28.649  1.00  0.00     0.009 A 
ATOM     71  C   UNL A   1      40.948  26.818  26.924  1.00  0.00     0.009 A 
ATOM     72  C   UNL A   1      39.364  24.685  27.772  1.00  0.00     0.001 A 
ATOM     73  C   UNL A   1      40.643  25.782  26.041  1.00  0.00     0.001 A 
ATOM     74  C   UNL A   1      39.856  24.713  26.467  1.00  0.00     0.000 A 
ENDBRANCH  55  69
BRANCH  56  75
ATOM     75  C   UNL A   1      41.613  34.486  34.500  1.00  0.00    -0.014 A 
ATOM     76  C   UNL A   1      41.012  34.383  35.765  1.00  0.00     0.009 A 
ATOM     77  C   UNL A   1      42.316  35.658  34.180  1.00  0.00     0.009 A 
ATOM     78  C   UNL A   1      41.073  35.446  36.669  1.00  0.00     0.001 A 
ATOM     79  C   UNL A   1      42.404  36.707  35.100  1.00  0.00     0.001 A 
ATOM     80  C   UNL A   1      41.769  36.607  36.337  1.00  0.00     0.000 A 
ENDBRANCH  56  75
BRANCH  68  81
ATOM     81  C   UNL A   1      45.386  28.812  33.054  1.00  0.00    -0.014 A 
ATOM     82  C   UNL A   1      45.437  27.907  34.125  1.00  0.00     0.009 A 
ATOM     83  C   UNL A   1      46.581  29.179  32.414  1.00  0.00     0.009 A 
ATOM     84  C   UNL A   1      46.662  27.397  34.558  1.00  0.00     0.001 A 
ATOM     85  C   UNL A   1      47.800  28.643  32.828  1.00  0.00     0.001 A 
ATOM     86  C   UNL A   1      47.841  27.759  33.904  1.00  0.00     0.000 A 
ENDBRANCH  68  81
ENDBRANCH  42  43
ENDBRANCH  34  37
ENDBRANCH  32  33
ENDBRANCH  31  32
ENDBRANCH   1  31
TORSDOF 17
ENDMDL
MODEL 2
REMARK VINA RESULT:     -11.7      3.112      8.532
REMARK SMILES COc1ccc(C(=O)C2=C(NCCCCNC(=O)c3ccc(-c4c5nc(c(-c6ccccc6)c6ccc([nH]6)c(-c6ccccc6)c6nc(c(-c7ccccc7)c7ccc4[nH]7)C=C6)C=C5)cc3)C(=O)N(CC(=O)[O-])[C@H]2c2ccccc2)cc1
REMARK SMILES IDX 13 1 12 2 11 3 10 5 9 6 74 7 67 8 69 9 68 10 7 11 8 12 6 13
REMARK SMILES IDX 3 14 4 15 82 16 5 17 81 18 2 19 1 20 75 21 76 22 80 23 77 24
REMARK SMILES IDX 79 25 78 26 70 27 71 28 72 29 73 30 14 31 15 32 16 33 17 34
REMARK SMILES IDX 18 36 19 37 20 38 66 39 21 40 65 41 22 42 23 43 24 44 59 45
REMARK SMILES IDX 25 46 64 47 58 48 60 49 26 50 63 51 57 52 56 53 27 55 49 56
REMARK SMILES IDX 34 57 48 58 35 59 38 60 47 61 61 62 36 63 37 64 46 66 62 67
REMARK SMILES IDX 39 68 28 69 29 70 33 71 30 72 32 73 31 74 50 75 51 76 55 77
REMARK SMILES IDX 52 78 54 79 53 80 40 81 41 82 45 83 42 84 44 85 43 86
REMARK H PARENT 11 4 16 35 60 54 38 65
REMARK Flexibility Score: inf
ROOT
ATOM      1  C   UNL A   1      36.841  22.821  24.419  1.00  0.00     0.023 C 
ENDROOT
BRANCH   1   2
ATOM      2  C   UNL A   1      36.205  23.087  23.055  1.00  0.00     0.113 C 
BRANCH   2   3
ATOM      3  N   UNL A   1      34.775  22.909  23.127  1.00  0.00    -0.380 N 
ATOM      4  H   UNL A   1      34.410  22.208  22.541  1.00  0.00     0.160 HD
BRANCH   3   5
ATOM      5  C   UNL A   1      33.849  23.572  23.891  1.00  0.00     0.110 C 
ATOM      6  C   UNL A   1      33.132  24.699  23.787  1.00  0.00     0.056 C 
ATOM      7  C   UNL A   1      32.172  24.934  24.916  1.00  0.00     0.153 C 
ATOM      8  C   UNL A   1      33.391  22.957  25.185  1.00  0.00     0.271 C 
ATOM      9  N   UNL A   1      32.402  23.750  25.708  1.00  0.00    -0.320 N 
ATOM     10  O   UNL A   1      33.843  21.924  25.654  1.00  0.00    -0.267 OA
BRANCH   6  11
ATOM     11  C   UNL A   1      33.103  25.535  22.576  1.00  0.00     0.193 C 
ATOM     12  O   UNL A   1      33.721  25.170  21.579  1.00  0.00    -0.289 OA
BRANCH  11  13
ATOM     13  C   UNL A   1      32.320  26.807  22.556  1.00  0.00     0.023 A 
ATOM     14  C   UNL A   1      30.729  29.130  22.753  1.00  0.00     0.118 A 
ATOM     15  C   UNL A   1      30.146  27.892  22.474  1.00  0.00     0.047 A 
ATOM     16  C   UNL A   1      32.113  29.209  22.884  1.00  0.00     0.047 A 
ATOM     17  C   UNL A   1      30.932  26.736  22.383  1.00  0.00     0.016 A 
ATOM     18  C   UNL A   1      32.902  28.062  22.747  1.00  0.00     0.016 A 
BRANCH  14  19
ATOM     19  O   UNL A   1      29.854  30.171  22.885  1.00  0.00    -0.497 OA
ATOM     20  C   UNL A   1      28.469  29.845  22.880  1.00  0.00     0.278 C 
ENDBRANCH  14  19
ENDBRANCH  11  13
ENDBRANCH   6  11
BRANCH   7  21
ATOM     21  C   UNL A   1      32.462  26.199  25.710  1.00  0.00    -0.021 A 
ATOM     22  C   UNL A   1      33.783  26.640  25.939  1.00  0.00     0.006 A 
ATOM     23  C   UNL A   1      31.406  26.980  26.200  1.00  0.00     0.006 A 
ATOM     24  C   UNL A   1      34.036  27.839  26.605  1.00  0.00     0.000 A 
ATOM     25  C   UNL A   1      31.664  28.172  26.882  1.00  0.00     0.000 A 
ATOM     26  C   UNL A   1      32.974  28.605  27.074  1.00  0.00     0.000 A 
ENDBRANCH   7  21
BRANCH   9  27
ATOM     27  C   UNL A   1      31.714  23.457  26.958  1.00  0.00     0.173 C 
BRANCH  27  28
ATOM     28  C   UNL A   1      30.356  22.793  26.805  1.00  0.00     0.061 C 
ATOM     29  O   UNL A   1      30.096  21.904  26.007  1.00  0.00    -0.548 OA
ATOM     30  O   UNL A   1      29.429  23.180  27.702  1.00  0.00    -0.548 OA
ENDBRANCH  27  28
ENDBRANCH   9  27
ENDBRANCH   3   5
ENDBRANCH   2   3
ENDBRANCH   1   2
BRANCH   1  31
ATOM     31  C   UNL A   1      37.452  21.428  24.576  1.00  0.00     0.023 C 
BRANCH  31  32
ATOM     32  C   UNL A   1      38.381  21.262  25.773  1.00  0.00     0.116 C 
BRANCH  32  33
ATOM     33  N   UNL A   1      39.273  20.116  25.649  1.00  0.00    -0.352 N 
ATOM     34  C   UNL A   1      40.618  20.039  25.928  1.00  0.00     0.251 C 
ATOM     35  H   UNL A   1      38.858  19.286  25.321  1.00  0.00     0.163 HD
ATOM     36  O   UNL A   1      41.262  19.036  25.648  1.00  0.00    -0.269 OA
BRANCH  34  37
ATOM     37  C   UNL A   1      41.286  21.204  26.542  1.00  0.00     0.039 A 
ATOM     38  C   UNL A   1      41.853  22.178  25.717  1.00  0.00     0.014 A 
ATOM     39  C   UNL A   1      41.287  21.359  27.930  1.00  0.00     0.014 A 
ATOM     40  C   UNL A   1      42.346  23.356  26.283  1.00  0.00     0.010 A 
ATOM     41  C   UNL A   1      41.708  22.563  28.482  1.00  0.00     0.010 A 
ATOM     42  C   UNL A   1      42.233  23.577  27.664  1.00  0.00    -0.014 A 
BRANCH  42  43
ATOM     43  C   UNL A   1      42.648  24.857  28.295  1.00  0.00     0.031 A 
ATOM     44  C   UNL A   1      41.624  25.930  28.539  1.00  0.00     0.074 A 
ATOM     45  C   UNL A   1      43.953  25.096  28.542  1.00  0.00     0.049 A 
ATOM     46  N   UNL A   1      41.801  27.170  28.916  1.00  0.00    -0.248 NA
ATOM     47  C   UNL A   1      40.217  25.571  28.296  1.00  0.00     0.031 C 
ATOM     48  C   UNL A   1      45.050  24.152  28.321  1.00  0.00     0.029 A 
ATOM     49  N   UNL A   1      44.580  26.226  29.009  1.00  0.00    -0.354 N 
ATOM     50  C   UNL A   1      40.537  27.746  28.916  1.00  0.00     0.074 A 
ATOM     51  C   UNL A   1      39.606  26.733  28.475  1.00  0.00     0.031 C 
ATOM     52  C   UNL A   1      46.212  24.739  28.654  1.00  0.00     0.029 A 
ATOM     53  C   UNL A   1      45.949  26.116  29.062  1.00  0.00     0.049 A 
ATOM     54  H   UNL A   1      44.094  27.038  29.279  1.00  0.00     0.167 HD
ATOM     55  C   UNL A   1      40.184  29.006  29.263  1.00  0.00     0.031 A 
ATOM     56  C   UNL A   1      46.890  27.028  29.374  1.00  0.00     0.031 A 
ATOM     57  C   UNL A   1      41.106  30.003  29.733  1.00  0.00     0.049 A 
ATOM     58  C   UNL A   1      46.466  28.423  29.748  1.00  0.00     0.074 A 
ATOM     59  C   UNL A   1      40.830  31.282  30.185  1.00  0.00     0.029 A 
ATOM     60  N   UNL A   1      42.479  29.835  29.811  1.00  0.00    -0.354 N 
ATOM     61  N   UNL A   1      45.258  28.929  29.821  1.00  0.00    -0.248 NA
ATOM     62  C   UNL A   1      47.535  29.375  30.091  1.00  0.00     0.031 C 
ATOM     63  C   UNL A   1      42.042  31.909  30.480  1.00  0.00     0.029 A 
ATOM     64  C   UNL A   1      43.065  30.998  30.275  1.00  0.00     0.049 A 
ATOM     65  H   UNL A   1      42.963  29.013  29.571  1.00  0.00     0.167 HD
ATOM     66  C   UNL A   1      45.421  30.238  30.253  1.00  0.00     0.074 A 
ATOM     67  C   UNL A   1      46.841  30.449  30.438  1.00  0.00     0.031 C 
ATOM     68  C   UNL A   1      44.477  31.184  30.478  1.00  0.00     0.031 A 
BRANCH  55  69
ATOM     69  C   UNL A   1      38.737  29.392  29.139  1.00  0.00    -0.014 A 
ATOM     70  C   UNL A   1      38.194  29.806  27.914  1.00  0.00     0.009 A 
ATOM     71  C   UNL A   1      37.889  29.259  30.251  1.00  0.00     0.009 A 
ATOM     72  C   UNL A   1      36.833  30.101  27.810  1.00  0.00     0.001 A 
ATOM     73  C   UNL A   1      36.524  29.527  30.137  1.00  0.00     0.001 A 
ATOM     74  C   UNL A   1      35.998  29.953  28.918  1.00  0.00     0.000 A 
ENDBRANCH  55  69
BRANCH  56  75
ATOM     75  C   UNL A   1      48.335  26.673  29.327  1.00  0.00    -0.014 A 
ATOM     76  C   UNL A   1      49.084  26.875  28.157  1.00  0.00     0.009 A 
ATOM     77  C   UNL A   1      48.962  26.085  30.437  1.00  0.00     0.009 A 
ATOM     78  C   UNL A   1      50.414  26.453  28.083  1.00  0.00     0.001 A 
ATOM     79  C   UNL A   1      50.302  25.695  30.372  1.00  0.00     0.001 A 
ATOM     80  C   UNL A   1      51.023  25.865  29.191  1.00  0.00     0.000 A 
ENDBRANCH  56  75
BRANCH  68  81
ATOM     81  C   UNL A   1      44.932  32.513  31.010  1.00  0.00    -0.014 A 
ATOM     82  C   UNL A   1      45.128  33.614  30.163  1.00  0.00     0.009 A 
ATOM     83  C   UNL A   1      45.090  32.682  32.395  1.00  0.00     0.009 A 
ATOM     84  C   UNL A   1      45.495  34.852  30.692  1.00  0.00     0.001 A 
ATOM     85  C   UNL A   1      45.426  33.928  32.924  1.00  0.00     0.001 A 
ATOM     86  C   UNL A   1      45.635  35.010  32.072  1.00  0.00     0.000 A 
ENDBRANCH  68  81
ENDBRANCH  42  43
ENDBRANCH  34  37
ENDBRANCH  32  33
ENDBRANCH  31  32
ENDBRANCH   1  31
TORSDOF 17
ENDMDL
MODEL 3
REMARK VINA RESULT:     -11.4      0.682      5.677
REMARK SMILES COc1ccc(C(=O)C2=C(NCCCCNC(=O)c3ccc(-c4c5nc(c(-c6ccccc6)c6ccc([nH]6)c(-c6ccccc6)c6nc(c(-c7ccccc7)c7ccc4[nH]7)C=C6)C=C5)cc3)C(=O)N(CC(=O)[O-])[C@H]2c2ccccc2)cc1
REMARK SMILES IDX 13 1 12 2 11 3 10 5 9 6 74 7 67 8 69 9 68 10 7 11 8 12 6 13
REMARK SMILES IDX 3 14 4 15 82 16 5 17 81 18 2 19 1 20 75 21 76 22 80 23 77 24
REMARK SMILES IDX 79 25 78 26 70 27 71 28 72 29 73 30 14 31 15 32 16 33 17 34
REMARK SMILES IDX 18 36 19 37 20 38 66 39 21 40 65 41 22 42 23 43 24 44 59 45
REMARK SMILES IDX 25 46 64 47 58 48 60 49 26 50 63 51 57 52 56 53 27 55 49 56
REMARK SMILES IDX 34 57 48 58 35 59 38 60 47 61 61 62 36 63 37 64 46 66 62 67
REMARK SMILES IDX 39 68 28 69 29 70 33 71 30 72 32 73 31 74 50 75 51 76 55 77
REMARK SMILES IDX 52 78 54 79 53 80 40 81 41 82 45 83 42 84 44 85 43 86
REMARK H PARENT 11 4 16 35 60 54 38 65
REMARK Flexibility Score: inf
ROOT
ATOM      1  C   UNL A   1      32.699  28.991  27.182  1.00  0.00     0.023 C 
ENDROOT
BRANCH   1   2
ATOM      2  C   UNL A   1      31.721  27.870  27.531  1.00  0.00     0.113 C 
BRANCH   2   3
ATOM      3  N   UNL A   1      31.242  27.233  26.328  1.00  0.00    -0.380 N 
ATOM      4  H   UNL A   1      30.290  27.378  26.127  1.00  0.00     0.160 HD
BRANCH   3   5
ATOM      5  C   UNL A   1      31.917  26.453  25.424  1.00  0.00     0.110 C 
ATOM      6  C   UNL A   1      32.261  25.162  25.320  1.00  0.00     0.056 C 
ATOM      7  C   UNL A   1      32.960  24.803  24.042  1.00  0.00     0.153 C 
ATOM      8  C   UNL A   1      32.409  27.074  24.146  1.00  0.00     0.271 C 
ATOM      9  N   UNL A   1      32.957  26.081  23.372  1.00  0.00    -0.320 N 
ATOM     10  O   UNL A   1      32.315  28.261  23.876  1.00  0.00    -0.267 OA
BRANCH   6  11
ATOM     11  C   UNL A   1      31.810  24.123  26.259  1.00  0.00     0.193 C 
ATOM     12  O   UNL A   1      31.061  24.432  27.182  1.00  0.00    -0.289 OA
BRANCH  11  13
ATOM     13  C   UNL A   1      32.247  22.706  26.082  1.00  0.00     0.023 A 
ATOM     14  C   UNL A   1      33.179  20.104  25.511  1.00  0.00     0.118 A 
ATOM     15  C   UNL A   1      32.112  20.648  24.795  1.00  0.00     0.047 A 
ATOM     16  C   UNL A   1      33.745  20.844  26.545  1.00  0.00     0.047 A 
ATOM     17  C   UNL A   1      31.651  21.942  25.071  1.00  0.00     0.016 A 
ATOM     18  C   UNL A   1      33.255  22.119  26.851  1.00  0.00     0.016 A 
BRANCH  14  19
ATOM     19  O   UNL A   1      33.581  18.862  25.105  1.00  0.00    -0.497 OA
ATOM     20  C   UNL A   1      32.724  17.775  25.431  1.00  0.00     0.278 C 
ENDBRANCH  14  19
ENDBRANCH  11  13
ENDBRANCH   6  11
BRANCH   7  21
ATOM     21  C   UNL A   1      34.377  24.286  24.244  1.00  0.00    -0.021 A 
ATOM     22  C   UNL A   1      35.173  24.720  25.325  1.00  0.00     0.006 A 
ATOM     23  C   UNL A   1      34.906  23.326  23.371  1.00  0.00     0.006 A 
ATOM     24  C   UNL A   1      36.442  24.185  25.543  1.00  0.00     0.000 A 
ATOM     25  C   UNL A   1      36.185  22.805  23.582  1.00  0.00     0.000 A 
ATOM     26  C   UNL A   1      36.946  23.225  24.672  1.00  0.00     0.000 A 
ENDBRANCH   7  21
BRANCH   9  27
ATOM     27  C   UNL A   1      33.528  26.315  22.053  1.00  0.00     0.173 C 
BRANCH  27  28
ATOM     28  C   UNL A   1      32.644  25.904  20.887  1.00  0.00     0.061 C 
ATOM     29  O   UNL A   1      33.031  25.311  19.889  1.00  0.00    -0.548 OA
ATOM     30  O   UNL A   1      31.330  26.148  21.055  1.00  0.00    -0.548 OA
ENDBRANCH  27  28
ENDBRANCH   9  27
ENDBRANCH   3   5
ENDBRANCH   2   3
ENDBRANCH   1   2
BRANCH   1  31
ATOM     31  C   UNL A   1      32.097  30.397  27.218  1.00  0.00     0.023 C 
BRANCH  31  32
ATOM     32  C   UNL A   1      33.044  31.516  26.802  1.00  0.00     0.116 C 
BRANCH  32  33
ATOM     33  N   UNL A   1      32.594  32.834  27.230  1.00  0.00    -0.352 N 
ATOM     34  C   UNL A   1      33.174  33.686  28.142  1.00  0.00     0.251 C 
ATOM     35  H   UNL A   1      31.763  33.158  26.813  1.00  0.00     0.163 HD
ATOM     36  O   UNL A   1      32.603  34.711  28.496  1.00  0.00    -0.269 OA
BRANCH  34  37
ATOM     37  C   UNL A   1      34.486  33.329  28.717  1.00  0.00     0.039 A 
ATOM     38  C   UNL A   1      34.534  32.673  29.949  1.00  0.00     0.014 A 
ATOM     39  C   UNL A   1      35.657  33.585  28.001  1.00  0.00     0.014 A 
ATOM     40  C   UNL A   1      35.756  32.192  30.424  1.00  0.00     0.010 A 
ATOM     41  C   UNL A   1      36.858  33.041  28.439  1.00  0.00     0.010 A 
ATOM     42  C   UNL A   1      36.919  32.331  29.651  1.00  0.00    -0.014 A 
BRANCH  42  43
ATOM     43  C   UNL A   1      38.219  31.746  30.067  1.00  0.00     0.031 A 
ATOM     44  C   UNL A   1      39.152  32.549  30.930  1.00  0.00     0.074 A 
ATOM     45  C   UNL A   1      38.607  30.549  29.581  1.00  0.00     0.049 A 
ATOM     46  N   UNL A   1      40.392  32.298  31.262  1.00  0.00    -0.248 NA
ATOM     47  C   UNL A   1      38.632  33.820  31.464  1.00  0.00     0.031 C 
ATOM     48  C   UNL A   1      37.810  29.683  28.710  1.00  0.00     0.029 A 
ATOM     49  N   UNL A   1      39.790  29.866  29.732  1.00  0.00    -0.354 N 
ATOM     50  C   UNL A   1      40.811  33.394  32.006  1.00  0.00     0.074 A 
ATOM     51  C   UNL A   1      39.706  34.324  32.056  1.00  0.00     0.031 C 
ATOM     52  C   UNL A   1      38.523  28.586  28.406  1.00  0.00     0.029 A 
ATOM     53  C   UNL A   1      39.845  28.692  29.016  1.00  0.00     0.049 A 
ATOM     54  H   UNL A   1      40.529  30.186  30.297  1.00  0.00     0.167 HD
ATOM     55  C   UNL A   1      42.007  33.600  32.605  1.00  0.00     0.031 A 
ATOM     56  C   UNL A   1      40.855  27.817  28.846  1.00  0.00     0.031 A 
ATOM     57  C   UNL A   1      43.094  32.660  32.584  1.00  0.00     0.049 A 
ATOM     58  C   UNL A   1      42.176  28.079  29.518  1.00  0.00     0.074 A 
ATOM     59  C   UNL A   1      44.315  32.746  33.230  1.00  0.00     0.029 A 
ATOM     60  N   UNL A   1      43.091  31.466  31.882  1.00  0.00    -0.354 N 
ATOM     61  N   UNL A   1      42.529  29.081  30.286  1.00  0.00    -0.248 NA
ATOM     62  C   UNL A   1      43.239  27.084  29.307  1.00  0.00     0.031 C 
ATOM     63  C   UNL A   1      45.075  31.631  32.870  1.00  0.00     0.029 A 
ATOM     64  C   UNL A   1      44.302  30.821  32.055  1.00  0.00     0.049 A 
ATOM     65  H   UNL A   1      42.342  31.128  31.342  1.00  0.00     0.167 HD
ATOM     66  C   UNL A   1      43.834  28.817  30.678  1.00  0.00     0.074 A 
ATOM     67  C   UNL A   1      44.210  27.557  30.074  1.00  0.00     0.031 C 
ATOM     68  C   UNL A   1      44.651  29.554  31.469  1.00  0.00     0.031 A 
BRANCH  55  69
ATOM     69  C   UNL A   1      42.218  34.900  33.330  1.00  0.00    -0.014 A 
ATOM     70  C   UNL A   1      41.756  35.088  34.641  1.00  0.00     0.009 A 
ATOM     71  C   UNL A   1      42.964  35.919  32.716  1.00  0.00     0.009 A 
ATOM     72  C   UNL A   1      42.019  36.282  35.315  1.00  0.00     0.001 A 
ATOM     73  C   UNL A   1      43.249  37.099  33.403  1.00  0.00     0.001 A 
ATOM     74  C   UNL A   1      42.772  37.283  34.700  1.00  0.00     0.000 A 
ENDBRANCH  55  69
BRANCH  56  75
ATOM     75  C   UNL A   1      40.679  26.616  27.983  1.00  0.00    -0.014 A 
ATOM     76  C   UNL A   1      40.117  25.438  28.502  1.00  0.00     0.009 A 
ATOM     77  C   UNL A   1      41.119  26.625  26.651  1.00  0.00     0.009 A 
ATOM     78  C   UNL A   1      40.041  24.284  27.719  1.00  0.00     0.001 A 
ATOM     79  C   UNL A   1      41.011  25.478  25.860  1.00  0.00     0.001 A 
ATOM     80  C   UNL A   1      40.487  24.304  26.398  1.00  0.00     0.000 A 
ENDBRANCH  56  75
BRANCH  68  81
ATOM     81  C   UNL A   1      46.009  28.995  31.786  1.00  0.00    -0.014 A 
ATOM     82  C   UNL A   1      47.137  29.329  31.022  1.00  0.00     0.009 A 
ATOM     83  C   UNL A   1      46.170  28.180  32.919  1.00  0.00     0.009 A 
ATOM     84  C   UNL A   1      48.396  28.840  31.374  1.00  0.00     0.001 A 
ATOM     85  C   UNL A   1      47.434  27.719  33.286  1.00  0.00     0.001 A 
ATOM     86  C   UNL A   1      48.545  28.043  32.510  1.00  0.00     0.000 A 
ENDBRANCH  68  81
ENDBRANCH  42  43
ENDBRANCH  34  37
ENDBRANCH  32  33
ENDBRANCH  31  32
ENDBRANCH   1  31
TORSDOF 17
ENDMDL
