MODEL 1
REMARK VINA RESULT:     -11.3      0.000      0.000
REMARK SMILES C[NH2+][C@@]1(C(=O)NCCCCNC(=O)c2ccc(-c3c4nc(c(-c5ccccc5)c5ccc([nH]5)c(-c5ccccc5)c5nc(c(-c6ccccc6)c6ccc3[nH]6)C=C5)C=C4)cc2)CC[C@H](Sc2nccc(=O)[nH]2)C1
REMARK SMILES IDX 8 1 7 2 6 3 4 4 5 5 3 7 62 8 73 9 63 10 64 11 2 12 1 13
REMARK SMILES IDX 65 16 66 17 67 18 72 19 68 20 70 21 69 23 71 24 9 25 10 26
REMARK SMILES IDX 11 27 12 28 13 30 14 31 15 32 61 33 16 34 60 35 17 36 18 37
REMARK SMILES IDX 19 38 54 39 20 40 59 41 53 42 55 43 21 44 58 45 52 46 51 47
REMARK SMILES IDX 22 49 44 50 29 51 43 52 30 53 33 54 42 55 56 56 31 57 32 58
REMARK SMILES IDX 41 60 57 61 34 62 23 63 24 64 28 65 25 66 27 67 26 68 45 69
REMARK SMILES IDX 46 70 50 71 47 72 49 73 48 74 35 75 36 76 40 77 37 78 39 79
REMARK SMILES IDX 38 80
REMARK H PARENT 6 6 2 14 2 15 72 22 11 29 55 48 33 59
REMARK Flexibility Score: inf
ROOT
ATOM      1  C   UNL A   1      36.697  22.747  24.576  1.00  0.00     0.023 C 
ENDROOT
BRANCH   1   2
ATOM      2  C   UNL A   1      36.060  23.347  25.822  1.00  0.00     0.116 C 
BRANCH   2   3
ATOM      3  N   UNL A   1      35.261  24.518  25.573  1.00  0.00    -0.351 N 
ATOM      4  C   UNL A   1      33.937  24.756  25.798  1.00  0.00     0.281 C 
ATOM      5  O   UNL A   1      33.546  25.901  25.525  1.00  0.00    -0.268 OA
ATOM      6  H   UNL A   1      35.750  25.274  25.175  1.00  0.00     0.163 HD
BRANCH   4   7
ATOM      7  C   UNL A   1      32.911  23.677  26.355  1.00  0.00     0.176 C 
ATOM      8  C   UNL A   1      33.591  22.681  27.321  1.00  0.00     0.080 C 
ATOM      9  C   UNL A   1      32.308  22.817  25.224  1.00  0.00     0.094 C 
ATOM     10  C   UNL A   1      33.655  21.320  26.627  1.00  0.00     0.022 C 
ATOM     11  C   UNL A   1      32.523  21.341  25.605  1.00  0.00     0.062 C 
BRANCH   7  12
ATOM     12  N   UNL A   1      31.754  24.458  26.897  1.00  0.00    -0.336 N 
ATOM     13  C   UNL A   1      30.488  24.364  26.192  1.00  0.00     0.331 C 
ATOM     14  H   UNL A   1      31.594  24.140  27.853  1.00  0.00     0.346 HD
ATOM     15  H   UNL A   1      32.032  25.434  26.801  1.00  0.00     0.346 HD
ENDBRANCH   7  12
BRANCH  11  16
ATOM     16  S   UNL A   1      32.586  20.367  24.067  1.00  0.00    -0.084 SA
BRANCH  16  17
ATOM     17  C   UNL A   1      32.800  18.706  24.490  1.00  0.00     0.168 A 
ATOM     18  N   UNL A   1      32.324  18.155  25.554  1.00  0.00    -0.233 NA
ATOM     19  N   UNL A   1      33.493  18.036  23.527  1.00  0.00    -0.301 N 
ATOM     20  C   UNL A   1      32.544  16.806  25.684  1.00  0.00     0.120 A 
ATOM     21  C   UNL A   1      33.714  16.692  23.590  1.00  0.00     0.251 A 
ATOM     22  H   UNL A   1      33.846  18.539  22.759  1.00  0.00     0.172 HD
ATOM     23  C   UNL A   1      33.184  16.039  24.794  1.00  0.00     0.091 A 
ATOM     24  O   UNL A   1      34.299  16.075  22.709  1.00  0.00    -0.269 OA
ENDBRANCH  16  17
ENDBRANCH  11  16
ENDBRANCH   4   7
ENDBRANCH   2   3
ENDBRANCH   1   2
BRANCH   1  25
ATOM     25  C   UNL A   1      37.326  21.376  24.763  1.00  0.00     0.023 C 
BRANCH  25  26
ATOM     26  C   UNL A   1      38.553  21.324  25.666  1.00  0.00     0.116 C 
BRANCH  26  27
ATOM     27  N   UNL A   1      39.368  20.124  25.537  1.00  0.00    -0.352 N 
ATOM     28  C   UNL A   1      40.673  19.925  25.959  1.00  0.00     0.251 C 
ATOM     29  H   UNL A   1      38.937  19.358  25.094  1.00  0.00     0.163 HD
ATOM     30  O   UNL A   1      41.224  18.847  25.843  1.00  0.00    -0.269 OA
BRANCH  28  31
ATOM     31  C   UNL A   1      41.389  21.074  26.544  1.00  0.00     0.039 A 
ATOM     32  C   UNL A   1      41.936  22.037  25.697  1.00  0.00     0.014 A 
ATOM     33  C   UNL A   1      41.397  21.241  27.928  1.00  0.00     0.014 A 
ATOM     34  C   UNL A   1      42.418  23.230  26.244  1.00  0.00     0.010 A 
ATOM     35  C   UNL A   1      41.787  22.462  28.458  1.00  0.00     0.010 A 
ATOM     36  C   UNL A   1      42.299  23.470  27.623  1.00  0.00    -0.014 A 
BRANCH  36  37
ATOM     37  C   UNL A   1      42.705  24.757  28.238  1.00  0.00     0.031 A 
ATOM     38  C   UNL A   1      41.667  25.817  28.479  1.00  0.00     0.074 A 
ATOM     39  C   UNL A   1      44.007  25.018  28.470  1.00  0.00     0.049 A 
ATOM     40  N   UNL A   1      41.824  27.064  28.842  1.00  0.00    -0.248 NA
ATOM     41  C   UNL A   1      40.267  25.435  28.231  1.00  0.00     0.031 C 
ATOM     42  C   UNL A   1      45.120  24.095  28.234  1.00  0.00     0.029 A 
ATOM     43  N   UNL A   1      44.615  26.155  28.942  1.00  0.00    -0.354 N 
ATOM     44  C   UNL A   1      40.553  27.622  28.820  1.00  0.00     0.074 A 
ATOM     45  C   UNL A   1      39.644  26.595  28.364  1.00  0.00     0.031 C 
ATOM     46  C   UNL A   1      46.270  24.693  28.586  1.00  0.00     0.029 A 
ATOM     47  C   UNL A   1      45.983  26.053  29.030  1.00  0.00     0.049 A 
ATOM     48  H   UNL A   1      44.118  26.966  29.195  1.00  0.00     0.167 HD
ATOM     49  C   UNL A   1      40.171  28.873  29.169  1.00  0.00     0.031 A 
ATOM     50  C   UNL A   1      46.901  26.958  29.416  1.00  0.00     0.031 A 
ATOM     51  C   UNL A   1      41.068  29.879  29.667  1.00  0.00     0.049 A 
ATOM     52  C   UNL A   1      46.449  28.330  29.835  1.00  0.00     0.074 A 
ATOM     53  C   UNL A   1      40.771  31.151  30.121  1.00  0.00     0.029 A 
ATOM     54  N   UNL A   1      42.439  29.718  29.787  1.00  0.00    -0.354 N 
ATOM     55  N   UNL A   1      45.236  28.827  29.861  1.00  0.00    -0.248 NA
ATOM     56  C   UNL A   1      47.494  29.262  30.285  1.00  0.00     0.031 C 
ATOM     57  C   UNL A   1      41.970  31.774  30.484  1.00  0.00     0.029 A 
ATOM     58  C   UNL A   1      43.005  30.872  30.298  1.00  0.00     0.049 A 
ATOM     59  H   UNL A   1      42.937  28.903  29.544  1.00  0.00     0.167 HD
ATOM     60  C   UNL A   1      45.367  30.118  30.356  1.00  0.00     0.074 A 
ATOM     61  C   UNL A   1      46.776  30.323  30.629  1.00  0.00     0.031 C 
ATOM     62  C   UNL A   1      44.408  31.051  30.566  1.00  0.00     0.031 A 
BRANCH  49  63
ATOM     63  C   UNL A   1      38.716  29.214  29.021  1.00  0.00    -0.014 A 
ATOM     64  C   UNL A   1      37.826  29.093  30.101  1.00  0.00     0.009 A 
ATOM     65  C   UNL A   1      38.228  29.673  27.787  1.00  0.00     0.009 A 
ATOM     66  C   UNL A   1      36.469  29.383  29.936  1.00  0.00     0.001 A 
ATOM     67  C   UNL A   1      36.877  29.991  27.635  1.00  0.00     0.001 A 
ATOM     68  C   UNL A   1      35.998  29.834  28.705  1.00  0.00     0.000 A 
ENDBRANCH  49  63
BRANCH  50  69
ATOM     69  C   UNL A   1      48.341  26.593  29.452  1.00  0.00    -0.014 A 
ATOM     70  C   UNL A   1      48.899  26.029  30.610  1.00  0.00     0.009 A 
ATOM     71  C   UNL A   1      49.165  26.806  28.335  1.00  0.00     0.009 A 
ATOM     72  C   UNL A   1      50.258  25.710  30.659  1.00  0.00     0.001 A 
ATOM     73  C   UNL A   1      50.518  26.462  28.379  1.00  0.00     0.001 A 
ATOM     74  C   UNL A   1      51.066  25.922  29.542  1.00  0.00     0.000 A 
ENDBRANCH  50  69
BRANCH  62  75
ATOM     75  C   UNL A   1      44.843  32.363  31.152  1.00  0.00    -0.014 A 
ATOM     76  C   UNL A   1      45.143  33.462  30.333  1.00  0.00     0.009 A 
ATOM     77  C   UNL A   1      44.908  32.512  32.547  1.00  0.00     0.009 A 
ATOM     78  C   UNL A   1      45.526  34.679  30.901  1.00  0.00     0.001 A 
ATOM     79  C   UNL A   1      45.267  33.736  33.110  1.00  0.00     0.001 A 
ATOM     80  C   UNL A   1      45.584  34.816  32.288  1.00  0.00     0.000 A 
ENDBRANCH  62  75
ENDBRANCH  36  37
ENDBRANCH  28  31
ENDBRANCH  26  27
ENDBRANCH  25  26
ENDBRANCH   1  25
TORSDOF 14
ENDMDL
MODEL 2
REMARK VINA RESULT:     -11.2      4.365      9.505
REMARK SMILES C[NH2+][C@@]1(C(=O)NCCCCNC(=O)c2ccc(-c3c4nc(c(-c5ccccc5)c5ccc([nH]5)c(-c5ccccc5)c5nc(c(-c6ccccc6)c6ccc3[nH]6)C=C5)C=C4)cc2)CC[C@H](Sc2nccc(=O)[nH]2)C1
REMARK SMILES IDX 8 1 7 2 6 3 4 4 5 5 3 7 62 8 73 9 63 10 64 11 2 12 1 13
REMARK SMILES IDX 65 16 66 17 67 18 72 19 68 20 70 21 69 23 71 24 9 25 10 26
REMARK SMILES IDX 11 27 12 28 13 30 14 31 15 32 61 33 16 34 60 35 17 36 18 37
REMARK SMILES IDX 19 38 54 39 20 40 59 41 53 42 55 43 21 44 58 45 52 46 51 47
REMARK SMILES IDX 22 49 44 50 29 51 43 52 30 53 33 54 42 55 56 56 31 57 32 58
REMARK SMILES IDX 41 60 57 61 34 62 23 63 24 64 28 65 25 66 27 67 26 68 45 69
REMARK SMILES IDX 46 70 50 71 47 72 49 73 48 74 35 75 36 76 40 77 37 78 39 79
REMARK SMILES IDX 38 80
REMARK H PARENT 6 6 2 14 2 15 72 22 11 29 55 48 33 59
REMARK Flexibility Score: inf
ROOT
ATOM      1  C   UNL A   1      33.134  28.603  27.323  1.00  0.00     0.023 C 
ENDROOT
BRANCH   1   2
ATOM      2  C   UNL A   1      33.241  27.853  26.002  1.00  0.00     0.116 C 
BRANCH   2   3
ATOM      3  N   UNL A   1      33.269  26.420  26.136  1.00  0.00    -0.351 N 
ATOM      4  C   UNL A   1      32.598  25.449  25.452  1.00  0.00     0.281 C 
ATOM      5  O   UNL A   1      32.881  24.283  25.765  1.00  0.00    -0.268 OA
ATOM      6  H   UNL A   1      33.873  26.083  26.837  1.00  0.00     0.163 HD
BRANCH   4   7
ATOM      7  C   UNL A   1      31.506  25.730  24.332  1.00  0.00     0.176 C 
ATOM      8  C   UNL A   1      32.152  26.018  22.957  1.00  0.00     0.080 C 
ATOM      9  C   UNL A   1      30.649  26.971  24.659  1.00  0.00     0.094 C 
ATOM     10  C   UNL A   1      31.932  27.497  22.634  1.00  0.00     0.022 C 
ATOM     11  C   UNL A   1      30.696  27.899  23.432  1.00  0.00     0.062 C 
BRANCH   7  12
ATOM     12  N   UNL A   1      30.550  24.580  24.398  1.00  0.00    -0.336 N 
ATOM     13  C   UNL A   1      30.668  23.547  23.383  1.00  0.00     0.331 C 
ATOM     14  H   UNL A   1      30.677  24.130  25.304  1.00  0.00     0.346 HD
ATOM     15  H   UNL A   1      29.633  24.994  24.238  1.00  0.00     0.346 HD
ENDBRANCH   7  12
BRANCH  11  16
ATOM     16  S   UNL A   1      30.426  29.606  24.008  1.00  0.00    -0.084 SA
BRANCH  16  17
ATOM     17  C   UNL A   1      29.523  30.446  22.798  1.00  0.00     0.168 A 
ATOM     18  N   UNL A   1      29.034  29.898  21.738  1.00  0.00    -0.233 NA
ATOM     19  N   UNL A   1      29.346  31.755  23.132  1.00  0.00    -0.301 N 
ATOM     20  C   UNL A   1      28.289  30.716  20.925  1.00  0.00     0.120 A 
ATOM     21  C   UNL A   1      28.591  32.605  22.379  1.00  0.00     0.251 A 
ATOM     22  H   UNL A   1      29.778  32.099  23.946  1.00  0.00     0.172 HD
ATOM     23  C   UNL A   1      28.024  32.006  21.163  1.00  0.00     0.091 A 
ATOM     24  O   UNL A   1      28.393  33.770  22.694  1.00  0.00    -0.269 OA
ENDBRANCH  16  17
ENDBRANCH  11  16
ENDBRANCH   4   7
ENDBRANCH   2   3
ENDBRANCH   1   2
BRANCH   1  25
ATOM     25  C   UNL A   1      32.347  29.902  27.272  1.00  0.00     0.023 C 
BRANCH  25  26
ATOM     26  C   UNL A   1      33.151  31.155  26.943  1.00  0.00     0.116 C 
BRANCH  26  27
ATOM     27  N   UNL A   1      32.497  32.415  27.267  1.00  0.00    -0.352 N 
ATOM     28  C   UNL A   1      32.992  33.468  28.019  1.00  0.00     0.251 C 
ATOM     29  H   UNL A   1      31.589  32.533  26.906  1.00  0.00     0.163 HD
ATOM     30  O   UNL A   1      32.363  34.498  28.168  1.00  0.00    -0.269 OA
BRANCH  28  31
ATOM     31  C   UNL A   1      34.311  33.297  28.657  1.00  0.00     0.039 A 
ATOM     32  C   UNL A   1      34.390  32.666  29.898  1.00  0.00     0.014 A 
ATOM     33  C   UNL A   1      35.461  33.656  27.955  1.00  0.00     0.014 A 
ATOM     34  C   UNL A   1      35.644  32.306  30.400  1.00  0.00     0.010 A 
ATOM     35  C   UNL A   1      36.694  33.213  28.410  1.00  0.00     0.010 A 
ATOM     36  C   UNL A   1      36.799  32.532  29.635  1.00  0.00    -0.014 A 
BRANCH  36  37
ATOM     37  C   UNL A   1      38.141  32.082  30.079  1.00  0.00     0.031 A 
ATOM     38  C   UNL A   1      38.703  30.797  29.536  1.00  0.00     0.074 A 
ATOM     39  C   UNL A   1      38.798  32.754  31.044  1.00  0.00     0.049 A 
ATOM     40  N   UNL A   1      39.767  30.135  29.910  1.00  0.00    -0.248 NA
ATOM     41  C   UNL A   1      37.937  30.147  28.460  1.00  0.00     0.031 C 
ATOM     42  C   UNL A   1      38.342  33.988  31.690  1.00  0.00     0.029 A 
ATOM     43  N   UNL A   1      39.992  32.479  31.665  1.00  0.00    -0.354 N 
ATOM     44  C   UNL A   1      39.769  28.973  29.150  1.00  0.00     0.074 A 
ATOM     45  C   UNL A   1      38.579  28.997  28.329  1.00  0.00     0.031 C 
ATOM     46  C   UNL A   1      39.254  34.374  32.597  1.00  0.00     0.029 A 
ATOM     47  C   UNL A   1      40.338  33.397  32.627  1.00  0.00     0.049 A 
ATOM     48  H   UNL A   1      40.547  31.698  31.441  1.00  0.00     0.167 HD
ATOM     49  C   UNL A   1      40.691  27.982  29.120  1.00  0.00     0.031 A 
ATOM     50  C   UNL A   1      41.403  33.439  33.448  1.00  0.00     0.031 A 
ATOM     51  C   UNL A   1      41.897  27.981  29.901  1.00  0.00     0.049 A 
ATOM     52  C   UNL A   1      42.433  32.345  33.371  1.00  0.00     0.074 A 
ATOM     53  C   UNL A   1      42.932  27.064  29.888  1.00  0.00     0.029 A 
ATOM     54  N   UNL A   1      42.232  28.955  30.829  1.00  0.00    -0.354 N 
ATOM     55  N   UNL A   1      42.450  31.280  32.608  1.00  0.00    -0.248 NA
ATOM     56  C   UNL A   1      43.595  32.468  34.264  1.00  0.00     0.031 C 
ATOM     57  C   UNL A   1      43.881  27.466  30.834  1.00  0.00     0.029 A 
ATOM     58  C   UNL A   1      43.455  28.656  31.402  1.00  0.00     0.049 A 
ATOM     59  H   UNL A   1      41.682  29.742  31.046  1.00  0.00     0.167 HD
ATOM     60  C   UNL A   1      43.634  30.619  32.907  1.00  0.00     0.074 A 
ATOM     61  C   UNL A   1      44.315  31.411  33.912  1.00  0.00     0.031 C 
ATOM     62  C   UNL A   1      44.115  29.461  32.396  1.00  0.00     0.031 A 
BRANCH  49  63
ATOM     63  C   UNL A   1      40.421  26.819  28.209  1.00  0.00    -0.014 A 
ATOM     64  C   UNL A   1      40.888  26.808  26.884  1.00  0.00     0.009 A 
ATOM     65  C   UNL A   1      39.698  25.713  28.682  1.00  0.00     0.009 A 
ATOM     66  C   UNL A   1      40.600  25.733  26.040  1.00  0.00     0.001 A 
ATOM     67  C   UNL A   1      39.438  24.627  27.845  1.00  0.00     0.001 A 
ATOM     68  C   UNL A   1      39.878  24.643  26.523  1.00  0.00     0.000 A 
ENDBRANCH  49  63
BRANCH  50  69
ATOM     69  C   UNL A   1      41.569  34.568  34.400  1.00  0.00    -0.014 A 
ATOM     70  C   UNL A   1      41.072  34.469  35.709  1.00  0.00     0.009 A 
ATOM     71  C   UNL A   1      42.221  35.749  34.008  1.00  0.00     0.009 A 
ATOM     72  C   UNL A   1      41.200  35.538  36.599  1.00  0.00     0.001 A 
ATOM     73  C   UNL A   1      42.371  36.806  34.909  1.00  0.00     0.001 A 
ATOM     74  C   UNL A   1      41.853  36.704  36.200  1.00  0.00     0.000 A 
ENDBRANCH  50  69
BRANCH  62  75
ATOM     75  C   UNL A   1      45.458  28.999  32.887  1.00  0.00    -0.014 A 
ATOM     76  C   UNL A   1      45.571  28.111  33.967  1.00  0.00     0.009 A 
ATOM     77  C   UNL A   1      46.621  29.426  32.227  1.00  0.00     0.009 A 
ATOM     78  C   UNL A   1      46.829  27.679  34.393  1.00  0.00     0.001 A 
ATOM     79  C   UNL A   1      47.873  28.972  32.640  1.00  0.00     0.001 A 
ATOM     80  C   UNL A   1      47.977  28.106  33.727  1.00  0.00     0.000 A 
ENDBRANCH  62  75
ENDBRANCH  36  37
ENDBRANCH  28  31
ENDBRANCH  26  27
ENDBRANCH  25  26
ENDBRANCH   1  25
TORSDOF 14
ENDMDL
MODEL 3
REMARK VINA RESULT:     -11.1      0.933      6.090
REMARK SMILES C[NH2+][C@@]1(C(=O)NCCCCNC(=O)c2ccc(-c3c4nc(c(-c5ccccc5)c5ccc([nH]5)c(-c5ccccc5)c5nc(c(-c6ccccc6)c6ccc3[nH]6)C=C5)C=C4)cc2)CC[C@H](Sc2nccc(=O)[nH]2)C1
REMARK SMILES IDX 8 1 7 2 6 3 4 4 5 5 3 7 62 8 73 9 63 10 64 11 2 12 1 13
REMARK SMILES IDX 65 16 66 17 67 18 72 19 68 20 70 21 69 23 71 24 9 25 10 26
REMARK SMILES IDX 11 27 12 28 13 30 14 31 15 32 61 33 16 34 60 35 17 36 18 37
REMARK SMILES IDX 19 38 54 39 20 40 59 41 53 42 55 43 21 44 58 45 52 46 51 47
REMARK SMILES IDX 22 49 44 50 29 51 43 52 30 53 33 54 42 55 56 56 31 57 32 58
REMARK SMILES IDX 41 60 57 61 34 62 23 63 24 64 28 65 25 66 27 67 26 68 45 69
REMARK SMILES IDX 46 70 50 71 47 72 49 73 48 74 35 75 36 76 40 77 37 78 39 79
REMARK SMILES IDX 38 80
REMARK H PARENT 6 6 2 14 2 15 72 22 11 29 55 48 33 59
REMARK Flexibility Score: inf
ROOT
ATOM      1  C   UNL A   1      37.215  21.744  24.410  1.00  0.00     0.023 C 
ENDROOT
BRANCH   1   2
ATOM      2  C   UNL A   1      36.886  22.832  25.423  1.00  0.00     0.116 C 
BRANCH   2   3
ATOM      3  N   UNL A   1      35.998  22.412  26.476  1.00  0.00    -0.351 N 
ATOM      4  C   UNL A   1      34.638  22.464  26.567  1.00  0.00     0.281 C 
ATOM      5  O   UNL A   1      34.152  21.965  27.593  1.00  0.00    -0.268 OA
ATOM      6  H   UNL A   1      36.446  22.021  27.261  1.00  0.00     0.163 HD
BRANCH   4   7
ATOM      7  C   UNL A   1      33.689  23.121  25.474  1.00  0.00     0.176 C 
ATOM      8  C   UNL A   1      32.221  23.191  25.954  1.00  0.00     0.080 C 
ATOM      9  C   UNL A   1      33.663  22.304  24.166  1.00  0.00     0.094 C 
ATOM     10  C   UNL A   1      31.408  22.192  25.130  1.00  0.00     0.022 C 
ATOM     11  C   UNL A   1      32.186  22.022  23.829  1.00  0.00     0.062 C 
BRANCH   7  12
ATOM     12  N   UNL A   1      34.336  24.418  25.100  1.00  0.00    -0.336 N 
ATOM     13  C   UNL A   1      33.965  25.600  25.858  1.00  0.00     0.331 C 
ATOM     14  H   UNL A   1      35.343  24.296  25.200  1.00  0.00     0.346 HD
ATOM     15  H   UNL A   1      34.010  24.607  24.153  1.00  0.00     0.346 HD
ENDBRANCH   7  12
BRANCH  11  16
ATOM     16  S   UNL A   1      32.117  20.488  22.850  1.00  0.00    -0.084 SA
BRANCH  16  17
ATOM     17  C   UNL A   1      32.556  19.172  23.880  1.00  0.00     0.168 A 
ATOM     18  N   UNL A   1      32.285  19.106  25.138  1.00  0.00    -0.233 NA
ATOM     19  N   UNL A   1      33.182  18.184  23.180  1.00  0.00    -0.301 N 
ATOM     20  C   UNL A   1      32.660  17.949  25.776  1.00  0.00     0.120 A 
ATOM     21  C   UNL A   1      33.548  17.003  23.754  1.00  0.00     0.251 A 
ATOM     22  H   UNL A   1      33.376  18.328  22.227  1.00  0.00     0.172 HD
ATOM     23  C   UNL A   1      33.253  16.903  25.190  1.00  0.00     0.091 A 
ATOM     24  O   UNL A   1      34.072  16.095  23.124  1.00  0.00    -0.269 OA
ENDBRANCH  16  17
ENDBRANCH  11  16
ENDBRANCH   4   7
ENDBRANCH   2   3
ENDBRANCH   1   2
BRANCH   1  25
ATOM     25  C   UNL A   1      37.811  20.472  24.991  1.00  0.00     0.023 C 
BRANCH  25  26
ATOM     26  C   UNL A   1      39.067  20.652  25.836  1.00  0.00     0.116 C 
BRANCH  26  27
ATOM     27  N   UNL A   1      40.034  19.566  25.749  1.00  0.00    -0.352 N 
ATOM     28  C   UNL A   1      41.368  19.576  26.121  1.00  0.00     0.251 C 
ATOM     29  H   UNL A   1      39.696  18.719  25.379  1.00  0.00     0.163 HD
ATOM     30  O   UNL A   1      42.058  18.576  26.051  1.00  0.00    -0.269 OA
BRANCH  28  31
ATOM     31  C   UNL A   1      41.941  20.850  26.592  1.00  0.00     0.039 A 
ATOM     32  C   UNL A   1      42.405  21.775  25.657  1.00  0.00     0.014 A 
ATOM     33  C   UNL A   1      41.895  21.158  27.951  1.00  0.00     0.014 A 
ATOM     34  C   UNL A   1      42.742  23.063  26.083  1.00  0.00     0.010 A 
ATOM     35  C   UNL A   1      42.138  22.463  28.356  1.00  0.00     0.010 A 
ATOM     36  C   UNL A   1      42.561  23.429  27.427  1.00  0.00    -0.014 A 
BRANCH  36  37
ATOM     37  C   UNL A   1      42.811  24.809  27.909  1.00  0.00     0.031 A 
ATOM     38  C   UNL A   1      44.197  25.198  28.342  1.00  0.00     0.074 A 
ATOM     39  C   UNL A   1      41.786  25.669  28.069  1.00  0.00     0.049 A 
ATOM     40  N   UNL A   1      44.602  26.283  28.950  1.00  0.00    -0.248 NA
ATOM     41  C   UNL A   1      45.263  24.211  28.101  1.00  0.00     0.031 C 
ATOM     42  C   UNL A   1      40.385  25.402  27.734  1.00  0.00     0.029 A 
ATOM     43  N   UNL A   1      41.767  26.946  28.573  1.00  0.00    -0.354 N 
ATOM     44  C   UNL A   1      45.953  26.087  29.204  1.00  0.00     0.074 A 
ATOM     45  C   UNL A   1      46.289  24.764  28.728  1.00  0.00     0.031 C 
ATOM     46  C   UNL A   1      39.648  26.488  28.019  1.00  0.00     0.029 A 
ATOM     47  C   UNL A   1      40.514  27.512  28.595  1.00  0.00     0.049 A 
ATOM     48  H   UNL A   1      42.574  27.412  28.889  1.00  0.00     0.167 HD
ATOM     49  C   UNL A   1      46.843  26.939  29.763  1.00  0.00     0.031 A 
ATOM     50  C   UNL A   1      40.109  28.716  29.040  1.00  0.00     0.031 A 
ATOM     51  C   UNL A   1      46.519  28.271  30.194  1.00  0.00     0.049 A 
ATOM     52  C   UNL A   1      41.122  29.661  29.625  1.00  0.00     0.074 A 
ATOM     53  C   UNL A   1      47.362  29.242  30.703  1.00  0.00     0.029 A 
ATOM     54  N   UNL A   1      45.248  28.823  30.153  1.00  0.00    -0.354 N 
ATOM     55  N   UNL A   1      42.408  29.483  29.808  1.00  0.00    -0.248 NA
ATOM     56  C   UNL A   1      40.627  30.977  30.055  1.00  0.00     0.031 C 
ATOM     57  C   UNL A   1      46.594  30.372  31.002  1.00  0.00     0.029 A 
ATOM     58  C   UNL A   1      45.282  30.118  30.637  1.00  0.00     0.049 A 
ATOM     59  H   UNL A   1      44.441  28.361  29.827  1.00  0.00     0.167 HD
ATOM     60  C   UNL A   1      42.882  30.671  30.348  1.00  0.00     0.074 A 
ATOM     61  C   UNL A   1      41.747  31.567  30.451  1.00  0.00     0.031 C 
ATOM     62  C   UNL A   1      44.142  30.993  30.726  1.00  0.00     0.031 A 
BRANCH  49  63
ATOM     63  C   UNL A   1      48.251  26.447  29.939  1.00  0.00    -0.014 A 
ATOM     64  C   UNL A   1      48.650  25.783  31.111  1.00  0.00     0.009 A 
ATOM     65  C   UNL A   1      49.191  26.639  28.915  1.00  0.00     0.009 A 
ATOM     66  C   UNL A   1      49.972  25.362  31.271  1.00  0.00     0.001 A 
ATOM     67  C   UNL A   1      50.504  26.190  29.066  1.00  0.00     0.001 A 
ATOM     68  C   UNL A   1      50.896  25.563  30.248  1.00  0.00     0.000 A 
ENDBRANCH  49  63
BRANCH  50  69
ATOM     69  C   UNL A   1      38.682  29.112  28.928  1.00  0.00    -0.014 A 
ATOM     70  C   UNL A   1      37.815  28.952  30.021  1.00  0.00     0.009 A 
ATOM     71  C   UNL A   1      38.175  29.649  27.734  1.00  0.00     0.009 A 
ATOM     72  C   UNL A   1      36.466  29.297  29.913  1.00  0.00     0.001 A 
ATOM     73  C   UNL A   1      36.832  30.018  27.637  1.00  0.00     0.001 A 
ATOM     74  C   UNL A   1      35.976  29.833  28.723  1.00  0.00     0.000 A 
ENDBRANCH  50  69
BRANCH  62  75
ATOM     75  C   UNL A   1      44.369  32.382  31.250  1.00  0.00    -0.014 A 
ATOM     76  C   UNL A   1      44.288  32.664  32.621  1.00  0.00     0.009 A 
ATOM     77  C   UNL A   1      44.713  33.410  30.358  1.00  0.00     0.009 A 
ATOM     78  C   UNL A   1      44.523  33.959  33.088  1.00  0.00     0.001 A 
ATOM     79  C   UNL A   1      44.971  34.697  30.831  1.00  0.00     0.001 A 
ATOM     80  C   UNL A   1      44.868  34.972  32.193  1.00  0.00     0.000 A 
ENDBRANCH  62  75
ENDBRANCH  36  37
ENDBRANCH  28  31
ENDBRANCH  26  27
ENDBRANCH  25  26
ENDBRANCH   1  25
TORSDOF 14
ENDMDL
