MODEL 1
REMARK VINA RESULT:     -11.0      0.000      0.000
REMARK SMILES CCc1cc(Oc2cncc(C(=O)NCCCCNC(=O)c3ccc(-c4c5nc(c(-c6ccccc6)c6ccc([nH]6)c(-c6ccccc6)c6nc(c(-c7ccccc7)c7ccc4[nH]7)C=C6)C=C5)cc3)n2)ccc1Cl
REMARK SMILES IDX 16 1 15 2 14 3 12 4 13 5 11 7 7 8 8 9 70 10 9 11 10 12 6 13
REMARK SMILES IDX 5 14 3 15 4 16 73 17 72 18 74 19 71 20 2 21 1 22 17 23 18 24
REMARK SMILES IDX 19 25 20 26 21 28 22 29 23 30 69 31 24 32 68 33 25 34 26 35
REMARK SMILES IDX 27 36 62 37 28 38 67 39 61 40 63 41 29 42 66 43 60 44 59 45
REMARK SMILES IDX 30 47 52 48 37 49 51 50 38 51 41 52 50 53 64 54 39 55 40 56
REMARK SMILES IDX 49 58 65 59 42 60 31 61 32 62 36 63 33 64 35 65 34 66 53 67
REMARK SMILES IDX 54 68 58 69 55 70 57 71 56 72 43 73 44 74 48 75 45 76 47 77
REMARK SMILES IDX 46 78
REMARK H PARENT 14 6 19 27 63 46 41 57
REMARK Flexibility Score: inf
ROOT
ATOM      1  C   UNL A   1      31.675  30.555  25.749  1.00  0.00     0.023 C 
ENDROOT
BRANCH   1   2
ATOM      2  C   UNL A   1      32.568  29.444  26.298  1.00  0.00     0.116 C 
BRANCH   2   3
ATOM      3  N   UNL A   1      31.781  28.303  26.737  1.00  0.00    -0.351 N 
ATOM      4  C   UNL A   1      31.270  27.237  26.031  1.00  0.00     0.271 C 
ATOM      5  O   UNL A   1      30.651  26.375  26.657  1.00  0.00    -0.267 OA
ATOM      6  H   UNL A   1      31.582  28.290  27.701  1.00  0.00     0.163 HD
BRANCH   4   7
ATOM      7  C   UNL A   1      31.465  27.070  24.563  1.00  0.00     0.150 A 
ATOM      8  C   UNL A   1      32.572  26.172  22.772  1.00  0.00     0.238 A 
ATOM      9  C   UNL A   1      31.619  26.695  21.907  1.00  0.00     0.179 A 
ATOM     10  N   UNL A   1      32.515  26.345  24.108  1.00  0.00    -0.205 NA
ATOM     11  N   UNL A   1      30.595  27.467  22.345  1.00  0.00    -0.257 NA
ATOM     12  C   UNL A   1      30.541  27.642  23.693  1.00  0.00     0.145 A 
BRANCH   8  13
ATOM     13  O   UNL A   1      33.586  25.371  22.313  1.00  0.00    -0.437 OA
BRANCH  13  14
ATOM     14  C   UNL A   1      33.655  24.082  22.797  1.00  0.00     0.129 A 
ATOM     15  C   UNL A   1      35.015  22.514  24.100  1.00  0.00    -0.026 A 
ATOM     16  C   UNL A   1      34.832  23.771  23.491  1.00  0.00     0.052 A 
ATOM     17  C   UNL A   1      33.971  21.579  24.013  1.00  0.00     0.044 A 
ATOM     18  C   UNL A   1      32.817  21.871  23.280  1.00  0.00     0.024 A 
ATOM     19  Cl  UNL A   1      34.020  20.058  24.827  1.00  0.00    -0.084 Cl
ATOM     20  C   UNL A   1      32.662  23.113  22.663  1.00  0.00     0.049 A 
BRANCH  15  21
ATOM     21  C   UNL A   1      36.307  22.245  24.839  1.00  0.00     0.034 C 
ATOM     22  C   UNL A   1      37.068  23.508  25.228  1.00  0.00     0.009 C 
ENDBRANCH  15  21
ENDBRANCH  13  14
ENDBRANCH   8  13
ENDBRANCH   4   7
ENDBRANCH   2   3
ENDBRANCH   1   2
BRANCH   1  23
ATOM     23  C   UNL A   1      31.435  31.704  26.735  1.00  0.00     0.023 C 
BRANCH  23  24
ATOM     24  C   UNL A   1      32.686  32.472  27.155  1.00  0.00     0.116 C 
BRANCH  24  25
ATOM     25  N   UNL A   1      32.413  33.842  27.566  1.00  0.00    -0.352 N 
ATOM     26  C   UNL A   1      33.104  34.624  28.458  1.00  0.00     0.251 C 
ATOM     27  H   UNL A   1      31.628  34.263  27.147  1.00  0.00     0.163 HD
ATOM     28  O   UNL A   1      32.678  35.730  28.779  1.00  0.00    -0.269 OA
BRANCH  26  29
ATOM     29  C   UNL A   1      34.349  34.110  29.063  1.00  0.00     0.039 A 
ATOM     30  C   UNL A   1      34.266  33.343  30.227  1.00  0.00     0.014 A 
ATOM     31  C   UNL A   1      35.587  34.355  28.464  1.00  0.00     0.014 A 
ATOM     32  C   UNL A   1      35.421  32.761  30.754  1.00  0.00     0.010 A 
ATOM     33  C   UNL A   1      36.725  33.717  28.949  1.00  0.00     0.010 A 
ATOM     34  C   UNL A   1      36.654  32.914  30.097  1.00  0.00    -0.014 A 
BRANCH  34  35
ATOM     35  C   UNL A   1      37.876  32.229  30.587  1.00  0.00     0.031 A 
ATOM     36  C   UNL A   1      38.673  32.821  31.715  1.00  0.00     0.074 A 
ATOM     37  C   UNL A   1      38.308  31.113  29.969  1.00  0.00     0.049 A 
ATOM     38  N   UNL A   1      39.792  32.398  32.247  1.00  0.00    -0.248 NA
ATOM     39  C   UNL A   1      38.161  34.069  32.306  1.00  0.00     0.031 C 
ATOM     40  C   UNL A   1      37.647  30.459  28.837  1.00  0.00     0.029 A 
ATOM     41  N   UNL A   1      39.411  30.333  30.206  1.00  0.00    -0.354 N 
ATOM     42  C   UNL A   1      40.129  33.336  33.213  1.00  0.00     0.074 A 
ATOM     43  C   UNL A   1      39.122  34.374  33.165  1.00  0.00     0.031 C 
ATOM     44  C   UNL A   1      38.338  29.356  28.504  1.00  0.00     0.029 A 
ATOM     45  C   UNL A   1      39.509  29.249  29.367  1.00  0.00     0.049 A 
ATOM     46  H   UNL A   1      40.071  30.531  30.910  1.00  0.00     0.167 HD
ATOM     47  C   UNL A   1      41.172  33.328  34.076  1.00  0.00     0.031 A 
ATOM     48  C   UNL A   1      40.439  28.278  29.300  1.00  0.00     0.031 A 
ATOM     49  C   UNL A   1      42.165  32.288  34.135  1.00  0.00     0.049 A 
ATOM     50  C   UNL A   1      41.597  28.300  30.259  1.00  0.00     0.074 A 
ATOM     51  C   UNL A   1      43.217  32.150  35.025  1.00  0.00     0.029 A 
ATOM     52  N   UNL A   1      42.232  31.212  33.264  1.00  0.00    -0.354 N 
ATOM     53  N   UNL A   1      41.857  29.151  31.220  1.00  0.00    -0.248 NA
ATOM     54  C   UNL A   1      42.583  27.219  30.124  1.00  0.00     0.031 C 
ATOM     55  C   UNL A   1      43.954  31.019  34.656  1.00  0.00     0.029 A 
ATOM     56  C   UNL A   1      43.327  30.422  33.574  1.00  0.00     0.049 A 
ATOM     57  H   UNL A   1      41.597  31.035  32.534  1.00  0.00     0.167 HD
ATOM     58  C   UNL A   1      43.019  28.692  31.826  1.00  0.00     0.074 A 
ATOM     59  C   UNL A   1      43.407  27.483  31.129  1.00  0.00     0.031 C 
ATOM     60  C   UNL A   1      43.703  29.223  32.869  1.00  0.00     0.031 A 
BRANCH  47  61
ATOM     61  C   UNL A   1      41.301  34.496  35.014  1.00  0.00    -0.014 A 
ATOM     62  C   UNL A   1      42.055  35.631  34.672  1.00  0.00     0.009 A 
ATOM     63  C   UNL A   1      40.642  34.468  36.253  1.00  0.00     0.009 A 
ATOM     64  C   UNL A   1      42.183  36.692  35.571  1.00  0.00     0.001 A 
ATOM     65  C   UNL A   1      40.747  35.545  37.136  1.00  0.00     0.001 A 
ATOM     66  C   UNL A   1      41.527  36.650  36.800  1.00  0.00     0.000 A 
ENDBRANCH  47  61
BRANCH  48  67
ATOM     67  C   UNL A   1      40.297  27.180  28.310  1.00  0.00    -0.014 A 
ATOM     68  C   UNL A   1      39.566  26.027  28.636  1.00  0.00     0.009 A 
ATOM     69  C   UNL A   1      40.887  27.272  27.040  1.00  0.00     0.009 A 
ATOM     70  C   UNL A   1      39.448  24.980  27.720  1.00  0.00     0.001 A 
ATOM     71  C   UNL A   1      40.745  26.235  26.116  1.00  0.00     0.001 A 
ATOM     72  C   UNL A   1      40.033  25.086  26.459  1.00  0.00     0.000 A 
ENDBRANCH  48  67
BRANCH  60  73
ATOM     73  C   UNL A   1      44.919  28.479  33.345  1.00  0.00    -0.014 A 
ATOM     74  C   UNL A   1      46.197  28.776  32.848  1.00  0.00     0.009 A 
ATOM     75  C   UNL A   1      44.785  27.492  34.333  1.00  0.00     0.009 A 
ATOM     76  C   UNL A   1      47.313  28.076  33.310  1.00  0.00     0.001 A 
ATOM     77  C   UNL A   1      45.905  26.814  34.814  1.00  0.00     0.001 A 
ATOM     78  C   UNL A   1      47.167  27.100  34.296  1.00  0.00     0.000 A 
ENDBRANCH  60  73
ENDBRANCH  34  35
ENDBRANCH  26  29
ENDBRANCH  24  25
ENDBRANCH  23  24
ENDBRANCH   1  23
TORSDOF 14
ENDMDL
MODEL 2
REMARK VINA RESULT:     -11.0      2.616      4.031
REMARK SMILES CCc1cc(Oc2cncc(C(=O)NCCCCNC(=O)c3ccc(-c4c5nc(c(-c6ccccc6)c6ccc([nH]6)c(-c6ccccc6)c6nc(c(-c7ccccc7)c7ccc4[nH]7)C=C6)C=C5)cc3)n2)ccc1Cl
REMARK SMILES IDX 16 1 15 2 14 3 12 4 13 5 11 7 7 8 8 9 70 10 9 11 10 12 6 13
REMARK SMILES IDX 5 14 3 15 4 16 73 17 72 18 74 19 71 20 2 21 1 22 17 23 18 24
REMARK SMILES IDX 19 25 20 26 21 28 22 29 23 30 69 31 24 32 68 33 25 34 26 35
REMARK SMILES IDX 27 36 62 37 28 38 67 39 61 40 63 41 29 42 66 43 60 44 59 45
REMARK SMILES IDX 30 47 52 48 37 49 51 50 38 51 41 52 50 53 64 54 39 55 40 56
REMARK SMILES IDX 49 58 65 59 42 60 31 61 32 62 36 63 33 64 35 65 34 66 53 67
REMARK SMILES IDX 54 68 58 69 55 70 57 71 56 72 43 73 44 74 48 75 45 76 47 77
REMARK SMILES IDX 46 78
REMARK H PARENT 14 6 19 27 63 46 41 57
REMARK Flexibility Score: inf
ROOT
ATOM      1  C   UNL A   1      33.346  29.214  24.741  1.00  0.00     0.023 C 
ENDROOT
BRANCH   1   2
ATOM      2  C   UNL A   1      33.408  28.597  23.346  1.00  0.00     0.116 C 
BRANCH   2   3
ATOM      3  N   UNL A   1      32.142  28.746  22.646  1.00  0.00    -0.351 N 
ATOM      4  C   UNL A   1      31.025  27.941  22.625  1.00  0.00     0.271 C 
ATOM      5  O   UNL A   1      30.057  28.315  21.960  1.00  0.00    -0.267 OA
ATOM      6  H   UNL A   1      32.073  29.557  22.094  1.00  0.00     0.163 HD
BRANCH   4   7
ATOM      7  C   UNL A   1      30.929  26.670  23.397  1.00  0.00     0.150 A 
ATOM      8  C   UNL A   1      31.138  24.396  23.558  1.00  0.00     0.238 A 
ATOM      9  C   UNL A   1      30.895  24.460  24.924  1.00  0.00     0.179 A 
ATOM     10  N   UNL A   1      31.162  25.491  22.771  1.00  0.00    -0.205 NA
ATOM     11  N   UNL A   1      30.607  25.626  25.551  1.00  0.00    -0.257 NA
ATOM     12  C   UNL A   1      30.630  26.728  24.755  1.00  0.00     0.145 A 
BRANCH   8  13
ATOM     13  O   UNL A   1      31.454  23.210  22.945  1.00  0.00    -0.437 OA
BRANCH  13  14
ATOM     14  C   UNL A   1      32.510  22.486  23.455  1.00  0.00     0.129 A 
ATOM     15  C   UNL A   1      34.932  22.491  23.829  1.00  0.00    -0.026 A 
ATOM     16  C   UNL A   1      33.768  23.082  23.298  1.00  0.00     0.052 A 
ATOM     17  C   UNL A   1      34.797  21.290  24.543  1.00  0.00     0.044 A 
ATOM     18  C   UNL A   1      33.549  20.670  24.658  1.00  0.00     0.024 A 
ATOM     19  Cl  UNL A   1      36.124  20.539  25.352  1.00  0.00    -0.084 Cl
ATOM     20  C   UNL A   1      32.410  21.258  24.107  1.00  0.00     0.049 A 
BRANCH  15  21
ATOM     21  C   UNL A   1      36.259  23.191  23.629  1.00  0.00     0.034 C 
ATOM     22  C   UNL A   1      36.898  23.679  24.924  1.00  0.00     0.009 C 
ENDBRANCH  15  21
ENDBRANCH  13  14
ENDBRANCH   8  13
ENDBRANCH   4   7
ENDBRANCH   2   3
ENDBRANCH   1   2
BRANCH   1  23
ATOM     23  C   UNL A   1      33.912  28.315  25.845  1.00  0.00     0.023 C 
BRANCH  23  24
ATOM     24  C   UNL A   1      33.441  28.646  27.259  1.00  0.00     0.116 C 
BRANCH  24  25
ATOM     25  N   UNL A   1      33.475  30.069  27.563  1.00  0.00    -0.352 N 
ATOM     26  C   UNL A   1      34.502  30.809  28.096  1.00  0.00     0.251 C 
ATOM     27  H   UNL A   1      32.651  30.567  27.357  1.00  0.00     0.163 HD
ATOM     28  O   UNL A   1      34.332  31.987  28.394  1.00  0.00    -0.269 OA
BRANCH  26  29
ATOM     29  C   UNL A   1      35.807  30.165  28.347  1.00  0.00     0.039 A 
ATOM     30  C   UNL A   1      36.770  30.177  27.336  1.00  0.00     0.014 A 
ATOM     31  C   UNL A   1      36.089  29.584  29.586  1.00  0.00     0.014 A 
ATOM     32  C   UNL A   1      38.044  29.667  27.591  1.00  0.00     0.010 A 
ATOM     33  C   UNL A   1      37.379  29.141  29.861  1.00  0.00     0.010 A 
ATOM     34  C   UNL A   1      38.369  29.179  28.868  1.00  0.00    -0.014 A 
BRANCH  34  35
ATOM     35  C   UNL A   1      39.743  28.718  29.188  1.00  0.00     0.031 A 
ATOM     36  C   UNL A   1      40.692  29.621  29.924  1.00  0.00     0.074 A 
ATOM     37  C   UNL A   1      40.160  27.513  28.753  1.00  0.00     0.049 A 
ATOM     38  N   UNL A   1      41.943  29.415  30.250  1.00  0.00    -0.248 NA
ATOM     39  C   UNL A   1      40.176  30.940  30.324  1.00  0.00     0.031 C 
ATOM     40  C   UNL A   1      39.349  26.558  27.994  1.00  0.00     0.029 A 
ATOM     41  N   UNL A   1      41.374  26.888  28.885  1.00  0.00    -0.354 N 
ATOM     42  C   UNL A   1      42.369  30.583  30.867  1.00  0.00     0.074 A 
ATOM     43  C   UNL A   1      41.259  31.510  30.832  1.00  0.00     0.031 C 
ATOM     44  C   UNL A   1      40.077  25.453  27.761  1.00  0.00     0.029 A 
ATOM     45  C   UNL A   1      41.414  25.638  28.315  1.00  0.00     0.049 A 
ATOM     46  H   UNL A   1      42.143  27.297  29.343  1.00  0.00     0.167 HD
ATOM     47  C   UNL A   1      43.571  30.856  31.429  1.00  0.00     0.031 A 
ATOM     48  C   UNL A   1      42.416  24.742  28.246  1.00  0.00     0.031 A 
ATOM     49  C   UNL A   1      44.669  29.929  31.479  1.00  0.00     0.049 A 
ATOM     50  C   UNL A   1      43.746  25.075  28.863  1.00  0.00     0.074 A 
ATOM     51  C   UNL A   1      45.900  30.084  32.094  1.00  0.00     0.029 A 
ATOM     52  N   UNL A   1      44.673  28.677  30.884  1.00  0.00    -0.354 N 
ATOM     53  N   UNL A   1      44.107  26.153  29.515  1.00  0.00    -0.248 NA
ATOM     54  C   UNL A   1      44.801  24.061  28.741  1.00  0.00     0.031 C 
ATOM     55  C   UNL A   1      46.669  28.947  31.823  1.00  0.00     0.029 A 
ATOM     56  C   UNL A   1      45.896  28.060  31.089  1.00  0.00     0.049 A 
ATOM     57  H   UNL A   1      43.918  28.284  30.390  1.00  0.00     0.167 HD
ATOM     58  C   UNL A   1      45.421  25.934  29.907  1.00  0.00     0.074 A 
ATOM     59  C   UNL A   1      45.788  24.617  29.429  1.00  0.00     0.031 C 
ATOM     60  C   UNL A   1      46.249  26.751  30.605  1.00  0.00     0.031 A 
BRANCH  47  61
ATOM     61  C   UNL A   1      43.761  32.227  32.018  1.00  0.00    -0.014 A 
ATOM     62  C   UNL A   1      43.376  32.517  33.337  1.00  0.00     0.009 A 
ATOM     63  C   UNL A   1      44.352  33.239  31.246  1.00  0.00     0.009 A 
ATOM     64  C   UNL A   1      43.538  33.804  33.854  1.00  0.00     0.001 A 
ATOM     65  C   UNL A   1      44.540  34.517  31.777  1.00  0.00     0.001 A 
ATOM     66  C   UNL A   1      44.122  34.801  33.076  1.00  0.00     0.000 A 
ENDBRANCH  47  61
BRANCH  48  67
ATOM     67  C   UNL A   1      42.193  23.426  27.595  1.00  0.00    -0.014 A 
ATOM     68  C   UNL A   1      42.554  23.232  26.253  1.00  0.00     0.009 A 
ATOM     69  C   UNL A   1      41.621  22.358  28.305  1.00  0.00     0.009 A 
ATOM     70  C   UNL A   1      42.326  22.005  25.627  1.00  0.00     0.001 A 
ATOM     71  C   UNL A   1      41.418  21.124  27.684  1.00  0.00     0.001 A 
ATOM     72  C   UNL A   1      41.763  20.950  26.344  1.00  0.00     0.000 A 
ENDBRANCH  48  67
BRANCH  60  73
ATOM     73  C   UNL A   1      47.620  26.227  30.926  1.00  0.00    -0.014 A 
ATOM     74  C   UNL A   1      48.667  26.302  29.995  1.00  0.00     0.009 A 
ATOM     75  C   UNL A   1      47.875  25.686  32.195  1.00  0.00     0.009 A 
ATOM     76  C   UNL A   1      49.935  25.816  30.319  1.00  0.00     0.001 A 
ATOM     77  C   UNL A   1      49.150  25.226  32.526  1.00  0.00     0.001 A 
ATOM     78  C   UNL A   1      50.177  25.284  31.585  1.00  0.00     0.000 A 
ENDBRANCH  60  73
ENDBRANCH  34  35
ENDBRANCH  26  29
ENDBRANCH  24  25
ENDBRANCH  23  24
ENDBRANCH   1  23
TORSDOF 14
ENDMDL
MODEL 3
REMARK VINA RESULT:     -11.0      3.897      9.060
REMARK SMILES CCc1cc(Oc2cncc(C(=O)NCCCCNC(=O)c3ccc(-c4c5nc(c(-c6ccccc6)c6ccc([nH]6)c(-c6ccccc6)c6nc(c(-c7ccccc7)c7ccc4[nH]7)C=C6)C=C5)cc3)n2)ccc1Cl
REMARK SMILES IDX 16 1 15 2 14 3 12 4 13 5 11 7 7 8 8 9 70 10 9 11 10 12 6 13
REMARK SMILES IDX 5 14 3 15 4 16 73 17 72 18 74 19 71 20 2 21 1 22 17 23 18 24
REMARK SMILES IDX 19 25 20 26 21 28 22 29 23 30 69 31 24 32 68 33 25 34 26 35
REMARK SMILES IDX 27 36 62 37 28 38 67 39 61 40 63 41 29 42 66 43 60 44 59 45
REMARK SMILES IDX 30 47 52 48 37 49 51 50 38 51 41 52 50 53 64 54 39 55 40 56
REMARK SMILES IDX 49 58 65 59 42 60 31 61 32 62 36 63 33 64 35 65 34 66 53 67
REMARK SMILES IDX 54 68 58 69 55 70 57 71 56 72 43 73 44 74 48 75 45 76 47 77
REMARK SMILES IDX 46 78
REMARK H PARENT 14 6 19 27 63 46 41 57
REMARK Flexibility Score: inf
ROOT
ATOM      1  C   UNL A   1      36.645  21.447  24.585  1.00  0.00     0.023 C 
ENDROOT
BRANCH   1   2
ATOM      2  C   UNL A   1      35.615  21.645  25.695  1.00  0.00     0.116 C 
BRANCH   2   3
ATOM      3  N   UNL A   1      34.758  20.479  25.835  1.00  0.00    -0.351 N 
ATOM      4  C   UNL A   1      33.448  20.276  25.463  1.00  0.00     0.271 C 
ATOM      5  O   UNL A   1      32.954  19.167  25.674  1.00  0.00    -0.267 OA
ATOM      6  H   UNL A   1      35.186  19.706  26.267  1.00  0.00     0.163 HD
BRANCH   4   7
ATOM      7  C   UNL A   1      32.626  21.321  24.791  1.00  0.00     0.150 A 
ATOM      8  C   UNL A   1      31.396  23.252  24.841  1.00  0.00     0.238 A 
ATOM      9  C   UNL A   1      31.310  23.245  23.455  1.00  0.00     0.179 A 
ATOM     10  N   UNL A   1      32.052  22.298  25.534  1.00  0.00    -0.205 NA
ATOM     11  N   UNL A   1      31.833  22.246  22.705  1.00  0.00    -0.257 NA
ATOM     12  C   UNL A   1      32.492  21.285  23.406  1.00  0.00     0.145 A 
BRANCH   8  13
ATOM     13  O   UNL A   1      30.883  24.286  25.582  1.00  0.00    -0.437 OA
BRANCH  13  14
ATOM     14  C   UNL A   1      31.539  25.497  25.534  1.00  0.00     0.129 A 
ATOM     15  C   UNL A   1      31.371  27.824  24.781  1.00  0.00    -0.026 A 
ATOM     16  C   UNL A   1      30.856  26.514  24.854  1.00  0.00     0.052 A 
ATOM     17  C   UNL A   1      32.587  28.091  25.430  1.00  0.00     0.044 A 
ATOM     18  C   UNL A   1      33.293  27.066  26.067  1.00  0.00     0.024 A 
ATOM     19  Cl  UNL A   1      33.254  29.680  25.526  1.00  0.00    -0.084 Cl
ATOM     20  C   UNL A   1      32.778  25.770  26.110  1.00  0.00     0.049 A 
BRANCH  15  21
ATOM     21  C   UNL A   1      30.580  28.876  24.037  1.00  0.00     0.034 C 
ATOM     22  C   UNL A   1      30.671  28.756  22.520  1.00  0.00     0.009 C 
ENDBRANCH  15  21
ENDBRANCH  13  14
ENDBRANCH   8  13
ENDBRANCH   4   7
ENDBRANCH   2   3
ENDBRANCH   1   2
BRANCH   1  23
ATOM     23  C   UNL A   1      37.584  20.256  24.813  1.00  0.00     0.023 C 
BRANCH  23  24
ATOM     24  C   UNL A   1      38.703  20.494  25.823  1.00  0.00     0.116 C 
BRANCH  24  25
ATOM     25  N   UNL A   1      39.761  19.497  25.761  1.00  0.00    -0.352 N 
ATOM     26  C   UNL A   1      41.095  19.641  26.055  1.00  0.00     0.251 C 
ATOM     27  H   UNL A   1      39.482  18.599  25.469  1.00  0.00     0.163 HD
ATOM     28  O   UNL A   1      41.883  18.723  25.845  1.00  0.00    -0.269 OA
BRANCH  26  29
ATOM     29  C   UNL A   1      41.586  20.926  26.591  1.00  0.00     0.039 A 
ATOM     30  C   UNL A   1      42.075  21.885  25.701  1.00  0.00     0.014 A 
ATOM     31  C   UNL A   1      41.532  21.195  27.961  1.00  0.00     0.014 A 
ATOM     32  C   UNL A   1      42.446  23.143  26.177  1.00  0.00     0.010 A 
ATOM     33  C   UNL A   1      41.834  22.472  28.424  1.00  0.00     0.010 A 
ATOM     34  C   UNL A   1      42.292  23.459  27.538  1.00  0.00    -0.014 A 
BRANCH  34  35
ATOM     35  C   UNL A   1      42.593  24.818  28.051  1.00  0.00     0.031 A 
ATOM     36  C   UNL A   1      43.993  25.181  28.458  1.00  0.00     0.074 A 
ATOM     37  C   UNL A   1      41.592  25.704  28.217  1.00  0.00     0.049 A 
ATOM     38  N   UNL A   1      44.440  26.298  28.973  1.00  0.00    -0.248 NA
ATOM     39  C   UNL A   1      45.022  24.141  28.291  1.00  0.00     0.031 C 
ATOM     40  C   UNL A   1      40.183  25.464  27.897  1.00  0.00     0.029 A 
ATOM     41  N   UNL A   1      41.608  26.988  28.702  1.00  0.00    -0.354 N 
ATOM     42  C   UNL A   1      45.792  26.088  29.214  1.00  0.00     0.074 A 
ATOM     43  C   UNL A   1      46.083  24.724  28.831  1.00  0.00     0.031 C 
ATOM     44  C   UNL A   1      39.477  26.576  28.158  1.00  0.00     0.029 A 
ATOM     45  C   UNL A   1      40.373  27.591  28.703  1.00  0.00     0.049 A 
ATOM     46  H   UNL A   1      42.426  27.434  29.020  1.00  0.00     0.167 HD
ATOM     47  C   UNL A   1      46.713  26.956  29.694  1.00  0.00     0.031 A 
ATOM     48  C   UNL A   1      40.004  28.823  29.099  1.00  0.00     0.031 A 
ATOM     49  C   UNL A   1      46.427  28.318  30.060  1.00  0.00     0.049 A 
ATOM     50  C   UNL A   1      41.043  29.764  29.643  1.00  0.00     0.074 A 
ATOM     51  C   UNL A   1      47.307  29.300  30.483  1.00  0.00     0.029 A 
ATOM     52  N   UNL A   1      45.164  28.888  30.053  1.00  0.00    -0.354 N 
ATOM     53  N   UNL A   1      42.332  29.577  29.788  1.00  0.00    -0.248 NA
ATOM     54  C   UNL A   1      40.572  31.088  30.071  1.00  0.00     0.031 C 
ATOM     55  C   UNL A   1      46.567  30.447  30.787  1.00  0.00     0.029 A 
ATOM     56  C   UNL A   1      45.235  30.198  30.496  1.00  0.00     0.049 A 
ATOM     57  H   UNL A   1      44.339  28.430  29.775  1.00  0.00     0.167 HD
ATOM     58  C   UNL A   1      42.831  30.770  30.294  1.00  0.00     0.074 A 
ATOM     59  C   UNL A   1      41.708  31.675  30.420  1.00  0.00     0.031 C 
ATOM     60  C   UNL A   1      44.109  31.087  30.620  1.00  0.00     0.031 A 
BRANCH  47  61
ATOM     61  C   UNL A   1      48.117  26.446  29.869  1.00  0.00    -0.014 A 
ATOM     62  C   UNL A   1      48.540  25.867  31.076  1.00  0.00     0.009 A 
ATOM     63  C   UNL A   1      49.025  26.529  28.801  1.00  0.00     0.009 A 
ATOM     64  C   UNL A   1      49.857  25.426  31.225  1.00  0.00     0.001 A 
ATOM     65  C   UNL A   1      50.331  26.058  28.943  1.00  0.00     0.001 A 
ATOM     66  C   UNL A   1      50.750  25.518  30.158  1.00  0.00     0.000 A 
ENDBRANCH  47  61
BRANCH  48  67
ATOM     67  C   UNL A   1      38.590  29.256  28.963  1.00  0.00    -0.014 A 
ATOM     68  C   UNL A   1      37.725  29.198  30.067  1.00  0.00     0.009 A 
ATOM     69  C   UNL A   1      38.094  29.726  27.737  1.00  0.00     0.009 A 
ATOM     70  C   UNL A   1      36.388  29.580  29.941  1.00  0.00     0.001 A 
ATOM     71  C   UNL A   1      36.763  30.133  27.621  1.00  0.00     0.001 A 
ATOM     72  C   UNL A   1      35.909  30.051  28.720  1.00  0.00     0.000 A 
ENDBRANCH  48  67
BRANCH  60  73
ATOM     73  C   UNL A   1      44.365  32.484  31.110  1.00  0.00    -0.014 A 
ATOM     74  C   UNL A   1      44.338  32.795  32.479  1.00  0.00     0.009 A 
ATOM     75  C   UNL A   1      44.676  33.496  30.189  1.00  0.00     0.009 A 
ATOM     76  C   UNL A   1      44.587  34.099  32.911  1.00  0.00     0.001 A 
ATOM     77  C   UNL A   1      44.952  34.792  30.625  1.00  0.00     0.001 A 
ATOM     78  C   UNL A   1      44.899  35.094  31.985  1.00  0.00     0.000 A 
ENDBRANCH  60  73
ENDBRANCH  34  35
ENDBRANCH  26  29
ENDBRANCH  24  25
ENDBRANCH  23  24
ENDBRANCH   1  23
TORSDOF 14
ENDMDL
