MODEL 1
REMARK VINA RESULT:     -11.0      0.000      0.000
REMARK SMILES CSc1nc(N)cc(Nc2cccc(C(=O)NCCCCNC(=O)c3ccc(-c4c5nc(c(-c6ccccc6)c6ccc([nH]6)c(-c6ccccc6)c6nc(c(-c7ccccc7)c7ccc4[nH]7)C=C6)C=C5)cc3)c2)n1
REMARK SMILES IDX 19 1 18 2 17 3 15 4 16 5 14 7 10 8 11 9 73 10 12 11 13 12
REMARK SMILES IDX 9 13 8 15 3 16 4 17 74 18 5 19 7 20 2 21 1 22 6 23 20 26
REMARK SMILES IDX 21 27 22 28 23 29 24 31 25 32 26 33 72 34 27 35 71 36 28 37
REMARK SMILES IDX 29 38 30 39 65 40 31 41 70 42 64 43 66 44 32 45 69 46 63 47
REMARK SMILES IDX 62 48 33 50 55 51 40 52 54 53 41 54 44 55 53 56 67 57 42 58
REMARK SMILES IDX 43 59 52 61 68 62 45 63 34 64 35 65 39 66 36 67 38 68 37 69
REMARK SMILES IDX 56 70 57 71 61 72 58 73 60 74 59 75 46 76 47 77 51 78 48 79
REMARK SMILES IDX 50 80 49 81
REMARK H PARENT 17 6 9 14 6 24 6 25 22 30 66 49 44 60
REMARK Flexibility Score: inf
ROOT
ATOM      1  C   UNL A   1      34.905  30.890  27.760  1.00  0.00     0.023 C 
ENDROOT
BRANCH   1   2
ATOM      2  C   UNL A   1      34.620  29.441  27.386  1.00  0.00     0.116 C 
BRANCH   2   3
ATOM      3  N   UNL A   1      33.328  28.942  27.839  1.00  0.00    -0.352 N 
ATOM      4  C   UNL A   1      32.386  28.171  27.189  1.00  0.00     0.251 C 
ATOM      5  O   UNL A   1      31.340  27.891  27.771  1.00  0.00    -0.269 OA
ATOM      6  H   UNL A   1      33.088  29.199  28.759  1.00  0.00     0.163 HD
BRANCH   4   7
ATOM      7  C   UNL A   1      32.578  27.730  25.782  1.00  0.00     0.041 A 
ATOM      8  C   UNL A   1      31.959  27.882  23.427  1.00  0.00     0.040 A 
ATOM      9  C   UNL A   1      32.663  26.692  23.197  1.00  0.00     0.026 A 
ATOM     10  C   UNL A   1      32.012  28.426  24.713  1.00  0.00     0.040 A 
ATOM     11  C   UNL A   1      33.369  26.062  24.229  1.00  0.00     0.003 A 
ATOM     12  C   UNL A   1      33.309  26.569  25.527  1.00  0.00     0.014 A 
BRANCH   8  13
ATOM     13  N   UNL A   1      31.160  28.437  22.409  1.00  0.00    -0.340 N 
ATOM     14  H   UNL A   1      31.559  28.424  21.510  1.00  0.00     0.168 HD
BRANCH  13  15
ATOM     15  C   UNL A   1      29.873  29.009  22.485  1.00  0.00     0.137 A 
ATOM     16  C   UNL A   1      28.484  30.830  22.405  1.00  0.00     0.191 A 
ATOM     17  N   UNL A   1      27.401  30.140  22.771  1.00  0.00    -0.206 NA
ATOM     18  N   UNL A   1      29.708  30.317  22.243  1.00  0.00    -0.205 NA
ATOM     19  C   UNL A   1      27.581  28.839  23.002  1.00  0.00     0.130 A 
ATOM     20  C   UNL A   1      28.811  28.225  22.889  1.00  0.00     0.093 A 
BRANCH  16  21
ATOM     21  S   UNL A   1      28.320  32.576  22.163  1.00  0.00    -0.090 SA
ATOM     22  C   UNL A   1      27.850  32.535  20.422  1.00  0.00     0.094 C 
ENDBRANCH  16  21
BRANCH  19  23
ATOM     23  N   UNL A   1      26.477  28.139  23.449  1.00  0.00    -0.383 N 
ATOM     24  H   UNL A   1      25.593  28.571  23.464  1.00  0.00     0.158 HD
ATOM     25  H   UNL A   1      26.574  27.206  23.750  1.00  0.00     0.158 HD
ENDBRANCH  19  23
ENDBRANCH  13  15
ENDBRANCH   8  13
ENDBRANCH   4   7
ENDBRANCH   2   3
ENDBRANCH   1   2
BRANCH   1  26
ATOM     26  C   UNL A   1      33.697  31.809  27.879  1.00  0.00     0.023 C 
BRANCH  26  27
ATOM     27  C   UNL A   1      33.978  33.302  27.757  1.00  0.00     0.116 C 
BRANCH  27  28
ATOM     28  N   UNL A   1      33.357  34.110  28.799  1.00  0.00    -0.352 N 
ATOM     29  C   UNL A   1      33.735  34.304  30.109  1.00  0.00     0.251 C 
ATOM     30  H   UNL A   1      32.543  34.590  28.524  1.00  0.00     0.163 HD
ATOM     31  O   UNL A   1      33.029  34.962  30.864  1.00  0.00    -0.269 OA
BRANCH  29  32
ATOM     32  C   UNL A   1      34.970  33.675  30.626  1.00  0.00     0.039 A 
ATOM     33  C   UNL A   1      34.857  32.549  31.447  1.00  0.00     0.014 A 
ATOM     34  C   UNL A   1      36.232  34.167  30.285  1.00  0.00     0.014 A 
ATOM     35  C   UNL A   1      36.006  31.859  31.840  1.00  0.00     0.010 A 
ATOM     36  C   UNL A   1      37.370  33.432  30.606  1.00  0.00     0.010 A 
ATOM     37  C   UNL A   1      37.268  32.263  31.377  1.00  0.00    -0.014 A 
BRANCH  37  38
ATOM     38  C   UNL A   1      38.487  31.465  31.663  1.00  0.00     0.031 A 
ATOM     39  C   UNL A   1      39.366  31.812  32.833  1.00  0.00     0.074 A 
ATOM     40  C   UNL A   1      38.848  30.474  30.823  1.00  0.00     0.049 A 
ATOM     41  N   UNL A   1      40.501  31.272  33.200  1.00  0.00    -0.248 NA
ATOM     42  C   UNL A   1      38.927  32.928  33.686  1.00  0.00     0.031 C 
ATOM     43  C   UNL A   1      38.111  30.067  29.623  1.00  0.00     0.029 A 
ATOM     44  N   UNL A   1      39.932  29.632  30.846  1.00  0.00    -0.354 N 
ATOM     45  C   UNL A   1      40.922  31.996  34.308  1.00  0.00     0.074 A 
ATOM     46  C   UNL A   1      39.944  33.040  34.528  1.00  0.00     0.031 C 
ATOM     47  C   UNL A   1      38.748  29.035  29.045  1.00  0.00     0.029 A 
ATOM     48  C   UNL A   1      39.955  28.734  29.806  1.00  0.00     0.049 A 
ATOM     49  H   UNL A   1      40.627  29.668  31.542  1.00  0.00     0.167 HD
ATOM     50  C   UNL A   1      42.013  31.800  35.088  1.00  0.00     0.031 A 
ATOM     51  C   UNL A   1      40.850  27.777  29.497  1.00  0.00     0.031 A 
ATOM     52  C   UNL A   1      42.977  30.752  34.884  1.00  0.00     0.049 A 
ATOM     53  C   UNL A   1      42.052  27.580  30.377  1.00  0.00     0.074 A 
ATOM     54  C   UNL A   1      44.076  30.431  35.660  1.00  0.00     0.029 A 
ATOM     55  N   UNL A   1      42.955  29.855  33.827  1.00  0.00    -0.354 N 
ATOM     56  N   UNL A   1      42.393  28.225  31.465  1.00  0.00    -0.248 NA
ATOM     57  C   UNL A   1      42.988  26.515  29.989  1.00  0.00     0.031 C 
ATOM     58  C   UNL A   1      44.747  29.367  35.047  1.00  0.00     0.029 A 
ATOM     59  C   UNL A   1      44.037  28.996  33.918  1.00  0.00     0.049 A 
ATOM     60  H   UNL A   1      42.274  29.834  33.118  1.00  0.00     0.167 HD
ATOM     61  C   UNL A   1      43.567  27.628  31.906  1.00  0.00     0.074 A 
ATOM     62  C   UNL A   1      43.870  26.560  30.976  1.00  0.00     0.031 C 
ATOM     63  C   UNL A   1      44.325  27.937  32.986  1.00  0.00     0.031 A 
BRANCH  50  64
ATOM     64  C   UNL A   1      42.220  32.748  36.234  1.00  0.00    -0.014 A 
ATOM     65  C   UNL A   1      41.692  32.477  37.506  1.00  0.00     0.009 A 
ATOM     66  C   UNL A   1      42.984  33.910  36.050  1.00  0.00     0.009 A 
ATOM     67  C   UNL A   1      41.890  33.372  38.560  1.00  0.00     0.001 A 
ATOM     68  C   UNL A   1      43.206  34.789  37.112  1.00  0.00     0.001 A 
ATOM     69  C   UNL A   1      42.650  34.524  38.363  1.00  0.00     0.000 A 
ENDBRANCH  50  64
BRANCH  51  70
ATOM     70  C   UNL A   1      40.635  26.910  28.310  1.00  0.00    -0.014 A 
ATOM     71  C   UNL A   1      39.827  25.766  28.405  1.00  0.00     0.009 A 
ATOM     72  C   UNL A   1      41.244  27.211  27.082  1.00  0.00     0.009 A 
ATOM     73  C   UNL A   1      39.656  24.927  27.301  1.00  0.00     0.001 A 
ATOM     74  C   UNL A   1      41.048  26.385  25.973  1.00  0.00     0.001 A 
ATOM     75  C   UNL A   1      40.262  25.238  26.087  1.00  0.00     0.000 A 
ENDBRANCH  51  70
BRANCH  63  76
ATOM     76  C   UNL A   1      45.536  27.086  33.240  1.00  0.00    -0.014 A 
ATOM     77  C   UNL A   1      46.813  27.497  32.826  1.00  0.00     0.009 A 
ATOM     78  C   UNL A   1      45.401  25.874  33.933  1.00  0.00     0.009 A 
ATOM     79  C   UNL A   1      47.928  26.692  33.077  1.00  0.00     0.001 A 
ATOM     80  C   UNL A   1      46.519  25.086  34.206  1.00  0.00     0.001 A 
ATOM     81  C   UNL A   1      47.780  25.491  33.770  1.00  0.00     0.000 A 
ENDBRANCH  63  76
ENDBRANCH  37  38
ENDBRANCH  29  32
ENDBRANCH  27  28
ENDBRANCH  26  27
ENDBRANCH   1  26
TORSDOF 15
ENDMDL
MODEL 2
REMARK VINA RESULT:     -10.8      5.856     10.109
REMARK SMILES CSc1nc(N)cc(Nc2cccc(C(=O)NCCCCNC(=O)c3ccc(-c4c5nc(c(-c6ccccc6)c6ccc([nH]6)c(-c6ccccc6)c6nc(c(-c7ccccc7)c7ccc4[nH]7)C=C6)C=C5)cc3)c2)n1
REMARK SMILES IDX 19 1 18 2 17 3 15 4 16 5 14 7 10 8 11 9 73 10 12 11 13 12
REMARK SMILES IDX 9 13 8 15 3 16 4 17 74 18 5 19 7 20 2 21 1 22 6 23 20 26
REMARK SMILES IDX 21 27 22 28 23 29 24 31 25 32 26 33 72 34 27 35 71 36 28 37
REMARK SMILES IDX 29 38 30 39 65 40 31 41 70 42 64 43 66 44 32 45 69 46 63 47
REMARK SMILES IDX 62 48 33 50 55 51 40 52 54 53 41 54 44 55 53 56 67 57 42 58
REMARK SMILES IDX 43 59 52 61 68 62 45 63 34 64 35 65 39 66 36 67 38 68 37 69
REMARK SMILES IDX 56 70 57 71 61 72 58 73 60 74 59 75 46 76 47 77 51 78 48 79
REMARK SMILES IDX 50 80 49 81
REMARK H PARENT 17 6 9 14 6 24 6 25 22 30 66 49 44 60
REMARK Flexibility Score: inf
ROOT
ATOM      1  C   UNL A   1      39.022  22.852  26.461  1.00  0.00     0.023 C 
ENDROOT
BRANCH   1   2
ATOM      2  C   UNL A   1      37.883  23.739  25.976  1.00  0.00     0.116 C 
BRANCH   2   3
ATOM      3  N   UNL A   1      37.517  23.545  24.579  1.00  0.00    -0.352 N 
ATOM      4  C   UNL A   1      36.284  23.340  23.995  1.00  0.00     0.251 C 
ATOM      5  O   UNL A   1      36.221  23.172  22.778  1.00  0.00    -0.269 OA
ATOM      6  H   UNL A   1      38.274  23.562  23.950  1.00  0.00     0.163 HD
BRANCH   4   7
ATOM      7  C   UNL A   1      35.042  23.250  24.808  1.00  0.00     0.041 A 
ATOM      8  C   UNL A   1      33.160  21.937  25.637  1.00  0.00     0.040 A 
ATOM      9  C   UNL A   1      32.541  23.130  26.032  1.00  0.00     0.026 A 
ATOM     10  C   UNL A   1      34.453  22.022  25.111  1.00  0.00     0.040 A 
ATOM     11  C   UNL A   1      33.188  24.362  25.878  1.00  0.00     0.003 A 
ATOM     12  C   UNL A   1      34.430  24.426  25.246  1.00  0.00     0.014 A 
BRANCH   8  13
ATOM     13  N   UNL A   1      32.451  20.721  25.690  1.00  0.00    -0.340 N 
ATOM     14  H   UNL A   1      31.771  20.665  26.399  1.00  0.00     0.168 HD
BRANCH  13  15
ATOM     15  C   UNL A   1      32.568  19.573  24.880  1.00  0.00     0.137 A 
ATOM     16  C   UNL A   1      33.251  17.409  24.562  1.00  0.00     0.191 A 
ATOM     17  N   UNL A   1      32.923  17.395  23.268  1.00  0.00    -0.206 NA
ATOM     18  N   UNL A   1      33.085  18.447  25.389  1.00  0.00    -0.205 NA
ATOM     19  C   UNL A   1      32.403  18.522  22.778  1.00  0.00     0.130 A 
ATOM     20  C   UNL A   1      32.221  19.652  23.546  1.00  0.00     0.093 A 
BRANCH  16  21
ATOM     21  S   UNL A   1      34.018  15.967  25.246  1.00  0.00    -0.090 SA
ATOM     22  C   UNL A   1      32.517  15.012  25.538  1.00  0.00     0.094 C 
ENDBRANCH  16  21
BRANCH  19  23
ATOM     23  N   UNL A   1      32.129  18.531  21.425  1.00  0.00    -0.383 N 
ATOM     24  H   UNL A   1      32.867  18.526  20.773  1.00  0.00     0.158 HD
ATOM     25  H   UNL A   1      31.195  18.540  21.112  1.00  0.00     0.158 HD
ENDBRANCH  19  23
ENDBRANCH  13  15
ENDBRANCH   8  13
ENDBRANCH   4   7
ENDBRANCH   2   3
ENDBRANCH   1   2
BRANCH   1  26
ATOM     26  C   UNL A   1      39.201  21.524  25.739  1.00  0.00     0.023 C 
BRANCH  26  27
ATOM     27  C   UNL A   1      39.530  20.323  26.619  1.00  0.00     0.116 C 
BRANCH  27  28
ATOM     28  N   UNL A   1      40.571  19.459  26.078  1.00  0.00    -0.352 N 
ATOM     29  C   UNL A   1      41.927  19.672  25.965  1.00  0.00     0.251 C 
ATOM     30  H   UNL A   1      40.256  18.590  25.740  1.00  0.00     0.163 HD
ATOM     31  O   UNL A   1      42.636  18.849  25.399  1.00  0.00    -0.269 OA
BRANCH  29  32
ATOM     32  C   UNL A   1      42.527  20.922  26.483  1.00  0.00     0.039 A 
ATOM     33  C   UNL A   1      42.998  21.869  25.569  1.00  0.00     0.014 A 
ATOM     34  C   UNL A   1      42.601  21.177  27.855  1.00  0.00     0.014 A 
ATOM     35  C   UNL A   1      43.446  23.110  26.026  1.00  0.00     0.010 A 
ATOM     36  C   UNL A   1      42.968  22.443  28.303  1.00  0.00     0.010 A 
ATOM     37  C   UNL A   1      43.383  23.427  27.392  1.00  0.00    -0.014 A 
BRANCH  37  38
ATOM     38  C   UNL A   1      43.720  24.787  27.886  1.00  0.00     0.031 A 
ATOM     39  C   UNL A   1      42.630  25.781  28.179  1.00  0.00     0.074 A 
ATOM     40  C   UNL A   1      45.012  25.155  27.996  1.00  0.00     0.049 A 
ATOM     41  N   UNL A   1      42.733  27.031  28.553  1.00  0.00    -0.248 NA
ATOM     42  C   UNL A   1      41.244  25.318  28.003  1.00  0.00     0.031 C 
ATOM     43  C   UNL A   1      46.166  24.304  27.697  1.00  0.00     0.029 A 
ATOM     44  N   UNL A   1      45.572  26.347  28.385  1.00  0.00    -0.354 N 
ATOM     45  C   UNL A   1      41.432  27.509  28.634  1.00  0.00     0.074 A 
ATOM     46  C   UNL A   1      40.558  26.429  28.228  1.00  0.00     0.031 C 
ATOM     47  C   UNL A   1      47.295  24.991  27.942  1.00  0.00     0.029 A 
ATOM     48  C   UNL A   1      46.946  26.339  28.376  1.00  0.00     0.049 A 
ATOM     49  H   UNL A   1      45.039  27.132  28.645  1.00  0.00     0.167 HD
ATOM     50  C   UNL A   1      40.998  28.730  29.029  1.00  0.00     0.031 A 
ATOM     51  C   UNL A   1      47.828  27.310  28.680  1.00  0.00     0.031 A 
ATOM     52  C   UNL A   1      41.862  29.800  29.451  1.00  0.00     0.049 A 
ATOM     53  C   UNL A   1      47.321  28.656  29.114  1.00  0.00     0.074 A 
ATOM     54  C   UNL A   1      41.513  31.049  29.933  1.00  0.00     0.029 A 
ATOM     55  N   UNL A   1      43.247  29.747  29.440  1.00  0.00    -0.354 N 
ATOM     56  N   UNL A   1      46.085  29.066  29.257  1.00  0.00    -0.248 NA
ATOM     57  C   UNL A   1      48.335  29.670  29.437  1.00  0.00     0.031 C 
ATOM     58  C   UNL A   1      42.689  31.769  30.172  1.00  0.00     0.029 A 
ATOM     59  C   UNL A   1      43.768  30.950  29.884  1.00  0.00     0.049 A 
ATOM     60  H   UNL A   1      43.780  28.969  29.157  1.00  0.00     0.167 HD
ATOM     61  C   UNL A   1      46.172  30.376  29.712  1.00  0.00     0.074 A 
ATOM     62  C   UNL A   1      47.581  30.686  29.835  1.00  0.00     0.031 C 
ATOM     63  C   UNL A   1      45.172  31.243  30.003  1.00  0.00     0.031 A 
BRANCH  50  64
ATOM     64  C   UNL A   1      39.516  28.973  29.017  1.00  0.00    -0.014 A 
ATOM     65  C   UNL A   1      38.736  28.766  30.166  1.00  0.00     0.009 A 
ATOM     66  C   UNL A   1      38.894  29.447  27.851  1.00  0.00     0.009 A 
ATOM     67  C   UNL A   1      37.358  28.991  30.136  1.00  0.00     0.001 A 
ATOM     68  C   UNL A   1      37.522  29.699  27.833  1.00  0.00     0.001 A 
ATOM     69  C   UNL A   1      36.753  29.462  28.972  1.00  0.00     0.000 A 
ENDBRANCH  50  64
BRANCH  51  70
ATOM     70  C   UNL A   1      49.288  27.041  28.607  1.00  0.00    -0.014 A 
ATOM     71  C   UNL A   1      49.980  27.214  27.398  1.00  0.00     0.009 A 
ATOM     72  C   UNL A   1      49.993  26.598  29.735  1.00  0.00     0.009 A 
ATOM     73  C   UNL A   1      51.344  26.924  27.315  1.00  0.00     0.001 A 
ATOM     74  C   UNL A   1      51.362  26.334  29.656  1.00  0.00     0.001 A 
ATOM     75  C   UNL A   1      52.034  26.489  28.444  1.00  0.00     0.000 A 
ENDBRANCH  51  70
BRANCH  63  76
ATOM     76  C   UNL A   1      45.568  32.598  30.516  1.00  0.00    -0.014 A 
ATOM     77  C   UNL A   1      45.756  33.680  29.643  1.00  0.00     0.009 A 
ATOM     78  C   UNL A   1      45.719  32.801  31.896  1.00  0.00     0.009 A 
ATOM     79  C   UNL A   1      46.118  34.934  30.142  1.00  0.00     0.001 A 
ATOM     80  C   UNL A   1      46.054  34.060  32.393  1.00  0.00     0.001 A 
ATOM     81  C   UNL A   1      46.263  35.123  31.515  1.00  0.00     0.000 A 
ENDBRANCH  63  76
ENDBRANCH  37  38
ENDBRANCH  29  32
ENDBRANCH  27  28
ENDBRANCH  26  27
ENDBRANCH   1  26
TORSDOF 15
ENDMDL
MODEL 3
REMARK VINA RESULT:     -10.5      1.447      6.194
REMARK SMILES CSc1nc(N)cc(Nc2cccc(C(=O)NCCCCNC(=O)c3ccc(-c4c5nc(c(-c6ccccc6)c6ccc([nH]6)c(-c6ccccc6)c6nc(c(-c7ccccc7)c7ccc4[nH]7)C=C6)C=C5)cc3)c2)n1
REMARK SMILES IDX 19 1 18 2 17 3 15 4 16 5 14 7 10 8 11 9 73 10 12 11 13 12
REMARK SMILES IDX 9 13 8 15 3 16 4 17 74 18 5 19 7 20 2 21 1 22 6 23 20 26
REMARK SMILES IDX 21 27 22 28 23 29 24 31 25 32 26 33 72 34 27 35 71 36 28 37
REMARK SMILES IDX 29 38 30 39 65 40 31 41 70 42 64 43 66 44 32 45 69 46 63 47
REMARK SMILES IDX 62 48 33 50 55 51 40 52 54 53 41 54 44 55 53 56 67 57 42 58
REMARK SMILES IDX 43 59 52 61 68 62 45 63 34 64 35 65 39 66 36 67 38 68 37 69
REMARK SMILES IDX 56 70 57 71 61 72 58 73 60 74 59 75 46 76 47 77 51 78 48 79
REMARK SMILES IDX 50 80 49 81
REMARK H PARENT 17 6 9 14 6 24 6 25 22 30 66 49 44 60
REMARK Flexibility Score: inf
ROOT
ATOM      1  C   UNL A   1      34.605  30.838  28.102  1.00  0.00     0.023 C 
ENDROOT
BRANCH   1   2
ATOM      2  C   UNL A   1      34.388  29.472  27.465  1.00  0.00     0.116 C 
BRANCH   2   3
ATOM      3  N   UNL A   1      33.119  28.842  27.802  1.00  0.00    -0.352 N 
ATOM      4  C   UNL A   1      32.271  28.068  27.036  1.00  0.00     0.251 C 
ATOM      5  O   UNL A   1      31.223  27.660  27.535  1.00  0.00    -0.269 OA
ATOM      6  H   UNL A   1      32.817  28.995  28.726  1.00  0.00     0.163 HD
BRANCH   4   7
ATOM      7  C   UNL A   1      32.562  27.773  25.608  1.00  0.00     0.041 A 
ATOM      8  C   UNL A   1      31.949  27.961  23.254  1.00  0.00     0.040 A 
ATOM      9  C   UNL A   1      32.880  26.955  22.963  1.00  0.00     0.026 A 
ATOM     10  C   UNL A   1      31.878  28.414  24.575  1.00  0.00     0.040 A 
ATOM     11  C   UNL A   1      33.687  26.408  23.968  1.00  0.00     0.003 A 
ATOM     12  C   UNL A   1      33.514  26.801  25.295  1.00  0.00     0.014 A 
BRANCH   8  13
ATOM     13  N   UNL A   1      31.065  28.416  22.256  1.00  0.00    -0.340 N 
ATOM     14  H   UNL A   1      31.398  28.333  21.334  1.00  0.00     0.168 HD
BRANCH  13  15
ATOM     15  C   UNL A   1      29.775  28.971  22.380  1.00  0.00     0.137 A 
ATOM     16  C   UNL A   1      28.357  30.770  22.327  1.00  0.00     0.191 A 
ATOM     17  N   UNL A   1      27.302  30.073  22.759  1.00  0.00    -0.206 NA
ATOM     18  N   UNL A   1      29.579  30.270  22.118  1.00  0.00    -0.205 NA
ATOM     19  C   UNL A   1      27.513  28.780  23.010  1.00  0.00     0.130 A 
ATOM     20  C   UNL A   1      28.745  28.182  22.852  1.00  0.00     0.093 A 
BRANCH  16  21
ATOM     21  S   UNL A   1      28.155  32.508  22.054  1.00  0.00    -0.090 SA
ATOM     22  C   UNL A   1      29.334  33.085  23.290  1.00  0.00     0.094 C 
ENDBRANCH  16  21
BRANCH  19  23
ATOM     23  N   UNL A   1      26.442  28.076  23.523  1.00  0.00    -0.383 N 
ATOM     24  H   UNL A   1      25.616  28.549  23.773  1.00  0.00     0.158 HD
ATOM     25  H   UNL A   1      26.504  27.100  23.638  1.00  0.00     0.158 HD
ENDBRANCH  19  23
ENDBRANCH  13  15
ENDBRANCH   8  13
ENDBRANCH   4   7
ENDBRANCH   2   3
ENDBRANCH   1   2
BRANCH   1  26
ATOM     26  C   UNL A   1      34.036  32.034  27.352  1.00  0.00     0.023 C 
BRANCH  26  27
ATOM     27  C   UNL A   1      32.614  32.441  27.720  1.00  0.00     0.116 C 
BRANCH  27  28
ATOM     28  N   UNL A   1      32.415  33.881  27.814  1.00  0.00    -0.352 N 
ATOM     29  C   UNL A   1      33.126  34.828  28.516  1.00  0.00     0.251 C 
ATOM     30  H   UNL A   1      31.654  34.231  27.296  1.00  0.00     0.163 HD
ATOM     31  O   UNL A   1      32.750  35.994  28.537  1.00  0.00    -0.269 OA
BRANCH  29  32
ATOM     32  C   UNL A   1      34.322  34.432  29.293  1.00  0.00     0.039 A 
ATOM     33  C   UNL A   1      34.141  33.839  30.547  1.00  0.00     0.014 A 
ATOM     34  C   UNL A   1      35.610  34.613  28.785  1.00  0.00     0.014 A 
ATOM     35  C   UNL A   1      35.243  33.337  31.241  1.00  0.00     0.010 A 
ATOM     36  C   UNL A   1      36.697  34.038  29.438  1.00  0.00     0.010 A 
ATOM     37  C   UNL A   1      36.524  33.383  30.667  1.00  0.00    -0.014 A 
BRANCH  37  38
ATOM     38  C   UNL A   1      37.687  32.730  31.320  1.00  0.00     0.031 A 
ATOM     39  C   UNL A   1      38.324  31.516  30.703  1.00  0.00     0.074 A 
ATOM     40  C   UNL A   1      38.123  33.184  32.512  1.00  0.00     0.049 A 
ATOM     41  N   UNL A   1      39.302  30.775  31.159  1.00  0.00    -0.248 NA
ATOM     42  C   UNL A   1      37.772  31.057  29.418  1.00  0.00     0.031 C 
ATOM     43  C   UNL A   1      37.563  34.323  33.244  1.00  0.00     0.029 A 
ATOM     44  N   UNL A   1      39.137  32.736  33.323  1.00  0.00    -0.354 N 
ATOM     45  C   UNL A   1      39.466  29.753  30.233  1.00  0.00     0.074 A 
ATOM     46  C   UNL A   1      38.458  29.943  29.211  1.00  0.00     0.031 C 
ATOM     47  C   UNL A   1      38.260  34.502  34.379  1.00  0.00     0.029 A 
ATOM     48  C   UNL A   1      39.287  33.471  34.475  1.00  0.00     0.049 A 
ATOM     49  H   UNL A   1      39.703  31.963  33.100  1.00  0.00     0.167 HD
ATOM     50  C   UNL A   1      40.383  28.757  30.221  1.00  0.00     0.031 A 
ATOM     51  C   UNL A   1      40.151  33.327  35.497  1.00  0.00     0.031 A 
ATOM     52  C   UNL A   1      41.397  28.575  31.224  1.00  0.00     0.049 A 
ATOM     53  C   UNL A   1      41.158  32.213  35.459  1.00  0.00     0.074 A 
ATOM     54  C   UNL A   1      42.413  27.637  31.262  1.00  0.00     0.029 A 
ATOM     55  N   UNL A   1      41.523  29.349  32.367  1.00  0.00    -0.354 N 
ATOM     56  N   UNL A   1      41.348  31.301  34.537  1.00  0.00    -0.248 NA
ATOM     57  C   UNL A   1      42.078  32.115  36.602  1.00  0.00     0.031 C 
ATOM     58  C   UNL A   1      43.127  27.814  32.452  1.00  0.00     0.029 A 
ATOM     59  C   UNL A   1      42.585  28.893  33.130  1.00  0.00     0.049 A 
ATOM     60  H   UNL A   1      40.942  30.108  32.602  1.00  0.00     0.167 HD
ATOM     61  C   UNL A   1      42.423  30.539  34.974  1.00  0.00     0.074 A 
ATOM     62  C   UNL A   1      42.854  31.104  36.237  1.00  0.00     0.031 C 
ATOM     63  C   UNL A   1      43.002  29.466  34.382  1.00  0.00     0.031 A 
BRANCH  50  64
ATOM     64  C   UNL A   1      40.325  27.780  29.080  1.00  0.00    -0.014 A 
ATOM     65  C   UNL A   1      41.039  28.005  27.893  1.00  0.00     0.009 A 
ATOM     66  C   UNL A   1      39.573  26.602  29.207  1.00  0.00     0.009 A 
ATOM     67  C   UNL A   1      40.970  27.089  26.841  1.00  0.00     0.001 A 
ATOM     68  C   UNL A   1      39.528  25.674  28.165  1.00  0.00     0.001 A 
ATOM     69  C   UNL A   1      40.219  25.923  26.979  1.00  0.00     0.000 A 
ENDBRANCH  50  64
BRANCH  51  70
ATOM     70  C   UNL A   1      40.122  34.279  36.638  1.00  0.00    -0.014 A 
ATOM     71  C   UNL A   1      39.358  33.990  37.780  1.00  0.00     0.009 A 
ATOM     72  C   UNL A   1      40.841  35.482  36.588  1.00  0.00     0.009 A 
ATOM     73  C   UNL A   1      39.295  34.901  38.838  1.00  0.00     0.001 A 
ATOM     74  C   UNL A   1      40.798  36.378  37.659  1.00  0.00     0.001 A 
ATOM     75  C   UNL A   1      40.017  36.091  38.778  1.00  0.00     0.000 A 
ENDBRANCH  51  70
BRANCH  63  76
ATOM     76  C   UNL A   1      44.186  28.857  35.076  1.00  0.00    -0.014 A 
ATOM     77  C   UNL A   1      44.030  27.808  35.995  1.00  0.00     0.009 A 
ATOM     78  C   UNL A   1      45.478  29.315  34.777  1.00  0.00     0.009 A 
ATOM     79  C   UNL A   1      45.146  27.252  36.626  1.00  0.00     0.001 A 
ATOM     80  C   UNL A   1      46.592  28.738  35.386  1.00  0.00     0.001 A 
ATOM     81  C   UNL A   1      46.425  27.714  36.317  1.00  0.00     0.000 A 
ENDBRANCH  63  76
ENDBRANCH  37  38
ENDBRANCH  29  32
ENDBRANCH  27  28
ENDBRANCH  26  27
ENDBRANCH   1  26
TORSDOF 15
ENDMDL
