MODEL 1
REMARK VINA RESULT:     -10.4      0.000      0.000
REMARK SMILES O=C(CN(CC(F)(F)F)c1nc(-c2ccccc2)cs1)NCCCCNC(=O)c1ccc(-c2c3nc(c(-c4ccccc4)c4ccc([nH]4)c(-c4ccccc4)c4nc(c(-c5ccccc5)c5ccc2[nH]5)C=C4)C=C3)cc1
REMARK SMILES IDX 23 1 22 2 21 3 1 4 2 5 3 7 4 8 5 9 6 10 7 11 8 12 9 13 10 14
REMARK SMILES IDX 11 15 20 16 12 17 19 18 13 19 14 20 18 21 15 22 17 23 16 24
REMARK SMILES IDX 24 25 25 26 26 27 27 28 28 30 29 31 30 32 76 33 31 34 75 35
REMARK SMILES IDX 32 36 33 37 34 38 69 39 35 40 74 41 68 42 70 43 36 44 73 45
REMARK SMILES IDX 67 46 66 47 37 49 59 50 44 51 58 52 45 53 48 54 57 55 71 56
REMARK SMILES IDX 46 57 47 58 56 60 72 61 49 62 38 63 39 64 43 65 40 66 42 67
REMARK SMILES IDX 41 68 60 69 61 70 65 71 62 72 64 73 63 74 50 75 51 76 55 77
REMARK SMILES IDX 52 78 54 79 53 80
REMARK H PARENT 21 6 26 29 70 48 48 59
REMARK Flexibility Score: inf
ROOT
ATOM      1  C   UNL A   1      32.863  29.357  24.838  1.00  0.00     0.023 C 
ENDROOT
BRANCH   1   2
ATOM      2  C   UNL A   1      32.883  28.938  23.368  1.00  0.00     0.116 C 
BRANCH   2   3
ATOM      3  N   UNL A   1      32.792  27.506  23.177  1.00  0.00    -0.355 N 
ATOM      4  O   UNL A   1      30.832  27.558  21.980  1.00  0.00    -0.273 OA
ATOM      5  C   UNL A   1      31.796  26.929  22.411  1.00  0.00     0.239 C 
ATOM      6  H   UNL A   1      33.460  26.924  23.607  1.00  0.00     0.163 HD
BRANCH   5   7
ATOM      7  C   UNL A   1      31.906  25.402  22.245  1.00  0.00     0.219 C 
BRANCH   7   8
ATOM      8  N   UNL A   1      31.719  24.634  23.492  1.00  0.00    -0.330 N 
BRANCH   8   9
ATOM      9  C   UNL A   1      30.465  24.801  24.255  1.00  0.00     0.234 C 
BRANCH   9  10
ATOM     10  C   UNL A   1      30.550  25.189  25.739  1.00  0.00     0.406 C 
ATOM     11  F   UNL A   1      29.391  25.707  26.201  1.00  0.00    -0.169 F 
ATOM     12  F   UNL A   1      30.799  24.084  26.488  1.00  0.00    -0.169 F 
ATOM     13  F   UNL A   1      31.542  26.070  25.987  1.00  0.00    -0.169 F 
ENDBRANCH   9  10
ENDBRANCH   8   9
BRANCH   8  14
ATOM     14  C   UNL A   1      32.606  23.631  23.750  1.00  0.00     0.186 A 
ATOM     15  N   UNL A   1      33.819  23.864  24.197  1.00  0.00    -0.220 NA
ATOM     16  S   UNL A   1      32.278  21.959  23.466  1.00  0.00    -0.105 S 
ATOM     17  C   UNL A   1      34.540  22.689  24.315  1.00  0.00     0.083 A 
ATOM     18  C   UNL A   1      33.860  21.547  23.952  1.00  0.00     0.097 A 
BRANCH  17  19
ATOM     19  C   UNL A   1      35.891  22.670  24.842  1.00  0.00     0.001 A 
ATOM     20  C   UNL A   1      36.691  21.524  24.740  1.00  0.00     0.010 A 
ATOM     21  C   UNL A   1      36.395  23.805  25.488  1.00  0.00     0.010 A 
ATOM     22  C   UNL A   1      37.973  21.511  25.294  1.00  0.00     0.001 A 
ATOM     23  C   UNL A   1      37.673  23.786  26.050  1.00  0.00     0.001 A 
ATOM     24  C   UNL A   1      38.459  22.638  25.955  1.00  0.00     0.000 A 
ENDBRANCH  17  19
ENDBRANCH   8  14
ENDBRANCH   7   8
ENDBRANCH   5   7
ENDBRANCH   2   3
ENDBRANCH   1   2
BRANCH   1  25
ATOM     25  C   UNL A   1      33.757  28.531  25.766  1.00  0.00     0.023 C 
BRANCH  25  26
ATOM     26  C   UNL A   1      33.524  28.730  27.260  1.00  0.00     0.116 C 
BRANCH  26  27
ATOM     27  N   UNL A   1      33.566  30.125  27.673  1.00  0.00    -0.352 N 
ATOM     28  C   UNL A   1      34.585  30.835  28.261  1.00  0.00     0.251 C 
ATOM     29  H   UNL A   1      32.741  30.636  27.506  1.00  0.00     0.163 HD
ATOM     30  O   UNL A   1      34.387  31.986  28.646  1.00  0.00    -0.269 OA
BRANCH  28  31
ATOM     31  C   UNL A   1      35.914  30.216  28.469  1.00  0.00     0.039 A 
ATOM     32  C   UNL A   1      36.824  30.203  27.408  1.00  0.00     0.014 A 
ATOM     33  C   UNL A   1      36.268  29.645  29.695  1.00  0.00     0.014 A 
ATOM     34  C   UNL A   1      38.112  29.693  27.599  1.00  0.00     0.010 A 
ATOM     35  C   UNL A   1      37.574  29.208  29.907  1.00  0.00     0.010 A 
ATOM     36  C   UNL A   1      38.512  29.229  28.863  1.00  0.00    -0.014 A 
BRANCH  36  37
ATOM     37  C   UNL A   1      39.909  28.783  29.115  1.00  0.00     0.031 A 
ATOM     38  C   UNL A   1      40.913  29.724  29.725  1.00  0.00     0.074 A 
ATOM     39  C   UNL A   1      40.295  27.549  28.734  1.00  0.00     0.049 A 
ATOM     40  N   UNL A   1      42.187  29.531  29.963  1.00  0.00    -0.248 NA
ATOM     41  C   UNL A   1      40.428  31.063  30.097  1.00  0.00     0.031 C 
ATOM     42  C   UNL A   1      39.434  26.548  28.100  1.00  0.00     0.029 A 
ATOM     43  N   UNL A   1      41.517  26.926  28.822  1.00  0.00    -0.354 N 
ATOM     44  C   UNL A   1      42.656  30.725  30.497  1.00  0.00     0.074 A 
ATOM     45  C   UNL A   1      41.545  31.652  30.499  1.00  0.00     0.031 C 
ATOM     46  C   UNL A   1      40.146  25.431  27.882  1.00  0.00     0.029 A 
ATOM     47  C   UNL A   1      41.522  25.648  28.316  1.00  0.00     0.049 A 
ATOM     48  H   UNL A   1      42.313  27.355  29.210  1.00  0.00     0.167 HD
ATOM     49  C   UNL A   1      43.894  31.020  30.964  1.00  0.00     0.031 A 
ATOM     50  C   UNL A   1      42.522  24.754  28.202  1.00  0.00     0.031 A 
ATOM     51  C   UNL A   1      45.001  30.100  30.964  1.00  0.00     0.049 A 
ATOM     52  C   UNL A   1      43.896  25.118  28.696  1.00  0.00     0.074 A 
ATOM     53  C   UNL A   1      46.280  30.292  31.460  1.00  0.00     0.029 A 
ATOM     54  N   UNL A   1      44.964  28.818  30.440  1.00  0.00    -0.354 N 
ATOM     55  N   UNL A   1      44.304  26.228  29.260  1.00  0.00    -0.248 NA
ATOM     56  C   UNL A   1      44.943  24.096  28.548  1.00  0.00     0.031 C 
ATOM     57  C   UNL A   1      47.033  29.149  31.180  1.00  0.00     0.029 A 
ATOM     58  C   UNL A   1      46.206  28.218  30.572  1.00  0.00     0.049 A 
ATOM     59  H   UNL A   1      44.173  28.397  30.033  1.00  0.00     0.167 HD
ATOM     60  C   UNL A   1      45.646  26.028  29.561  1.00  0.00     0.074 A 
ATOM     61  C   UNL A   1      45.976  24.685  29.134  1.00  0.00     0.031 C 
ATOM     62  C   UNL A   1      46.525  26.881  30.141  1.00  0.00     0.031 A 
BRANCH  49  63
ATOM     63  C   UNL A   1      44.118  32.407  31.505  1.00  0.00    -0.014 A 
ATOM     64  C   UNL A   1      44.522  33.459  30.668  1.00  0.00     0.009 A 
ATOM     65  C   UNL A   1      43.886  32.673  32.864  1.00  0.00     0.009 A 
ATOM     66  C   UNL A   1      44.727  34.739  31.188  1.00  0.00     0.001 A 
ATOM     67  C   UNL A   1      44.060  33.961  33.374  1.00  0.00     0.001 A 
ATOM     68  C   UNL A   1      44.491  34.990  32.539  1.00  0.00     0.000 A 
ENDBRANCH  49  63
BRANCH  50  69
ATOM     69  C   UNL A   1      42.265  23.419  27.597  1.00  0.00    -0.014 A 
ATOM     70  C   UNL A   1      42.454  23.209  26.223  1.00  0.00     0.009 A 
ATOM     71  C   UNL A   1      41.816  22.351  28.390  1.00  0.00     0.009 A 
ATOM     72  C   UNL A   1      42.170  21.968  25.650  1.00  0.00     0.001 A 
ATOM     73  C   UNL A   1      41.564  21.101  27.820  1.00  0.00     0.001 A 
ATOM     74  C   UNL A   1      41.729  20.914  26.448  1.00  0.00     0.000 A 
ENDBRANCH  50  69
BRANCH  62  75
ATOM     75  C   UNL A   1      47.919  26.375  30.386  1.00  0.00    -0.014 A 
ATOM     76  C   UNL A   1      48.276  25.761  31.597  1.00  0.00     0.009 A 
ATOM     77  C   UNL A   1      48.883  26.479  29.368  1.00  0.00     0.009 A 
ATOM     78  C   UNL A   1      49.578  25.296  31.797  1.00  0.00     0.001 A 
ATOM     79  C   UNL A   1      50.174  25.984  29.559  1.00  0.00     0.001 A 
ATOM     80  C   UNL A   1      50.523  25.402  30.777  1.00  0.00     0.000 A 
ENDBRANCH  62  75
ENDBRANCH  36  37
ENDBRANCH  28  31
ENDBRANCH  26  27
ENDBRANCH  25  26
ENDBRANCH   1  25
TORSDOF 16
ENDMDL
MODEL 2
REMARK VINA RESULT:     -10.4      2.686      7.381
REMARK SMILES O=C(CN(CC(F)(F)F)c1nc(-c2ccccc2)cs1)NCCCCNC(=O)c1ccc(-c2c3nc(c(-c4ccccc4)c4ccc([nH]4)c(-c4ccccc4)c4nc(c(-c5ccccc5)c5ccc2[nH]5)C=C4)C=C3)cc1
REMARK SMILES IDX 23 1 22 2 21 3 1 4 2 5 3 7 4 8 5 9 6 10 7 11 8 12 9 13 10 14
REMARK SMILES IDX 11 15 20 16 12 17 19 18 13 19 14 20 18 21 15 22 17 23 16 24
REMARK SMILES IDX 24 25 25 26 26 27 27 28 28 30 29 31 30 32 76 33 31 34 75 35
REMARK SMILES IDX 32 36 33 37 34 38 69 39 35 40 74 41 68 42 70 43 36 44 73 45
REMARK SMILES IDX 67 46 66 47 37 49 59 50 44 51 58 52 45 53 48 54 57 55 71 56
REMARK SMILES IDX 46 57 47 58 56 60 72 61 49 62 38 63 39 64 43 65 40 66 42 67
REMARK SMILES IDX 41 68 60 69 61 70 65 71 62 72 64 73 63 74 50 75 51 76 55 77
REMARK SMILES IDX 52 78 54 79 53 80
REMARK H PARENT 21 6 26 29 70 48 48 59
REMARK Flexibility Score: inf
ROOT
ATOM      1  C   UNL A   1      36.590  20.823  24.816  1.00  0.00     0.023 C 
ENDROOT
BRANCH   1   2
ATOM      2  C   UNL A   1      36.641  22.004  25.785  1.00  0.00     0.116 C 
BRANCH   2   3
ATOM      3  N   UNL A   1      35.409  22.200  26.519  1.00  0.00    -0.355 N 
ATOM      4  O   UNL A   1      34.909  24.241  25.591  1.00  0.00    -0.273 OA
ATOM      5  C   UNL A   1      34.585  23.287  26.295  1.00  0.00     0.239 C 
ATOM      6  H   UNL A   1      35.149  21.537  27.200  1.00  0.00     0.163 HD
BRANCH   5   7
ATOM      7  C   UNL A   1      33.274  23.286  27.102  1.00  0.00     0.219 C 
BRANCH   7   8
ATOM      8  N   UNL A   1      32.066  22.973  26.312  1.00  0.00    -0.330 N 
BRANCH   8   9
ATOM      9  C   UNL A   1      30.894  23.867  26.411  1.00  0.00     0.234 C 
BRANCH   9  10
ATOM     10  C   UNL A   1      31.044  25.331  25.967  1.00  0.00     0.406 C 
ATOM     11  F   UNL A   1      31.801  26.051  26.823  1.00  0.00    -0.169 F 
ATOM     12  F   UNL A   1      31.671  25.383  24.764  1.00  0.00    -0.169 F 
ATOM     13  F   UNL A   1      29.853  25.951  25.822  1.00  0.00    -0.169 F 
ENDBRANCH   9  10
ENDBRANCH   8   9
BRANCH   8  14
ATOM     14  C   UNL A   1      32.177  22.012  25.352  1.00  0.00     0.186 A 
ATOM     15  N   UNL A   1      32.479  20.766  25.635  1.00  0.00    -0.220 NA
ATOM     16  S   UNL A   1      32.003  22.318  23.660  1.00  0.00    -0.105 S 
ATOM     17  C   UNL A   1      32.595  20.007  24.485  1.00  0.00     0.083 A 
ATOM     18  C   UNL A   1      32.375  20.691  23.309  1.00  0.00     0.097 A 
BRANCH  17  19
ATOM     19  C   UNL A   1      32.867  18.583  24.530  1.00  0.00     0.001 A 
ATOM     20  C   UNL A   1      32.702  17.853  25.715  1.00  0.00     0.010 A 
ATOM     21  C   UNL A   1      33.327  17.932  23.380  1.00  0.00     0.010 A 
ATOM     22  C   UNL A   1      33.012  16.492  25.750  1.00  0.00     0.001 A 
ATOM     23  C   UNL A   1      33.646  16.574  23.420  1.00  0.00     0.001 A 
ATOM     24  C   UNL A   1      33.491  15.856  24.605  1.00  0.00     0.000 A 
ENDBRANCH  17  19
ENDBRANCH   8  14
ENDBRANCH   7   8
ENDBRANCH   5   7
ENDBRANCH   2   3
ENDBRANCH   1   2
BRANCH   1  25
ATOM     25  C   UNL A   1      37.742  19.822  24.942  1.00  0.00     0.023 C 
BRANCH  25  26
ATOM     26  C   UNL A   1      38.940  20.291  25.761  1.00  0.00     0.116 C 
BRANCH  26  27
ATOM     27  N   UNL A   1      40.053  19.354  25.749  1.00  0.00    -0.352 N 
ATOM     28  C   UNL A   1      41.378  19.561  26.051  1.00  0.00     0.251 C 
ATOM     29  H   UNL A   1      39.822  18.434  25.484  1.00  0.00     0.163 HD
ATOM     30  O   UNL A   1      42.196  18.662  25.867  1.00  0.00    -0.269 OA
BRANCH  28  31
ATOM     31  C   UNL A   1      41.838  20.871  26.566  1.00  0.00     0.039 A 
ATOM     32  C   UNL A   1      42.309  21.823  25.657  1.00  0.00     0.014 A 
ATOM     33  C   UNL A   1      41.813  21.167  27.931  1.00  0.00     0.014 A 
ATOM     34  C   UNL A   1      42.679  23.094  26.107  1.00  0.00     0.010 A 
ATOM     35  C   UNL A   1      42.107  22.457  28.369  1.00  0.00     0.010 A 
ATOM     36  C   UNL A   1      42.541  23.437  27.463  1.00  0.00    -0.014 A 
BRANCH  36  37
ATOM     37  C   UNL A   1      42.826  24.816  27.943  1.00  0.00     0.031 A 
ATOM     38  C   UNL A   1      44.226  25.219  28.319  1.00  0.00     0.074 A 
ATOM     39  C   UNL A   1      41.812  25.691  28.103  1.00  0.00     0.049 A 
ATOM     40  N   UNL A   1      44.654  26.355  28.812  1.00  0.00    -0.248 NA
ATOM     41  C   UNL A   1      45.280  24.208  28.139  1.00  0.00     0.031 C 
ATOM     42  C   UNL A   1      40.403  25.419  27.810  1.00  0.00     0.029 A 
ATOM     43  N   UNL A   1      41.813  26.987  28.557  1.00  0.00    -0.354 N 
ATOM     44  C   UNL A   1      46.019  26.190  29.012  1.00  0.00     0.074 A 
ATOM     45  C   UNL A   1      46.338  24.829  28.640  1.00  0.00     0.031 C 
ATOM     46  C   UNL A   1      39.681  26.522  28.065  1.00  0.00     0.029 A 
ATOM     47  C   UNL A   1      40.564  27.562  28.583  1.00  0.00     0.049 A 
ATOM     48  H   UNL A   1      42.629  27.459  28.839  1.00  0.00     0.167 HD
ATOM     49  C   UNL A   1      46.930  27.094  29.448  1.00  0.00     0.031 A 
ATOM     50  C   UNL A   1      40.169  28.784  28.988  1.00  0.00     0.031 A 
ATOM     51  C   UNL A   1      46.616  28.448  29.820  1.00  0.00     0.049 A 
ATOM     52  C   UNL A   1      41.196  29.757  29.500  1.00  0.00     0.074 A 
ATOM     53  C   UNL A   1      47.479  29.452  30.227  1.00  0.00     0.029 A 
ATOM     54  N   UNL A   1      45.340  28.989  29.834  1.00  0.00    -0.354 N 
ATOM     55  N   UNL A   1      42.492  29.605  29.620  1.00  0.00    -0.248 NA
ATOM     56  C   UNL A   1      40.702  31.077  29.922  1.00  0.00     0.031 C 
ATOM     57  C   UNL A   1      46.718  30.580  30.547  1.00  0.00     0.029 A 
ATOM     58  C   UNL A   1      45.388  30.302  30.272  1.00  0.00     0.049 A 
ATOM     59  H   UNL A   1      44.520  28.510  29.572  1.00  0.00     0.167 HD
ATOM     60  C   UNL A   1      42.972  30.817  30.101  1.00  0.00     0.074 A 
ATOM     61  C   UNL A   1      41.831  31.698  30.234  1.00  0.00     0.031 C 
ATOM     62  C   UNL A   1      44.245  31.169  30.403  1.00  0.00     0.031 A 
BRANCH  49  63
ATOM     63  C   UNL A   1      48.360  26.638  29.559  1.00  0.00    -0.014 A 
ATOM     64  C   UNL A   1      49.256  26.781  28.487  1.00  0.00     0.009 A 
ATOM     65  C   UNL A   1      48.829  26.092  30.764  1.00  0.00     0.009 A 
ATOM     66  C   UNL A   1      50.579  26.351  28.607  1.00  0.00     0.001 A 
ATOM     67  C   UNL A   1      50.161  25.694  30.893  1.00  0.00     0.001 A 
ATOM     68  C   UNL A   1      51.032  25.813  29.811  1.00  0.00     0.000 A 
ENDBRANCH  49  63
BRANCH  50  69
ATOM     69  C   UNL A   1      38.733  29.165  28.923  1.00  0.00    -0.014 A 
ATOM     70  C   UNL A   1      37.904  29.019  30.045  1.00  0.00     0.009 A 
ATOM     71  C   UNL A   1      38.180  29.663  27.733  1.00  0.00     0.009 A 
ATOM     72  C   UNL A   1      36.545  29.335  29.969  1.00  0.00     0.001 A 
ATOM     73  C   UNL A   1      36.828  30.010  27.668  1.00  0.00     0.001 A 
ATOM     74  C   UNL A   1      36.010  29.834  28.783  1.00  0.00     0.000 A 
ENDBRANCH  50  69
BRANCH  62  75
ATOM     75  C   UNL A   1      44.480  32.580  30.870  1.00  0.00    -0.014 A 
ATOM     76  C   UNL A   1      44.475  32.912  32.234  1.00  0.00     0.009 A 
ATOM     77  C   UNL A   1      44.750  33.585  29.927  1.00  0.00     0.009 A 
ATOM     78  C   UNL A   1      44.699  34.229  32.641  1.00  0.00     0.001 A 
ATOM     79  C   UNL A   1      45.007  34.894  30.338  1.00  0.00     0.001 A 
ATOM     80  C   UNL A   1      44.971  35.217  31.694  1.00  0.00     0.000 A 
ENDBRANCH  62  75
ENDBRANCH  36  37
ENDBRANCH  28  31
ENDBRANCH  26  27
ENDBRANCH  25  26
ENDBRANCH   1  25
TORSDOF 16
ENDMDL
MODEL 3
REMARK VINA RESULT:     -10.3      3.038      7.301
REMARK SMILES O=C(CN(CC(F)(F)F)c1nc(-c2ccccc2)cs1)NCCCCNC(=O)c1ccc(-c2c3nc(c(-c4ccccc4)c4ccc([nH]4)c(-c4ccccc4)c4nc(c(-c5ccccc5)c5ccc2[nH]5)C=C4)C=C3)cc1
REMARK SMILES IDX 23 1 22 2 21 3 1 4 2 5 3 7 4 8 5 9 6 10 7 11 8 12 9 13 10 14
REMARK SMILES IDX 11 15 20 16 12 17 19 18 13 19 14 20 18 21 15 22 17 23 16 24
REMARK SMILES IDX 24 25 25 26 26 27 27 28 28 30 29 31 30 32 76 33 31 34 75 35
REMARK SMILES IDX 32 36 33 37 34 38 69 39 35 40 74 41 68 42 70 43 36 44 73 45
REMARK SMILES IDX 67 46 66 47 37 49 59 50 44 51 58 52 45 53 48 54 57 55 71 56
REMARK SMILES IDX 46 57 47 58 56 60 72 61 49 62 38 63 39 64 43 65 40 66 42 67
REMARK SMILES IDX 41 68 60 69 61 70 65 71 62 72 64 73 63 74 50 75 51 76 55 77
REMARK SMILES IDX 52 78 54 79 53 80
REMARK H PARENT 21 6 26 29 70 48 48 59
REMARK Flexibility Score: inf
ROOT
ATOM      1  C   UNL A   1      36.756  20.974  24.725  1.00  0.00     0.023 C 
ENDROOT
BRANCH   1   2
ATOM      2  C   UNL A   1      36.815  22.095  25.762  1.00  0.00     0.116 C 
BRANCH   2   3
ATOM      3  N   UNL A   1      35.588  22.249  26.514  1.00  0.00    -0.355 N 
ATOM      4  O   UNL A   1      35.044  24.307  25.652  1.00  0.00    -0.273 OA
ATOM      5  C   UNL A   1      34.743  23.327  26.331  1.00  0.00     0.239 C 
ATOM      6  H   UNL A   1      35.347  21.562  27.177  1.00  0.00     0.163 HD
BRANCH   5   7
ATOM      7  C   UNL A   1      33.441  23.280  27.151  1.00  0.00     0.219 C 
BRANCH   7   8
ATOM      8  N   UNL A   1      32.242  22.897  26.379  1.00  0.00    -0.330 N 
BRANCH   8   9
ATOM      9  C   UNL A   1      31.055  23.776  26.416  1.00  0.00     0.234 C 
BRANCH   9  10
ATOM     10  C   UNL A   1      31.204  25.237  25.962  1.00  0.00     0.406 C 
ATOM     11  F   UNL A   1      31.781  26.011  26.907  1.00  0.00    -0.169 F 
ATOM     12  F   UNL A   1      32.012  25.298  24.873  1.00  0.00    -0.169 F 
ATOM     13  F   UNL A   1      30.024  25.793  25.615  1.00  0.00    -0.169 F 
ENDBRANCH   9  10
ENDBRANCH   8   9
BRANCH   8  14
ATOM     14  C   UNL A   1      32.373  21.879  25.482  1.00  0.00     0.186 A 
ATOM     15  N   UNL A   1      32.768  20.678  25.835  1.00  0.00    -0.220 NA
ATOM     16  S   UNL A   1      32.103  22.052  23.784  1.00  0.00    -0.105 S 
ATOM     17  C   UNL A   1      32.882  19.848  24.734  1.00  0.00     0.083 A 
ATOM     18  C   UNL A   1      32.566  20.431  23.527  1.00  0.00     0.097 A 
BRANCH  17  19
ATOM     19  C   UNL A   1      33.248  18.450  24.864  1.00  0.00     0.001 A 
ATOM     20  C   UNL A   1      32.466  17.563  25.615  1.00  0.00     0.010 A 
ATOM     21  C   UNL A   1      34.417  17.984  24.250  1.00  0.00     0.010 A 
ATOM     22  C   UNL A   1      32.860  16.232  25.764  1.00  0.00     0.001 A 
ATOM     23  C   UNL A   1      34.814  16.656  24.410  1.00  0.00     0.001 A 
ATOM     24  C   UNL A   1      34.037  15.782  25.169  1.00  0.00     0.000 A 
ENDBRANCH  17  19
ENDBRANCH   8  14
ENDBRANCH   7   8
ENDBRANCH   5   7
ENDBRANCH   2   3
ENDBRANCH   1   2
BRANCH   1  25
ATOM     25  C   UNL A   1      37.808  19.874  24.890  1.00  0.00     0.023 C 
BRANCH  25  26
ATOM     26  C   UNL A   1      39.015  20.235  25.750  1.00  0.00     0.116 C 
BRANCH  26  27
ATOM     27  N   UNL A   1      40.018  19.183  25.812  1.00  0.00    -0.352 N 
ATOM     28  C   UNL A   1      41.360  19.265  26.095  1.00  0.00     0.251 C 
ATOM     29  H   UNL A   1      39.684  18.275  25.624  1.00  0.00     0.163 HD
ATOM     30  O   UNL A   1      42.073  18.269  25.983  1.00  0.00    -0.269 OA
BRANCH  28  31
ATOM     31  C   UNL A   1      41.968  20.554  26.500  1.00  0.00     0.039 A 
ATOM     32  C   UNL A   1      42.449  21.412  25.507  1.00  0.00     0.014 A 
ATOM     33  C   UNL A   1      42.070  20.920  27.844  1.00  0.00     0.014 A 
ATOM     34  C   UNL A   1      42.959  22.666  25.856  1.00  0.00     0.010 A 
ATOM     35  C   UNL A   1      42.506  22.199  28.185  1.00  0.00     0.010 A 
ATOM     36  C   UNL A   1      42.952  23.089  27.196  1.00  0.00    -0.014 A 
BRANCH  36  37
ATOM     37  C   UNL A   1      43.388  24.459  27.575  1.00  0.00     0.031 A 
ATOM     38  C   UNL A   1      42.375  25.507  27.950  1.00  0.00     0.074 A 
ATOM     39  C   UNL A   1      44.696  24.784  27.521  1.00  0.00     0.049 A 
ATOM     40  N   UNL A   1      42.563  26.768  28.251  1.00  0.00    -0.248 NA
ATOM     41  C   UNL A   1      40.963  25.090  27.969  1.00  0.00     0.031 C 
ATOM     42  C   UNL A   1      45.780  23.875  27.140  1.00  0.00     0.029 A 
ATOM     43  N   UNL A   1      45.335  25.971  27.783  1.00  0.00    -0.354 N 
ATOM     44  C   UNL A   1      41.298  27.295  28.480  1.00  0.00     0.074 A 
ATOM     45  C   UNL A   1      40.347  26.233  28.231  1.00  0.00     0.031 C 
ATOM     46  C   UNL A   1      46.949  24.530  27.220  1.00  0.00     0.029 A 
ATOM     47  C   UNL A   1      46.698  25.913  27.610  1.00  0.00     0.049 A 
ATOM     48  H   UNL A   1      44.862  26.786  28.066  1.00  0.00     0.167 HD
ATOM     49  C   UNL A   1      40.957  28.544  28.881  1.00  0.00     0.031 A 
ATOM     50  C   UNL A   1      47.639  26.866  27.741  1.00  0.00     0.031 A 
ATOM     51  C   UNL A   1      41.900  29.603  29.130  1.00  0.00     0.049 A 
ATOM     52  C   UNL A   1      47.231  28.254  28.153  1.00  0.00     0.074 A 
ATOM     53  C   UNL A   1      41.652  30.886  29.586  1.00  0.00     0.029 A 
ATOM     54  N   UNL A   1      43.268  29.503  28.940  1.00  0.00    -0.354 N 
ATOM     55  N   UNL A   1      46.036  28.717  28.430  1.00  0.00    -0.248 NA
ATOM     56  C   UNL A   1      48.307  29.249  28.282  1.00  0.00     0.031 C 
ATOM     57  C   UNL A   1      42.865  31.582  29.612  1.00  0.00     0.029 A 
ATOM     58  C   UNL A   1      43.877  30.711  29.240  1.00  0.00     0.049 A 
ATOM     59  H   UNL A   1      43.740  28.693  28.637  1.00  0.00     0.167 HD
ATOM     60  C   UNL A   1      46.219  30.045  28.795  1.00  0.00     0.074 A 
ATOM     61  C   UNL A   1      47.641  30.307  28.722  1.00  0.00     0.031 C 
ATOM     62  C   UNL A   1      45.293  30.963  29.161  1.00  0.00     0.031 A 
BRANCH  49  63
ATOM     63  C   UNL A   1      39.491  28.837  29.064  1.00  0.00    -0.014 A 
ATOM     64  C   UNL A   1      38.856  28.632  30.300  1.00  0.00     0.009 A 
ATOM     65  C   UNL A   1      38.745  29.361  27.997  1.00  0.00     0.009 A 
ATOM     66  C   UNL A   1      37.495  28.908  30.451  1.00  0.00     0.001 A 
ATOM     67  C   UNL A   1      37.392  29.667  28.161  1.00  0.00     0.001 A 
ATOM     68  C   UNL A   1      36.766  29.430  29.383  1.00  0.00     0.000 A 
ENDBRANCH  49  63
BRANCH  50  69
ATOM     69  C   UNL A   1      49.069  26.545  27.482  1.00  0.00    -0.014 A 
ATOM     70  C   UNL A   1      49.603  26.652  26.190  1.00  0.00     0.009 A 
ATOM     71  C   UNL A   1      49.903  26.114  28.526  1.00  0.00     0.009 A 
ATOM     72  C   UNL A   1      50.933  26.307  25.941  1.00  0.00     0.001 A 
ATOM     73  C   UNL A   1      51.242  25.801  28.281  1.00  0.00     0.001 A 
ATOM     74  C   UNL A   1      51.753  25.886  26.987  1.00  0.00     0.000 A 
ENDBRANCH  50  69
BRANCH  62  75
ATOM     75  C   UNL A   1      45.789  32.329  29.549  1.00  0.00    -0.014 A 
ATOM     76  C   UNL A   1      45.888  33.368  28.611  1.00  0.00     0.009 A 
ATOM     77  C   UNL A   1      46.125  32.588  30.889  1.00  0.00     0.009 A 
ATOM     78  C   UNL A   1      46.348  34.628  28.999  1.00  0.00     0.001 A 
ATOM     79  C   UNL A   1      46.554  33.858  31.279  1.00  0.00     0.001 A 
ATOM     80  C   UNL A   1      46.675  34.874  30.332  1.00  0.00     0.000 A 
ENDBRANCH  62  75
ENDBRANCH  36  37
ENDBRANCH  28  31
ENDBRANCH  26  27
ENDBRANCH  25  26
ENDBRANCH   1  25
TORSDOF 16
ENDMDL
