MODEL 1
REMARK VINA RESULT:     -11.4      0.000      0.000
REMARK SMILES O=C(NCCCCNC(=O)c1cccc2c(C(F)(F)F)cc(Br)nc12)c1ccc(-c2c3nc(c(-c4ccccc4)c4ccc([nH]4)c(-c4ccccc4)c4nc(c(-c5ccccc5)c5ccc2[nH]5)C=C4)C=C3)cc1
REMARK SMILES IDX 5 1 4 2 3 3 1 4 2 5 26 7 27 8 73 9 28 10 72 11 29 12 30 13
REMARK SMILES IDX 31 14 66 15 32 16 71 17 65 18 67 19 33 20 70 21 64 22 63 23
REMARK SMILES IDX 34 25 56 26 41 27 55 28 42 29 45 30 54 31 68 32 43 33 44 34
REMARK SMILES IDX 53 36 69 37 46 38 35 39 36 40 40 41 37 42 39 43 38 44 57 45
REMARK SMILES IDX 58 46 62 47 59 48 61 49 60 50 47 51 48 52 52 53 49 54 51 55
REMARK SMILES IDX 50 56 6 57 7 58 8 59 9 60 10 62 11 63 12 64 25 65 13 66
REMARK SMILES IDX 15 67 24 68 14 69 16 70 22 71 21 72 23 73 17 74 18 75 19 76
REMARK SMILES IDX 20 77
REMARK H PARENT 3 6 67 24 45 35 8 61
REMARK Flexibility Score: inf
ROOT
ATOM      1  C   UNL A   1      36.107  23.206  24.039  1.00  0.00     0.023 C 
ENDROOT
BRANCH   1   2
ATOM      2  C   UNL A   1      37.047  23.697  25.137  1.00  0.00     0.116 C 
BRANCH   2   3
ATOM      3  N   UNL A   1      38.051  22.713  25.501  1.00  0.00    -0.352 N 
ATOM      4  O   UNL A   1      40.010  21.911  26.256  1.00  0.00    -0.269 OA
ATOM      5  C   UNL A   1      39.238  22.864  26.174  1.00  0.00     0.251 C 
ATOM      6  H   UNL A   1      37.849  21.791  25.219  1.00  0.00     0.163 HD
BRANCH   5   7
ATOM      7  C   UNL A   1      39.613  24.156  26.793  1.00  0.00     0.039 A 
ATOM      8  C   UNL A   1      39.203  24.409  28.108  1.00  0.00     0.014 A 
ATOM      9  C   UNL A   1      40.294  25.145  26.078  1.00  0.00     0.014 A 
ATOM     10  C   UNL A   1      39.509  25.630  28.717  1.00  0.00     0.010 A 
ATOM     11  C   UNL A   1      40.643  26.343  26.702  1.00  0.00     0.010 A 
ATOM     12  C   UNL A   1      40.245  26.601  28.023  1.00  0.00    -0.014 A 
BRANCH  12  13
ATOM     13  C   UNL A   1      40.578  27.908  28.642  1.00  0.00     0.031 A 
ATOM     14  C   UNL A   1      41.938  28.128  29.243  1.00  0.00     0.074 A 
ATOM     15  C   UNL A   1      39.645  28.876  28.726  1.00  0.00     0.049 A 
ATOM     16  N   UNL A   1      42.381  29.152  29.928  1.00  0.00    -0.248 NA
ATOM     17  C   UNL A   1      42.924  27.050  29.064  1.00  0.00     0.031 C 
ATOM     18  C   UNL A   1      38.288  28.791  28.186  1.00  0.00     0.029 A 
ATOM     19  N   UNL A   1      39.698  30.117  29.311  1.00  0.00    -0.354 N 
ATOM     20  C   UNL A   1      43.683  28.829  30.287  1.00  0.00     0.074 A 
ATOM     21  C   UNL A   1      43.952  27.507  29.766  1.00  0.00     0.031 C 
ATOM     22  C   UNL A   1      37.640  29.936  28.455  1.00  0.00     0.029 A 
ATOM     23  C   UNL A   1      38.518  30.816  29.223  1.00  0.00     0.049 A 
ATOM     24  H   UNL A   1      40.502  30.471  29.752  1.00  0.00     0.167 HD
ATOM     25  C   UNL A   1      44.577  29.571  30.980  1.00  0.00     0.031 A 
ATOM     26  C   UNL A   1      38.173  32.019  29.719  1.00  0.00     0.031 A 
ATOM     27  C   UNL A   1      44.325  30.899  31.469  1.00  0.00     0.049 A 
ATOM     28  C   UNL A   1      39.166  32.808  30.522  1.00  0.00     0.074 A 
ATOM     29  C   UNL A   1      45.205  31.762  32.099  1.00  0.00     0.029 A 
ATOM     30  N   UNL A   1      43.107  31.552  31.389  1.00  0.00    -0.354 N 
ATOM     31  N   UNL A   1      40.408  32.508  30.816  1.00  0.00    -0.248 NA
ATOM     32  C   UNL A   1      38.711  34.093  31.072  1.00  0.00     0.031 C 
ATOM     33  C   UNL A   1      44.504  32.919  32.448  1.00  0.00     0.029 A 
ATOM     34  C   UNL A   1      43.200  32.793  31.994  1.00  0.00     0.049 A 
ATOM     35  H   UNL A   1      42.297  31.188  30.964  1.00  0.00     0.167 HD
ATOM     36  C   UNL A   1      40.886  33.568  31.574  1.00  0.00     0.074 A 
ATOM     37  C   UNL A   1      39.805  34.524  31.691  1.00  0.00     0.031 C 
ATOM     38  C   UNL A   1      42.114  33.730  32.120  1.00  0.00     0.031 A 
BRANCH  25  39
ATOM     39  C   UNL A   1      45.920  28.962  31.265  1.00  0.00    -0.014 A 
ATOM     40  C   UNL A   1      46.122  28.263  32.466  1.00  0.00     0.009 A 
ATOM     41  C   UNL A   1      46.998  29.132  30.384  1.00  0.00     0.009 A 
ATOM     42  C   UNL A   1      47.379  27.743  32.779  1.00  0.00     0.001 A 
ATOM     43  C   UNL A   1      48.248  28.591  30.690  1.00  0.00     0.001 A 
ATOM     44  C   UNL A   1      48.439  27.903  31.887  1.00  0.00     0.000 A 
ENDBRANCH  25  39
BRANCH  26  45
ATOM     45  C   UNL A   1      36.808  32.541  29.463  1.00  0.00    -0.014 A 
ATOM     46  C   UNL A   1      35.761  32.280  30.361  1.00  0.00     0.009 A 
ATOM     47  C   UNL A   1      36.534  33.253  28.285  1.00  0.00     0.009 A 
ATOM     48  C   UNL A   1      34.461  32.701  30.073  1.00  0.00     0.001 A 
ATOM     49  C   UNL A   1      35.236  33.689  28.011  1.00  0.00     0.001 A 
ATOM     50  C   UNL A   1      34.200  33.406  28.900  1.00  0.00     0.000 A 
ENDBRANCH  26  45
BRANCH  38  51
ATOM     51  C   UNL A   1      42.376  34.981  32.907  1.00  0.00    -0.014 A 
ATOM     52  C   UNL A   1      43.120  36.025  32.333  1.00  0.00     0.009 A 
ATOM     53  C   UNL A   1      41.991  35.075  34.252  1.00  0.00     0.009 A 
ATOM     54  C   UNL A   1      43.490  37.131  33.099  1.00  0.00     0.001 A 
ATOM     55  C   UNL A   1      42.346  36.192  35.009  1.00  0.00     0.001 A 
ATOM     56  C   UNL A   1      43.103  37.214  34.435  1.00  0.00     0.000 A 
ENDBRANCH  38  51
ENDBRANCH  12  13
ENDBRANCH   5   7
ENDBRANCH   2   3
ENDBRANCH   1   2
BRANCH   1  57
ATOM     57  C   UNL A   1      34.726  23.867  23.987  1.00  0.00     0.023 C 
BRANCH  57  58
ATOM     58  C   UNL A   1      34.491  25.008  24.974  1.00  0.00     0.116 C 
BRANCH  58  59
ATOM     59  N   UNL A   1      33.644  24.624  26.089  1.00  0.00    -0.352 N 
ATOM     60  C   UNL A   1      32.307  24.861  26.292  1.00  0.00     0.253 C 
ATOM     61  H   UNL A   1      34.095  24.122  26.805  1.00  0.00     0.163 HD
ATOM     62  O   UNL A   1      31.753  24.402  27.289  1.00  0.00    -0.269 OA
BRANCH  60  63
ATOM     63  C   UNL A   1      31.518  25.581  25.273  1.00  0.00     0.066 A 
ATOM     64  C   UNL A   1      30.707  24.816  24.422  1.00  0.00     0.016 A 
ATOM     65  C   UNL A   1      31.534  26.982  25.245  1.00  0.00     0.085 A 
ATOM     66  C   UNL A   1      29.908  25.453  23.487  1.00  0.00     0.002 A 
ATOM     67  C   UNL A   1      30.685  27.631  24.313  1.00  0.00     0.013 A 
ATOM     68  N   UNL A   1      32.336  27.689  26.069  1.00  0.00    -0.240 NA
ATOM     69  C   UNL A   1      29.895  26.845  23.436  1.00  0.00     0.011 A 
ATOM     70  C   UNL A   1      30.664  29.051  24.311  1.00  0.00     0.068 A 
ATOM     71  C   UNL A   1      32.297  29.033  26.052  1.00  0.00     0.107 A 
ATOM     72  C   UNL A   1      31.485  29.752  25.203  1.00  0.00     0.049 A 
ATOM     73  Br  UNL A   1      33.422  29.965  27.257  1.00  0.00    -0.029 Br
BRANCH  70  74
ATOM     74  C   UNL A   1      29.773  29.834  23.379  1.00  0.00     0.417 C 
ATOM     75  F   UNL A   1      28.527  29.296  23.273  1.00  0.00    -0.166 F 
ATOM     76  F   UNL A   1      29.594  31.124  23.780  1.00  0.00    -0.166 F 
ATOM     77  F   UNL A   1      30.250  29.910  22.105  1.00  0.00    -0.166 F 
ENDBRANCH  70  74
ENDBRANCH  60  63
ENDBRANCH  58  59
ENDBRANCH  57  58
ENDBRANCH   1  57
TORSDOF 12
ENDMDL
MODEL 2
REMARK VINA RESULT:     -11.3      3.601      8.114
REMARK SMILES O=C(NCCCCNC(=O)c1cccc2c(C(F)(F)F)cc(Br)nc12)c1ccc(-c2c3nc(c(-c4ccccc4)c4ccc([nH]4)c(-c4ccccc4)c4nc(c(-c5ccccc5)c5ccc2[nH]5)C=C4)C=C3)cc1
REMARK SMILES IDX 5 1 4 2 3 3 1 4 2 5 26 7 27 8 73 9 28 10 72 11 29 12 30 13
REMARK SMILES IDX 31 14 66 15 32 16 71 17 65 18 67 19 33 20 70 21 64 22 63 23
REMARK SMILES IDX 34 25 56 26 41 27 55 28 42 29 45 30 54 31 68 32 43 33 44 34
REMARK SMILES IDX 53 36 69 37 46 38 35 39 36 40 40 41 37 42 39 43 38 44 57 45
REMARK SMILES IDX 58 46 62 47 59 48 61 49 60 50 47 51 48 52 52 53 49 54 51 55
REMARK SMILES IDX 50 56 6 57 7 58 8 59 9 60 10 62 11 63 12 64 25 65 13 66
REMARK SMILES IDX 15 67 24 68 14 69 16 70 22 71 21 72 23 73 17 74 18 75 19 76
REMARK SMILES IDX 20 77
REMARK H PARENT 3 6 67 24 45 35 8 61
REMARK Flexibility Score: inf
ROOT
ATOM      1  C   UNL A   1      32.357  28.085  27.221  1.00  0.00     0.023 C 
ENDROOT
BRANCH   1   2
ATOM      2  C   UNL A   1      33.729  28.754  27.270  1.00  0.00     0.116 C 
BRANCH   2   3
ATOM      3  N   UNL A   1      33.669  30.127  27.740  1.00  0.00    -0.352 N 
ATOM      4  O   UNL A   1      34.294  31.986  28.839  1.00  0.00    -0.269 OA
ATOM      5  C   UNL A   1      34.605  30.876  28.411  1.00  0.00     0.251 C 
ATOM      6  H   UNL A   1      32.825  30.595  27.548  1.00  0.00     0.163 HD
BRANCH   5   7
ATOM      7  C   UNL A   1      35.977  30.368  28.641  1.00  0.00     0.039 A 
ATOM      8  C   UNL A   1      36.878  30.375  27.569  1.00  0.00     0.014 A 
ATOM      9  C   UNL A   1      36.363  29.822  29.868  1.00  0.00     0.014 A 
ATOM     10  C   UNL A   1      38.173  29.875  27.737  1.00  0.00     0.010 A 
ATOM     11  C   UNL A   1      37.670  29.369  30.049  1.00  0.00     0.010 A 
ATOM     12  C   UNL A   1      38.584  29.381  28.983  1.00  0.00    -0.014 A 
BRANCH  12  13
ATOM     13  C   UNL A   1      39.949  28.838  29.188  1.00  0.00     0.031 A 
ATOM     14  C   UNL A   1      41.032  29.720  29.744  1.00  0.00     0.074 A 
ATOM     15  C   UNL A   1      40.240  27.577  28.816  1.00  0.00     0.049 A 
ATOM     16  N   UNL A   1      42.309  29.468  29.888  1.00  0.00    -0.248 NA
ATOM     17  C   UNL A   1      40.630  31.066  30.181  1.00  0.00     0.031 C 
ATOM     18  C   UNL A   1      39.284  26.617  28.262  1.00  0.00     0.029 A 
ATOM     19  N   UNL A   1      41.429  26.891  28.839  1.00  0.00    -0.354 N 
ATOM     20  C   UNL A   1      42.865  30.631  30.402  1.00  0.00     0.074 A 
ATOM     21  C   UNL A   1      41.796  31.597  30.524  1.00  0.00     0.031 C 
ATOM     22  C   UNL A   1      39.923  25.463  28.008  1.00  0.00     0.029 A 
ATOM     23  C   UNL A   1      41.338  25.616  28.338  1.00  0.00     0.049 A 
ATOM     24  H   UNL A   1      42.267  27.278  29.179  1.00  0.00     0.167 HD
ATOM     25  C   UNL A   1      44.151  30.870  30.751  1.00  0.00     0.031 A 
ATOM     26  C   UNL A   1      42.286  24.679  28.145  1.00  0.00     0.031 A 
ATOM     27  C   UNL A   1      45.209  29.901  30.664  1.00  0.00     0.049 A 
ATOM     28  C   UNL A   1      43.714  24.980  28.499  1.00  0.00     0.074 A 
ATOM     29  C   UNL A   1      46.522  30.027  31.083  1.00  0.00     0.029 A 
ATOM     30  N   UNL A   1      45.079  28.636  30.118  1.00  0.00    -0.354 N 
ATOM     31  N   UNL A   1      44.218  26.069  29.025  1.00  0.00    -0.248 NA
ATOM     32  C   UNL A   1      44.706  23.930  28.223  1.00  0.00     0.031 C 
ATOM     33  C   UNL A   1      47.201  28.854  30.743  1.00  0.00     0.029 A 
ATOM     34  C   UNL A   1      46.298  27.983  30.153  1.00  0.00     0.049 A 
ATOM     35  H   UNL A   1      44.244  28.258  29.759  1.00  0.00     0.167 HD
ATOM     36  C   UNL A   1      45.580  25.835  29.153  1.00  0.00     0.074 A 
ATOM     37  C   UNL A   1      45.826  24.497  28.658  1.00  0.00     0.031 C 
ATOM     38  C   UNL A   1      46.537  26.659  29.642  1.00  0.00     0.031 A 
BRANCH  25  39
ATOM     39  C   UNL A   1      44.495  32.243  31.252  1.00  0.00    -0.014 A 
ATOM     40  C   UNL A   1      44.377  32.530  32.621  1.00  0.00     0.009 A 
ATOM     41  C   UNL A   1      44.873  33.266  30.370  1.00  0.00     0.009 A 
ATOM     42  C   UNL A   1      44.632  33.817  33.099  1.00  0.00     0.001 A 
ATOM     43  C   UNL A   1      45.149  34.546  30.854  1.00  0.00     0.001 A 
ATOM     44  C   UNL A   1      45.023  34.821  32.215  1.00  0.00     0.000 A 
ENDBRANCH  25  39
BRANCH  26  45
ATOM     45  C   UNL A   1      41.897  23.362  27.582  1.00  0.00    -0.014 A 
ATOM     46  C   UNL A   1      41.429  22.337  28.418  1.00  0.00     0.009 A 
ATOM     47  C   UNL A   1      42.052  23.108  26.211  1.00  0.00     0.009 A 
ATOM     48  C   UNL A   1      41.144  21.073  27.895  1.00  0.00     0.001 A 
ATOM     49  C   UNL A   1      41.748  21.848  25.689  1.00  0.00     0.001 A 
ATOM     50  C   UNL A   1      41.303  20.831  26.532  1.00  0.00     0.000 A 
ENDBRANCH  26  45
BRANCH  38  51
ATOM     51  C   UNL A   1      47.952  26.158  29.667  1.00  0.00    -0.014 A 
ATOM     52  C   UNL A   1      48.495  25.659  30.862  1.00  0.00     0.009 A 
ATOM     53  C   UNL A   1      48.779  26.293  28.543  1.00  0.00     0.009 A 
ATOM     54  C   UNL A   1      49.848  25.322  30.936  1.00  0.00     0.001 A 
ATOM     55  C   UNL A   1      50.127  25.937  28.615  1.00  0.00     0.001 A 
ATOM     56  C   UNL A   1      50.662  25.462  29.813  1.00  0.00     0.000 A 
ENDBRANCH  38  51
ENDBRANCH  12  13
ENDBRANCH   5   7
ENDBRANCH   2   3
ENDBRANCH   1   2
BRANCH   1  57
ATOM     57  C   UNL A   1      32.157  27.036  26.123  1.00  0.00     0.023 C 
BRANCH  57  58
ATOM     58  C   UNL A   1      33.393  26.229  25.733  1.00  0.00     0.116 C 
BRANCH  58  59
ATOM     59  N   UNL A   1      33.789  26.437  24.352  1.00  0.00    -0.352 N 
ATOM     60  C   UNL A   1      33.758  25.563  23.294  1.00  0.00     0.253 C 
ATOM     61  H   UNL A   1      34.131  27.336  24.144  1.00  0.00     0.163 HD
ATOM     62  O   UNL A   1      34.092  25.951  22.176  1.00  0.00    -0.269 OA
BRANCH  60  63
ATOM     63  C   UNL A   1      33.238  24.194  23.476  1.00  0.00     0.066 A 
ATOM     64  C   UNL A   1      31.952  23.919  22.989  1.00  0.00     0.016 A 
ATOM     65  C   UNL A   1      34.061  23.209  24.040  1.00  0.00     0.085 A 
ATOM     66  C   UNL A   1      31.446  22.634  23.090  1.00  0.00     0.002 A 
ATOM     67  C   UNL A   1      33.552  21.887  24.106  1.00  0.00     0.013 A 
ATOM     68  N   UNL A   1      35.289  23.509  24.513  1.00  0.00    -0.240 NA
ATOM     69  C   UNL A   1      32.239  21.629  23.639  1.00  0.00     0.011 A 
ATOM     70  C   UNL A   1      34.398  20.877  24.636  1.00  0.00     0.068 A 
ATOM     71  C   UNL A   1      36.073  22.535  25.007  1.00  0.00     0.107 A 
ATOM     72  C   UNL A   1      35.678  21.218  25.086  1.00  0.00     0.049 A 
ATOM     73  Br  UNL A   1      37.798  23.017  25.622  1.00  0.00    -0.029 Br
BRANCH  70  74
ATOM     74  C   UNL A   1      33.962  19.435  24.720  1.00  0.00     0.417 C 
ATOM     75  F   UNL A   1      35.010  18.581  24.883  1.00  0.00    -0.166 F 
ATOM     76  F   UNL A   1      33.117  19.199  25.762  1.00  0.00    -0.166 F 
ATOM     77  F   UNL A   1      33.304  19.000  23.609  1.00  0.00    -0.166 F 
ENDBRANCH  70  74
ENDBRANCH  60  63
ENDBRANCH  58  59
ENDBRANCH  57  58
ENDBRANCH   1  57
TORSDOF 12
ENDMDL
MODEL 3
REMARK VINA RESULT:     -11.2      3.423      7.906
REMARK SMILES O=C(NCCCCNC(=O)c1cccc2c(C(F)(F)F)cc(Br)nc12)c1ccc(-c2c3nc(c(-c4ccccc4)c4ccc([nH]4)c(-c4ccccc4)c4nc(c(-c5ccccc5)c5ccc2[nH]5)C=C4)C=C3)cc1
REMARK SMILES IDX 5 1 4 2 3 3 1 4 2 5 26 7 27 8 73 9 28 10 72 11 29 12 30 13
REMARK SMILES IDX 31 14 66 15 32 16 71 17 65 18 67 19 33 20 70 21 64 22 63 23
REMARK SMILES IDX 34 25 56 26 41 27 55 28 42 29 45 30 54 31 68 32 43 33 44 34
REMARK SMILES IDX 53 36 69 37 46 38 35 39 36 40 40 41 37 42 39 43 38 44 57 45
REMARK SMILES IDX 58 46 62 47 59 48 61 49 60 50 47 51 48 52 52 53 49 54 51 55
REMARK SMILES IDX 50 56 6 57 7 58 8 59 9 60 10 62 11 63 12 64 25 65 13 66
REMARK SMILES IDX 15 67 24 68 14 69 16 70 22 71 21 72 23 73 17 74 18 75 19 76
REMARK SMILES IDX 20 77
REMARK H PARENT 3 6 67 24 45 35 8 61
REMARK Flexibility Score: inf
ROOT
ATOM      1  C   UNL A   1      32.842  28.526  25.734  1.00  0.00     0.023 C 
ENDROOT
BRANCH   1   2
ATOM      2  C   UNL A   1      33.647  28.701  27.020  1.00  0.00     0.116 C 
BRANCH   2   3
ATOM      3  N   UNL A   1      33.598  30.059  27.534  1.00  0.00    -0.352 N 
ATOM      4  O   UNL A   1      34.229  31.872  28.703  1.00  0.00    -0.269 OA
ATOM      5  C   UNL A   1      34.532  30.772  28.244  1.00  0.00     0.251 C 
ATOM      6  H   UNL A   1      32.762  30.544  27.344  1.00  0.00     0.163 HD
BRANCH   5   7
ATOM      7  C   UNL A   1      35.893  30.238  28.478  1.00  0.00     0.039 A 
ATOM      8  C   UNL A   1      36.202  29.736  29.749  1.00  0.00     0.014 A 
ATOM      9  C   UNL A   1      36.884  30.291  27.495  1.00  0.00     0.014 A 
ATOM     10  C   UNL A   1      37.485  29.251  30.020  1.00  0.00     0.010 A 
ATOM     11  C   UNL A   1      38.150  29.763  27.750  1.00  0.00     0.010 A 
ATOM     12  C   UNL A   1      38.465  29.248  29.018  1.00  0.00    -0.014 A 
BRANCH  12  13
ATOM     13  C   UNL A   1      39.838  28.747  29.279  1.00  0.00     0.031 A 
ATOM     14  C   UNL A   1      40.857  29.650  29.914  1.00  0.00     0.074 A 
ATOM     15  C   UNL A   1      40.192  27.507  28.890  1.00  0.00     0.049 A 
ATOM     16  N   UNL A   1      42.133  29.439  30.118  1.00  0.00    -0.248 NA
ATOM     17  C   UNL A   1      40.385  30.969  30.365  1.00  0.00     0.031 C 
ATOM     18  C   UNL A   1      39.301  26.531  28.262  1.00  0.00     0.029 A 
ATOM     19  N   UNL A   1      41.403  26.864  28.956  1.00  0.00    -0.354 N 
ATOM     20  C   UNL A   1      42.620  30.606  30.691  1.00  0.00     0.074 A 
ATOM     21  C   UNL A   1      41.511  31.530  30.782  1.00  0.00     0.031 C 
ATOM     22  C   UNL A   1      39.994  25.408  28.010  1.00  0.00     0.029 A 
ATOM     23  C   UNL A   1      41.384  25.600  28.418  1.00  0.00     0.049 A 
ATOM     24  H   UNL A   1      42.208  27.270  29.350  1.00  0.00     0.167 HD
ATOM     25  C   UNL A   1      43.877  30.880  31.112  1.00  0.00     0.031 A 
ATOM     26  C   UNL A   1      42.374  24.703  28.251  1.00  0.00     0.031 A 
ATOM     27  C   UNL A   1      44.973  29.951  31.055  1.00  0.00     0.049 A 
ATOM     28  C   UNL A   1      43.770  25.043  28.686  1.00  0.00     0.074 A 
ATOM     29  C   UNL A   1      46.257  30.111  31.546  1.00  0.00     0.029 A 
ATOM     30  N   UNL A   1      44.917  28.698  30.470  1.00  0.00    -0.354 N 
ATOM     31  N   UNL A   1      44.207  26.135  29.267  1.00  0.00    -0.248 NA
ATOM     32  C   UNL A   1      44.812  24.037  28.435  1.00  0.00     0.031 C 
ATOM     33  C   UNL A   1      46.995  28.972  31.211  1.00  0.00     0.029 A 
ATOM     34  C   UNL A   1      46.156  28.088  30.551  1.00  0.00     0.049 A 
ATOM     35  H   UNL A   1      44.116  28.301  30.059  1.00  0.00     0.167 HD
ATOM     36  C   UNL A   1      45.568  25.944  29.459  1.00  0.00     0.074 A 
ATOM     37  C   UNL A   1      45.887  24.630  28.942  1.00  0.00     0.031 C 
ATOM     38  C   UNL A   1      46.468  26.787  30.018  1.00  0.00     0.031 A 
BRANCH  25  39
ATOM     39  C   UNL A   1      44.145  32.249  31.667  1.00  0.00    -0.014 A 
ATOM     40  C   UNL A   1      44.590  33.268  30.811  1.00  0.00     0.009 A 
ATOM     41  C   UNL A   1      44.023  32.515  33.039  1.00  0.00     0.009 A 
ATOM     42  C   UNL A   1      44.905  34.530  31.317  1.00  0.00     0.001 A 
ATOM     43  C   UNL A   1      44.317  33.785  33.539  1.00  0.00     0.001 A 
ATOM     44  C   UNL A   1      44.763  34.788  32.680  1.00  0.00     0.000 A 
ENDBRANCH  25  39
BRANCH  26  45
ATOM     45  C   UNL A   1      42.063  23.390  27.633  1.00  0.00    -0.014 A 
ATOM     46  C   UNL A   1      42.158  23.212  26.244  1.00  0.00     0.009 A 
ATOM     47  C   UNL A   1      41.610  22.326  28.428  1.00  0.00     0.009 A 
ATOM     48  C   UNL A   1      41.783  22.001  25.659  1.00  0.00     0.001 A 
ATOM     49  C   UNL A   1      41.255  21.110  27.841  1.00  0.00     0.001 A 
ATOM     50  C   UNL A   1      41.333  20.951  26.458  1.00  0.00     0.000 A 
ENDBRANCH  26  45
BRANCH  38  51
ATOM     51  C   UNL A   1      47.897  26.335  30.105  1.00  0.00    -0.014 A 
ATOM     52  C   UNL A   1      48.700  26.332  28.952  1.00  0.00     0.009 A 
ATOM     53  C   UNL A   1      48.408  25.801  31.296  1.00  0.00     0.009 A 
ATOM     54  C   UNL A   1      49.983  25.784  28.988  1.00  0.00     0.001 A 
ATOM     55  C   UNL A   1      49.699  25.271  31.333  1.00  0.00     0.001 A 
ATOM     56  C   UNL A   1      50.481  25.254  30.177  1.00  0.00     0.000 A 
ENDBRANCH  38  51
ENDBRANCH  12  13
ENDBRANCH   5   7
ENDBRANCH   2   3
ENDBRANCH   1   2
BRANCH   1  57
ATOM     57  C   UNL A   1      31.723  27.481  25.776  1.00  0.00     0.023 C 
BRANCH  57  58
ATOM     58  C   UNL A   1      31.818  26.440  26.889  1.00  0.00     0.116 C 
BRANCH  58  59
ATOM     59  N   UNL A   1      30.848  25.370  26.744  1.00  0.00    -0.352 N 
ATOM     60  C   UNL A   1      31.052  24.025  26.558  1.00  0.00     0.253 C 
ATOM     61  H   UNL A   1      29.905  25.650  26.785  1.00  0.00     0.163 HD
ATOM     62  O   UNL A   1      30.087  23.265  26.511  1.00  0.00    -0.269 OA
BRANCH  60  63
ATOM     63  C   UNL A   1      32.423  23.483  26.508  1.00  0.00     0.066 A 
ATOM     64  C   UNL A   1      32.879  22.770  27.627  1.00  0.00     0.016 A 
ATOM     65  C   UNL A   1      33.181  23.616  25.336  1.00  0.00     0.085 A 
ATOM     66  C   UNL A   1      34.139  22.197  27.603  1.00  0.00     0.002 A 
ATOM     67  C   UNL A   1      34.455  22.995  25.302  1.00  0.00     0.013 A 
ATOM     68  N   UNL A   1      32.719  24.320  24.281  1.00  0.00    -0.240 NA
ATOM     69  C   UNL A   1      34.917  22.306  26.452  1.00  0.00     0.011 A 
ATOM     70  C   UNL A   1      35.208  23.090  24.102  1.00  0.00     0.068 A 
ATOM     71  C   UNL A   1      33.448  24.393  23.154  1.00  0.00     0.107 A 
ATOM     72  C   UNL A   1      34.683  23.799  23.016  1.00  0.00     0.049 A 
ATOM     73  Br  UNL A   1      32.728  25.367  21.698  1.00  0.00    -0.029 Br
BRANCH  70  74
ATOM     74  C   UNL A   1      36.560  22.437  23.955  1.00  0.00     0.417 C 
ATOM     75  F   UNL A   1      36.534  21.109  24.253  1.00  0.00    -0.166 F 
ATOM     76  F   UNL A   1      37.056  22.529  22.690  1.00  0.00    -0.166 F 
ATOM     77  F   UNL A   1      37.515  22.976  24.763  1.00  0.00    -0.166 F 
ENDBRANCH  70  74
ENDBRANCH  60  63
ENDBRANCH  58  59
ENDBRANCH  57  58
ENDBRANCH   1  57
TORSDOF 12
ENDMDL
