MODEL 1
REMARK VINA RESULT:      -9.5      0.000      0.000
REMARK SMILES CCN(CC(C)(C)O)C(=O)NCCCC(=O)NCCCCNC(=O)c1ccc(-c2c3nc(c(-c4ccccc4)c4ccc([nH]4)c(-c4ccccc4)c4nc(c(-c5ccccc5)c5ccc2[nH]5)C=C4)C=C3)cc1
REMARK SMILES IDX 15 1 16 2 17 3 14 5 13 6 12 7 11 8 9 9 10 10 3 12 2 13 1 14
REMARK SMILES IDX 4 15 5 16 6 17 7 18 8 19 18 21 19 22 20 23 21 24 22 25 23 26
REMARK SMILES IDX 24 28 25 29 26 30 72 31 27 32 71 33 28 34 29 35 30 36 65 37
REMARK SMILES IDX 31 38 70 39 64 40 66 41 32 42 69 43 63 44 62 45 33 47 55 48
REMARK SMILES IDX 40 49 54 50 41 51 44 52 53 53 67 54 42 55 43 56 52 58 68 59
REMARK SMILES IDX 45 60 34 61 35 62 39 63 36 64 38 65 37 66 56 67 57 68 61 69
REMARK SMILES IDX 58 70 60 71 59 72 46 73 47 74 51 75 48 76 50 77 49 78
REMARK H PARENT 17 4 11 11 8 20 22 27 66 46 44 57
REMARK Flexibility Score: inf
ROOT
ATOM      1  C   UNL A   1      30.547  28.586  23.945  1.00  0.00     0.220 C 
ATOM      2  O   UNL A   1      29.531  28.800  23.281  1.00  0.00    -0.275 OA
ATOM      3  N   UNL A   1      31.195  29.650  24.495  1.00  0.00    -0.356 N 
ATOM      4  H   UNL A   1      30.733  30.514  24.396  1.00  0.00     0.163 HD
ENDROOT
BRANCH   1   5
ATOM      5  C   UNL A   1      31.075  27.175  24.123  1.00  0.00     0.102 C 
BRANCH   5   6
ATOM      6  C   UNL A   1      31.603  26.588  22.817  1.00  0.00     0.031 C 
BRANCH   6   7
ATOM      7  C   UNL A   1      31.405  25.086  22.688  1.00  0.00     0.118 C 
BRANCH   7   8
ATOM      8  N   UNL A   1      32.621  24.365  22.379  1.00  0.00    -0.338 N 
ATOM      9  C   UNL A   1      33.514  23.630  23.066  1.00  0.00     0.317 C 
ATOM     10  O   UNL A   1      34.405  23.129  22.371  1.00  0.00    -0.249 OA
ATOM     11  H   UNL A   1      32.854  24.430  21.425  1.00  0.00     0.165 HD
BRANCH   9  12
ATOM     12  N   UNL A   1      33.461  23.436  24.420  1.00  0.00    -0.322 N 
BRANCH  12  13
ATOM     13  C   UNL A   1      34.490  24.127  25.216  1.00  0.00     0.118 C 
ATOM     14  C   UNL A   1      34.114  25.568  25.537  1.00  0.00     0.027 C 
ENDBRANCH  12  13
BRANCH  12  15
ATOM     15  C   UNL A   1      32.564  22.553  25.176  1.00  0.00     0.155 C 
BRANCH  15  16
ATOM     16  C   UNL A   1      33.190  21.206  25.663  1.00  0.00     0.077 C 
ATOM     17  C   UNL A   1      34.302  20.597  24.799  1.00  0.00     0.043 C 
ATOM     18  C   UNL A   1      33.717  21.414  27.089  1.00  0.00     0.043 C 
BRANCH  16  19
ATOM     19  O   UNL A   1      32.151  20.218  25.744  1.00  0.00    -0.389 OA
ATOM     20  H   UNL A   1      31.806  20.038  24.856  1.00  0.00     0.211 HD
ENDBRANCH  16  19
ENDBRANCH  15  16
ENDBRANCH  12  15
ENDBRANCH   9  12
ENDBRANCH   7   8
ENDBRANCH   6   7
ENDBRANCH   5   6
ENDBRANCH   1   5
BRANCH   3  21
ATOM     21  C   UNL A   1      32.459  29.709  25.205  1.00  0.00     0.116 C 
BRANCH  21  22
ATOM     22  C   UNL A   1      32.247  30.134  26.663  1.00  0.00     0.023 C 
BRANCH  22  23
ATOM     23  C   UNL A   1      31.788  31.568  26.874  1.00  0.00     0.023 C 
BRANCH  23  24
ATOM     24  C   UNL A   1      32.880  32.510  27.337  1.00  0.00     0.116 C 
BRANCH  24  25
ATOM     25  N   UNL A   1      32.428  33.861  27.635  1.00  0.00    -0.352 N 
ATOM     26  C   UNL A   1      33.007  34.751  28.517  1.00  0.00     0.251 C 
ATOM     27  H   UNL A   1      31.626  34.174  27.155  1.00  0.00     0.163 HD
ATOM     28  O   UNL A   1      32.502  35.837  28.753  1.00  0.00    -0.269 OA
BRANCH  26  29
ATOM     29  C   UNL A   1      34.231  34.316  29.222  1.00  0.00     0.039 A 
ATOM     30  C   UNL A   1      34.108  33.515  30.356  1.00  0.00     0.014 A 
ATOM     31  C   UNL A   1      35.485  34.581  28.666  1.00  0.00     0.014 A 
ATOM     32  C   UNL A   1      35.248  32.915  30.890  1.00  0.00     0.010 A 
ATOM     33  C   UNL A   1      36.594  33.890  29.126  1.00  0.00     0.010 A 
ATOM     34  C   UNL A   1      36.492  33.062  30.252  1.00  0.00    -0.014 A 
BRANCH  34  35
ATOM     35  C   UNL A   1      37.703  32.379  30.768  1.00  0.00     0.031 A 
ATOM     36  C   UNL A   1      38.357  32.876  32.029  1.00  0.00     0.074 A 
ATOM     37  C   UNL A   1      38.239  31.351  30.082  1.00  0.00     0.049 A 
ATOM     38  N   UNL A   1      39.416  32.414  32.645  1.00  0.00    -0.248 NA
ATOM     39  C   UNL A   1      37.771  34.069  32.661  1.00  0.00     0.031 C 
ATOM     40  C   UNL A   1      37.743  30.826  28.807  1.00  0.00     0.029 A 
ATOM     41  N   UNL A   1      39.319  30.557  30.370  1.00  0.00    -0.354 N 
ATOM     42  C   UNL A   1      39.629  33.272  33.716  1.00  0.00     0.074 A 
ATOM     43  C   UNL A   1      38.639  34.320  33.628  1.00  0.00     0.031 C 
ATOM     44  C   UNL A   1      38.486  29.765  28.451  1.00  0.00     0.029 A 
ATOM     45  C   UNL A   1      39.522  29.551  29.456  1.00  0.00     0.049 A 
ATOM     46  H   UNL A   1      39.895  30.693  31.157  1.00  0.00     0.167 HD
ATOM     47  C   UNL A   1      40.543  33.178  34.710  1.00  0.00     0.031 A 
ATOM     48  C   UNL A   1      40.429  28.557  29.443  1.00  0.00     0.031 A 
ATOM     49  C   UNL A   1      41.505  32.118  34.817  1.00  0.00     0.049 A 
ATOM     50  C   UNL A   1      41.404  28.444  30.581  1.00  0.00     0.074 A 
ATOM     51  C   UNL A   1      42.431  31.889  35.819  1.00  0.00     0.029 A 
ATOM     52  N   UNL A   1      41.654  31.099  33.889  1.00  0.00    -0.354 N 
ATOM     53  N   UNL A   1      41.537  29.215  31.634  1.00  0.00    -0.248 NA
ATOM     54  C   UNL A   1      42.338  27.311  30.540  1.00  0.00     0.031 C 
ATOM     55  C   UNL A   1      43.166  30.749  35.477  1.00  0.00     0.029 A 
ATOM     56  C   UNL A   1      42.665  30.244  34.288  1.00  0.00     0.049 A 
ATOM     57  H   UNL A   1      41.119  30.999  33.067  1.00  0.00     0.167 HD
ATOM     58  C   UNL A   1      42.550  28.645  32.394  1.00  0.00     0.074 A 
ATOM     59  C   UNL A   1      42.982  27.454  31.690  1.00  0.00     0.031 C 
ATOM     60  C   UNL A   1      43.076  29.066  33.570  1.00  0.00     0.031 A 
BRANCH  47  61
ATOM     61  C   UNL A   1      40.526  34.253  35.760  1.00  0.00    -0.014 A 
ATOM     62  C   UNL A   1      39.742  34.123  36.919  1.00  0.00     0.009 A 
ATOM     63  C   UNL A   1      41.302  35.409  35.592  1.00  0.00     0.009 A 
ATOM     64  C   UNL A   1      39.702  35.148  37.866  1.00  0.00     0.001 A 
ATOM     65  C   UNL A   1      41.284  36.420  36.556  1.00  0.00     0.001 A 
ATOM     66  C   UNL A   1      40.476  36.293  37.686  1.00  0.00     0.000 A 
ENDBRANCH  47  61
BRANCH  48  67
ATOM     67  C   UNL A   1      40.422  27.552  28.348  1.00  0.00    -0.014 A 
ATOM     68  C   UNL A   1      39.684  26.365  28.480  1.00  0.00     0.009 A 
ATOM     69  C   UNL A   1      41.153  27.769  27.170  1.00  0.00     0.009 A 
ATOM     70  C   UNL A   1      39.704  25.401  27.468  1.00  0.00     0.001 A 
ATOM     71  C   UNL A   1      41.148  26.816  26.149  1.00  0.00     0.001 A 
ATOM     72  C   UNL A   1      40.432  25.629  26.302  1.00  0.00     0.000 A 
ENDBRANCH  48  67
BRANCH  60  73
ATOM     73  C   UNL A   1      44.151  28.214  34.180  1.00  0.00    -0.014 A 
ATOM     74  C   UNL A   1      45.507  28.444  33.902  1.00  0.00     0.009 A 
ATOM     75  C   UNL A   1      43.800  27.188  35.072  1.00  0.00     0.009 A 
ATOM     76  C   UNL A   1      46.490  27.637  34.478  1.00  0.00     0.001 A 
ATOM     77  C   UNL A   1      44.786  26.401  35.666  1.00  0.00     0.001 A 
ATOM     78  C   UNL A   1      46.128  26.619  35.361  1.00  0.00     0.000 A 
ENDBRANCH  60  73
ENDBRANCH  34  35
ENDBRANCH  26  29
ENDBRANCH  24  25
ENDBRANCH  23  24
ENDBRANCH  22  23
ENDBRANCH  21  22
ENDBRANCH   3  21
TORSDOF 19
ENDMDL
MODEL 2
REMARK VINA RESULT:      -9.4      3.197      7.475
REMARK SMILES CCN(CC(C)(C)O)C(=O)NCCCC(=O)NCCCCNC(=O)c1ccc(-c2c3nc(c(-c4ccccc4)c4ccc([nH]4)c(-c4ccccc4)c4nc(c(-c5ccccc5)c5ccc2[nH]5)C=C4)C=C3)cc1
REMARK SMILES IDX 15 1 16 2 17 3 14 5 13 6 12 7 11 8 9 9 10 10 3 12 2 13 1 14
REMARK SMILES IDX 4 15 5 16 6 17 7 18 8 19 18 21 19 22 20 23 21 24 22 25 23 26
REMARK SMILES IDX 24 28 25 29 26 30 72 31 27 32 71 33 28 34 29 35 30 36 65 37
REMARK SMILES IDX 31 38 70 39 64 40 66 41 32 42 69 43 63 44 62 45 33 47 55 48
REMARK SMILES IDX 40 49 54 50 41 51 44 52 53 53 67 54 42 55 43 56 52 58 68 59
REMARK SMILES IDX 45 60 34 61 35 62 39 63 36 64 38 65 37 66 56 67 57 68 61 69
REMARK SMILES IDX 58 70 60 71 59 72 46 73 47 74 51 75 48 76 50 77 49 78
REMARK H PARENT 17 4 11 11 8 20 22 27 66 46 44 57
REMARK Flexibility Score: inf
ROOT
ATOM      1  C   UNL A   1      30.370  29.234  23.478  1.00  0.00     0.220 C 
ATOM      2  O   UNL A   1      29.501  30.089  23.655  1.00  0.00    -0.275 OA
ATOM      3  N   UNL A   1      31.671  29.586  23.673  1.00  0.00    -0.356 N 
ATOM      4  H   UNL A   1      31.806  30.488  24.042  1.00  0.00     0.163 HD
ENDROOT
BRANCH   1   5
ATOM      5  C   UNL A   1      30.001  27.833  23.030  1.00  0.00     0.102 C 
BRANCH   5   6
ATOM      6  C   UNL A   1      29.624  26.933  24.204  1.00  0.00     0.031 C 
BRANCH   6   7
ATOM      7  C   UNL A   1      30.371  25.609  24.234  1.00  0.00     0.118 C 
BRANCH   7   8
ATOM      8  N   UNL A   1      30.721  25.171  25.568  1.00  0.00    -0.338 N 
ATOM      9  C   UNL A   1      31.418  24.151  26.103  1.00  0.00     0.317 C 
ATOM     10  O   UNL A   1      31.523  24.195  27.334  1.00  0.00    -0.249 OA
ATOM     11  H   UNL A   1      30.356  25.769  26.259  1.00  0.00     0.165 HD
BRANCH   9  12
ATOM     12  N   UNL A   1      31.976  23.141  25.368  1.00  0.00    -0.322 N 
BRANCH  12  13
ATOM     13  C   UNL A   1      31.373  21.807  25.533  1.00  0.00     0.118 C 
ATOM     14  C   UNL A   1      32.237  20.695  24.951  1.00  0.00     0.027 C 
ENDBRANCH  12  13
BRANCH  12  15
ATOM     15  C   UNL A   1      33.160  23.195  24.500  1.00  0.00     0.155 C 
BRANCH  15  16
ATOM     16  C   UNL A   1      34.466  23.736  25.167  1.00  0.00     0.077 C 
ATOM     17  C   UNL A   1      34.522  25.237  25.482  1.00  0.00     0.043 C 
ATOM     18  C   UNL A   1      34.703  22.942  26.459  1.00  0.00     0.043 C 
BRANCH  16  19
ATOM     19  O   UNL A   1      35.575  23.460  24.300  1.00  0.00    -0.389 OA
ATOM     20  H   UNL A   1      36.403  23.546  24.797  1.00  0.00     0.211 HD
ENDBRANCH  16  19
ENDBRANCH  15  16
ENDBRANCH  12  15
ENDBRANCH   9  12
ENDBRANCH   7   8
ENDBRANCH   6   7
ENDBRANCH   5   6
ENDBRANCH   1   5
BRANCH   3  21
ATOM     21  C   UNL A   1      32.889  28.837  23.423  1.00  0.00     0.116 C 
BRANCH  21  22
ATOM     22  C   UNL A   1      33.704  28.673  24.712  1.00  0.00     0.023 C 
BRANCH  22  23
ATOM     23  C   UNL A   1      32.896  28.445  25.980  1.00  0.00     0.023 C 
BRANCH  23  24
ATOM     24  C   UNL A   1      33.657  28.717  27.261  1.00  0.00     0.116 C 
BRANCH  24  25
ATOM     25  N   UNL A   1      33.626  30.103  27.703  1.00  0.00    -0.352 N 
ATOM     26  C   UNL A   1      34.663  30.813  28.272  1.00  0.00     0.251 C 
ATOM     27  H   UNL A   1      32.776  30.585  27.582  1.00  0.00     0.163 HD
ATOM     28  O   UNL A   1      34.510  31.953  28.680  1.00  0.00    -0.269 OA
BRANCH  26  29
ATOM     29  C   UNL A   1      35.959  30.120  28.430  1.00  0.00     0.039 A 
ATOM     30  C   UNL A   1      36.895  30.196  27.400  1.00  0.00     0.014 A 
ATOM     31  C   UNL A   1      36.288  29.531  29.653  1.00  0.00     0.014 A 
ATOM     32  C   UNL A   1      38.195  29.744  27.628  1.00  0.00     0.010 A 
ATOM     33  C   UNL A   1      37.607  29.195  29.916  1.00  0.00     0.010 A 
ATOM     34  C   UNL A   1      38.571  29.283  28.902  1.00  0.00    -0.014 A 
BRANCH  34  35
ATOM     35  C   UNL A   1      39.964  28.859  29.182  1.00  0.00     0.031 A 
ATOM     36  C   UNL A   1      40.430  27.496  28.747  1.00  0.00     0.074 A 
ATOM     37  C   UNL A   1      40.791  29.674  29.866  1.00  0.00     0.049 A 
ATOM     38  N   UNL A   1      41.607  26.942  28.892  1.00  0.00    -0.248 NA
ATOM     39  C   UNL A   1      39.436  26.625  28.098  1.00  0.00     0.031 C 
ATOM     40  C   UNL A   1      40.434  30.988  30.410  1.00  0.00     0.029 A 
ATOM     41  N   UNL A   1      42.108  29.518  30.214  1.00  0.00    -0.354 N 
ATOM     42  C   UNL A   1      41.483  25.659  28.375  1.00  0.00     0.074 A 
ATOM     43  C   UNL A   1      40.104  25.489  27.979  1.00  0.00     0.031 C 
ATOM     44  C   UNL A   1      41.522  31.538  30.975  1.00  0.00     0.029 A 
ATOM     45  C   UNL A   1      42.640  30.609  30.858  1.00  0.00     0.049 A 
ATOM     46  H   UNL A   1      42.623  28.702  30.021  1.00  0.00     0.167 HD
ATOM     47  C   UNL A   1      42.438  24.715  28.206  1.00  0.00     0.031 A 
ATOM     48  C   UNL A   1      43.896  30.840  31.283  1.00  0.00     0.031 A 
ATOM     49  C   UNL A   1      43.816  24.896  28.567  1.00  0.00     0.049 A 
ATOM     50  C   UNL A   1      44.951  29.798  31.044  1.00  0.00     0.074 A 
ATOM     51  C   UNL A   1      44.879  24.032  28.378  1.00  0.00     0.029 A 
ATOM     52  N   UNL A   1      44.321  26.031  29.184  1.00  0.00    -0.354 N 
ATOM     53  N   UNL A   1      44.837  28.622  30.474  1.00  0.00    -0.248 NA
ATOM     54  C   UNL A   1      46.314  30.125  31.485  1.00  0.00     0.031 C 
ATOM     55  C   UNL A   1      46.025  24.631  28.914  1.00  0.00     0.029 A 
ATOM     56  C   UNL A   1      45.680  25.884  29.394  1.00  0.00     0.049 A 
ATOM     57  H   UNL A   1      43.792  26.821  29.436  1.00  0.00     0.167 HD
ATOM     58  C   UNL A   1      46.115  28.081  30.463  1.00  0.00     0.074 A 
ATOM     59  C   UNL A   1      46.992  29.065  31.066  1.00  0.00     0.031 C 
ATOM     60  C   UNL A   1      46.531  26.878  29.995  1.00  0.00     0.031 A 
BRANCH  47  61
ATOM     61  C   UNL A   1      42.013  23.412  27.592  1.00  0.00    -0.014 A 
ATOM     62  C   UNL A   1      42.120  23.191  26.208  1.00  0.00     0.009 A 
ATOM     63  C   UNL A   1      41.500  22.390  28.404  1.00  0.00     0.009 A 
ATOM     64  C   UNL A   1      41.681  21.991  25.646  1.00  0.00     0.001 A 
ATOM     65  C   UNL A   1      41.090  21.178  27.842  1.00  0.00     0.001 A 
ATOM     66  C   UNL A   1      41.170  20.985  26.464  1.00  0.00     0.000 A 
ENDBRANCH  47  61
BRANCH  48  67
ATOM     67  C   UNL A   1      44.240  32.135  31.927  1.00  0.00    -0.014 A 
ATOM     68  C   UNL A   1      44.077  32.304  33.311  1.00  0.00     0.009 A 
ATOM     69  C   UNL A   1      44.728  33.208  31.165  1.00  0.00     0.009 A 
ATOM     70  C   UNL A   1      44.365  33.531  33.915  1.00  0.00     0.001 A 
ATOM     71  C   UNL A   1      45.043  34.424  31.776  1.00  0.00     0.001 A 
ATOM     72  C   UNL A   1      44.852  34.588  33.148  1.00  0.00     0.000 A 
ENDBRANCH  48  67
BRANCH  60  73
ATOM     73  C   UNL A   1      47.999  26.580  30.089  1.00  0.00    -0.014 A 
ATOM     74  C   UNL A   1      48.534  25.903  31.196  1.00  0.00     0.009 A 
ATOM     75  C   UNL A   1      48.850  26.953  29.038  1.00  0.00     0.009 A 
ATOM     76  C   UNL A   1      49.903  25.640  31.264  1.00  0.00     0.001 A 
ATOM     77  C   UNL A   1      50.213  26.664  29.096  1.00  0.00     0.001 A 
ATOM     78  C   UNL A   1      50.740  26.017  30.213  1.00  0.00     0.000 A 
ENDBRANCH  60  73
ENDBRANCH  34  35
ENDBRANCH  26  29
ENDBRANCH  24  25
ENDBRANCH  23  24
ENDBRANCH  22  23
ENDBRANCH  21  22
ENDBRANCH   3  21
TORSDOF 19
ENDMDL
MODEL 3
REMARK VINA RESULT:      -9.4      2.187      3.533
REMARK SMILES CCN(CC(C)(C)O)C(=O)NCCCC(=O)NCCCCNC(=O)c1ccc(-c2c3nc(c(-c4ccccc4)c4ccc([nH]4)c(-c4ccccc4)c4nc(c(-c5ccccc5)c5ccc2[nH]5)C=C4)C=C3)cc1
REMARK SMILES IDX 15 1 16 2 17 3 14 5 13 6 12 7 11 8 9 9 10 10 3 12 2 13 1 14
REMARK SMILES IDX 4 15 5 16 6 17 7 18 8 19 18 21 19 22 20 23 21 24 22 25 23 26
REMARK SMILES IDX 24 28 25 29 26 30 72 31 27 32 71 33 28 34 29 35 30 36 65 37
REMARK SMILES IDX 31 38 70 39 64 40 66 41 32 42 69 43 63 44 62 45 33 47 55 48
REMARK SMILES IDX 40 49 54 50 41 51 44 52 53 53 67 54 42 55 43 56 52 58 68 59
REMARK SMILES IDX 45 60 34 61 35 62 39 63 36 64 38 65 37 66 56 67 57 68 61 69
REMARK SMILES IDX 58 70 60 71 59 72 46 73 47 74 51 75 48 76 50 77 49 78
REMARK H PARENT 17 4 11 11 8 20 22 27 66 46 44 57
REMARK Flexibility Score: inf
ROOT
ATOM      1  C   UNL A   1      35.261  29.872  27.567  1.00  0.00     0.220 C 
ATOM      2  O   UNL A   1      36.292  29.237  27.798  1.00  0.00    -0.275 OA
ATOM      3  N   UNL A   1      35.120  31.100  28.140  1.00  0.00    -0.356 N 
ATOM      4  H   UNL A   1      35.912  31.427  28.623  1.00  0.00     0.163 HD
ENDROOT
BRANCH   1   5
ATOM      5  C   UNL A   1      34.170  29.291  26.689  1.00  0.00     0.102 C 
BRANCH   5   6
ATOM      6  C   UNL A   1      33.327  28.255  27.427  1.00  0.00     0.031 C 
BRANCH   6   7
ATOM      7  C   UNL A   1      31.828  28.486  27.319  1.00  0.00     0.118 C 
BRANCH   7   8
ATOM      8  N   UNL A   1      31.079  27.290  26.999  1.00  0.00    -0.338 N 
ATOM      9  C   UNL A   1      30.852  26.553  25.896  1.00  0.00     0.317 C 
ATOM     10  O   UNL A   1      30.176  25.537  26.091  1.00  0.00    -0.249 OA
ATOM     11  H   UNL A   1      30.618  26.923  27.788  1.00  0.00     0.165 HD
BRANCH   9  12
ATOM     12  N   UNL A   1      31.322  26.879  24.653  1.00  0.00    -0.322 N 
BRANCH  12  13
ATOM     13  C   UNL A   1      30.540  27.877  23.903  1.00  0.00     0.118 C 
ATOM     14  C   UNL A   1      31.200  29.251  23.890  1.00  0.00     0.027 C 
ENDBRANCH  12  13
BRANCH  12  15
ATOM     15  C   UNL A   1      32.458  26.293  23.929  1.00  0.00     0.155 C 
BRANCH  15  16
ATOM     16  C   UNL A   1      32.091  25.297  22.782  1.00  0.00     0.077 C 
ATOM     17  C   UNL A   1      31.766  25.898  21.408  1.00  0.00     0.043 C 
ATOM     18  C   UNL A   1      33.247  24.297  22.633  1.00  0.00     0.043 C 
BRANCH  16  19
ATOM     19  O   UNL A   1      30.937  24.542  23.179  1.00  0.00    -0.389 OA
ATOM     20  H   UNL A   1      30.260  25.144  23.526  1.00  0.00     0.211 HD
ENDBRANCH  16  19
ENDBRANCH  15  16
ENDBRANCH  12  15
ENDBRANCH   9  12
ENDBRANCH   7   8
ENDBRANCH   6   7
ENDBRANCH   5   6
ENDBRANCH   1   5
BRANCH   3  21
ATOM     21  C   UNL A   1      33.982  32.001  28.146  1.00  0.00     0.116 C 
BRANCH  21  22
ATOM     22  C   UNL A   1      34.242  33.203  29.064  1.00  0.00     0.023 C 
BRANCH  22  23
ATOM     23  C   UNL A   1      33.360  34.418  28.827  1.00  0.00     0.023 C 
BRANCH  23  24
ATOM     24  C   UNL A   1      33.669  35.597  29.725  1.00  0.00     0.116 C 
BRANCH  24  25
ATOM     25  N   UNL A   1      32.639  35.898  30.707  1.00  0.00    -0.352 N 
ATOM     26  C   UNL A   1      32.675  35.614  32.057  1.00  0.00     0.251 C 
ATOM     27  H   UNL A   1      31.831  36.353  30.374  1.00  0.00     0.163 HD
ATOM     28  O   UNL A   1      31.721  35.839  32.784  1.00  0.00    -0.269 OA
BRANCH  26  29
ATOM     29  C   UNL A   1      33.892  34.963  32.585  1.00  0.00     0.039 A 
ATOM     30  C   UNL A   1      33.832  33.619  32.954  1.00  0.00     0.014 A 
ATOM     31  C   UNL A   1      35.110  35.647  32.569  1.00  0.00     0.014 A 
ATOM     32  C   UNL A   1      35.017  32.939  33.235  1.00  0.00     0.010 A 
ATOM     33  C   UNL A   1      36.291  34.940  32.731  1.00  0.00     0.010 A 
ATOM     34  C   UNL A   1      36.257  33.583  33.082  1.00  0.00    -0.014 A 
BRANCH  34  35
ATOM     35  C   UNL A   1      37.530  32.858  33.313  1.00  0.00     0.031 A 
ATOM     36  C   UNL A   1      38.297  33.087  34.587  1.00  0.00     0.074 A 
ATOM     37  C   UNL A   1      38.019  32.037  32.363  1.00  0.00     0.049 A 
ATOM     38  N   UNL A   1      39.423  32.548  34.980  1.00  0.00    -0.248 NA
ATOM     39  C   UNL A   1      37.749  34.079  35.528  1.00  0.00     0.031 C 
ATOM     40  C   UNL A   1      37.409  31.791  31.053  1.00  0.00     0.029 A 
ATOM     41  N   UNL A   1      39.141  31.249  32.359  1.00  0.00    -0.354 N 
ATOM     42  C   UNL A   1      39.723  33.151  36.194  1.00  0.00     0.074 A 
ATOM     43  C   UNL A   1      38.704  34.145  36.441  1.00  0.00     0.031 C 
ATOM     44  C   UNL A   1      38.137  30.872  30.396  1.00  0.00     0.029 A 
ATOM     45  C   UNL A   1      39.274  30.486  31.224  1.00  0.00     0.049 A 
ATOM     46  H   UNL A   1      39.790  31.231  33.100  1.00  0.00     0.167 HD
ATOM     47  C   UNL A   1      40.734  32.878  37.051  1.00  0.00     0.031 A 
ATOM     48  C   UNL A   1      40.198  29.563  30.901  1.00  0.00     0.031 A 
ATOM     49  C   UNL A   1      41.727  31.866  36.823  1.00  0.00     0.049 A 
ATOM     50  C   UNL A   1      41.286  29.242  31.887  1.00  0.00     0.074 A 
ATOM     51  C   UNL A   1      42.754  31.460  37.656  1.00  0.00     0.029 A 
ATOM     52  N   UNL A   1      41.805  31.091  35.676  1.00  0.00    -0.354 N 
ATOM     53  N   UNL A   1      41.506  29.760  33.071  1.00  0.00    -0.248 NA
ATOM     54  C   UNL A   1      42.237  28.191  31.501  1.00  0.00     0.031 C 
ATOM     55  C   UNL A   1      43.478  30.461  36.995  1.00  0.00     0.029 A 
ATOM     56  C   UNL A   1      42.871  30.215  35.774  1.00  0.00     0.049 A 
ATOM     57  H   UNL A   1      41.193  31.154  34.908  1.00  0.00     0.167 HD
ATOM     58  C   UNL A   1      42.603  29.080  33.583  1.00  0.00     0.074 A 
ATOM     59  C   UNL A   1      42.991  28.100  32.588  1.00  0.00     0.031 C 
ATOM     60  C   UNL A   1      43.236  29.249  34.771  1.00  0.00     0.031 A 
BRANCH  47  61
ATOM     61  C   UNL A   1      40.797  33.686  38.316  1.00  0.00    -0.014 A 
ATOM     62  C   UNL A   1      40.116  33.276  39.475  1.00  0.00     0.009 A 
ATOM     63  C   UNL A   1      41.547  34.870  38.355  1.00  0.00     0.009 A 
ATOM     64  C   UNL A   1      40.148  34.059  40.630  1.00  0.00     0.001 A 
ATOM     65  C   UNL A   1      41.603  35.636  39.522  1.00  0.00     0.001 A 
ATOM     66  C   UNL A   1      40.895  35.235  40.654  1.00  0.00     0.000 A 
ENDBRANCH  47  61
BRANCH  48  67
ATOM     67  C   UNL A   1      40.105  28.832  29.610  1.00  0.00    -0.014 A 
ATOM     68  C   UNL A   1      40.681  29.368  28.448  1.00  0.00     0.009 A 
ATOM     69  C   UNL A   1      39.437  27.600  29.529  1.00  0.00     0.009 A 
ATOM     70  C   UNL A   1      40.565  28.702  27.225  1.00  0.00     0.001 A 
ATOM     71  C   UNL A   1      39.346  26.923  28.311  1.00  0.00     0.001 A 
ATOM     72  C   UNL A   1      39.901  27.478  27.158  1.00  0.00     0.000 A 
ENDBRANCH  48  67
BRANCH  60  73
ATOM     73  C   UNL A   1      44.387  28.332  35.067  1.00  0.00    -0.014 A 
ATOM     74  C   UNL A   1      45.702  28.682  34.726  1.00  0.00     0.009 A 
ATOM     75  C   UNL A   1      44.151  27.116  35.727  1.00  0.00     0.009 A 
ATOM     76  C   UNL A   1      46.757  27.812  35.007  1.00  0.00     0.001 A 
ATOM     77  C   UNL A   1      45.211  26.262  36.031  1.00  0.00     0.001 A 
ATOM     78  C   UNL A   1      46.510  26.605  35.663  1.00  0.00     0.000 A 
ENDBRANCH  60  73
ENDBRANCH  34  35
ENDBRANCH  26  29
ENDBRANCH  24  25
ENDBRANCH  23  24
ENDBRANCH  22  23
ENDBRANCH  21  22
ENDBRANCH   3  21
TORSDOF 19
ENDMDL
