MODEL 1
REMARK VINA RESULT:     -11.0      0.000      0.000
REMARK SMILES CC(C)(C)OC(=O)N[C@@H](C(=O)NCCCCNC(=O)c1ccc(-c2c3nc(c(-c4ccccc4)c4ccc([nH]4)c(-c4ccccc4)c4nc(c(-c5ccccc5)c5ccc2[nH]5)C=C4)C=C3)cc1)c1ccc([N+](=O)[O-])cc1
REMARK SMILES IDX 14 1 13 2 12 3 10 4 11 5 9 7 8 8 6 9 7 10 5 12 2 13 1 14
REMARK SMILES IDX 3 15 4 16 68 17 69 18 76 19 70 20 75 21 71 22 72 23 73 24
REMARK SMILES IDX 74 25 15 26 16 27 17 28 18 29 19 31 20 32 21 33 67 34 22 35
REMARK SMILES IDX 66 36 23 37 24 38 25 39 60 40 26 41 65 42 59 43 61 44 27 45
REMARK SMILES IDX 64 46 58 47 57 48 28 50 50 51 35 52 49 53 36 54 39 55 48 56
REMARK SMILES IDX 62 57 37 58 38 59 47 61 63 62 40 63 29 64 30 65 34 66 31 67
REMARK SMILES IDX 33 68 32 69 51 70 52 71 56 72 53 73 55 74 54 75 41 76 42 77
REMARK SMILES IDX 46 78 43 79 45 80 44 81
REMARK H PARENT 12 6 8 11 17 30 61 49 39 60
REMARK Flexibility Score: inf
ROOT
ATOM      1  C   UNL A   1      36.393  21.887  24.336  1.00  0.00     0.023 C 
ENDROOT
BRANCH   1   2
ATOM      2  C   UNL A   1      36.182  23.091  25.251  1.00  0.00     0.116 C 
BRANCH   2   3
ATOM      3  N   UNL A   1      35.610  22.689  26.517  1.00  0.00    -0.354 N 
ATOM      4  C   UNL A   1      34.296  22.517  26.857  1.00  0.00     0.247 C 
ATOM      5  O   UNL A   1      34.067  22.220  28.032  1.00  0.00    -0.272 OA
ATOM      6  H   UNL A   1      36.258  22.516  27.236  1.00  0.00     0.163 HD
BRANCH   4   7
ATOM      7  C   UNL A   1      33.179  22.630  25.771  1.00  0.00     0.205 C 
BRANCH   7   8
ATOM      8  N   UNL A   1      31.938  23.080  26.392  1.00  0.00    -0.306 N 
ATOM      9  C   UNL A   1      31.312  24.276  26.237  1.00  0.00     0.408 C 
ATOM     10  O   UNL A   1      30.278  24.520  26.843  1.00  0.00    -0.225 OA
ATOM     11  H   UNL A   1      31.501  22.438  26.999  1.00  0.00     0.168 HD
BRANCH   9  12
ATOM     12  O   UNL A   1      31.978  25.133  25.428  1.00  0.00    -0.444 OA
BRANCH  12  13
ATOM     13  C   UNL A   1      31.388  25.590  24.180  1.00  0.00     0.106 C 
ATOM     14  C   UNL A   1      32.586  25.943  23.282  1.00  0.00     0.056 C 
ATOM     15  C   UNL A   1      30.554  26.864  24.374  1.00  0.00     0.056 C 
ATOM     16  C   UNL A   1      30.580  24.475  23.512  1.00  0.00     0.056 C 
ENDBRANCH  12  13
ENDBRANCH   9  12
ENDBRANCH   7   8
BRANCH   7  17
ATOM     17  C   UNL A   1      33.000  21.310  25.015  1.00  0.00    -0.016 A 
ATOM     18  C   UNL A   1      32.426  21.337  23.729  1.00  0.00     0.013 A 
ATOM     19  C   UNL A   1      33.439  20.075  25.525  1.00  0.00     0.013 A 
ATOM     20  C   UNL A   1      32.307  20.171  22.967  1.00  0.00     0.086 A 
ATOM     21  C   UNL A   1      33.319  18.902  24.772  1.00  0.00     0.086 A 
ATOM     22  C   UNL A   1      32.758  18.956  23.492  1.00  0.00     0.269 A 
BRANCH  22  23
ATOM     23  N   UNL A   1      32.651  17.729  22.693  1.00  0.00     0.062 N 
ATOM     24  O   UNL A   1      32.040  17.794  21.616  1.00  0.00    -0.258 OA
ATOM     25  O   UNL A   1      33.173  16.700  23.143  1.00  0.00    -0.258 OA
ENDBRANCH  22  23
ENDBRANCH   7  17
ENDBRANCH   4   7
ENDBRANCH   2   3
ENDBRANCH   1   2
BRANCH   1  26
ATOM     26  C   UNL A   1      37.147  20.731  24.999  1.00  0.00     0.023 C 
BRANCH  26  27
ATOM     27  C   UNL A   1      38.532  21.090  25.524  1.00  0.00     0.116 C 
BRANCH  27  28
ATOM     28  N   UNL A   1      39.437  19.952  25.569  1.00  0.00    -0.352 N 
ATOM     29  C   UNL A   1      40.746  19.915  25.985  1.00  0.00     0.251 C 
ATOM     30  H   UNL A   1      39.062  19.096  25.261  1.00  0.00     0.163 HD
ATOM     31  O   UNL A   1      41.419  18.902  25.834  1.00  0.00    -0.269 OA
BRANCH  29  32
ATOM     32  C   UNL A   1      41.345  21.124  26.583  1.00  0.00     0.039 A 
ATOM     33  C   UNL A   1      41.908  22.086  25.742  1.00  0.00     0.014 A 
ATOM     34  C   UNL A   1      41.310  21.325  27.966  1.00  0.00     0.014 A 
ATOM     35  C   UNL A   1      42.377  23.283  26.284  1.00  0.00     0.010 A 
ATOM     36  C   UNL A   1      41.702  22.551  28.493  1.00  0.00     0.010 A 
ATOM     37  C   UNL A   1      42.241  23.541  27.658  1.00  0.00    -0.014 A 
BRANCH  37  38
ATOM     38  C   UNL A   1      42.644  24.846  28.237  1.00  0.00     0.031 A 
ATOM     39  C   UNL A   1      41.621  25.920  28.476  1.00  0.00     0.074 A 
ATOM     40  C   UNL A   1      43.946  25.092  28.482  1.00  0.00     0.049 A 
ATOM     41  N   UNL A   1      41.790  27.136  28.930  1.00  0.00    -0.248 NA
ATOM     42  C   UNL A   1      40.229  25.596  28.131  1.00  0.00     0.031 C 
ATOM     43  C   UNL A   1      45.045  24.152  28.248  1.00  0.00     0.029 A 
ATOM     44  N   UNL A   1      44.568  26.212  28.977  1.00  0.00    -0.354 N 
ATOM     45  C   UNL A   1      40.534  27.726  28.907  1.00  0.00     0.074 A 
ATOM     46  C   UNL A   1      39.623  26.754  28.342  1.00  0.00     0.031 C 
ATOM     47  C   UNL A   1      46.200  24.724  28.623  1.00  0.00     0.029 A 
ATOM     48  C   UNL A   1      45.930  26.083  29.081  1.00  0.00     0.049 A 
ATOM     49  H   UNL A   1      44.081  27.028  29.232  1.00  0.00     0.167 HD
ATOM     50  C   UNL A   1      40.166  28.957  29.332  1.00  0.00     0.031 A 
ATOM     51  C   UNL A   1      46.864  26.963  29.489  1.00  0.00     0.031 A 
ATOM     52  C   UNL A   1      41.074  29.922  29.892  1.00  0.00     0.049 A 
ATOM     53  C   UNL A   1      46.438  28.330  29.943  1.00  0.00     0.074 A 
ATOM     54  C   UNL A   1      40.790  31.171  30.416  1.00  0.00     0.029 A 
ATOM     55  N   UNL A   1      42.448  29.753  29.986  1.00  0.00    -0.354 N 
ATOM     56  N   UNL A   1      45.232  28.842  29.998  1.00  0.00    -0.248 NA
ATOM     57  C   UNL A   1      47.499  29.235  30.404  1.00  0.00     0.031 C 
ATOM     58  C   UNL A   1      41.998  31.785  30.761  1.00  0.00     0.029 A 
ATOM     59  C   UNL A   1      43.029  30.890  30.523  1.00  0.00     0.049 A 
ATOM     60  H   UNL A   1      42.937  28.944  29.712  1.00  0.00     0.167 HD
ATOM     61  C   UNL A   1      45.386  30.120  30.521  1.00  0.00     0.074 A 
ATOM     62  C   UNL A   1      46.801  30.296  30.783  1.00  0.00     0.031 C 
ATOM     63  C   UNL A   1      44.440  31.060  30.765  1.00  0.00     0.031 A 
BRANCH  50  64
ATOM     64  C   UNL A   1      38.717  29.336  29.178  1.00  0.00    -0.014 A 
ATOM     65  C   UNL A   1      37.806  29.212  30.241  1.00  0.00     0.009 A 
ATOM     66  C   UNL A   1      38.255  29.832  27.948  1.00  0.00     0.009 A 
ATOM     67  C   UNL A   1      36.457  29.527  30.059  1.00  0.00     0.001 A 
ATOM     68  C   UNL A   1      36.914  30.180  27.781  1.00  0.00     0.001 A 
ATOM     69  C   UNL A   1      36.013  30.013  28.832  1.00  0.00     0.000 A 
ENDBRANCH  50  64
BRANCH  51  70
ATOM     70  C   UNL A   1      48.297  26.565  29.492  1.00  0.00    -0.014 A 
ATOM     71  C   UNL A   1      48.861  25.931  30.609  1.00  0.00     0.009 A 
ATOM     72  C   UNL A   1      49.101  26.792  28.363  1.00  0.00     0.009 A 
ATOM     73  C   UNL A   1      50.205  25.549  30.602  1.00  0.00     0.001 A 
ATOM     74  C   UNL A   1      50.435  26.381  28.347  1.00  0.00     0.001 A 
ATOM     75  C   UNL A   1      50.987  25.767  29.469  1.00  0.00     0.000 A 
ENDBRANCH  51  70
BRANCH  63  76
ATOM     76  C   UNL A   1      44.898  32.360  31.370  1.00  0.00    -0.014 A 
ATOM     77  C   UNL A   1      44.994  32.528  32.760  1.00  0.00     0.009 A 
ATOM     78  C   UNL A   1      45.281  33.418  30.530  1.00  0.00     0.009 A 
ATOM     79  C   UNL A   1      45.432  33.741  33.297  1.00  0.00     0.001 A 
ATOM     80  C   UNL A   1      45.750  34.617  31.069  1.00  0.00     0.001 A 
ATOM     81  C   UNL A   1      45.816  34.781  32.451  1.00  0.00     0.000 A 
ENDBRANCH  63  76
ENDBRANCH  37  38
ENDBRANCH  29  32
ENDBRANCH  27  28
ENDBRANCH  26  27
ENDBRANCH   1  26
TORSDOF 16
ENDMDL
MODEL 2
REMARK VINA RESULT:     -11.0      0.554      5.926
REMARK SMILES CC(C)(C)OC(=O)N[C@@H](C(=O)NCCCCNC(=O)c1ccc(-c2c3nc(c(-c4ccccc4)c4ccc([nH]4)c(-c4ccccc4)c4nc(c(-c5ccccc5)c5ccc2[nH]5)C=C4)C=C3)cc1)c1ccc([N+](=O)[O-])cc1
REMARK SMILES IDX 14 1 13 2 12 3 10 4 11 5 9 7 8 8 6 9 7 10 5 12 2 13 1 14
REMARK SMILES IDX 3 15 4 16 68 17 69 18 76 19 70 20 75 21 71 22 72 23 73 24
REMARK SMILES IDX 74 25 15 26 16 27 17 28 18 29 19 31 20 32 21 33 67 34 22 35
REMARK SMILES IDX 66 36 23 37 24 38 25 39 60 40 26 41 65 42 59 43 61 44 27 45
REMARK SMILES IDX 64 46 58 47 57 48 28 50 50 51 35 52 49 53 36 54 39 55 48 56
REMARK SMILES IDX 62 57 37 58 38 59 47 61 63 62 40 63 29 64 30 65 34 66 31 67
REMARK SMILES IDX 33 68 32 69 51 70 52 71 56 72 53 73 55 74 54 75 41 76 42 77
REMARK SMILES IDX 46 78 43 79 45 80 44 81
REMARK H PARENT 12 6 8 11 17 30 61 49 39 60
REMARK Flexibility Score: inf
ROOT
ATOM      1  C   UNL A   1      36.331  21.799  24.272  1.00  0.00     0.023 C 
ENDROOT
BRANCH   1   2
ATOM      2  C   UNL A   1      35.908  22.965  25.164  1.00  0.00     0.116 C 
BRANCH   2   3
ATOM      3  N   UNL A   1      35.527  22.502  26.480  1.00  0.00    -0.354 N 
ATOM      4  C   UNL A   1      34.278  22.257  26.983  1.00  0.00     0.247 C 
ATOM      5  O   UNL A   1      34.220  21.918  28.167  1.00  0.00    -0.272 OA
ATOM      6  H   UNL A   1      36.271  22.342  27.102  1.00  0.00     0.163 HD
BRANCH   4   7
ATOM      7  C   UNL A   1      33.024  22.344  26.056  1.00  0.00     0.205 C 
BRANCH   7   8
ATOM      8  N   UNL A   1      31.833  22.574  26.866  1.00  0.00    -0.306 N 
ATOM      9  C   UNL A   1      30.730  23.299  26.542  1.00  0.00     0.408 C 
ATOM     10  O   UNL A   1      29.809  23.420  27.339  1.00  0.00    -0.225 OA
ATOM     11  H   UNL A   1      31.829  22.155  27.758  1.00  0.00     0.168 HD
BRANCH   9  12
ATOM     12  O   UNL A   1      30.808  23.887  25.326  1.00  0.00    -0.444 OA
BRANCH  12  13
ATOM     13  C   UNL A   1      30.991  25.325  25.204  1.00  0.00     0.106 C 
ATOM     14  C   UNL A   1      31.790  25.513  23.903  1.00  0.00     0.056 C 
ATOM     15  C   UNL A   1      31.829  25.894  26.358  1.00  0.00     0.056 C 
ATOM     16  C   UNL A   1      29.646  26.042  25.067  1.00  0.00     0.056 C 
ENDBRANCH  12  13
ENDBRANCH   9  12
ENDBRANCH   7   8
BRANCH   7  17
ATOM     17  C   UNL A   1      32.891  21.096  25.178  1.00  0.00    -0.016 A 
ATOM     18  C   UNL A   1      32.515  21.251  23.829  1.00  0.00     0.013 A 
ATOM     19  C   UNL A   1      33.187  19.802  25.644  1.00  0.00     0.013 A 
ATOM     20  C   UNL A   1      32.450  20.153  22.967  1.00  0.00     0.086 A 
ATOM     21  C   UNL A   1      33.120  18.696  24.790  1.00  0.00     0.086 A 
ATOM     22  C   UNL A   1      32.756  18.877  23.451  1.00  0.00     0.269 A 
BRANCH  22  23
ATOM     23  N   UNL A   1      32.705  17.721  22.549  1.00  0.00     0.062 N 
ATOM     24  O   UNL A   1      33.507  16.797  22.750  1.00  0.00    -0.258 OA
ATOM     25  O   UNL A   1      31.867  17.736  21.637  1.00  0.00    -0.258 OA
ENDBRANCH  22  23
ENDBRANCH   7  17
ENDBRANCH   4   7
ENDBRANCH   2   3
ENDBRANCH   1   2
BRANCH   1  26
ATOM     26  C   UNL A   1      37.062  20.682  25.021  1.00  0.00     0.023 C 
BRANCH  26  27
ATOM     27  C   UNL A   1      38.416  21.079  25.598  1.00  0.00     0.116 C 
BRANCH  27  28
ATOM     28  N   UNL A   1      39.373  19.983  25.612  1.00  0.00    -0.352 N 
ATOM     29  C   UNL A   1      40.694  20.004  25.990  1.00  0.00     0.251 C 
ATOM     30  H   UNL A   1      39.028  19.112  25.312  1.00  0.00     0.163 HD
ATOM     31  O   UNL A   1      41.408  19.023  25.816  1.00  0.00    -0.269 OA
BRANCH  29  32
ATOM     32  C   UNL A   1      41.254  21.239  26.574  1.00  0.00     0.039 A 
ATOM     33  C   UNL A   1      41.842  22.180  25.727  1.00  0.00     0.014 A 
ATOM     34  C   UNL A   1      41.160  21.481  27.947  1.00  0.00     0.014 A 
ATOM     35  C   UNL A   1      42.275  23.399  26.251  1.00  0.00     0.010 A 
ATOM     36  C   UNL A   1      41.517  22.727  28.452  1.00  0.00     0.010 A 
ATOM     37  C   UNL A   1      42.080  23.697  27.609  1.00  0.00    -0.014 A 
BRANCH  37  38
ATOM     38  C   UNL A   1      42.445  25.024  28.164  1.00  0.00     0.031 A 
ATOM     39  C   UNL A   1      43.860  25.310  28.581  1.00  0.00     0.074 A 
ATOM     40  C   UNL A   1      41.486  25.951  28.360  1.00  0.00     0.049 A 
ATOM     41  N   UNL A   1      44.358  26.391  29.126  1.00  0.00    -0.248 NA
ATOM     42  C   UNL A   1      44.838  24.229  28.387  1.00  0.00     0.031 C 
ATOM     43  C   UNL A   1      40.066  25.780  28.044  1.00  0.00     0.029 A 
ATOM     44  N   UNL A   1      41.561  27.219  28.880  1.00  0.00    -0.354 N 
ATOM     45  C   UNL A   1      45.699  26.113  29.358  1.00  0.00     0.074 A 
ATOM     46  C   UNL A   1      45.922  24.744  28.946  1.00  0.00     0.031 C 
ATOM     47  C   UNL A   1      39.410  26.910  28.351  1.00  0.00     0.029 A 
ATOM     48  C   UNL A   1      40.351  27.866  28.926  1.00  0.00     0.049 A 
ATOM     49  H   UNL A   1      42.403  27.625  29.189  1.00  0.00     0.167 HD
ATOM     50  C   UNL A   1      46.661  26.927  29.852  1.00  0.00     0.031 A 
ATOM     51  C   UNL A   1      40.029  29.089  29.389  1.00  0.00     0.031 A 
ATOM     52  C   UNL A   1      46.435  28.287  30.263  1.00  0.00     0.049 A 
ATOM     53  C   UNL A   1      41.109  29.971  29.947  1.00  0.00     0.074 A 
ATOM     54  C   UNL A   1      47.357  29.216  30.712  1.00  0.00     0.029 A 
ATOM     55  N   UNL A   1      45.195  28.909  30.289  1.00  0.00    -0.354 N 
ATOM     56  N   UNL A   1      42.390  29.725  30.078  1.00  0.00    -0.248 NA
ATOM     57  C   UNL A   1      40.701  31.304  30.409  1.00  0.00     0.031 C 
ATOM     58  C   UNL A   1      46.665  30.375  31.078  1.00  0.00     0.029 A 
ATOM     59  C   UNL A   1      45.323  30.196  30.786  1.00  0.00     0.049 A 
ATOM     60  H   UNL A   1      44.351  28.496  29.999  1.00  0.00     0.167 HD
ATOM     61  C   UNL A   1      42.945  30.880  30.615  1.00  0.00     0.074 A 
ATOM     62  C   UNL A   1      41.863  31.831  30.769  1.00  0.00     0.031 C 
ATOM     63  C   UNL A   1      44.236  31.129  30.948  1.00  0.00     0.031 A 
BRANCH  50  64
ATOM     64  C   UNL A   1      48.043  26.348  30.001  1.00  0.00    -0.014 A 
ATOM     65  C   UNL A   1      48.969  26.370  28.944  1.00  0.00     0.009 A 
ATOM     66  C   UNL A   1      48.430  25.778  31.224  1.00  0.00     0.009 A 
ATOM     67  C   UNL A   1      50.229  25.786  29.091  1.00  0.00     0.001 A 
ATOM     68  C   UNL A   1      49.704  25.228  31.381  1.00  0.00     0.001 A 
ATOM     69  C   UNL A   1      50.596  25.219  30.310  1.00  0.00     0.000 A 
ENDBRANCH  50  64
BRANCH  51  70
ATOM     70  C   UNL A   1      38.616  29.547  29.331  1.00  0.00    -0.014 A 
ATOM     71  C   UNL A   1      37.748  29.327  30.411  1.00  0.00     0.009 A 
ATOM     72  C   UNL A   1      38.135  30.232  28.205  1.00  0.00     0.009 A 
ATOM     73  C   UNL A   1      36.424  29.769  30.356  1.00  0.00     0.001 A 
ATOM     74  C   UNL A   1      36.821  30.701  28.165  1.00  0.00     0.001 A 
ATOM     75  C   UNL A   1      35.965  30.463  29.238  1.00  0.00     0.000 A 
ENDBRANCH  51  70
BRANCH  63  76
ATOM     76  C   UNL A   1      44.558  32.496  31.489  1.00  0.00    -0.014 A 
ATOM     77  C   UNL A   1      44.971  33.539  30.646  1.00  0.00     0.009 A 
ATOM     78  C   UNL A   1      44.401  32.753  32.861  1.00  0.00     0.009 A 
ATOM     79  C   UNL A   1      45.254  34.802  31.171  1.00  0.00     0.001 A 
ATOM     80  C   UNL A   1      44.652  34.025  33.377  1.00  0.00     0.001 A 
ATOM     81  C   UNL A   1      45.088  35.046  32.535  1.00  0.00     0.000 A 
ENDBRANCH  63  76
ENDBRANCH  37  38
ENDBRANCH  29  32
ENDBRANCH  27  28
ENDBRANCH  26  27
ENDBRANCH   1  26
TORSDOF 16
ENDMDL
MODEL 3
REMARK VINA RESULT:     -10.7      3.651      8.793
REMARK SMILES CC(C)(C)OC(=O)N[C@@H](C(=O)NCCCCNC(=O)c1ccc(-c2c3nc(c(-c4ccccc4)c4ccc([nH]4)c(-c4ccccc4)c4nc(c(-c5ccccc5)c5ccc2[nH]5)C=C4)C=C3)cc1)c1ccc([N+](=O)[O-])cc1
REMARK SMILES IDX 14 1 13 2 12 3 10 4 11 5 9 7 8 8 6 9 7 10 5 12 2 13 1 14
REMARK SMILES IDX 3 15 4 16 68 17 69 18 76 19 70 20 75 21 71 22 72 23 73 24
REMARK SMILES IDX 74 25 15 26 16 27 17 28 18 29 19 31 20 32 21 33 67 34 22 35
REMARK SMILES IDX 66 36 23 37 24 38 25 39 60 40 26 41 65 42 59 43 61 44 27 45
REMARK SMILES IDX 64 46 58 47 57 48 28 50 50 51 35 52 49 53 36 54 39 55 48 56
REMARK SMILES IDX 62 57 37 58 38 59 47 61 63 62 40 63 29 64 30 65 34 66 31 67
REMARK SMILES IDX 33 68 32 69 51 70 52 71 56 72 53 73 55 74 54 75 41 76 42 77
REMARK SMILES IDX 46 78 43 79 45 80 44 81
REMARK H PARENT 12 6 8 11 17 30 61 49 39 60
REMARK Flexibility Score: inf
ROOT
ATOM      1  C   UNL A   1      31.878  29.672  25.904  1.00  0.00     0.023 C 
ENDROOT
BRANCH   1   2
ATOM      2  C   UNL A   1      33.154  28.838  25.811  1.00  0.00     0.116 C 
BRANCH   2   3
ATOM      3  N   UNL A   1      33.838  29.070  24.558  1.00  0.00    -0.354 N 
ATOM      4  C   UNL A   1      33.736  28.387  23.377  1.00  0.00     0.247 C 
ATOM      5  O   UNL A   1      34.476  28.757  22.463  1.00  0.00    -0.272 OA
ATOM      6  H   UNL A   1      34.466  29.827  24.555  1.00  0.00     0.163 HD
BRANCH   4   7
ATOM      7  C   UNL A   1      32.676  27.252  23.212  1.00  0.00     0.205 C 
BRANCH   7   8
ATOM      8  N   UNL A   1      33.022  26.424  22.062  1.00  0.00    -0.306 N 
ATOM      9  C   UNL A   1      32.903  25.076  21.937  1.00  0.00     0.408 C 
ATOM     10  O   UNL A   1      33.256  24.513  20.909  1.00  0.00    -0.225 OA
ATOM     11  H   UNL A   1      33.388  26.900  21.281  1.00  0.00     0.168 HD
BRANCH   9  12
ATOM     12  O   UNL A   1      32.436  24.469  23.053  1.00  0.00    -0.444 OA
BRANCH  12  13
ATOM     13  C   UNL A   1      33.299  23.617  23.855  1.00  0.00     0.106 C 
ATOM     14  C   UNL A   1      32.862  23.866  25.308  1.00  0.00     0.056 C 
ATOM     15  C   UNL A   1      34.776  24.021  23.732  1.00  0.00     0.056 C 
ATOM     16  C   UNL A   1      33.083  22.140  23.519  1.00  0.00     0.056 C 
ENDBRANCH  12  13
ENDBRANCH   9  12
ENDBRANCH   7   8
BRANCH   7  17
ATOM     17  C   UNL A   1      31.258  27.822  23.106  1.00  0.00    -0.016 A 
ATOM     18  C   UNL A   1      30.200  27.135  23.732  1.00  0.00     0.013 A 
ATOM     19  C   UNL A   1      30.974  29.038  22.459  1.00  0.00     0.013 A 
ATOM     20  C   UNL A   1      28.901  27.650  23.727  1.00  0.00     0.086 A 
ATOM     21  C   UNL A   1      29.675  29.559  22.444  1.00  0.00     0.086 A 
ATOM     22  C   UNL A   1      28.644  28.864  23.084  1.00  0.00     0.269 A 
BRANCH  22  23
ATOM     23  N   UNL A   1      27.286  29.420  23.087  1.00  0.00     0.062 N 
ATOM     24  O   UNL A   1      26.337  28.624  23.149  1.00  0.00    -0.258 OA
ATOM     25  O   UNL A   1      27.165  30.651  23.024  1.00  0.00    -0.258 OA
ENDBRANCH  22  23
ENDBRANCH   7  17
ENDBRANCH   4   7
ENDBRANCH   2   3
ENDBRANCH   1   2
BRANCH   1  26
ATOM     26  C   UNL A   1      31.903  30.718  27.022  1.00  0.00     0.023 C 
BRANCH  26  27
ATOM     27  C   UNL A   1      32.945  31.817  26.846  1.00  0.00     0.116 C 
BRANCH  27  28
ATOM     28  N   UNL A   1      32.519  33.099  27.385  1.00  0.00    -0.352 N 
ATOM     29  C   UNL A   1      33.131  33.872  28.342  1.00  0.00     0.251 C 
ATOM     30  H   UNL A   1      31.681  33.460  27.016  1.00  0.00     0.163 HD
ATOM     31  O   UNL A   1      32.573  34.867  28.790  1.00  0.00    -0.269 OA
BRANCH  29  32
ATOM     32  C   UNL A   1      34.455  33.467  28.853  1.00  0.00     0.039 A 
ATOM     33  C   UNL A   1      34.526  32.730  30.037  1.00  0.00     0.014 A 
ATOM     34  C   UNL A   1      35.617  33.780  28.142  1.00  0.00     0.014 A 
ATOM     35  C   UNL A   1      35.760  32.247  30.472  1.00  0.00     0.010 A 
ATOM     36  C   UNL A   1      36.832  33.228  28.533  1.00  0.00     0.010 A 
ATOM     37  C   UNL A   1      36.916  32.458  29.703  1.00  0.00    -0.014 A 
BRANCH  37  38
ATOM     38  C   UNL A   1      38.220  31.869  30.099  1.00  0.00     0.031 A 
ATOM     39  C   UNL A   1      39.153  32.626  31.001  1.00  0.00     0.074 A 
ATOM     40  C   UNL A   1      38.596  30.681  29.587  1.00  0.00     0.049 A 
ATOM     41  N   UNL A   1      40.348  32.296  31.418  1.00  0.00    -0.248 NA
ATOM     42  C   UNL A   1      38.694  33.942  31.473  1.00  0.00     0.031 C 
ATOM     43  C   UNL A   1      37.804  29.868  28.662  1.00  0.00     0.029 A 
ATOM     44  N   UNL A   1      39.746  29.953  29.769  1.00  0.00    -0.354 N 
ATOM     45  C   UNL A   1      40.791  33.367  32.182  1.00  0.00     0.074 A 
ATOM     46  C   UNL A   1      39.760  34.380  32.126  1.00  0.00     0.031 C 
ATOM     47  C   UNL A   1      38.480  28.743  28.378  1.00  0.00     0.029 A 
ATOM     48  C   UNL A   1      39.768  28.775  29.064  1.00  0.00     0.049 A 
ATOM     49  H   UNL A   1      40.484  30.249  30.349  1.00  0.00     0.167 HD
ATOM     50  C   UNL A   1      41.943  33.491  32.883  1.00  0.00     0.031 A 
ATOM     51  C   UNL A   1      40.721  27.830  28.969  1.00  0.00     0.031 A 
ATOM     52  C   UNL A   1      42.968  32.484  32.935  1.00  0.00     0.049 A 
ATOM     53  C   UNL A   1      41.999  27.993  29.742  1.00  0.00     0.074 A 
ATOM     54  C   UNL A   1      44.140  32.484  33.671  1.00  0.00     0.029 A 
ATOM     55  N   UNL A   1      42.951  31.300  32.212  1.00  0.00    -0.354 N 
ATOM     56  N   UNL A   1      42.365  28.973  30.532  1.00  0.00    -0.248 NA
ATOM     57  C   UNL A   1      42.988  26.914  29.621  1.00  0.00     0.031 C 
ATOM     58  C   UNL A   1      44.865  31.336  33.337  1.00  0.00     0.029 A 
ATOM     59  C   UNL A   1      44.111  30.582  32.452  1.00  0.00     0.049 A 
ATOM     60  H   UNL A   1      42.222  31.014  31.616  1.00  0.00     0.167 HD
ATOM     61  C   UNL A   1      43.617  28.618  31.020  1.00  0.00     0.074 A 
ATOM     62  C   UNL A   1      43.936  27.325  30.450  1.00  0.00     0.031 C 
ATOM     63  C   UNL A   1      44.425  29.302  31.867  1.00  0.00     0.031 A 
BRANCH  50  64
ATOM     64  C   UNL A   1      42.162  34.783  33.625  1.00  0.00    -0.014 A 
ATOM     65  C   UNL A   1      41.692  34.968  34.936  1.00  0.00     0.009 A 
ATOM     66  C   UNL A   1      42.859  35.832  33.003  1.00  0.00     0.009 A 
ATOM     67  C   UNL A   1      41.868  36.191  35.587  1.00  0.00     0.001 A 
ATOM     68  C   UNL A   1      43.066  37.041  33.671  1.00  0.00     0.001 A 
ATOM     69  C   UNL A   1      42.557  37.224  34.956  1.00  0.00     0.000 A 
ENDBRANCH  50  64
BRANCH  51  70
ATOM     70  C   UNL A   1      40.490  26.638  28.110  1.00  0.00    -0.014 A 
ATOM     71  C   UNL A   1      39.743  25.549  28.583  1.00  0.00     0.009 A 
ATOM     72  C   UNL A   1      40.992  26.597  26.800  1.00  0.00     0.009 A 
ATOM     73  C   UNL A   1      39.519  24.436  27.768  1.00  0.00     0.001 A 
ATOM     74  C   UNL A   1      40.741  25.498  25.977  1.00  0.00     0.001 A 
ATOM     75  C   UNL A   1      40.011  24.416  26.464  1.00  0.00     0.000 A 
ENDBRANCH  51  70
BRANCH  63  76
ATOM     76  C   UNL A   1      45.727  28.654  32.252  1.00  0.00    -0.014 A 
ATOM     77  C   UNL A   1      46.908  28.894  31.531  1.00  0.00     0.009 A 
ATOM     78  C   UNL A   1      45.781  27.824  33.384  1.00  0.00     0.009 A 
ATOM     79  C   UNL A   1      48.106  28.288  31.916  1.00  0.00     0.001 A 
ATOM     80  C   UNL A   1      46.986  27.248  33.786  1.00  0.00     0.001 A 
ATOM     81  C   UNL A   1      48.146  27.472  33.046  1.00  0.00     0.000 A 
ENDBRANCH  63  76
ENDBRANCH  37  38
ENDBRANCH  29  32
ENDBRANCH  27  28
ENDBRANCH  26  27
ENDBRANCH   1  26
TORSDOF 16
ENDMDL
