MODEL 1
REMARK VINA RESULT:     -10.5      0.000      0.000
REMARK SMILES CC(C)C[C@@H](C)NS(=O)(=O)c1ccsc1C(=O)NCCCCNC(=O)c1ccc(-c2c3nc(c(-c4ccccc4)c4ccc([nH]4)c(-c4ccccc4)c4nc(c(-c5ccccc5)c5ccc2[nH]5)C=C4)C=C3)cc1
REMARK SMILES IDX 19 1 18 2 16 3 17 4 15 6 11 7 12 8 13 9 14 10 8 11 9 12
REMARK SMILES IDX 10 13 7 14 5 16 6 17 4 18 2 19 1 20 3 21 20 22 21 23 22 24
REMARK SMILES IDX 23 25 24 26 25 28 26 29 27 30 73 31 28 32 72 33 29 34 30 35
REMARK SMILES IDX 31 36 66 37 32 38 71 39 65 40 67 41 33 42 70 43 64 44 63 45
REMARK SMILES IDX 34 47 56 48 41 49 55 50 42 51 45 52 54 53 68 54 43 55 44 56
REMARK SMILES IDX 53 58 69 59 46 60 35 61 36 62 40 63 37 64 39 65 38 66 57 67
REMARK SMILES IDX 58 68 62 69 59 70 61 71 60 72 47 73 48 74 52 75 49 76 51 77
REMARK SMILES IDX 50 78
REMARK H PARENT 18 5 7 15 23 27 67 46 45 57
REMARK Flexibility Score: inf
ROOT
ATOM      1  C   UNL A   1      35.852  23.769  25.135  1.00  0.00     0.116 C 
ENDROOT
BRANCH   1   2
ATOM      2  N   UNL A   1      34.840  24.536  24.439  1.00  0.00    -0.351 N 
ATOM      3  C   UNL A   1      33.480  24.622  24.446  1.00  0.00     0.262 C 
ATOM      4  O   UNL A   1      33.043  25.480  23.667  1.00  0.00    -0.268 OA
ATOM      5  H   UNL A   1      35.240  25.160  23.790  1.00  0.00     0.163 HD
BRANCH   3   6
ATOM      6  C   UNL A   1      32.583  23.867  25.306  1.00  0.00     0.112 A 
ATOM      7  C   UNL A   1      32.296  22.520  25.491  1.00  0.00     0.106 A 
ATOM      8  C   UNL A   1      31.039  22.328  26.154  1.00  0.00     0.034 A 
ATOM      9  C   UNL A   1      30.479  23.504  26.588  1.00  0.00     0.067 A 
ATOM     10  S   UNL A   1      31.439  24.842  26.179  1.00  0.00    -0.137 S 
BRANCH   7  11
ATOM     11  S   UNL A   1      33.214  21.193  24.880  1.00  0.00     0.242 S 
ATOM     12  O   UNL A   1      34.169  20.911  25.924  1.00  0.00    -0.207 OA
ATOM     13  O   UNL A   1      33.621  21.618  23.563  1.00  0.00    -0.207 OA
BRANCH  11  14
ATOM     14  N   UNL A   1      32.289  19.805  24.664  1.00  0.00    -0.208 NA
ATOM     15  H   UNL A   1      31.935  19.553  25.587  1.00  0.00     0.141 HD
BRANCH  14  16
ATOM     16  C   UNL A   1      32.848  18.555  24.079  1.00  0.00     0.067 C 
ATOM     17  C   UNL A   1      32.287  18.254  22.691  1.00  0.00     0.025 C 
BRANCH  16  18
ATOM     18  C   UNL A   1      32.495  17.422  25.070  1.00  0.00     0.022 C 
BRANCH  18  19
ATOM     19  C   UNL A   1      33.161  16.062  24.784  1.00  0.00    -0.016 C 
ATOM     20  C   UNL A   1      34.649  16.072  25.138  1.00  0.00     0.007 C 
ATOM     21  C   UNL A   1      32.451  14.963  25.580  1.00  0.00     0.007 C 
ENDBRANCH  18  19
ENDBRANCH  16  18
ENDBRANCH  14  16
ENDBRANCH  11  14
ENDBRANCH   7  11
ENDBRANCH   3   6
ENDBRANCH   1   2
BRANCH   1  22
ATOM     22  C   UNL A   1      36.771  23.089  24.110  1.00  0.00     0.023 C 
BRANCH  22  23
ATOM     23  C   UNL A   1      37.183  21.665  24.473  1.00  0.00     0.023 C 
BRANCH  23  24
ATOM     24  C   UNL A   1      38.205  21.561  25.598  1.00  0.00     0.116 C 
BRANCH  24  25
ATOM     25  N   UNL A   1      38.991  20.336  25.544  1.00  0.00    -0.352 N 
ATOM     26  C   UNL A   1      40.303  20.130  25.907  1.00  0.00     0.251 C 
ATOM     27  H   UNL A   1      38.518  19.544  25.199  1.00  0.00     0.163 HD
ATOM     28  O   UNL A   1      40.860  19.061  25.680  1.00  0.00    -0.269 OA
BRANCH  26  29
ATOM     29  C   UNL A   1      41.058  21.228  26.550  1.00  0.00     0.039 A 
ATOM     30  C   UNL A   1      41.660  22.203  25.750  1.00  0.00     0.014 A 
ATOM     31  C   UNL A   1      41.125  21.320  27.944  1.00  0.00     0.014 A 
ATOM     32  C   UNL A   1      42.227  23.333  26.345  1.00  0.00     0.010 A 
ATOM     33  C   UNL A   1      41.647  22.470  28.533  1.00  0.00     0.010 A 
ATOM     34  C   UNL A   1      42.170  23.501  27.738  1.00  0.00    -0.014 A 
BRANCH  34  35
ATOM     35  C   UNL A   1      42.562  24.775  28.388  1.00  0.00     0.031 A 
ATOM     36  C   UNL A   1      41.547  25.849  28.638  1.00  0.00     0.074 A 
ATOM     37  C   UNL A   1      43.864  25.017  28.633  1.00  0.00     0.049 A 
ATOM     38  N   UNL A   1      41.737  27.097  28.983  1.00  0.00    -0.248 NA
ATOM     39  C   UNL A   1      40.136  25.480  28.450  1.00  0.00     0.031 C 
ATOM     40  C   UNL A   1      44.966  24.080  28.398  1.00  0.00     0.029 A 
ATOM     41  N   UNL A   1      44.484  26.144  29.113  1.00  0.00    -0.354 N 
ATOM     42  C   UNL A   1      40.478  27.680  28.994  1.00  0.00     0.074 A 
ATOM     43  C   UNL A   1      39.528  26.643  28.645  1.00  0.00     0.031 C 
ATOM     44  C   UNL A   1      46.123  24.667  28.742  1.00  0.00     0.029 A 
ATOM     45  C   UNL A   1      45.851  26.029  29.186  1.00  0.00     0.049 A 
ATOM     46  H   UNL A   1      43.996  26.957  29.379  1.00  0.00     0.167 HD
ATOM     47  C   UNL A   1      40.144  28.966  29.256  1.00  0.00     0.031 A 
ATOM     48  C   UNL A   1      46.785  26.926  29.546  1.00  0.00     0.031 A 
ATOM     49  C   UNL A   1      41.069  29.993  29.649  1.00  0.00     0.049 A 
ATOM     50  C   UNL A   1      46.379  28.319  29.920  1.00  0.00     0.074 A 
ATOM     51  C   UNL A   1      40.809  31.314  29.969  1.00  0.00     0.029 A 
ATOM     52  N   UNL A   1      42.433  29.806  29.792  1.00  0.00    -0.354 N 
ATOM     53  N   UNL A   1      45.185  28.856  29.911  1.00  0.00    -0.248 NA
ATOM     54  C   UNL A   1      47.453  29.230  30.340  1.00  0.00     0.031 C 
ATOM     55  C   UNL A   1      42.020  31.930  30.307  1.00  0.00     0.029 A 
ATOM     56  C   UNL A   1      43.029  30.987  30.203  1.00  0.00     0.049 A 
ATOM     57  H   UNL A   1      42.909  28.961  29.625  1.00  0.00     0.167 HD
ATOM     58  C   UNL A   1      45.362  30.169  30.321  1.00  0.00     0.074 A 
ATOM     59  C   UNL A   1      46.777  30.345  30.581  1.00  0.00     0.031 C 
ATOM     60  C   UNL A   1      44.434  31.143  30.462  1.00  0.00     0.031 A 
BRANCH  47  61
ATOM     61  C   UNL A   1      38.702  29.334  29.095  1.00  0.00    -0.014 A 
ATOM     62  C   UNL A   1      38.195  29.746  27.854  1.00  0.00     0.009 A 
ATOM     63  C   UNL A   1      37.837  29.251  30.197  1.00  0.00     0.009 A 
ATOM     64  C   UNL A   1      36.849  30.091  27.726  1.00  0.00     0.001 A 
ATOM     65  C   UNL A   1      36.490  29.588  30.063  1.00  0.00     0.001 A 
ATOM     66  C   UNL A   1      35.998  30.012  28.829  1.00  0.00     0.000 A 
ENDBRANCH  47  61
BRANCH  48  67
ATOM     67  C   UNL A   1      48.212  26.531  29.563  1.00  0.00    -0.014 A 
ATOM     68  C   UNL A   1      49.021  26.780  28.445  1.00  0.00     0.009 A 
ATOM     69  C   UNL A   1      48.769  25.918  30.693  1.00  0.00     0.009 A 
ATOM     70  C   UNL A   1      50.367  26.411  28.456  1.00  0.00     0.001 A 
ATOM     71  C   UNL A   1      50.117  25.557  30.703  1.00  0.00     0.001 A 
ATOM     72  C   UNL A   1      50.914  25.801  29.585  1.00  0.00     0.000 A 
ENDBRANCH  48  67
BRANCH  60  73
ATOM     73  C   UNL A   1      44.924  32.479  30.926  1.00  0.00    -0.014 A 
ATOM     74  C   UNL A   1      45.333  33.449  29.998  1.00  0.00     0.009 A 
ATOM     75  C   UNL A   1      44.965  32.774  32.296  1.00  0.00     0.009 A 
ATOM     76  C   UNL A   1      45.791  34.691  30.438  1.00  0.00     0.001 A 
ATOM     77  C   UNL A   1      45.419  34.020  32.732  1.00  0.00     0.001 A 
ATOM     78  C   UNL A   1      45.834  34.975  31.804  1.00  0.00     0.000 A 
ENDBRANCH  60  73
ENDBRANCH  34  35
ENDBRANCH  26  29
ENDBRANCH  24  25
ENDBRANCH  23  24
ENDBRANCH  22  23
ENDBRANCH   1  22
TORSDOF 16
ENDMDL
MODEL 2
REMARK VINA RESULT:     -10.3      1.880      6.294
REMARK SMILES CC(C)C[C@@H](C)NS(=O)(=O)c1ccsc1C(=O)NCCCCNC(=O)c1ccc(-c2c3nc(c(-c4ccccc4)c4ccc([nH]4)c(-c4ccccc4)c4nc(c(-c5ccccc5)c5ccc2[nH]5)C=C4)C=C3)cc1
REMARK SMILES IDX 19 1 18 2 16 3 17 4 15 6 11 7 12 8 13 9 14 10 8 11 9 12
REMARK SMILES IDX 10 13 7 14 5 16 6 17 4 18 2 19 1 20 3 21 20 22 21 23 22 24
REMARK SMILES IDX 23 25 24 26 25 28 26 29 27 30 73 31 28 32 72 33 29 34 30 35
REMARK SMILES IDX 31 36 66 37 32 38 71 39 65 40 67 41 33 42 70 43 64 44 63 45
REMARK SMILES IDX 34 47 56 48 41 49 55 50 42 51 45 52 54 53 68 54 43 55 44 56
REMARK SMILES IDX 53 58 69 59 46 60 35 61 36 62 40 63 37 64 39 65 38 66 57 67
REMARK SMILES IDX 58 68 62 69 59 70 61 71 60 72 47 73 48 74 52 75 49 76 51 77
REMARK SMILES IDX 50 78
REMARK H PARENT 18 5 7 15 23 27 67 46 45 57
REMARK Flexibility Score: inf
ROOT
ATOM      1  C   UNL A   1      37.249  22.043  25.657  1.00  0.00     0.116 C 
ENDROOT
BRANCH   1   2
ATOM      2  N   UNL A   1      36.084  21.906  26.507  1.00  0.00    -0.351 N 
ATOM      3  C   UNL A   1      34.761  22.229  26.438  1.00  0.00     0.262 C 
ATOM      4  O   UNL A   1      34.121  21.871  27.435  1.00  0.00    -0.268 OA
ATOM      5  H   UNL A   1      36.306  21.463  27.358  1.00  0.00     0.163 HD
BRANCH   3   6
ATOM      6  C   UNL A   1      34.097  22.861  25.309  1.00  0.00     0.112 A 
ATOM      7  C   UNL A   1      33.315  22.417  24.250  1.00  0.00     0.106 A 
ATOM      8  C   UNL A   1      33.264  23.377  23.185  1.00  0.00     0.034 A 
ATOM      9  C   UNL A   1      33.867  24.567  23.509  1.00  0.00     0.067 A 
ATOM     10  S   UNL A   1      34.520  24.531  25.075  1.00  0.00    -0.137 S 
BRANCH   7  11
ATOM     11  S   UNL A   1      32.601  20.854  24.100  1.00  0.00     0.242 S 
ATOM     12  O   UNL A   1      32.129  20.809  22.737  1.00  0.00    -0.207 OA
ATOM     13  O   UNL A   1      31.703  20.763  25.226  1.00  0.00    -0.207 OA
BRANCH  11  14
ATOM     14  N   UNL A   1      33.716  19.608  24.282  1.00  0.00    -0.208 NA
ATOM     15  H   UNL A   1      34.525  19.867  23.718  1.00  0.00     0.141 HD
BRANCH  14  16
ATOM     16  C   UNL A   1      33.400  18.196  23.930  1.00  0.00     0.067 C 
ATOM     17  C   UNL A   1      32.505  18.083  22.698  1.00  0.00     0.025 C 
BRANCH  16  18
ATOM     18  C   UNL A   1      32.705  17.590  25.171  1.00  0.00     0.022 C 
BRANCH  18  19
ATOM     19  C   UNL A   1      33.363  16.317  25.741  1.00  0.00    -0.016 C 
ATOM     20  C   UNL A   1      32.459  15.092  25.585  1.00  0.00     0.007 C 
ATOM     21  C   UNL A   1      34.697  16.066  25.032  1.00  0.00     0.007 C 
ENDBRANCH  18  19
ENDBRANCH  16  18
ENDBRANCH  14  16
ENDBRANCH  11  14
ENDBRANCH   7  11
ENDBRANCH   3   6
ENDBRANCH   1   2
BRANCH   1  22
ATOM     22  C   UNL A   1      37.260  20.908  24.623  1.00  0.00     0.023 C 
BRANCH  22  23
ATOM     23  C   UNL A   1      38.144  19.720  24.994  1.00  0.00     0.023 C 
BRANCH  23  24
ATOM     24  C   UNL A   1      39.414  20.079  25.754  1.00  0.00     0.116 C 
BRANCH  24  25
ATOM     25  N   UNL A   1      40.335  18.958  25.889  1.00  0.00    -0.352 N 
ATOM     26  C   UNL A   1      41.691  18.973  26.126  1.00  0.00     0.251 C 
ATOM     27  H   UNL A   1      39.930  18.065  25.800  1.00  0.00     0.163 HD
ATOM     28  O   UNL A   1      42.350  17.939  26.086  1.00  0.00    -0.269 OA
BRANCH  26  29
ATOM     29  C   UNL A   1      42.366  20.262  26.396  1.00  0.00     0.039 A 
ATOM     30  C   UNL A   1      43.039  20.911  25.357  1.00  0.00     0.014 A 
ATOM     31  C   UNL A   1      42.288  20.850  27.662  1.00  0.00     0.014 A 
ATOM     32  C   UNL A   1      43.531  22.204  25.554  1.00  0.00     0.010 A 
ATOM     33  C   UNL A   1      42.736  22.157  27.842  1.00  0.00     0.010 A 
ATOM     34  C   UNL A   1      43.329  22.857  26.781  1.00  0.00    -0.014 A 
BRANCH  34  35
ATOM     35  C   UNL A   1      43.641  24.296  26.961  1.00  0.00     0.031 A 
ATOM     36  C   UNL A   1      45.036  24.806  26.759  1.00  0.00     0.074 A 
ATOM     37  C   UNL A   1      42.690  25.123  27.438  1.00  0.00     0.049 A 
ATOM     38  N   UNL A   1      45.542  25.969  27.083  1.00  0.00    -0.248 NA
ATOM     39  C   UNL A   1      45.994  23.880  26.136  1.00  0.00     0.031 C 
ATOM     40  C   UNL A   1      41.301  24.752  27.723  1.00  0.00     0.029 A 
ATOM     41  N   UNL A   1      42.760  26.447  27.793  1.00  0.00    -0.354 N 
ATOM     42  C   UNL A   1      46.890  25.894  26.760  1.00  0.00     0.074 A 
ATOM     43  C   UNL A   1      47.118  24.581  26.194  1.00  0.00     0.031 C 
ATOM     44  C   UNL A   1      40.650  25.825  28.199  1.00  0.00     0.029 A 
ATOM     45  C   UNL A   1      41.580  26.945  28.288  1.00  0.00     0.049 A 
ATOM     46  H   UNL A   1      43.578  26.988  27.702  1.00  0.00     0.167 HD
ATOM     47  C   UNL A   1      47.853  26.829  26.936  1.00  0.00     0.031 A 
ATOM     48  C   UNL A   1      41.282  28.159  28.781  1.00  0.00     0.031 A 
ATOM     49  C   UNL A   1      47.633  28.152  27.453  1.00  0.00     0.049 A 
ATOM     50  C   UNL A   1      42.349  29.207  28.881  1.00  0.00     0.074 A 
ATOM     51  C   UNL A   1      48.548  29.175  27.629  1.00  0.00     0.029 A 
ATOM     52  N   UNL A   1      46.403  28.639  27.862  1.00  0.00    -0.354 N 
ATOM     53  N   UNL A   1      43.620  29.115  28.584  1.00  0.00    -0.248 NA
ATOM     54  C   UNL A   1      41.938  30.522  29.394  1.00  0.00     0.031 C 
ATOM     55  C   UNL A   1      47.870  30.286  28.146  1.00  0.00     0.029 A 
ATOM     56  C   UNL A   1      46.533  29.952  28.284  1.00  0.00     0.049 A 
ATOM     57  H   UNL A   1      45.561  28.128  27.855  1.00  0.00     0.167 HD
ATOM     58  C   UNL A   1      44.164  30.356  28.877  1.00  0.00     0.074 A 
ATOM     59  C   UNL A   1      43.083  31.189  29.365  1.00  0.00     0.031 C 
ATOM     60  C   UNL A   1      45.449  30.765  28.759  1.00  0.00     0.031 A 
BRANCH  47  61
ATOM     61  C   UNL A   1      49.252  26.430  26.583  1.00  0.00    -0.014 A 
ATOM     62  C   UNL A   1      50.083  25.802  27.521  1.00  0.00     0.009 A 
ATOM     63  C   UNL A   1      49.737  26.673  25.289  1.00  0.00     0.009 A 
ATOM     64  C   UNL A   1      51.386  25.443  27.174  1.00  0.00     0.001 A 
ATOM     65  C   UNL A   1      51.037  26.304  24.943  1.00  0.00     0.001 A 
ATOM     66  C   UNL A   1      51.862  25.694  25.887  1.00  0.00     0.000 A 
ENDBRANCH  47  61
BRANCH  48  67
ATOM     67  C   UNL A   1      39.902  28.449  29.232  1.00  0.00    -0.014 A 
ATOM     68  C   UNL A   1      39.526  28.177  30.556  1.00  0.00     0.009 A 
ATOM     69  C   UNL A   1      38.966  29.005  28.351  1.00  0.00     0.009 A 
ATOM     70  C   UNL A   1      38.226  28.450  30.986  1.00  0.00     0.001 A 
ATOM     71  C   UNL A   1      37.669  29.283  28.787  1.00  0.00     0.001 A 
ATOM     72  C   UNL A   1      37.300  29.003  30.102  1.00  0.00     0.000 A 
ENDBRANCH  48  67
BRANCH  60  73
ATOM     73  C   UNL A   1      45.745  32.178  29.156  1.00  0.00    -0.014 A 
ATOM     74  C   UNL A   1      45.640  33.216  28.218  1.00  0.00     0.009 A 
ATOM     75  C   UNL A   1      46.116  32.475  30.475  1.00  0.00     0.009 A 
ATOM     76  C   UNL A   1      45.920  34.531  28.593  1.00  0.00     0.001 A 
ATOM     77  C   UNL A   1      46.390  33.791  30.847  1.00  0.00     0.001 A 
ATOM     78  C   UNL A   1      46.294  34.817  29.907  1.00  0.00     0.000 A 
ENDBRANCH  60  73
ENDBRANCH  34  35
ENDBRANCH  26  29
ENDBRANCH  24  25
ENDBRANCH  23  24
ENDBRANCH  22  23
ENDBRANCH   1  22
TORSDOF 16
ENDMDL
MODEL 3
REMARK VINA RESULT:     -10.2      1.189      6.156
REMARK SMILES CC(C)C[C@@H](C)NS(=O)(=O)c1ccsc1C(=O)NCCCCNC(=O)c1ccc(-c2c3nc(c(-c4ccccc4)c4ccc([nH]4)c(-c4ccccc4)c4nc(c(-c5ccccc5)c5ccc2[nH]5)C=C4)C=C3)cc1
REMARK SMILES IDX 19 1 18 2 16 3 17 4 15 6 11 7 12 8 13 9 14 10 8 11 9 12
REMARK SMILES IDX 10 13 7 14 5 16 6 17 4 18 2 19 1 20 3 21 20 22 21 23 22 24
REMARK SMILES IDX 23 25 24 26 25 28 26 29 27 30 73 31 28 32 72 33 29 34 30 35
REMARK SMILES IDX 31 36 66 37 32 38 71 39 65 40 67 41 33 42 70 43 64 44 63 45
REMARK SMILES IDX 34 47 56 48 41 49 55 50 42 51 45 52 54 53 68 54 43 55 44 56
REMARK SMILES IDX 53 58 69 59 46 60 35 61 36 62 40 63 37 64 39 65 38 66 57 67
REMARK SMILES IDX 58 68 62 69 59 70 61 71 60 72 47 73 48 74 52 75 49 76 51 77
REMARK SMILES IDX 50 78
REMARK H PARENT 18 5 7 15 23 27 67 46 45 57
REMARK Flexibility Score: inf
ROOT
ATOM      1  C   UNL A   1      36.058  23.126  24.663  1.00  0.00     0.116 C 
ENDROOT
BRANCH   1   2
ATOM      2  N   UNL A   1      35.362  23.927  23.678  1.00  0.00    -0.351 N 
ATOM      3  C   UNL A   1      34.233  24.690  23.637  1.00  0.00     0.262 C 
ATOM      4  O   UNL A   1      34.051  25.229  22.538  1.00  0.00    -0.268 OA
ATOM      5  H   UNL A   1      35.824  23.916  22.809  1.00  0.00     0.163 HD
BRANCH   3   6
ATOM      6  C   UNL A   1      33.336  24.944  24.754  1.00  0.00     0.112 A 
ATOM      7  C   UNL A   1      32.163  24.369  25.227  1.00  0.00     0.106 A 
ATOM      8  C   UNL A   1      31.452  25.252  26.105  1.00  0.00     0.034 A 
ATOM      9  C   UNL A   1      32.155  26.394  26.398  1.00  0.00     0.067 A 
ATOM     10  S   UNL A   1      33.654  26.428  25.602  1.00  0.00    -0.137 S 
BRANCH   7  11
ATOM     11  S   UNL A   1      31.504  22.854  24.732  1.00  0.00     0.242 S 
ATOM     12  O   UNL A   1      30.854  23.142  23.476  1.00  0.00    -0.207 OA
ATOM     13  O   UNL A   1      30.771  22.390  25.886  1.00  0.00    -0.207 OA
BRANCH  11  14
ATOM     14  N   UNL A   1      32.686  21.697  24.426  1.00  0.00    -0.208 NA
ATOM     15  H   UNL A   1      32.377  21.188  23.598  1.00  0.00     0.141 HD
BRANCH  14  16
ATOM     16  C   UNL A   1      33.073  20.664  25.427  1.00  0.00     0.067 C 
ATOM     17  C   UNL A   1      33.770  21.261  26.647  1.00  0.00     0.025 C 
BRANCH  16  18
ATOM     18  C   UNL A   1      34.008  19.680  24.688  1.00  0.00     0.022 C 
BRANCH  18  19
ATOM     19  C   UNL A   1      33.427  18.273  24.445  1.00  0.00    -0.016 C 
ATOM     20  C   UNL A   1      32.644  17.765  25.658  1.00  0.00     0.007 C 
ATOM     21  C   UNL A   1      32.512  18.299  23.217  1.00  0.00     0.007 C 
ENDBRANCH  18  19
ENDBRANCH  16  18
ENDBRANCH  14  16
ENDBRANCH  11  14
ENDBRANCH   7  11
ENDBRANCH   3   6
ENDBRANCH   1   2
BRANCH   1  22
ATOM     22  C   UNL A   1      37.030  22.174  23.951  1.00  0.00     0.023 C 
BRANCH  22  23
ATOM     23  C   UNL A   1      37.410  20.935  24.758  1.00  0.00     0.023 C 
BRANCH  23  24
ATOM     24  C   UNL A   1      38.602  21.117  25.688  1.00  0.00     0.116 C 
BRANCH  24  25
ATOM     25  N   UNL A   1      39.497  19.969  25.702  1.00  0.00    -0.352 N 
ATOM     26  C   UNL A   1      40.832  19.913  26.035  1.00  0.00     0.251 C 
ATOM     27  H   UNL A   1      39.091  19.113  25.436  1.00  0.00     0.163 HD
ATOM     28  O   UNL A   1      41.480  18.884  25.872  1.00  0.00    -0.269 OA
BRANCH  26  29
ATOM     29  C   UNL A   1      41.499  21.123  26.565  1.00  0.00     0.039 A 
ATOM     30  C   UNL A   1      42.118  22.006  25.676  1.00  0.00     0.014 A 
ATOM     31  C   UNL A   1      41.464  21.408  27.933  1.00  0.00     0.014 A 
ATOM     32  C   UNL A   1      42.599  23.233  26.142  1.00  0.00     0.010 A 
ATOM     33  C   UNL A   1      41.900  22.651  28.389  1.00  0.00     0.010 A 
ATOM     34  C   UNL A   1      42.438  23.586  27.492  1.00  0.00    -0.014 A 
BRANCH  34  35
ATOM     35  C   UNL A   1      42.736  24.955  27.981  1.00  0.00     0.031 A 
ATOM     36  C   UNL A   1      44.115  25.317  28.445  1.00  0.00     0.074 A 
ATOM     37  C   UNL A   1      41.728  25.835  28.133  1.00  0.00     0.049 A 
ATOM     38  N   UNL A   1      44.509  26.375  29.107  1.00  0.00    -0.248 NA
ATOM     39  C   UNL A   1      45.184  24.350  28.152  1.00  0.00     0.031 C 
ATOM     40  C   UNL A   1      40.328  25.602  27.766  1.00  0.00     0.029 A 
ATOM     41  N   UNL A   1      41.726  27.101  28.665  1.00  0.00    -0.354 N 
ATOM     42  C   UNL A   1      45.859  26.176  29.361  1.00  0.00     0.074 A 
ATOM     43  C   UNL A   1      46.221  24.907  28.763  1.00  0.00     0.031 C 
ATOM     44  C   UNL A   1      39.607  26.692  28.074  1.00  0.00     0.029 A 
ATOM     45  C   UNL A   1      40.481  27.681  28.693  1.00  0.00     0.049 A 
ATOM     46  H   UNL A   1      42.538  27.549  28.995  1.00  0.00     0.167 HD
ATOM     47  C   UNL A   1      46.715  26.971  30.046  1.00  0.00     0.031 A 
ATOM     48  C   UNL A   1      40.081  28.868  29.182  1.00  0.00     0.031 A 
ATOM     49  C   UNL A   1      46.382  28.252  30.604  1.00  0.00     0.049 A 
ATOM     50  C   UNL A   1      41.070  29.770  29.856  1.00  0.00     0.074 A 
ATOM     51  C   UNL A   1      47.200  29.140  31.281  1.00  0.00     0.029 A 
ATOM     52  N   UNL A   1      45.129  28.837  30.532  1.00  0.00    -0.354 N 
ATOM     53  N   UNL A   1      42.339  29.560  30.101  1.00  0.00    -0.248 NA
ATOM     54  C   UNL A   1      40.566  31.066  30.331  1.00  0.00     0.031 C 
ATOM     55  C   UNL A   1      46.440  30.266  31.620  1.00  0.00     0.029 A 
ATOM     56  C   UNL A   1      45.152  30.078  31.147  1.00  0.00     0.049 A 
ATOM     57  H   UNL A   1      44.338  28.431  30.108  1.00  0.00     0.167 HD
ATOM     58  C   UNL A   1      42.786  30.694  30.761  1.00  0.00     0.074 A 
ATOM     59  C   UNL A   1      41.656  31.595  30.869  1.00  0.00     0.031 C 
ATOM     60  C   UNL A   1      44.023  30.961  31.240  1.00  0.00     0.031 A 
BRANCH  47  61
ATOM     61  C   UNL A   1      48.103  26.448  30.250  1.00  0.00    -0.014 A 
ATOM     62  C   UNL A   1      48.448  25.747  31.413  1.00  0.00     0.009 A 
ATOM     63  C   UNL A   1      49.073  26.649  29.255  1.00  0.00     0.009 A 
ATOM     64  C   UNL A   1      49.749  25.273  31.587  1.00  0.00     0.001 A 
ATOM     65  C   UNL A   1      50.370  26.166  29.428  1.00  0.00     0.001 A 
ATOM     66  C   UNL A   1      50.708  25.482  30.595  1.00  0.00     0.000 A 
ENDBRANCH  47  61
BRANCH  48  67
ATOM     67  C   UNL A   1      38.662  29.270  29.059  1.00  0.00    -0.014 A 
ATOM     68  C   UNL A   1      38.180  29.780  27.845  1.00  0.00     0.009 A 
ATOM     69  C   UNL A   1      37.787  29.136  30.145  1.00  0.00     0.009 A 
ATOM     70  C   UNL A   1      36.843  30.160  27.724  1.00  0.00     0.001 A 
ATOM     71  C   UNL A   1      36.447  29.509  30.018  1.00  0.00     0.001 A 
ATOM     72  C   UNL A   1      35.978  30.023  28.809  1.00  0.00     0.000 A 
ENDBRANCH  48  67
BRANCH  60  73
ATOM     73  C   UNL A   1      44.213  32.284  31.914  1.00  0.00    -0.014 A 
ATOM     74  C   UNL A   1      44.725  33.379  31.201  1.00  0.00     0.009 A 
ATOM     75  C   UNL A   1      43.866  32.441  33.264  1.00  0.00     0.009 A 
ATOM     76  C   UNL A   1      44.902  34.608  31.836  1.00  0.00     0.001 A 
ATOM     77  C   UNL A   1      44.040  33.674  33.894  1.00  0.00     0.001 A 
ATOM     78  C   UNL A   1      44.560  34.755  33.181  1.00  0.00     0.000 A 
ENDBRANCH  60  73
ENDBRANCH  34  35
ENDBRANCH  26  29
ENDBRANCH  24  25
ENDBRANCH  23  24
ENDBRANCH  22  23
ENDBRANCH   1  22
TORSDOF 16
ENDMDL
