MODEL 1
REMARK VINA RESULT:     -12.2      0.000      0.000
REMARK SMILES CO[C@@H]1C[NH2+][C@@H](O[C@@H]2C[C@@H](C(=O)NCCCCNC(=O)c3ccc(-c4c5nc(c(-c6ccccc6)c6ccc([nH]6)c(-c6ccccc6)c6nc(c(-c7ccccc7)c7ccc4[nH]7)C=C6)C=C5)cc3)N(C(=O)OC(C)(C)C)C2)c2cc(Cl)ccc21
REMARK SMILES IDX 15 1 14 2 13 3 11 4 12 5 10 7 8 8 9 9 77 10 69 11 7 12 6 13
REMARK SMILES IDX 3 14 4 15 84 16 5 17 78 18 83 19 79 22 82 23 80 24 81 25
REMARK SMILES IDX 2 26 1 27 70 28 71 29 72 30 73 31 74 32 75 33 76 34 16 35
REMARK SMILES IDX 17 36 18 37 19 38 20 40 21 41 22 42 68 43 23 44 67 45 24 46
REMARK SMILES IDX 25 47 26 48 61 49 27 50 66 51 60 52 62 53 28 54 65 55 59 56
REMARK SMILES IDX 58 57 29 59 51 60 36 61 50 62 37 63 40 64 49 65 63 66 38 67
REMARK SMILES IDX 39 68 48 70 64 71 41 72 30 73 31 74 35 75 32 76 34 77 33 78
REMARK SMILES IDX 52 79 53 80 57 81 54 82 56 83 55 84 42 85 43 86 47 87 44 88
REMARK SMILES IDX 46 89 45 90
REMARK H PARENT 13 6 5 20 5 21 18 39 62 58 40 69
REMARK Flexibility Score: inf
ROOT
ATOM      1  C   UNL A   1      31.893  30.621  26.027  1.00  0.00     0.023 C 
ENDROOT
BRANCH   1   2
ATOM      2  C   UNL A   1      33.182  29.813  26.193  1.00  0.00     0.116 C 
BRANCH   2   3
ATOM      3  N   UNL A   1      32.893  28.504  26.747  1.00  0.00    -0.354 N 
ATOM      4  C   UNL A   1      31.936  27.645  26.257  1.00  0.00     0.243 C 
ATOM      5  O   UNL A   1      31.070  27.254  27.039  1.00  0.00    -0.273 OA
ATOM      6  H   UNL A   1      33.418  28.208  27.526  1.00  0.00     0.163 HD
BRANCH   4   7
ATOM      7  C   UNL A   1      32.146  27.078  24.841  1.00  0.00     0.180 C 
ATOM      8  C   UNL A   1      33.522  26.930  22.864  1.00  0.00     0.147 C 
ATOM      9  C   UNL A   1      33.599  26.965  24.382  1.00  0.00     0.069 C 
ATOM     10  C   UNL A   1      32.330  27.837  22.554  1.00  0.00     0.156 C 
ATOM     11  N   UNL A   1      31.486  27.775  23.736  1.00  0.00    -0.293 N 
BRANCH   8  12
ATOM     12  O   UNL A   1      33.612  25.661  22.229  1.00  0.00    -0.320 OA
BRANCH  12  13
ATOM     13  C   UNL A   1      33.354  24.356  22.736  1.00  0.00     0.354 C 
ATOM     14  C   UNL A   1      31.626  23.653  25.034  1.00  0.00     0.203 C 
ATOM     15  C   UNL A   1      31.100  24.138  23.656  1.00  0.00     0.300 C 
ATOM     16  C   UNL A   1      33.137  23.550  25.144  1.00  0.00    -0.002 A 
ATOM     17  N   UNL A   1      31.983  23.923  22.515  1.00  0.00    -0.315 N 
ATOM     18  C   UNL A   1      33.958  23.903  24.052  1.00  0.00     0.046 A 
ATOM     19  C   UNL A   1      33.724  23.233  26.383  1.00  0.00     0.009 A 
ATOM     20  H   UNL A   1      31.608  24.438  21.719  1.00  0.00     0.349 HD
ATOM     21  H   UNL A   1      32.015  22.916  22.355  1.00  0.00     0.349 HD
ATOM     22  C   UNL A   1      35.356  23.828  24.202  1.00  0.00     0.033 A 
ATOM     23  C   UNL A   1      35.110  23.223  26.533  1.00  0.00     0.021 A 
ATOM     24  C   UNL A   1      35.919  23.502  25.436  1.00  0.00     0.041 A 
ATOM     25  Cl  UNL A   1      37.630  23.498  25.619  1.00  0.00    -0.084 Cl
BRANCH  14  26
ATOM     26  O   UNL A   1      30.946  22.509  25.555  1.00  0.00    -0.371 OA
ATOM     27  C   UNL A   1      30.121  22.752  26.680  1.00  0.00     0.196 C 
ENDBRANCH  14  26
ENDBRANCH  12  13
ENDBRANCH   8  12
BRANCH  11  28
ATOM     28  C   UNL A   1      30.132  28.013  23.634  1.00  0.00     0.411 C 
ATOM     29  O   UNL A   1      29.317  27.131  23.394  1.00  0.00    -0.224 OA
BRANCH  28  30
ATOM     30  O   UNL A   1      29.820  29.295  23.928  1.00  0.00    -0.444 OA
BRANCH  30  31
ATOM     31  C   UNL A   1      28.997  30.110  23.056  1.00  0.00     0.106 C 
ATOM     32  C   UNL A   1      29.591  30.209  21.649  1.00  0.00     0.056 C 
ATOM     33  C   UNL A   1      27.548  29.612  23.021  1.00  0.00     0.056 C 
ATOM     34  C   UNL A   1      29.021  31.504  23.703  1.00  0.00     0.056 C 
ENDBRANCH  30  31
ENDBRANCH  28  30
ENDBRANCH  11  28
ENDBRANCH   4   7
ENDBRANCH   2   3
ENDBRANCH   1   2
BRANCH   1  35
ATOM     35  C   UNL A   1      31.682  31.666  27.126  1.00  0.00     0.023 C 
BRANCH  35  36
ATOM     36  C   UNL A   1      32.857  32.612  27.313  1.00  0.00     0.116 C 
BRANCH  36  37
ATOM     37  N   UNL A   1      32.429  33.979  27.565  1.00  0.00    -0.352 N 
ATOM     38  C   UNL A   1      32.944  34.873  28.474  1.00  0.00     0.251 C 
ATOM     39  H   UNL A   1      31.678  34.304  27.018  1.00  0.00     0.163 HD
ATOM     40  O   UNL A   1      32.378  35.933  28.707  1.00  0.00    -0.269 OA
BRANCH  38  41
ATOM     41  C   UNL A   1      34.177  34.502  29.191  1.00  0.00     0.039 A 
ATOM     42  C   UNL A   1      35.416  34.657  28.565  1.00  0.00     0.014 A 
ATOM     43  C   UNL A   1      34.081  33.898  30.446  1.00  0.00     0.014 A 
ATOM     44  C   UNL A   1      36.534  34.043  29.111  1.00  0.00     0.010 A 
ATOM     45  C   UNL A   1      35.229  33.368  31.039  1.00  0.00     0.010 A 
ATOM     46  C   UNL A   1      36.453  33.388  30.351  1.00  0.00    -0.014 A 
BRANCH  46  47
ATOM     47  C   UNL A   1      37.660  32.723  30.904  1.00  0.00     0.031 A 
ATOM     48  C   UNL A   1      38.272  33.186  32.199  1.00  0.00     0.074 A 
ATOM     49  C   UNL A   1      38.166  31.653  30.263  1.00  0.00     0.049 A 
ATOM     50  N   UNL A   1      39.314  32.706  32.831  1.00  0.00    -0.248 NA
ATOM     51  C   UNL A   1      37.639  34.330  32.873  1.00  0.00     0.031 C 
ATOM     52  C   UNL A   1      37.631  31.089  29.021  1.00  0.00     0.029 A 
ATOM     53  N   UNL A   1      39.214  30.828  30.580  1.00  0.00    -0.354 N 
ATOM     54  C   UNL A   1      39.467  33.495  33.965  1.00  0.00     0.074 A 
ATOM     55  C   UNL A   1      38.438  34.509  33.916  1.00  0.00     0.031 C 
ATOM     56  C   UNL A   1      38.310  29.974  28.720  1.00  0.00     0.029 A 
ATOM     57  C   UNL A   1      39.378  29.789  29.698  1.00  0.00     0.049 A 
ATOM     58  H   UNL A   1      39.794  30.969  31.363  1.00  0.00     0.167 HD
ATOM     59  C   UNL A   1      40.375  33.373  34.963  1.00  0.00     0.031 A 
ATOM     60  C   UNL A   1      40.291  28.799  29.665  1.00  0.00     0.031 A 
ATOM     61  C   UNL A   1      41.398  32.359  35.006  1.00  0.00     0.049 A 
ATOM     62  C   UNL A   1      41.337  28.735  30.738  1.00  0.00     0.074 A 
ATOM     63  C   UNL A   1      42.364  32.156  35.975  1.00  0.00     0.029 A 
ATOM     64  N   UNL A   1      41.584  31.378  34.043  1.00  0.00    -0.354 N 
ATOM     65  N   UNL A   1      41.476  29.496  31.797  1.00  0.00    -0.248 NA
ATOM     66  C   UNL A   1      42.354  27.683  30.612  1.00  0.00     0.031 C 
ATOM     67  C   UNL A   1      43.176  31.097  35.566  1.00  0.00     0.029 A 
ATOM     68  C   UNL A   1      42.669  30.586  34.382  1.00  0.00     0.049 A 
ATOM     69  H   UNL A   1      41.028  31.263  33.239  1.00  0.00     0.167 HD
ATOM     70  C   UNL A   1      42.585  29.006  32.473  1.00  0.00     0.074 A 
ATOM     71  C   UNL A   1      43.069  27.871  31.715  1.00  0.00     0.031 C 
ATOM     72  C   UNL A   1      43.147  29.460  33.619  1.00  0.00     0.031 A 
BRANCH  59  73
ATOM     73  C   UNL A   1      40.322  34.366  36.095  1.00  0.00    -0.014 A 
ATOM     74  C   UNL A   1      41.092  35.540  36.032  1.00  0.00     0.009 A 
ATOM     75  C   UNL A   1      39.583  34.104  37.258  1.00  0.00     0.009 A 
ATOM     76  C   UNL A   1      41.134  36.422  37.114  1.00  0.00     0.001 A 
ATOM     77  C   UNL A   1      39.600  35.005  38.327  1.00  0.00     0.001 A 
ATOM     78  C   UNL A   1      40.383  36.157  38.258  1.00  0.00     0.000 A 
ENDBRANCH  59  73
BRANCH  60  79
ATOM     79  C   UNL A   1      40.223  27.790  28.576  1.00  0.00    -0.014 A 
ATOM     80  C   UNL A   1      39.566  26.563  28.776  1.00  0.00     0.009 A 
ATOM     81  C   UNL A   1      40.889  28.010  27.362  1.00  0.00     0.009 A 
ATOM     82  C   UNL A   1      39.613  25.565  27.801  1.00  0.00     0.001 A 
ATOM     83  C   UNL A   1      40.905  27.022  26.374  1.00  0.00     0.001 A 
ATOM     84  C   UNL A   1      40.279  25.797  26.600  1.00  0.00     0.000 A 
ENDBRANCH  60  79
BRANCH  72  85
ATOM     85  C   UNL A   1      44.352  28.733  34.150  1.00  0.00    -0.014 A 
ATOM     86  C   UNL A   1      44.182  27.686  35.070  1.00  0.00     0.009 A 
ATOM     87  C   UNL A   1      45.652  29.154  33.832  1.00  0.00     0.009 A 
ATOM     88  C   UNL A   1      45.288  27.090  35.679  1.00  0.00     0.001 A 
ATOM     89  C   UNL A   1      46.757  28.534  34.417  1.00  0.00     0.001 A 
ATOM     90  C   UNL A   1      46.574  27.512  35.350  1.00  0.00     0.000 A 
ENDBRANCH  72  85
ENDBRANCH  46  47
ENDBRANCH  38  41
ENDBRANCH  36  37
ENDBRANCH  35  36
ENDBRANCH   1  35
TORSDOF 17
ENDMDL
MODEL 2
REMARK VINA RESULT:     -12.0      4.805     10.017
REMARK SMILES CO[C@@H]1C[NH2+][C@@H](O[C@@H]2C[C@@H](C(=O)NCCCCNC(=O)c3ccc(-c4c5nc(c(-c6ccccc6)c6ccc([nH]6)c(-c6ccccc6)c6nc(c(-c7ccccc7)c7ccc4[nH]7)C=C6)C=C5)cc3)N(C(=O)OC(C)(C)C)C2)c2cc(Cl)ccc21
REMARK SMILES IDX 15 1 14 2 13 3 11 4 12 5 10 7 8 8 9 9 77 10 69 11 7 12 6 13
REMARK SMILES IDX 3 14 4 15 84 16 5 17 78 18 83 19 79 22 82 23 80 24 81 25
REMARK SMILES IDX 2 26 1 27 70 28 71 29 72 30 73 31 74 32 75 33 76 34 16 35
REMARK SMILES IDX 17 36 18 37 19 38 20 40 21 41 22 42 68 43 23 44 67 45 24 46
REMARK SMILES IDX 25 47 26 48 61 49 27 50 66 51 60 52 62 53 28 54 65 55 59 56
REMARK SMILES IDX 58 57 29 59 51 60 36 61 50 62 37 63 40 64 49 65 63 66 38 67
REMARK SMILES IDX 39 68 48 70 64 71 41 72 30 73 31 74 35 75 32 76 34 77 33 78
REMARK SMILES IDX 52 79 53 80 57 81 54 82 56 83 55 84 42 85 43 86 47 87 44 88
REMARK SMILES IDX 46 89 45 90
REMARK H PARENT 13 6 5 20 5 21 18 39 62 58 40 69
REMARK Flexibility Score: inf
ROOT
ATOM      1  C   UNL A   1      37.058  22.102  24.545  1.00  0.00     0.023 C 
ENDROOT
BRANCH   1   2
ATOM      2  C   UNL A   1      36.303  22.607  25.777  1.00  0.00     0.116 C 
BRANCH   2   3
ATOM      3  N   UNL A   1      35.366  21.603  26.245  1.00  0.00    -0.354 N 
ATOM      4  C   UNL A   1      34.180  21.883  26.885  1.00  0.00     0.243 C 
ATOM      5  O   UNL A   1      33.999  21.378  27.992  1.00  0.00    -0.273 OA
ATOM      6  H   UNL A   1      35.594  20.657  26.095  1.00  0.00     0.163 HD
BRANCH   4   7
ATOM      7  C   UNL A   1      33.094  22.622  26.080  1.00  0.00     0.180 C 
ATOM      8  C   UNL A   1      30.986  23.796  26.060  1.00  0.00     0.147 C 
ATOM      9  C   UNL A   1      32.267  23.640  26.863  1.00  0.00     0.069 C 
ATOM     10  C   UNL A   1      30.764  22.397  25.482  1.00  0.00     0.156 C 
ATOM     11  N   UNL A   1      32.088  21.800  25.406  1.00  0.00    -0.293 N 
BRANCH   8  12
ATOM     12  O   UNL A   1      30.881  24.925  25.201  1.00  0.00    -0.320 OA
BRANCH  12  13
ATOM     13  C   UNL A   1      30.268  26.192  25.414  1.00  0.00     0.354 C 
ATOM     14  C   UNL A   1      29.876  28.333  23.409  1.00  0.00     0.203 C 
ATOM     15  C   UNL A   1      29.081  27.000  23.436  1.00  0.00     0.300 C 
ATOM     16  C   UNL A   1      30.906  28.489  24.515  1.00  0.00    -0.002 A 
ATOM     17  N   UNL A   1      28.993  26.326  24.727  1.00  0.00    -0.315 N 
ATOM     18  C   UNL A   1      31.102  27.458  25.457  1.00  0.00     0.046 A 
ATOM     19  C   UNL A   1      31.761  29.606  24.515  1.00  0.00     0.009 A 
ATOM     20  H   UNL A   1      28.611  25.393  24.575  1.00  0.00     0.349 HD
ATOM     21  H   UNL A   1      28.399  26.906  25.321  1.00  0.00     0.349 HD
ATOM     22  C   UNL A   1      32.090  27.623  26.447  1.00  0.00     0.033 A 
ATOM     23  C   UNL A   1      32.776  29.726  25.463  1.00  0.00     0.021 A 
ATOM     24  C   UNL A   1      32.922  28.743  26.437  1.00  0.00     0.041 A 
ATOM     25  Cl  UNL A   1      34.178  28.884  27.605  1.00  0.00    -0.084 Cl
BRANCH  14  26
ATOM     26  O   UNL A   1      29.068  29.498  23.227  1.00  0.00    -0.371 OA
ATOM     27  C   UNL A   1      27.931  29.326  22.401  1.00  0.00     0.196 C 
ENDBRANCH  14  26
ENDBRANCH  12  13
ENDBRANCH   8  12
BRANCH  11  28
ATOM     28  C   UNL A   1      32.349  20.808  24.486  1.00  0.00     0.411 C 
ATOM     29  O   UNL A   1      32.746  21.041  23.351  1.00  0.00    -0.224 OA
BRANCH  28  30
ATOM     30  O   UNL A   1      32.212  19.574  25.020  1.00  0.00    -0.444 OA
BRANCH  30  31
ATOM     31  C   UNL A   1      32.944  18.428  24.516  1.00  0.00     0.106 C 
ATOM     32  C   UNL A   1      32.527  18.077  23.086  1.00  0.00     0.056 C 
ATOM     33  C   UNL A   1      34.459  18.634  24.626  1.00  0.00     0.056 C 
ATOM     34  C   UNL A   1      32.536  17.276  25.447  1.00  0.00     0.056 C 
ENDBRANCH  30  31
ENDBRANCH  28  30
ENDBRANCH  11  28
ENDBRANCH   4   7
ENDBRANCH   2   3
ENDBRANCH   1   2
BRANCH   1  35
ATOM     35  C   UNL A   1      37.797  20.783  24.782  1.00  0.00     0.023 C 
BRANCH  35  36
ATOM     36  C   UNL A   1      38.934  20.883  25.785  1.00  0.00     0.116 C 
BRANCH  36  37
ATOM     37  N   UNL A   1      39.720  19.661  25.851  1.00  0.00    -0.352 N 
ATOM     38  C   UNL A   1      41.075  19.535  26.053  1.00  0.00     0.251 C 
ATOM     39  H   UNL A   1      39.221  18.819  25.736  1.00  0.00     0.163 HD
ATOM     40  O   UNL A   1      41.637  18.457  25.911  1.00  0.00    -0.269 OA
BRANCH  38  41
ATOM     41  C   UNL A   1      41.839  20.745  26.405  1.00  0.00     0.039 A 
ATOM     42  C   UNL A   1      42.055  21.061  27.749  1.00  0.00     0.014 A 
ATOM     43  C   UNL A   1      42.244  21.615  25.392  1.00  0.00     0.014 A 
ATOM     44  C   UNL A   1      42.507  22.329  28.083  1.00  0.00     0.010 A 
ATOM     45  C   UNL A   1      42.792  22.853  25.733  1.00  0.00     0.010 A 
ATOM     46  C   UNL A   1      42.876  23.242  27.081  1.00  0.00    -0.014 A 
BRANCH  46  47
ATOM     47  C   UNL A   1      43.339  24.599  27.465  1.00  0.00     0.031 A 
ATOM     48  C   UNL A   1      44.785  24.991  27.327  1.00  0.00     0.074 A 
ATOM     49  C   UNL A   1      42.432  25.502  27.882  1.00  0.00     0.049 A 
ATOM     50  N   UNL A   1      45.354  26.138  27.599  1.00  0.00    -0.248 NA
ATOM     51  C   UNL A   1      45.715  23.969  26.818  1.00  0.00     0.031 C 
ATOM     52  C   UNL A   1      40.996  25.249  28.018  1.00  0.00     0.029 A 
ATOM     53  N   UNL A   1      42.573  26.821  28.233  1.00  0.00    -0.354 N 
ATOM     54  C   UNL A   1      46.703  25.972  27.308  1.00  0.00     0.074 A 
ATOM     55  C   UNL A   1      46.877  24.604  26.876  1.00  0.00     0.031 C 
ATOM     56  C   UNL A   1      40.381  26.391  28.354  1.00  0.00     0.029 A 
ATOM     57  C   UNL A   1      41.384  27.435  28.540  1.00  0.00     0.049 A 
ATOM     58  H   UNL A   1      43.443  27.281  28.264  1.00  0.00     0.167 HD
ATOM     59  C   UNL A   1      47.701  26.885  27.381  1.00  0.00     0.031 A 
ATOM     60  C   UNL A   1      41.121  28.694  28.939  1.00  0.00     0.031 A 
ATOM     61  C   UNL A   1      47.521  28.248  27.811  1.00  0.00     0.049 A 
ATOM     62  C   UNL A   1      42.257  29.663  29.091  1.00  0.00     0.074 A 
ATOM     63  C   UNL A   1      48.473  29.246  27.918  1.00  0.00     0.029 A 
ATOM     64  N   UNL A   1      46.311  28.804  28.199  1.00  0.00    -0.354 N 
ATOM     65  N   UNL A   1      43.529  29.487  28.824  1.00  0.00    -0.248 NA
ATOM     66  C   UNL A   1      41.926  30.999  29.601  1.00  0.00     0.031 C 
ATOM     67  C   UNL A   1      47.853  30.386  28.436  1.00  0.00     0.029 A 
ATOM     68  C   UNL A   1      46.500  30.124  28.575  1.00  0.00     0.049 A 
ATOM     69  H   UNL A   1      45.448  28.331  28.207  1.00  0.00     0.167 HD
ATOM     70  C   UNL A   1      44.148  30.694  29.118  1.00  0.00     0.074 A 
ATOM     71  C   UNL A   1      43.109  31.599  29.565  1.00  0.00     0.031 C 
ATOM     72  C   UNL A   1      45.460  31.017  29.024  1.00  0.00     0.031 A 
BRANCH  59  73
ATOM     73  C   UNL A   1      49.091  26.447  26.998  1.00  0.00    -0.014 A 
ATOM     74  C   UNL A   1      49.973  25.978  27.987  1.00  0.00     0.009 A 
ATOM     75  C   UNL A   1      49.561  26.578  25.683  1.00  0.00     0.009 A 
ATOM     76  C   UNL A   1      51.296  25.663  27.669  1.00  0.00     0.001 A 
ATOM     77  C   UNL A   1      50.875  26.231  25.360  1.00  0.00     0.001 A 
ATOM     78  C   UNL A   1      51.744  25.784  26.356  1.00  0.00     0.000 A 
ENDBRANCH  59  73
BRANCH  60  79
ATOM     79  C   UNL A   1      39.713  29.090  29.199  1.00  0.00    -0.014 A 
ATOM     80  C   UNL A   1      39.119  28.843  30.449  1.00  0.00     0.009 A 
ATOM     81  C   UNL A   1      38.929  29.638  28.174  1.00  0.00     0.009 A 
ATOM     82  C   UNL A   1      37.761  29.096  30.652  1.00  0.00     0.001 A 
ATOM     83  C   UNL A   1      37.579  29.923  28.391  1.00  0.00     0.001 A 
ATOM     84  C   UNL A   1      36.993  29.639  29.624  1.00  0.00     0.000 A 
ENDBRANCH  60  79
BRANCH  72  85
ATOM     85  C   UNL A   1      45.871  32.414  29.401  1.00  0.00    -0.014 A 
ATOM     86  C   UNL A   1      45.921  33.414  28.415  1.00  0.00     0.009 A 
ATOM     87  C   UNL A   1      46.316  32.715  30.696  1.00  0.00     0.009 A 
ATOM     88  C   UNL A   1      46.430  34.679  28.713  1.00  0.00     0.001 A 
ATOM     89  C   UNL A   1      46.793  33.992  31.000  1.00  0.00     0.001 A 
ATOM     90  C   UNL A   1      46.862  34.968  30.005  1.00  0.00     0.000 A 
ENDBRANCH  72  85
ENDBRANCH  46  47
ENDBRANCH  38  41
ENDBRANCH  36  37
ENDBRANCH  35  36
ENDBRANCH   1  35
TORSDOF 17
ENDMDL
MODEL 3
REMARK VINA RESULT:     -12.0      0.462      5.638
REMARK SMILES CO[C@@H]1C[NH2+][C@@H](O[C@@H]2C[C@@H](C(=O)NCCCCNC(=O)c3ccc(-c4c5nc(c(-c6ccccc6)c6ccc([nH]6)c(-c6ccccc6)c6nc(c(-c7ccccc7)c7ccc4[nH]7)C=C6)C=C5)cc3)N(C(=O)OC(C)(C)C)C2)c2cc(Cl)ccc21
REMARK SMILES IDX 15 1 14 2 13 3 11 4 12 5 10 7 8 8 9 9 77 10 69 11 7 12 6 13
REMARK SMILES IDX 3 14 4 15 84 16 5 17 78 18 83 19 79 22 82 23 80 24 81 25
REMARK SMILES IDX 2 26 1 27 70 28 71 29 72 30 73 31 74 32 75 33 76 34 16 35
REMARK SMILES IDX 17 36 18 37 19 38 20 40 21 41 22 42 68 43 23 44 67 45 24 46
REMARK SMILES IDX 25 47 26 48 61 49 27 50 66 51 60 52 62 53 28 54 65 55 59 56
REMARK SMILES IDX 58 57 29 59 51 60 36 61 50 62 37 63 40 64 49 65 63 66 38 67
REMARK SMILES IDX 39 68 48 70 64 71 41 72 30 73 31 74 35 75 32 76 34 77 33 78
REMARK SMILES IDX 52 79 53 80 57 81 54 82 56 83 55 84 42 85 43 86 47 87 44 88
REMARK SMILES IDX 46 89 45 90
REMARK H PARENT 13 6 5 20 5 21 18 39 62 58 40 69
REMARK Flexibility Score: inf
ROOT
ATOM      1  C   UNL A   1      31.650  30.646  26.799  1.00  0.00     0.023 C 
ENDROOT
BRANCH   1   2
ATOM      2  C   UNL A   1      32.801  29.821  26.217  1.00  0.00     0.116 C 
BRANCH   2   3
ATOM      3  N   UNL A   1      32.794  28.478  26.769  1.00  0.00    -0.354 N 
ATOM      4  C   UNL A   1      31.991  27.456  26.317  1.00  0.00     0.243 C 
ATOM      5  O   UNL A   1      31.257  26.906  27.138  1.00  0.00    -0.273 OA
ATOM      6  H   UNL A   1      33.404  28.286  27.517  1.00  0.00     0.163 HD
BRANCH   4   7
ATOM      7  C   UNL A   1      32.231  26.941  24.886  1.00  0.00     0.180 C 
ATOM      8  C   UNL A   1      33.637  26.885  22.926  1.00  0.00     0.147 C 
ATOM      9  C   UNL A   1      33.691  26.867  24.444  1.00  0.00     0.069 C 
ATOM     10  C   UNL A   1      32.435  27.783  22.630  1.00  0.00     0.156 C 
ATOM     11  N   UNL A   1      31.574  27.667  23.796  1.00  0.00    -0.293 N 
BRANCH   8  12
ATOM     12  O   UNL A   1      33.756  25.640  22.248  1.00  0.00    -0.320 OA
BRANCH  12  13
ATOM     13  C   UNL A   1      33.526  24.313  22.710  1.00  0.00     0.354 C 
ATOM     14  C   UNL A   1      31.751  23.489  24.931  1.00  0.00     0.203 C 
ATOM     15  C   UNL A   1      31.252  23.996  23.551  1.00  0.00     0.300 C 
ATOM     16  C   UNL A   1      33.261  23.431  25.085  1.00  0.00    -0.002 A 
ATOM     17  N   UNL A   1      32.177  23.844  22.433  1.00  0.00    -0.315 N 
ATOM     18  C   UNL A   1      34.103  23.842  24.031  1.00  0.00     0.046 A 
ATOM     19  C   UNL A   1      33.819  23.097  26.333  1.00  0.00     0.009 A 
ATOM     20  H   UNL A   1      31.811  24.370  21.640  1.00  0.00     0.349 HD
ATOM     21  H   UNL A   1      32.247  22.843  22.245  1.00  0.00     0.349 HD
ATOM     22  C   UNL A   1      35.497  23.808  24.224  1.00  0.00     0.033 A 
ATOM     23  C   UNL A   1      35.199  23.127  26.527  1.00  0.00     0.021 A 
ATOM     24  C   UNL A   1      36.032  23.464  25.466  1.00  0.00     0.041 A 
ATOM     25  Cl  UNL A   1      37.736  23.509  25.703  1.00  0.00    -0.084 Cl
BRANCH  14  26
ATOM     26  O   UNL A   1      31.093  22.308  25.397  1.00  0.00    -0.371 OA
ATOM     27  C   UNL A   1      30.170  22.504  26.453  1.00  0.00     0.196 C 
ENDBRANCH  14  26
ENDBRANCH  12  13
ENDBRANCH   8  12
BRANCH  11  28
ATOM     28  C   UNL A   1      30.219  27.887  23.682  1.00  0.00     0.411 C 
ATOM     29  O   UNL A   1      29.423  27.003  23.387  1.00  0.00    -0.224 OA
BRANCH  28  30
ATOM     30  O   UNL A   1      29.880  29.148  24.033  1.00  0.00    -0.444 OA
BRANCH  30  31
ATOM     31  C   UNL A   1      29.129  30.020  23.150  1.00  0.00     0.106 C 
ATOM     32  C   UNL A   1      28.977  31.424  23.739  1.00  0.00     0.056 C 
ATOM     33  C   UNL A   1      29.740  30.061  21.744  1.00  0.00     0.056 C 
ATOM     34  C   UNL A   1      27.740  29.367  23.062  1.00  0.00     0.056 C 
ENDBRANCH  30  31
ENDBRANCH  28  30
ENDBRANCH  11  28
ENDBRANCH   4   7
ENDBRANCH   2   3
ENDBRANCH   1   2
BRANCH   1  35
ATOM     35  C   UNL A   1      31.782  32.147  26.535  1.00  0.00     0.023 C 
BRANCH  35  36
ATOM     36  C   UNL A   1      32.760  32.854  27.459  1.00  0.00     0.116 C 
BRANCH  36  37
ATOM     37  N   UNL A   1      32.408  34.250  27.669  1.00  0.00    -0.352 N 
ATOM     38  C   UNL A   1      32.939  35.129  28.583  1.00  0.00     0.251 C 
ATOM     39  H   UNL A   1      31.702  34.610  27.084  1.00  0.00     0.163 HD
ATOM     40  O   UNL A   1      32.431  36.227  28.773  1.00  0.00    -0.269 OA
BRANCH  38  41
ATOM     41  C   UNL A   1      34.115  34.697  29.359  1.00  0.00     0.039 A 
ATOM     42  C   UNL A   1      35.371  34.657  28.750  1.00  0.00     0.014 A 
ATOM     43  C   UNL A   1      33.938  34.229  30.662  1.00  0.00     0.014 A 
ATOM     44  C   UNL A   1      36.408  33.981  29.375  1.00  0.00     0.010 A 
ATOM     45  C   UNL A   1      35.013  33.637  31.328  1.00  0.00     0.010 A 
ATOM     46  C   UNL A   1      36.241  33.459  30.669  1.00  0.00    -0.014 A 
BRANCH  46  47
ATOM     47  C   UNL A   1      37.360  32.723  31.308  1.00  0.00     0.031 A 
ATOM     48  C   UNL A   1      38.026  31.569  30.609  1.00  0.00     0.074 A 
ATOM     49  C   UNL A   1      37.818  33.144  32.503  1.00  0.00     0.049 A 
ATOM     50  N   UNL A   1      39.027  30.830  31.017  1.00  0.00    -0.248 NA
ATOM     51  C   UNL A   1      37.508  31.194  29.284  1.00  0.00     0.031 C 
ATOM     52  C   UNL A   1      37.278  34.277  33.257  1.00  0.00     0.029 A 
ATOM     53  N   UNL A   1      38.860  32.695  33.274  1.00  0.00    -0.354 N 
ATOM     54  C   UNL A   1      39.248  29.899  30.009  1.00  0.00     0.074 A 
ATOM     55  C   UNL A   1      38.253  30.138  28.988  1.00  0.00     0.031 C 
ATOM     56  C   UNL A   1      38.033  34.477  34.345  1.00  0.00     0.029 A 
ATOM     57  C   UNL A   1      39.058  33.440  34.411  1.00  0.00     0.049 A 
ATOM     58  H   UNL A   1      39.410  31.915  33.037  1.00  0.00     0.167 HD
ATOM     59  C   UNL A   1      40.204  28.942  29.937  1.00  0.00     0.031 A 
ATOM     60  C   UNL A   1      39.954  33.303  35.406  1.00  0.00     0.031 A 
ATOM     61  C   UNL A   1      41.194  28.709  30.958  1.00  0.00     0.049 A 
ATOM     62  C   UNL A   1      40.950  32.183  35.343  1.00  0.00     0.074 A 
ATOM     63  C   UNL A   1      42.202  27.762  30.975  1.00  0.00     0.029 A 
ATOM     64  N   UNL A   1      41.301  29.431  32.138  1.00  0.00    -0.354 N 
ATOM     65  N   UNL A   1      41.138  31.303  34.389  1.00  0.00    -0.248 NA
ATOM     66  C   UNL A   1      41.855  32.032  36.490  1.00  0.00     0.031 C 
ATOM     67  C   UNL A   1      42.877  27.865  32.193  1.00  0.00     0.029 A 
ATOM     68  C   UNL A   1      42.342  28.929  32.902  1.00  0.00     0.049 A 
ATOM     69  H   UNL A   1      40.725  30.186  32.393  1.00  0.00     0.167 HD
ATOM     70  C   UNL A   1      42.191  30.504  34.812  1.00  0.00     0.074 A 
ATOM     71  C   UNL A   1      42.614  31.016  36.099  1.00  0.00     0.031 C 
ATOM     72  C   UNL A   1      42.753  29.442  34.186  1.00  0.00     0.031 A 
BRANCH  59  73
ATOM     73  C   UNL A   1      40.230  28.056  28.719  1.00  0.00    -0.014 A 
ATOM     74  C   UNL A   1      39.599  26.800  28.754  1.00  0.00     0.009 A 
ATOM     75  C   UNL A   1      40.947  28.419  27.569  1.00  0.00     0.009 A 
ATOM     76  C   UNL A   1      39.699  25.924  27.671  1.00  0.00     0.001 A 
ATOM     77  C   UNL A   1      41.017  27.554  26.473  1.00  0.00     0.001 A 
ATOM     78  C   UNL A   1      40.402  26.304  26.530  1.00  0.00     0.000 A 
ENDBRANCH  59  73
BRANCH  60  79
ATOM     79  C   UNL A   1      39.940  34.276  36.530  1.00  0.00    -0.014 A 
ATOM     80  C   UNL A   1      39.158  34.039  37.673  1.00  0.00     0.009 A 
ATOM     81  C   UNL A   1      40.639  35.488  36.427  1.00  0.00     0.009 A 
ATOM     82  C   UNL A   1      39.044  35.011  38.669  1.00  0.00     0.001 A 
ATOM     83  C   UNL A   1      40.550  36.443  37.442  1.00  0.00     0.001 A 
ATOM     84  C   UNL A   1      39.742  36.210  38.554  1.00  0.00     0.000 A 
ENDBRANCH  60  79
BRANCH  72  85
ATOM     85  C   UNL A   1      43.902  28.749  34.866  1.00  0.00    -0.014 A 
ATOM     86  C   UNL A   1      45.220  29.133  34.569  1.00  0.00     0.009 A 
ATOM     87  C   UNL A   1      43.689  27.647  35.707  1.00  0.00     0.009 A 
ATOM     88  C   UNL A   1      46.301  28.415  35.081  1.00  0.00     0.001 A 
ATOM     89  C   UNL A   1      44.773  26.951  36.246  1.00  0.00     0.001 A 
ATOM     90  C   UNL A   1      46.077  27.327  35.922  1.00  0.00     0.000 A 
ENDBRANCH  72  85
ENDBRANCH  46  47
ENDBRANCH  38  41
ENDBRANCH  36  37
ENDBRANCH  35  36
ENDBRANCH   1  35
TORSDOF 17
ENDMDL
