MODEL 1
REMARK VINA RESULT:     -12.6      0.000      0.000
REMARK SMILES Cc1c(CC(=O)NCCCCNC(=O)c2ccc(-c3c4nc(c(-c5ccccc5)c5ccc([nH]5)c(-c5ccccc5)c5nc(c(-c6ccccc6)c6ccc3[nH]6)C=C5)C=C4)cc2)c2ccccc2n1C(=O)c1ccc(Cl)cc1
REMARK SMILES IDX 9 1 8 2 7 3 5 4 6 5 4 7 3 8 1 9 2 10 69 11 63 12 68 13 64 14
REMARK SMILES IDX 67 15 65 16 66 17 70 18 71 19 72 20 73 21 78 22 74 23 77 24
REMARK SMILES IDX 75 25 76 26 10 27 11 28 12 29 13 30 14 32 15 33 16 34 62 35
REMARK SMILES IDX 17 36 61 37 18 38 19 39 20 40 55 41 21 42 60 43 54 44 56 45
REMARK SMILES IDX 22 46 59 47 53 48 52 49 23 51 45 52 30 53 44 54 31 55 34 56
REMARK SMILES IDX 43 57 57 58 32 59 33 60 42 62 58 63 35 64 24 65 25 66 29 67
REMARK SMILES IDX 26 68 28 69 27 70 46 71 47 72 51 73 48 74 50 75 49 76 36 77
REMARK SMILES IDX 37 78 41 79 38 80 40 81 39 82
REMARK H PARENT 7 6 12 31 56 50 34 61
REMARK Flexibility Score: inf
ROOT
ATOM      1  C   UNL A   1      31.437  28.068  26.910  1.00  0.00     0.023 C 
ENDROOT
BRANCH   1   2
ATOM      2  C   UNL A   1      31.383  26.798  26.064  1.00  0.00     0.116 C 
BRANCH   2   3
ATOM      3  N   UNL A   1      31.210  25.611  26.876  1.00  0.00    -0.356 N 
ATOM      4  C   UNL A   1      31.263  24.303  26.491  1.00  0.00     0.224 C 
ATOM      5  O   UNL A   1      31.088  23.436  27.350  1.00  0.00    -0.275 OA
ATOM      6  H   UNL A   1      31.032  25.770  27.832  1.00  0.00     0.163 HD
BRANCH   4   7
ATOM      7  C   UNL A   1      31.585  23.941  25.049  1.00  0.00     0.138 C 
BRANCH   7   8
ATOM      8  C   UNL A   1      32.895  23.219  24.895  1.00  0.00    -0.010 A 
ATOM      9  C   UNL A   1      34.512  25.225  25.090  1.00  0.00     0.065 C 
ATOM     10  C   UNL A   1      34.168  23.781  24.873  1.00  0.00     0.028 A 
ATOM     11  N   UNL A   1      35.101  22.762  24.615  1.00  0.00    -0.280 N 
ATOM     12  C   UNL A   1      33.053  21.809  24.813  1.00  0.00     0.004 A 
ATOM     13  C   UNL A   1      34.422  21.535  24.732  1.00  0.00     0.056 A 
ATOM     14  C   UNL A   1      32.131  20.737  24.843  1.00  0.00     0.010 A 
ATOM     15  C   UNL A   1      34.871  20.197  24.771  1.00  0.00     0.027 A 
ATOM     16  C   UNL A   1      32.582  19.419  24.812  1.00  0.00     0.001 A 
ATOM     17  C   UNL A   1      33.941  19.154  24.791  1.00  0.00     0.002 A 
BRANCH  11  18
ATOM     18  C   UNL A   1      36.482  22.939  24.298  1.00  0.00     0.262 C 
ATOM     19  O   UNL A   1      36.813  23.152  23.140  1.00  0.00    -0.268 OA
BRANCH  18  20
ATOM     20  C   UNL A   1      37.592  22.903  25.268  1.00  0.00     0.040 A 
ATOM     21  C   UNL A   1      37.932  24.026  26.031  1.00  0.00     0.015 A 
ATOM     22  C   UNL A   1      38.302  21.705  25.397  1.00  0.00     0.015 A 
ATOM     23  C   UNL A   1      39.053  23.968  26.865  1.00  0.00     0.021 A 
ATOM     24  C   UNL A   1      39.415  21.651  26.237  1.00  0.00     0.021 A 
ATOM     25  C   UNL A   1      39.796  22.787  26.952  1.00  0.00     0.041 A 
ATOM     26  Cl  UNL A   1      41.206  22.736  27.934  1.00  0.00    -0.084 Cl
ENDBRANCH  18  20
ENDBRANCH  11  18
ENDBRANCH   7   8
ENDBRANCH   4   7
ENDBRANCH   2   3
ENDBRANCH   1   2
BRANCH   1  27
ATOM     27  C   UNL A   1      31.789  29.338  26.124  1.00  0.00     0.023 C 
BRANCH  27  28
ATOM     28  C   UNL A   1      33.226  29.830  26.321  1.00  0.00     0.116 C 
BRANCH  28  29
ATOM     29  N   UNL A   1      33.335  30.890  27.303  1.00  0.00    -0.352 N 
ATOM     30  C   UNL A   1      34.352  31.398  28.062  1.00  0.00     0.251 C 
ATOM     31  H   UNL A   1      32.480  31.351  27.459  1.00  0.00     0.163 HD
ATOM     32  O   UNL A   1      34.076  32.392  28.740  1.00  0.00    -0.269 OA
BRANCH  30  33
ATOM     33  C   UNL A   1      35.725  30.830  28.154  1.00  0.00     0.039 A 
ATOM     34  C   UNL A   1      36.083  29.522  27.836  1.00  0.00     0.014 A 
ATOM     35  C   UNL A   1      36.720  31.689  28.662  1.00  0.00     0.014 A 
ATOM     36  C   UNL A   1      37.373  29.061  28.077  1.00  0.00     0.010 A 
ATOM     37  C   UNL A   1      38.016  31.236  28.897  1.00  0.00     0.010 A 
ATOM     38  C   UNL A   1      38.330  29.906  28.640  1.00  0.00    -0.014 A 
BRANCH  38  39
ATOM     39  C   UNL A   1      39.640  29.326  28.920  1.00  0.00     0.031 A 
ATOM     40  C   UNL A   1      39.947  29.011  30.345  1.00  0.00     0.074 A 
ATOM     41  C   UNL A   1      40.537  29.020  27.962  1.00  0.00     0.049 A 
ATOM     42  N   UNL A   1      40.919  29.451  31.079  1.00  0.00    -0.248 NA
ATOM     43  C   UNL A   1      39.018  28.117  31.051  1.00  0.00     0.031 C 
ATOM     44  C   UNL A   1      40.336  28.959  26.512  1.00  0.00     0.029 A 
ATOM     45  N   UNL A   1      41.822  28.595  28.120  1.00  0.00    -0.354 N 
ATOM     46  C   UNL A   1      40.807  28.801  32.308  1.00  0.00     0.074 A 
ATOM     47  C   UNL A   1      39.578  28.048  32.260  1.00  0.00     0.031 C 
ATOM     48  C   UNL A   1      41.376  28.304  25.951  1.00  0.00     0.029 A 
ATOM     49  C   UNL A   1      42.375  28.047  26.976  1.00  0.00     0.049 A 
ATOM     50  H   UNL A   1      42.312  28.670  28.971  1.00  0.00     0.167 HD
ATOM     51  C   UNL A   1      41.792  28.813  33.249  1.00  0.00     0.031 A 
ATOM     52  C   UNL A   1      43.541  27.369  26.892  1.00  0.00     0.031 A 
ATOM     53  C   UNL A   1      42.739  29.871  33.040  1.00  0.00     0.049 A 
ATOM     54  C   UNL A   1      44.364  27.707  28.074  1.00  0.00     0.074 A 
ATOM     55  C   UNL A   1      42.683  31.249  33.065  1.00  0.00     0.029 A 
ATOM     56  N   UNL A   1      43.940  29.555  32.458  1.00  0.00    -0.354 N 
ATOM     57  N   UNL A   1      44.894  28.878  28.282  1.00  0.00    -0.248 NA
ATOM     58  C   UNL A   1      44.316  26.829  29.231  1.00  0.00     0.031 C 
ATOM     59  C   UNL A   1      43.618  31.675  32.079  1.00  0.00     0.029 A 
ATOM     60  C   UNL A   1      44.201  30.531  31.530  1.00  0.00     0.049 A 
ATOM     61  H   UNL A   1      44.506  28.777  32.666  1.00  0.00     0.167 HD
ATOM     62  C   UNL A   1      44.870  29.040  29.659  1.00  0.00     0.074 A 
ATOM     63  C   UNL A   1      44.627  27.703  30.190  1.00  0.00     0.031 C 
ATOM     64  C   UNL A   1      44.775  30.280  30.224  1.00  0.00     0.031 A 
BRANCH  51  65
ATOM     65  C   UNL A   1      42.047  27.695  34.226  1.00  0.00    -0.014 A 
ATOM     66  C   UNL A   1      42.699  26.500  33.866  1.00  0.00     0.009 A 
ATOM     67  C   UNL A   1      41.865  27.923  35.602  1.00  0.00     0.009 A 
ATOM     68  C   UNL A   1      43.140  25.579  34.822  1.00  0.00     0.001 A 
ATOM     69  C   UNL A   1      42.343  27.023  36.564  1.00  0.00     0.001 A 
ATOM     70  C   UNL A   1      42.982  25.852  36.173  1.00  0.00     0.000 A 
ENDBRANCH  51  65
BRANCH  52  71
ATOM     71  C   UNL A   1      43.833  26.202  26.039  1.00  0.00    -0.014 A 
ATOM     72  C   UNL A   1      42.829  25.245  25.798  1.00  0.00     0.009 A 
ATOM     73  C   UNL A   1      45.151  25.877  25.692  1.00  0.00     0.009 A 
ATOM     74  C   UNL A   1      43.136  23.993  25.259  1.00  0.00     0.001 A 
ATOM     75  C   UNL A   1      45.459  24.621  25.153  1.00  0.00     0.001 A 
ATOM     76  C   UNL A   1      44.453  23.676  24.951  1.00  0.00     0.000 A 
ENDBRANCH  52  71
BRANCH  64  77
ATOM     77  C   UNL A   1      44.960  31.490  29.337  1.00  0.00    -0.014 A 
ATOM     78  C   UNL A   1      46.168  32.202  29.410  1.00  0.00     0.009 A 
ATOM     79  C   UNL A   1      43.910  32.041  28.581  1.00  0.00     0.009 A 
ATOM     80  C   UNL A   1      46.320  33.426  28.754  1.00  0.00     0.001 A 
ATOM     81  C   UNL A   1      44.072  33.254  27.903  1.00  0.00     0.001 A 
ATOM     82  C   UNL A   1      45.274  33.950  27.999  1.00  0.00     0.000 A 
ENDBRANCH  64  77
ENDBRANCH  38  39
ENDBRANCH  30  33
ENDBRANCH  28  29
ENDBRANCH  27  28
ENDBRANCH   1  27
TORSDOF 14
ENDMDL
MODEL 2
REMARK VINA RESULT:     -12.4      1.827      5.538
REMARK SMILES Cc1c(CC(=O)NCCCCNC(=O)c2ccc(-c3c4nc(c(-c5ccccc5)c5ccc([nH]5)c(-c5ccccc5)c5nc(c(-c6ccccc6)c6ccc3[nH]6)C=C5)C=C4)cc2)c2ccccc2n1C(=O)c1ccc(Cl)cc1
REMARK SMILES IDX 9 1 8 2 7 3 5 4 6 5 4 7 3 8 1 9 2 10 69 11 63 12 68 13 64 14
REMARK SMILES IDX 67 15 65 16 66 17 70 18 71 19 72 20 73 21 78 22 74 23 77 24
REMARK SMILES IDX 75 25 76 26 10 27 11 28 12 29 13 30 14 32 15 33 16 34 62 35
REMARK SMILES IDX 17 36 61 37 18 38 19 39 20 40 55 41 21 42 60 43 54 44 56 45
REMARK SMILES IDX 22 46 59 47 53 48 52 49 23 51 45 52 30 53 44 54 31 55 34 56
REMARK SMILES IDX 43 57 57 58 32 59 33 60 42 62 58 63 35 64 24 65 25 66 29 67
REMARK SMILES IDX 26 68 28 69 27 70 46 71 47 72 51 73 48 74 50 75 49 76 36 77
REMARK SMILES IDX 37 78 41 79 38 80 40 81 39 82
REMARK H PARENT 7 6 12 31 56 50 34 61
REMARK Flexibility Score: inf
ROOT
ATOM      1  C   UNL A   1      32.279  28.120  27.036  1.00  0.00     0.023 C 
ENDROOT
BRANCH   1   2
ATOM      2  C   UNL A   1      31.575  27.081  26.166  1.00  0.00     0.116 C 
BRANCH   2   3
ATOM      3  N   UNL A   1      31.255  25.879  26.910  1.00  0.00    -0.356 N 
ATOM      4  C   UNL A   1      31.170  24.595  26.454  1.00  0.00     0.224 C 
ATOM      5  O   UNL A   1      30.882  23.709  27.261  1.00  0.00    -0.275 OA
ATOM      6  H   UNL A   1      31.074  26.006  27.870  1.00  0.00     0.163 HD
BRANCH   4   7
ATOM      7  C   UNL A   1      31.482  24.277  24.999  1.00  0.00     0.138 C 
BRANCH   7   8
ATOM      8  C   UNL A   1      32.744  23.480  24.821  1.00  0.00    -0.010 A 
ATOM      9  C   UNL A   1      34.468  25.404  24.840  1.00  0.00     0.065 C 
ATOM     10  C   UNL A   1      34.042  23.972  24.712  1.00  0.00     0.028 A 
ATOM     11  N   UNL A   1      34.908  22.894  24.463  1.00  0.00    -0.280 N 
ATOM     12  C   UNL A   1      32.827  22.062  24.803  1.00  0.00     0.004 A 
ATOM     13  C   UNL A   1      34.174  21.712  24.672  1.00  0.00     0.056 A 
ATOM     14  C   UNL A   1      31.854  21.043  24.929  1.00  0.00     0.010 A 
ATOM     15  C   UNL A   1      34.556  20.355  24.758  1.00  0.00     0.027 A 
ATOM     16  C   UNL A   1      32.236  19.702  24.944  1.00  0.00     0.001 A 
ATOM     17  C   UNL A   1      33.576  19.365  24.873  1.00  0.00     0.002 A 
BRANCH  11  18
ATOM     18  C   UNL A   1      36.279  22.982  24.074  1.00  0.00     0.262 C 
ATOM     19  O   UNL A   1      36.563  23.345  22.941  1.00  0.00    -0.268 OA
BRANCH  18  20
ATOM     20  C   UNL A   1      37.433  22.682  24.941  1.00  0.00     0.040 A 
ATOM     21  C   UNL A   1      38.019  21.412  24.965  1.00  0.00     0.015 A 
ATOM     22  C   UNL A   1      37.923  23.714  25.750  1.00  0.00     0.015 A 
ATOM     23  C   UNL A   1      39.048  21.153  25.876  1.00  0.00     0.021 A 
ATOM     24  C   UNL A   1      38.955  23.451  26.650  1.00  0.00     0.021 A 
ATOM     25  C   UNL A   1      39.500  22.169  26.722  1.00  0.00     0.041 A 
ATOM     26  Cl  UNL A   1      40.727  21.834  27.880  1.00  0.00    -0.084 Cl
ENDBRANCH  18  20
ENDBRANCH  11  18
ENDBRANCH   7   8
ENDBRANCH   4   7
ENDBRANCH   2   3
ENDBRANCH   1   2
BRANCH   1  27
ATOM     27  C   UNL A   1      33.421  28.865  26.332  1.00  0.00     0.023 C 
BRANCH  27  28
ATOM     28  C   UNL A   1      34.799  28.666  26.971  1.00  0.00     0.116 C 
BRANCH  28  29
ATOM     29  N   UNL A   1      34.998  29.472  28.159  1.00  0.00    -0.352 N 
ATOM     30  C   UNL A   1      36.080  29.810  28.923  1.00  0.00     0.251 C 
ATOM     31  H   UNL A   1      34.161  29.867  28.493  1.00  0.00     0.163 HD
ATOM     32  O   UNL A   1      35.867  30.613  29.835  1.00  0.00    -0.269 OA
BRANCH  30  33
ATOM     33  C   UNL A   1      37.455  29.263  28.759  1.00  0.00     0.039 A 
ATOM     34  C   UNL A   1      38.114  28.443  29.673  1.00  0.00     0.014 A 
ATOM     35  C   UNL A   1      38.151  29.668  27.603  1.00  0.00     0.014 A 
ATOM     36  C   UNL A   1      39.444  28.089  29.477  1.00  0.00     0.010 A 
ATOM     37  C   UNL A   1      39.481  29.310  27.396  1.00  0.00     0.010 A 
ATOM     38  C   UNL A   1      40.140  28.551  28.358  1.00  0.00    -0.014 A 
BRANCH  38  39
ATOM     39  C   UNL A   1      41.550  28.187  28.261  1.00  0.00     0.031 A 
ATOM     40  C   UNL A   1      41.864  26.878  27.618  1.00  0.00     0.074 A 
ATOM     41  C   UNL A   1      42.554  28.988  28.667  1.00  0.00     0.049 A 
ATOM     42  N   UNL A   1      42.505  25.868  28.113  1.00  0.00    -0.248 NA
ATOM     43  C   UNL A   1      41.360  26.661  26.254  1.00  0.00     0.031 C 
ATOM     44  C   UNL A   1      42.496  30.405  29.036  1.00  0.00     0.029 A 
ATOM     45  N   UNL A   1      43.884  28.699  28.736  1.00  0.00    -0.354 N 
ATOM     46  C   UNL A   1      42.597  24.924  27.090  1.00  0.00     0.074 A 
ATOM     47  C   UNL A   1      41.812  25.433  25.993  1.00  0.00     0.031 C 
ATOM     48  C   UNL A   1      43.752  30.905  29.060  1.00  0.00     0.029 A 
ATOM     49  C   UNL A   1      44.693  29.813  28.868  1.00  0.00     0.049 A 
ATOM     50  H   UNL A   1      44.237  27.780  28.695  1.00  0.00     0.167 HD
ATOM     51  C   UNL A   1      43.417  23.837  27.152  1.00  0.00     0.031 A 
ATOM     52  C   UNL A   1      46.040  29.846  28.756  1.00  0.00     0.031 A 
ATOM     53  C   UNL A   1      43.836  23.540  28.492  1.00  0.00     0.049 A 
ATOM     54  C   UNL A   1      46.559  28.476  28.954  1.00  0.00     0.074 A 
ATOM     55  C   UNL A   1      43.197  23.137  29.646  1.00  0.00     0.029 A 
ATOM     56  N   UNL A   1      45.094  23.930  28.877  1.00  0.00    -0.354 N 
ATOM     57  N   UNL A   1      46.524  27.840  30.090  1.00  0.00    -0.248 NA
ATOM     58  C   UNL A   1      46.811  27.650  27.785  1.00  0.00     0.031 C 
ATOM     59  C   UNL A   1      43.926  23.749  30.706  1.00  0.00     0.029 A 
ATOM     60  C   UNL A   1      44.976  24.469  30.132  1.00  0.00     0.049 A 
ATOM     61  H   UNL A   1      45.921  23.841  28.352  1.00  0.00     0.167 HD
ATOM     62  C   UNL A   1      46.341  26.509  29.748  1.00  0.00     0.074 A 
ATOM     63  C   UNL A   1      46.655  26.440  28.325  1.00  0.00     0.031 C 
ATOM     64  C   UNL A   1      45.689  25.647  30.583  1.00  0.00     0.031 A 
BRANCH  51  65
ATOM     65  C   UNL A   1      44.059  23.188  25.954  1.00  0.00    -0.014 A 
ATOM     66  C   UNL A   1      45.088  23.799  25.212  1.00  0.00     0.009 A 
ATOM     67  C   UNL A   1      43.817  21.826  25.693  1.00  0.00     0.009 A 
ATOM     68  C   UNL A   1      45.832  23.096  24.259  1.00  0.00     0.001 A 
ATOM     69  C   UNL A   1      44.588  21.109  24.769  1.00  0.00     0.001 A 
ATOM     70  C   UNL A   1      45.598  21.745  24.053  1.00  0.00     0.000 A 
ENDBRANCH  51  65
BRANCH  52  71
ATOM     71  C   UNL A   1      46.858  30.917  28.158  1.00  0.00    -0.014 A 
ATOM     72  C   UNL A   1      47.906  31.493  28.901  1.00  0.00     0.009 A 
ATOM     73  C   UNL A   1      46.449  31.565  26.985  1.00  0.00     0.009 A 
ATOM     74  C   UNL A   1      48.503  32.691  28.504  1.00  0.00     0.001 A 
ATOM     75  C   UNL A   1      47.047  32.768  26.587  1.00  0.00     0.001 A 
ATOM     76  C   UNL A   1      48.062  33.336  27.355  1.00  0.00     0.000 A 
ENDBRANCH  52  71
BRANCH  64  77
ATOM     77  C   UNL A   1      45.401  26.096  31.997  1.00  0.00    -0.014 A 
ATOM     78  C   UNL A   1      46.204  25.606  33.039  1.00  0.00     0.009 A 
ATOM     79  C   UNL A   1      44.253  26.835  32.337  1.00  0.00     0.009 A 
ATOM     80  C   UNL A   1      45.869  25.839  34.375  1.00  0.00     0.001 A 
ATOM     81  C   UNL A   1      43.933  27.092  33.674  1.00  0.00     0.001 A 
ATOM     82  C   UNL A   1      44.735  26.584  34.692  1.00  0.00     0.000 A 
ENDBRANCH  64  77
ENDBRANCH  38  39
ENDBRANCH  30  33
ENDBRANCH  28  29
ENDBRANCH  27  28
ENDBRANCH   1  27
TORSDOF 14
ENDMDL
MODEL 3
REMARK VINA RESULT:     -12.0      3.059      8.485
REMARK SMILES Cc1c(CC(=O)NCCCCNC(=O)c2ccc(-c3c4nc(c(-c5ccccc5)c5ccc([nH]5)c(-c5ccccc5)c5nc(c(-c6ccccc6)c6ccc3[nH]6)C=C5)C=C4)cc2)c2ccccc2n1C(=O)c1ccc(Cl)cc1
REMARK SMILES IDX 9 1 8 2 7 3 5 4 6 5 4 7 3 8 1 9 2 10 69 11 63 12 68 13 64 14
REMARK SMILES IDX 67 15 65 16 66 17 70 18 71 19 72 20 73 21 78 22 74 23 77 24
REMARK SMILES IDX 75 25 76 26 10 27 11 28 12 29 13 30 14 32 15 33 16 34 62 35
REMARK SMILES IDX 17 36 61 37 18 38 19 39 20 40 55 41 21 42 60 43 54 44 56 45
REMARK SMILES IDX 22 46 59 47 53 48 52 49 23 51 45 52 30 53 44 54 31 55 34 56
REMARK SMILES IDX 43 57 57 58 32 59 33 60 42 62 58 63 35 64 24 65 25 66 29 67
REMARK SMILES IDX 26 68 28 69 27 70 46 71 47 72 51 73 48 74 50 75 49 76 36 77
REMARK SMILES IDX 37 78 41 79 38 80 40 81 39 82
REMARK H PARENT 7 6 12 31 56 50 34 61
REMARK Flexibility Score: inf
ROOT
ATOM      1  C   UNL A   1      37.694  22.023  25.220  1.00  0.00     0.023 C 
ENDROOT
BRANCH   1   2
ATOM      2  C   UNL A   1      36.523  22.832  24.668  1.00  0.00     0.116 C 
BRANCH   2   3
ATOM      3  N   UNL A   1      35.435  22.930  25.619  1.00  0.00    -0.356 N 
ATOM      4  C   UNL A   1      34.476  23.897  25.716  1.00  0.00     0.224 C 
ATOM      5  O   UNL A   1      33.629  23.790  26.606  1.00  0.00    -0.275 OA
ATOM      6  H   UNL A   1      35.380  22.204  26.282  1.00  0.00     0.163 HD
BRANCH   4   7
ATOM      7  C   UNL A   1      34.433  25.037  24.709  1.00  0.00     0.138 C 
BRANCH   7   8
ATOM      8  C   UNL A   1      33.209  25.901  24.840  1.00  0.00    -0.010 A 
ATOM      9  C   UNL A   1      31.509  24.421  23.577  1.00  0.00     0.065 C 
ATOM     10  C   UNL A   1      31.945  25.653  24.313  1.00  0.00     0.028 A 
ATOM     11  N   UNL A   1      31.122  26.758  24.590  1.00  0.00    -0.280 N 
ATOM     12  C   UNL A   1      33.125  27.102  25.594  1.00  0.00     0.004 A 
ATOM     13  C   UNL A   1      31.811  27.573  25.507  1.00  0.00     0.056 A 
ATOM     14  C   UNL A   1      34.064  27.806  26.384  1.00  0.00     0.010 A 
ATOM     15  C   UNL A   1      31.416  28.689  26.275  1.00  0.00     0.027 A 
ATOM     16  C   UNL A   1      33.680  28.948  27.084  1.00  0.00     0.001 A 
ATOM     17  C   UNL A   1      32.364  29.375  27.040  1.00  0.00     0.002 A 
BRANCH  11  18
ATOM     18  C   UNL A   1      29.825  27.006  24.045  1.00  0.00     0.262 C 
ATOM     19  O   UNL A   1      28.909  26.235  24.295  1.00  0.00    -0.268 OA
BRANCH  18  20
ATOM     20  C   UNL A   1      29.463  28.150  23.190  1.00  0.00     0.040 A 
ATOM     21  C   UNL A   1      30.426  28.839  22.443  1.00  0.00     0.015 A 
ATOM     22  C   UNL A   1      28.118  28.533  23.153  1.00  0.00     0.015 A 
ATOM     23  C   UNL A   1      30.046  29.976  21.725  1.00  0.00     0.021 A 
ATOM     24  C   UNL A   1      27.744  29.664  22.427  1.00  0.00     0.021 A 
ATOM     25  C   UNL A   1      28.711  30.390  21.733  1.00  0.00     0.041 A 
ATOM     26  Cl  UNL A   1      28.256  31.821  20.894  1.00  0.00    -0.084 Cl
ENDBRANCH  18  20
ENDBRANCH  11  18
ENDBRANCH   7   8
ENDBRANCH   4   7
ENDBRANCH   2   3
ENDBRANCH   1   2
BRANCH   1  27
ATOM     27  C   UNL A   1      38.626  22.812  26.149  1.00  0.00     0.023 C 
BRANCH  27  28
ATOM     28  C   UNL A   1      39.769  21.990  26.753  1.00  0.00     0.116 C 
BRANCH  28  29
ATOM     29  N   UNL A   1      41.002  22.090  25.997  1.00  0.00    -0.352 N 
ATOM     30  C   UNL A   1      41.984  23.034  25.878  1.00  0.00     0.251 C 
ATOM     31  H   UNL A   1      41.172  21.296  25.443  1.00  0.00     0.163 HD
ATOM     32  O   UNL A   1      42.955  22.718  25.187  1.00  0.00    -0.269 OA
BRANCH  30  33
ATOM     33  C   UNL A   1      41.947  24.396  26.479  1.00  0.00     0.039 A 
ATOM     34  C   UNL A   1      42.407  24.733  27.750  1.00  0.00     0.014 A 
ATOM     35  C   UNL A   1      41.339  25.402  25.701  1.00  0.00     0.014 A 
ATOM     36  C   UNL A   1      42.212  26.011  28.259  1.00  0.00     0.010 A 
ATOM     37  C   UNL A   1      41.148  26.687  26.202  1.00  0.00     0.010 A 
ATOM     38  C   UNL A   1      41.551  26.979  27.500  1.00  0.00    -0.014 A 
BRANCH  38  39
ATOM     39  C   UNL A   1      41.330  28.276  28.133  1.00  0.00     0.031 A 
ATOM     40  C   UNL A   1      42.405  29.297  27.968  1.00  0.00     0.074 A 
ATOM     41  C   UNL A   1      40.201  28.597  28.794  1.00  0.00     0.049 A 
ATOM     42  N   UNL A   1      43.085  29.910  28.884  1.00  0.00    -0.248 NA
ATOM     43  C   UNL A   1      42.794  29.648  26.595  1.00  0.00     0.031 C 
ATOM     44  C   UNL A   1      38.924  27.880  28.819  1.00  0.00     0.029 A 
ATOM     45  N   UNL A   1      39.944  29.723  29.520  1.00  0.00    -0.354 N 
ATOM     46  C   UNL A   1      43.910  30.817  28.219  1.00  0.00     0.074 A 
ATOM     47  C   UNL A   1      43.742  30.561  26.809  1.00  0.00     0.031 C 
ATOM     48  C   UNL A   1      37.971  28.696  29.322  1.00  0.00     0.029 A 
ATOM     49  C   UNL A   1      38.602  29.917  29.794  1.00  0.00     0.049 A 
ATOM     50  H   UNL A   1      40.650  30.340  29.821  1.00  0.00     0.167 HD
ATOM     51  C   UNL A   1      44.586  31.813  28.856  1.00  0.00     0.031 A 
ATOM     52  C   UNL A   1      38.042  31.034  30.310  1.00  0.00     0.031 A 
ATOM     53  C   UNL A   1      44.704  31.583  30.267  1.00  0.00     0.049 A 
ATOM     54  C   UNL A   1      39.099  31.821  30.980  1.00  0.00     0.074 A 
ATOM     55  C   UNL A   1      45.334  30.639  31.052  1.00  0.00     0.029 A 
ATOM     56  N   UNL A   1      43.854  32.259  31.105  1.00  0.00    -0.354 N 
ATOM     57  N   UNL A   1      39.704  31.448  32.071  1.00  0.00    -0.248 NA
ATOM     58  C   UNL A   1      39.750  32.888  30.238  1.00  0.00     0.031 C 
ATOM     59  C   UNL A   1      44.492  30.482  32.189  1.00  0.00     0.029 A 
ATOM     60  C   UNL A   1      43.413  31.356  32.038  1.00  0.00     0.049 A 
ATOM     61  H   UNL A   1      43.606  33.210  31.046  1.00  0.00     0.167 HD
ATOM     62  C   UNL A   1      40.998  31.930  31.943  1.00  0.00     0.074 A 
ATOM     63  C   UNL A   1      40.928  32.912  30.866  1.00  0.00     0.031 C 
ATOM     64  C   UNL A   1      42.053  31.293  32.532  1.00  0.00     0.031 A 
BRANCH  51  65
ATOM     65  C   UNL A   1      44.923  33.144  28.233  1.00  0.00    -0.014 A 
ATOM     66  C   UNL A   1      46.061  33.346  27.430  1.00  0.00     0.009 A 
ATOM     67  C   UNL A   1      43.959  34.169  28.232  1.00  0.00     0.009 A 
ATOM     68  C   UNL A   1      46.235  34.507  26.671  1.00  0.00     0.001 A 
ATOM     69  C   UNL A   1      44.111  35.315  27.440  1.00  0.00     0.001 A 
ATOM     70  C   UNL A   1      45.249  35.483  26.658  1.00  0.00     0.000 A 
ENDBRANCH  51  65
BRANCH  52  71
ATOM     71  C   UNL A   1      36.731  31.614  29.963  1.00  0.00    -0.014 A 
ATOM     72  C   UNL A   1      36.528  32.164  28.683  1.00  0.00     0.009 A 
ATOM     73  C   UNL A   1      35.777  31.882  30.954  1.00  0.00     0.009 A 
ATOM     74  C   UNL A   1      35.429  32.981  28.411  1.00  0.00     0.001 A 
ATOM     75  C   UNL A   1      34.675  32.702  30.682  1.00  0.00     0.001 A 
ATOM     76  C   UNL A   1      34.510  33.262  29.415  1.00  0.00     0.000 A 
ENDBRANCH  52  71
BRANCH  64  77
ATOM     77  C   UNL A   1      41.763  30.206  33.541  1.00  0.00    -0.014 A 
ATOM     78  C   UNL A   1      41.909  30.496  34.907  1.00  0.00     0.009 A 
ATOM     79  C   UNL A   1      41.533  28.869  33.168  1.00  0.00     0.009 A 
ATOM     80  C   UNL A   1      41.836  29.484  35.868  1.00  0.00     0.001 A 
ATOM     81  C   UNL A   1      41.433  27.861  34.132  1.00  0.00     0.001 A 
ATOM     82  C   UNL A   1      41.595  28.168  35.480  1.00  0.00     0.000 A 
ENDBRANCH  64  77
ENDBRANCH  38  39
ENDBRANCH  30  33
ENDBRANCH  28  29
ENDBRANCH  27  28
ENDBRANCH   1  27
TORSDOF 14
ENDMDL
