MODEL 1
REMARK VINA RESULT:     -10.8      0.000      0.000
REMARK SMILES Cc1cccnc1C(=O)NC[C@@H](CC(C)C)C(=O)NCCCCNC(=O)c1ccc(-c2c3nc(c(-c4ccccc4)c4ccc([nH]4)c(-c4ccccc4)c4nc(c(-c5ccccc5)c5ccc2[nH]5)C=C4)C=C3)cc1
REMARK SMILES IDX 21 1 20 2 19 3 17 4 18 5 12 7 11 8 10 9 8 10 9 11 7 13 1 14
REMARK SMILES IDX 2 15 3 16 4 17 6 18 5 19 13 20 14 21 15 22 16 23 22 24 23 25
REMARK SMILES IDX 24 26 25 27 26 29 27 30 28 31 74 32 29 33 73 34 30 35 31 36
REMARK SMILES IDX 32 37 67 38 33 39 72 40 66 41 68 42 34 43 71 44 65 45 64 46
REMARK SMILES IDX 35 48 57 49 42 50 56 51 43 52 46 53 55 54 69 55 44 56 45 57
REMARK SMILES IDX 54 59 70 60 47 61 36 62 37 63 41 64 38 65 40 66 39 67 58 68
REMARK SMILES IDX 59 69 63 70 60 71 62 72 61 73 48 74 49 75 53 76 50 77 52 78
REMARK SMILES IDX 51 79
REMARK H PARENT 19 6 10 12 24 28 68 47 46 58
REMARK Flexibility Score: inf
ROOT
ATOM      1  C   UNL A   1      37.124  21.928  24.210  1.00  0.00     0.023 C 
ENDROOT
BRANCH   1   2
ATOM      2  C   UNL A   1      35.641  22.211  24.399  1.00  0.00     0.116 C 
BRANCH   2   3
ATOM      3  N   UNL A   1      35.240  22.162  25.790  1.00  0.00    -0.356 N 
ATOM      4  C   UNL A   1      34.319  21.398  26.433  1.00  0.00     0.224 C 
ATOM      5  O   UNL A   1      34.345  21.427  27.668  1.00  0.00    -0.275 OA
ATOM      6  H   UNL A   1      35.720  22.795  26.372  1.00  0.00     0.163 HD
BRANCH   4   7
ATOM      7  C   UNL A   1      33.296  20.531  25.712  1.00  0.00     0.098 C 
BRANCH   7   8
ATOM      8  C   UNL A   1      32.037  21.283  25.236  1.00  0.00     0.129 C 
BRANCH   8   9
ATOM      9  N   UNL A   1      31.402  22.053  26.286  1.00  0.00    -0.350 N 
ATOM     10  C   UNL A   1      31.114  23.379  26.504  1.00  0.00     0.270 C 
ATOM     11  O   UNL A   1      30.183  23.516  27.313  1.00  0.00    -0.268 OA
ATOM     12  H   UNL A   1      31.102  21.483  27.030  1.00  0.00     0.163 HD
BRANCH  10  13
ATOM     13  C   UNL A   1      31.768  24.646  25.942  1.00  0.00     0.131 A 
ATOM     14  C   UNL A   1      29.823  25.914  24.798  1.00  0.00     0.047 C 
ATOM     15  C   UNL A   1      31.246  25.692  25.169  1.00  0.00    -0.020 A 
ATOM     16  C   UNL A   1      32.147  26.658  24.660  1.00  0.00     0.007 A 
ATOM     17  C   UNL A   1      33.509  26.562  24.881  1.00  0.00     0.020 A 
ATOM     18  N   UNL A   1      33.117  24.599  26.188  1.00  0.00    -0.251 NA
ATOM     19  C   UNL A   1      33.945  25.517  25.655  1.00  0.00     0.112 A 
ENDBRANCH  10  13
ENDBRANCH   8   9
ENDBRANCH   7   8
BRANCH   7  20
ATOM     20  C   UNL A   1      33.930  19.584  24.660  1.00  0.00     0.018 C 
BRANCH  20  21
ATOM     21  C   UNL A   1      33.171  18.286  24.315  1.00  0.00    -0.017 C 
ATOM     22  C   UNL A   1      34.046  17.282  23.552  1.00  0.00     0.007 C 
ATOM     23  C   UNL A   1      32.657  17.597  25.583  1.00  0.00     0.007 C 
ENDBRANCH  20  21
ENDBRANCH   7  20
ENDBRANCH   4   7
ENDBRANCH   2   3
ENDBRANCH   1   2
BRANCH   1  24
ATOM     24  C   UNL A   1      37.629  20.694  24.954  1.00  0.00     0.023 C 
BRANCH  24  25
ATOM     25  C   UNL A   1      38.858  20.922  25.829  1.00  0.00     0.116 C 
BRANCH  25  26
ATOM     26  N   UNL A   1      39.804  19.815  25.786  1.00  0.00    -0.352 N 
ATOM     27  C   UNL A   1      41.144  19.798  26.090  1.00  0.00     0.251 C 
ATOM     28  H   UNL A   1      39.428  18.953  25.498  1.00  0.00     0.163 HD
ATOM     29  O   UNL A   1      41.815  18.792  25.883  1.00  0.00    -0.269 OA
BRANCH  27  30
ATOM     30  C   UNL A   1      41.777  21.016  26.627  1.00  0.00     0.039 A 
ATOM     31  C   UNL A   1      42.284  21.961  25.732  1.00  0.00     0.014 A 
ATOM     32  C   UNL A   1      41.814  21.248  28.004  1.00  0.00     0.014 A 
ATOM     33  C   UNL A   1      42.749  23.182  26.217  1.00  0.00     0.010 A 
ATOM     34  C   UNL A   1      42.199  22.497  28.476  1.00  0.00     0.010 A 
ATOM     35  C   UNL A   1      42.663  23.479  27.587  1.00  0.00    -0.014 A 
BRANCH  35  36
ATOM     36  C   UNL A   1      43.039  24.814  28.111  1.00  0.00     0.031 A 
ATOM     37  C   UNL A   1      41.983  25.858  28.342  1.00  0.00     0.074 A 
ATOM     38  C   UNL A   1      44.338  25.111  28.311  1.00  0.00     0.049 A 
ATOM     39  N   UNL A   1      42.124  27.099  28.732  1.00  0.00    -0.248 NA
ATOM     40  C   UNL A   1      40.591  25.464  28.075  1.00  0.00     0.031 C 
ATOM     41  C   UNL A   1      45.464  24.201  28.083  1.00  0.00     0.029 A 
ATOM     42  N   UNL A   1      44.932  26.268  28.747  1.00  0.00    -0.354 N 
ATOM     43  C   UNL A   1      40.844  27.638  28.738  1.00  0.00     0.074 A 
ATOM     44  C   UNL A   1      39.947  26.606  28.263  1.00  0.00     0.031 C 
ATOM     45  C   UNL A   1      46.607  24.824  28.411  1.00  0.00     0.029 A 
ATOM     46  C   UNL A   1      46.301  26.188  28.833  1.00  0.00     0.049 A 
ATOM     47  H   UNL A   1      44.425  27.080  28.976  1.00  0.00     0.167 HD
ATOM     48  C   UNL A   1      40.444  28.873  29.123  1.00  0.00     0.031 A 
ATOM     49  C   UNL A   1      47.208  27.109  29.205  1.00  0.00     0.031 A 
ATOM     50  C   UNL A   1      41.332  29.896  29.607  1.00  0.00     0.049 A 
ATOM     51  C   UNL A   1      46.741  28.477  29.615  1.00  0.00     0.074 A 
ATOM     52  C   UNL A   1      41.016  31.159  30.074  1.00  0.00     0.029 A 
ATOM     53  N   UNL A   1      42.709  29.772  29.683  1.00  0.00    -0.354 N 
ATOM     54  N   UNL A   1      45.520  28.948  29.678  1.00  0.00    -0.248 NA
ATOM     55  C   UNL A   1      47.780  29.437  30.014  1.00  0.00     0.031 C 
ATOM     56  C   UNL A   1      42.210  31.818  30.390  1.00  0.00     0.029 A 
ATOM     57  C   UNL A   1      43.262  30.944  30.169  1.00  0.00     0.049 A 
ATOM     58  H   UNL A   1      43.220  28.970  29.428  1.00  0.00     0.167 HD
ATOM     59  C   UNL A   1      45.641  30.249  30.149  1.00  0.00     0.074 A 
ATOM     60  C   UNL A   1      47.053  30.486  30.370  1.00  0.00     0.031 C 
ATOM     61  C   UNL A   1      44.669  31.165  30.380  1.00  0.00     0.031 A 
BRANCH  48  62
ATOM     62  C   UNL A   1      38.976  29.181  29.032  1.00  0.00    -0.014 A 
ATOM     63  C   UNL A   1      38.408  29.667  27.843  1.00  0.00     0.009 A 
ATOM     64  C   UNL A   1      38.145  28.962  30.141  1.00  0.00     0.009 A 
ATOM     65  C   UNL A   1      37.046  29.965  27.779  1.00  0.00     0.001 A 
ATOM     66  C   UNL A   1      36.777  29.234  30.066  1.00  0.00     0.001 A 
ATOM     67  C   UNL A   1      36.232  29.745  28.889  1.00  0.00     0.000 A 
ENDBRANCH  48  62
BRANCH  49  68
ATOM     68  C   UNL A   1      48.654  26.764  29.229  1.00  0.00    -0.014 A 
ATOM     69  C   UNL A   1      49.239  26.243  30.392  1.00  0.00     0.009 A 
ATOM     70  C   UNL A   1      49.457  26.960  28.095  1.00  0.00     0.009 A 
ATOM     71  C   UNL A   1      50.604  25.950  30.429  1.00  0.00     0.001 A 
ATOM     72  C   UNL A   1      50.816  26.640  28.126  1.00  0.00     0.001 A 
ATOM     73  C   UNL A   1      51.390  26.144  29.295  1.00  0.00     0.000 A 
ENDBRANCH  49  68
BRANCH  61  74
ATOM     74  C   UNL A   1      45.097  32.496  30.930  1.00  0.00    -0.014 A 
ATOM     75  C   UNL A   1      45.402  33.571  30.081  1.00  0.00     0.009 A 
ATOM     76  C   UNL A   1      45.160  32.685  32.319  1.00  0.00     0.009 A 
ATOM     77  C   UNL A   1      45.791  34.802  30.614  1.00  0.00     0.001 A 
ATOM     78  C   UNL A   1      45.522  33.924  32.849  1.00  0.00     0.001 A 
ATOM     79  C   UNL A   1      45.845  34.978  31.996  1.00  0.00     0.000 A 
ENDBRANCH  61  74
ENDBRANCH  35  36
ENDBRANCH  27  30
ENDBRANCH  25  26
ENDBRANCH  24  25
ENDBRANCH   1  24
TORSDOF 16
ENDMDL
MODEL 2
REMARK VINA RESULT:     -10.8      4.946      9.659
REMARK SMILES Cc1cccnc1C(=O)NC[C@@H](CC(C)C)C(=O)NCCCCNC(=O)c1ccc(-c2c3nc(c(-c4ccccc4)c4ccc([nH]4)c(-c4ccccc4)c4nc(c(-c5ccccc5)c5ccc2[nH]5)C=C4)C=C3)cc1
REMARK SMILES IDX 21 1 20 2 19 3 17 4 18 5 12 7 11 8 10 9 8 10 9 11 7 13 1 14
REMARK SMILES IDX 2 15 3 16 4 17 6 18 5 19 13 20 14 21 15 22 16 23 22 24 23 25
REMARK SMILES IDX 24 26 25 27 26 29 27 30 28 31 74 32 29 33 73 34 30 35 31 36
REMARK SMILES IDX 32 37 67 38 33 39 72 40 66 41 68 42 34 43 71 44 65 45 64 46
REMARK SMILES IDX 35 48 57 49 42 50 56 51 43 52 46 53 55 54 69 55 44 56 45 57
REMARK SMILES IDX 54 59 70 60 47 61 36 62 37 63 41 64 38 65 40 66 39 67 58 68
REMARK SMILES IDX 59 69 63 70 60 71 62 72 61 73 48 74 49 75 53 76 50 77 52 78
REMARK SMILES IDX 51 79
REMARK H PARENT 19 6 10 12 24 28 68 47 46 58
REMARK Flexibility Score: inf
ROOT
ATOM      1  C   UNL A   1      31.956  30.257  26.795  1.00  0.00     0.023 C 
ENDROOT
BRANCH   1   2
ATOM      2  C   UNL A   1      33.428  29.870  26.792  1.00  0.00     0.116 C 
BRANCH   2   3
ATOM      3  N   UNL A   1      33.881  29.424  25.490  1.00  0.00    -0.356 N 
ATOM      4  C   UNL A   1      33.711  28.246  24.836  1.00  0.00     0.224 C 
ATOM      5  O   UNL A   1      34.032  28.228  23.643  1.00  0.00    -0.275 OA
ATOM      6  H   UNL A   1      34.405  30.092  24.993  1.00  0.00     0.163 HD
BRANCH   4   7
ATOM      7  C   UNL A   1      33.152  26.992  25.494  1.00  0.00     0.098 C 
BRANCH   7   8
ATOM      8  C   UNL A   1      31.726  26.613  25.048  1.00  0.00     0.129 C 
BRANCH   8   9
ATOM      9  N   UNL A   1      31.590  26.502  23.610  1.00  0.00    -0.350 N 
ATOM     10  C   UNL A   1      30.956  27.213  22.620  1.00  0.00     0.270 C 
ATOM     11  O   UNL A   1      31.475  27.011  21.510  1.00  0.00    -0.268 OA
ATOM     12  H   UNL A   1      32.073  25.722  23.253  1.00  0.00     0.163 HD
BRANCH  10  13
ATOM     13  C   UNL A   1      29.742  28.146  22.684  1.00  0.00     0.131 A 
ATOM     14  C   UNL A   1      27.947  26.773  23.945  1.00  0.00     0.047 C 
ATOM     15  C   UNL A   1      28.448  27.949  23.185  1.00  0.00    -0.020 A 
ATOM     16  C   UNL A   1      27.482  28.958  22.954  1.00  0.00     0.007 A 
ATOM     17  C   UNL A   1      27.785  30.092  22.222  1.00  0.00     0.020 A 
ATOM     18  N   UNL A   1      30.030  29.302  22.002  1.00  0.00    -0.251 NA
ATOM     19  C   UNL A   1      29.073  30.221  21.771  1.00  0.00     0.112 A 
ENDBRANCH  10  13
ENDBRANCH   8   9
ENDBRANCH   7   8
BRANCH   7  20
ATOM     20  C   UNL A   1      34.163  25.816  25.526  1.00  0.00     0.018 C 
BRANCH  20  21
ATOM     21  C   UNL A   1      33.598  24.383  25.429  1.00  0.00    -0.017 C 
ATOM     22  C   UNL A   1      33.935  23.711  24.091  1.00  0.00     0.007 C 
ATOM     23  C   UNL A   1      34.147  23.499  26.553  1.00  0.00     0.007 C 
ENDBRANCH  20  21
ENDBRANCH   7  20
ENDBRANCH   4   7
ENDBRANCH   2   3
ENDBRANCH   1   2
BRANCH   1  24
ATOM     24  C   UNL A   1      31.702  31.763  26.786  1.00  0.00     0.023 C 
BRANCH  24  25
ATOM     25  C   UNL A   1      32.847  32.618  27.320  1.00  0.00     0.116 C 
BRANCH  25  26
ATOM     26  N   UNL A   1      32.453  33.992  27.601  1.00  0.00    -0.352 N 
ATOM     27  C   UNL A   1      32.977  34.883  28.505  1.00  0.00     0.251 C 
ATOM     28  H   UNL A   1      31.702  34.331  27.063  1.00  0.00     0.163 HD
ATOM     29  O   UNL A   1      32.439  35.970  28.688  1.00  0.00    -0.269 OA
BRANCH  27  30
ATOM     30  C   UNL A   1      34.169  34.503  29.284  1.00  0.00     0.039 A 
ATOM     31  C   UNL A   1      33.995  33.982  30.568  1.00  0.00     0.014 A 
ATOM     32  C   UNL A   1      35.445  34.607  28.726  1.00  0.00     0.014 A 
ATOM     33  C   UNL A   1      35.097  33.480  31.258  1.00  0.00     0.010 A 
ATOM     34  C   UNL A   1      36.526  34.030  29.380  1.00  0.00     0.010 A 
ATOM     35  C   UNL A   1      36.362  33.454  30.649  1.00  0.00    -0.014 A 
BRANCH  35  36
ATOM     36  C   UNL A   1      37.525  32.817  31.314  1.00  0.00     0.031 A 
ATOM     37  C   UNL A   1      38.189  31.623  30.690  1.00  0.00     0.074 A 
ATOM     38  C   UNL A   1      37.936  33.269  32.515  1.00  0.00     0.049 A 
ATOM     39  N   UNL A   1      39.172  30.893  31.151  1.00  0.00    -0.248 NA
ATOM     40  C   UNL A   1      37.663  31.174  29.391  1.00  0.00     0.031 C 
ATOM     41  C   UNL A   1      37.348  34.394  33.248  1.00  0.00     0.029 A 
ATOM     42  N   UNL A   1      38.946  32.832  33.334  1.00  0.00    -0.354 N 
ATOM     43  C   UNL A   1      39.369  29.891  30.211  1.00  0.00     0.074 A 
ATOM     44  C   UNL A   1      38.370  30.075  29.180  1.00  0.00     0.031 C 
ATOM     45  C   UNL A   1      38.028  34.576  34.392  1.00  0.00     0.029 A 
ATOM     46  C   UNL A   1      39.071  33.560  34.493  1.00  0.00     0.049 A 
ATOM     47  H   UNL A   1      39.527  32.069  33.113  1.00  0.00     0.167 HD
ATOM     48  C   UNL A   1      40.308  28.916  30.192  1.00  0.00     0.031 A 
ATOM     49  C   UNL A   1      39.926  33.423  35.523  1.00  0.00     0.031 A 
ATOM     50  C   UNL A   1      41.310  28.739  31.209  1.00  0.00     0.049 A 
ATOM     51  C   UNL A   1      40.950  32.324  35.486  1.00  0.00     0.074 A 
ATOM     52  C   UNL A   1      42.339  27.816  31.252  1.00  0.00     0.029 A 
ATOM     53  N   UNL A   1      41.403  29.499  32.363  1.00  0.00    -0.354 N 
ATOM     54  N   UNL A   1      41.164  31.425  34.556  1.00  0.00    -0.248 NA
ATOM     55  C   UNL A   1      41.857  32.229  36.639  1.00  0.00     0.031 C 
ATOM     56  C   UNL A   1      43.030  27.989  32.457  1.00  0.00     0.029 A 
ATOM     57  C   UNL A   1      42.461  29.054  33.137  1.00  0.00     0.049 A 
ATOM     58  H   UNL A   1      40.807  30.246  32.598  1.00  0.00     0.167 HD
ATOM     59  C   UNL A   1      42.246  30.676  34.998  1.00  0.00     0.074 A 
ATOM     60  C   UNL A   1      42.653  31.235  36.272  1.00  0.00     0.031 C 
ATOM     61  C   UNL A   1      42.851  29.619  34.402  1.00  0.00     0.031 A 
BRANCH  48  62
ATOM     62  C   UNL A   1      40.289  27.964  29.030  1.00  0.00    -0.014 A 
ATOM     63  C   UNL A   1      39.585  26.750  29.095  1.00  0.00     0.009 A 
ATOM     64  C   UNL A   1      40.966  28.293  27.845  1.00  0.00     0.009 A 
ATOM     65  C   UNL A   1      39.592  25.869  28.013  1.00  0.00     0.001 A 
ATOM     66  C   UNL A   1      40.948  27.422  26.754  1.00  0.00     0.001 A 
ATOM     67  C   UNL A   1      40.270  26.207  26.843  1.00  0.00     0.000 A 
ENDBRANCH  48  62
BRANCH  49  68
ATOM     68  C   UNL A   1      39.866  34.363  36.672  1.00  0.00    -0.014 A 
ATOM     69  C   UNL A   1      39.135  34.032  37.822  1.00  0.00     0.009 A 
ATOM     70  C   UNL A   1      40.532  35.598  36.623  1.00  0.00     0.009 A 
ATOM     71  C   UNL A   1      39.050  34.928  38.890  1.00  0.00     0.001 A 
ATOM     72  C   UNL A   1      40.468  36.480  37.704  1.00  0.00     0.001 A 
ATOM     73  C   UNL A   1      39.719  36.148  38.832  1.00  0.00     0.000 A 
ENDBRANCH  49  68
BRANCH  61  74
ATOM     74  C   UNL A   1      44.037  29.021  35.104  1.00  0.00    -0.014 A 
ATOM     75  C   UNL A   1      45.336  29.499  34.878  1.00  0.00     0.009 A 
ATOM     76  C   UNL A   1      43.842  27.988  36.035  1.00  0.00     0.009 A 
ATOM     77  C   UNL A   1      46.423  28.934  35.548  1.00  0.00     0.001 A 
ATOM     78  C   UNL A   1      44.927  27.444  36.723  1.00  0.00     0.001 A 
ATOM     79  C   UNL A   1      46.216  27.910  36.473  1.00  0.00     0.000 A 
ENDBRANCH  61  74
ENDBRANCH  35  36
ENDBRANCH  27  30
ENDBRANCH  25  26
ENDBRANCH  24  25
ENDBRANCH   1  24
TORSDOF 16
ENDMDL
MODEL 3
REMARK VINA RESULT:     -10.8      0.674      5.989
REMARK SMILES Cc1cccnc1C(=O)NC[C@@H](CC(C)C)C(=O)NCCCCNC(=O)c1ccc(-c2c3nc(c(-c4ccccc4)c4ccc([nH]4)c(-c4ccccc4)c4nc(c(-c5ccccc5)c5ccc2[nH]5)C=C4)C=C3)cc1
REMARK SMILES IDX 21 1 20 2 19 3 17 4 18 5 12 7 11 8 10 9 8 10 9 11 7 13 1 14
REMARK SMILES IDX 2 15 3 16 4 17 6 18 5 19 13 20 14 21 15 22 16 23 22 24 23 25
REMARK SMILES IDX 24 26 25 27 26 29 27 30 28 31 74 32 29 33 73 34 30 35 31 36
REMARK SMILES IDX 32 37 67 38 33 39 72 40 66 41 68 42 34 43 71 44 65 45 64 46
REMARK SMILES IDX 35 48 57 49 42 50 56 51 43 52 46 53 55 54 69 55 44 56 45 57
REMARK SMILES IDX 54 59 70 60 47 61 36 62 37 63 41 64 38 65 40 66 39 67 58 68
REMARK SMILES IDX 59 69 63 70 60 71 62 72 61 73 48 74 49 75 53 76 50 77 52 78
REMARK SMILES IDX 51 79
REMARK H PARENT 19 6 10 12 24 28 68 47 46 58
REMARK Flexibility Score: inf
ROOT
ATOM      1  C   UNL A   1      36.891  22.172  24.082  1.00  0.00     0.023 C 
ENDROOT
BRANCH   1   2
ATOM      2  C   UNL A   1      35.410  22.428  24.316  1.00  0.00     0.116 C 
BRANCH   2   3
ATOM      3  N   UNL A   1      35.027  22.249  25.701  1.00  0.00    -0.356 N 
ATOM      4  C   UNL A   1      34.110  21.430  26.280  1.00  0.00     0.224 C 
ATOM      5  O   UNL A   1      34.153  21.341  27.512  1.00  0.00    -0.275 OA
ATOM      6  H   UNL A   1      35.517  22.821  26.334  1.00  0.00     0.163 HD
BRANCH   4   7
ATOM      7  C   UNL A   1      33.073  20.640  25.494  1.00  0.00     0.098 C 
BRANCH   7   8
ATOM      8  C   UNL A   1      31.794  21.426  25.147  1.00  0.00     0.129 C 
BRANCH   8   9
ATOM      9  N   UNL A   1      31.300  22.227  26.248  1.00  0.00    -0.350 N 
ATOM     10  C   UNL A   1      31.111  23.567  26.489  1.00  0.00     0.270 C 
ATOM     11  O   UNL A   1      30.265  23.755  27.378  1.00  0.00    -0.268 OA
ATOM     12  H   UNL A   1      31.034  21.673  27.016  1.00  0.00     0.163 HD
BRANCH  10  13
ATOM     13  C   UNL A   1      31.786  24.796  25.871  1.00  0.00     0.131 A 
ATOM     14  C   UNL A   1      29.899  25.954  24.530  1.00  0.00     0.047 C 
ATOM     15  C   UNL A   1      31.301  25.776  24.994  1.00  0.00    -0.020 A 
ATOM     16  C   UNL A   1      32.222  26.711  24.464  1.00  0.00     0.007 A 
ATOM     17  C   UNL A   1      33.570  26.647  24.766  1.00  0.00     0.020 A 
ATOM     18  N   UNL A   1      33.120  24.783  26.193  1.00  0.00    -0.251 NA
ATOM     19  C   UNL A   1      33.970  25.668  25.639  1.00  0.00     0.112 A 
ENDBRANCH  10  13
ENDBRANCH   8   9
ENDBRANCH   7   8
BRANCH   7  20
ATOM     20  C   UNL A   1      33.683  19.830  24.320  1.00  0.00     0.018 C 
BRANCH  20  21
ATOM     21  C   UNL A   1      33.584  18.291  24.385  1.00  0.00    -0.017 C 
ATOM     22  C   UNL A   1      34.957  17.623  24.547  1.00  0.00     0.007 C 
ATOM     23  C   UNL A   1      32.701  17.847  25.556  1.00  0.00     0.007 C 
ENDBRANCH  20  21
ENDBRANCH   7  20
ENDBRANCH   4   7
ENDBRANCH   2   3
ENDBRANCH   1   2
BRANCH   1  24
ATOM     24  C   UNL A   1      37.386  20.826  24.607  1.00  0.00     0.023 C 
BRANCH  24  25
ATOM     25  C   UNL A   1      38.429  20.907  25.719  1.00  0.00     0.116 C 
BRANCH  25  26
ATOM     26  N   UNL A   1      39.414  19.835  25.659  1.00  0.00    -0.352 N 
ATOM     27  C   UNL A   1      40.747  19.855  25.987  1.00  0.00     0.251 C 
ATOM     28  H   UNL A   1      39.073  18.970  25.337  1.00  0.00     0.163 HD
ATOM     29  O   UNL A   1      41.456  18.879  25.761  1.00  0.00    -0.269 OA
BRANCH  27  30
ATOM     30  C   UNL A   1      41.327  21.076  26.574  1.00  0.00     0.039 A 
ATOM     31  C   UNL A   1      41.917  22.014  25.725  1.00  0.00     0.014 A 
ATOM     32  C   UNL A   1      41.235  21.316  27.946  1.00  0.00     0.014 A 
ATOM     33  C   UNL A   1      42.336  23.239  26.244  1.00  0.00     0.010 A 
ATOM     34  C   UNL A   1      41.574  22.568  28.445  1.00  0.00     0.010 A 
ATOM     35  C   UNL A   1      42.121  23.544  27.598  1.00  0.00    -0.014 A 
BRANCH  35  36
ATOM     36  C   UNL A   1      42.447  24.883  28.147  1.00  0.00     0.031 A 
ATOM     37  C   UNL A   1      43.846  25.191  28.601  1.00  0.00     0.074 A 
ATOM     38  C   UNL A   1      41.469  25.795  28.303  1.00  0.00     0.049 A 
ATOM     39  N   UNL A   1      44.308  26.277  29.166  1.00  0.00    -0.248 NA
ATOM     40  C   UNL A   1      44.851  24.132  28.421  1.00  0.00     0.031 C 
ATOM     41  C   UNL A   1      40.061  25.605  27.942  1.00  0.00     0.029 A 
ATOM     42  N   UNL A   1      41.510  27.068  28.814  1.00  0.00    -0.354 N 
ATOM     43  C   UNL A   1      45.648  26.025  29.425  1.00  0.00     0.074 A 
ATOM     44  C   UNL A   1      45.913  24.666  29.005  1.00  0.00     0.031 C 
ATOM     45  C   UNL A   1      39.382  26.731  28.214  1.00  0.00     0.029 A 
ATOM     46  C   UNL A   1      40.293  27.706  28.803  1.00  0.00     0.049 A 
ATOM     47  H   UNL A   1      42.333  27.485  29.155  1.00  0.00     0.167 HD
ATOM     48  C   UNL A   1      46.582  26.854  29.947  1.00  0.00     0.031 A 
ATOM     49  C   UNL A   1      39.948  28.937  29.225  1.00  0.00     0.031 A 
ATOM     50  C   UNL A   1      46.325  28.209  30.354  1.00  0.00     0.049 A 
ATOM     51  C   UNL A   1      41.001  29.834  29.814  1.00  0.00     0.074 A 
ATOM     52  C   UNL A   1      47.218  29.146  30.842  1.00  0.00     0.029 A 
ATOM     53  N   UNL A   1      45.081  28.817  30.324  1.00  0.00    -0.354 N 
ATOM     54  N   UNL A   1      42.279  29.602  29.991  1.00  0.00    -0.248 NA
ATOM     55  C   UNL A   1      40.562  31.166  30.252  1.00  0.00     0.031 C 
ATOM     56  C   UNL A   1      46.504  30.310  31.150  1.00  0.00     0.029 A 
ATOM     57  C   UNL A   1      45.177  30.112  30.804  1.00  0.00     0.049 A 
ATOM     58  H   UNL A   1      44.251  28.393  30.007  1.00  0.00     0.167 HD
ATOM     59  C   UNL A   1      42.802  30.767  30.535  1.00  0.00     0.074 A 
ATOM     60  C   UNL A   1      41.706  31.709  30.645  1.00  0.00     0.031 C 
ATOM     61  C   UNL A   1      44.077  31.035  30.908  1.00  0.00     0.031 A 
BRANCH  48  62
ATOM     62  C   UNL A   1      47.974  26.309  30.107  1.00  0.00    -0.014 A 
ATOM     63  C   UNL A   1      48.420  25.807  31.341  1.00  0.00     0.009 A 
ATOM     64  C   UNL A   1      48.843  26.276  29.007  1.00  0.00     0.009 A 
ATOM     65  C   UNL A   1      49.721  25.320  31.478  1.00  0.00     0.001 A 
ATOM     66  C   UNL A   1      50.135  25.762  29.139  1.00  0.00     0.001 A 
ATOM     67  C   UNL A   1      50.575  25.295  30.377  1.00  0.00     0.000 A 
ENDBRANCH  48  62
BRANCH  49  68
ATOM     68  C   UNL A   1      38.545  29.406  29.088  1.00  0.00    -0.014 A 
ATOM     69  C   UNL A   1      37.656  29.308  30.168  1.00  0.00     0.009 A 
ATOM     70  C   UNL A   1      38.085  29.948  27.878  1.00  0.00     0.009 A 
ATOM     71  C   UNL A   1      36.328  29.717  30.033  1.00  0.00     0.001 A 
ATOM     72  C   UNL A   1      36.764  30.382  27.753  1.00  0.00     0.001 A 
ATOM     73  C   UNL A   1      35.884  30.257  28.828  1.00  0.00     0.000 A 
ENDBRANCH  49  68
BRANCH  61  74
ATOM     74  C   UNL A   1      44.361  32.411  31.440  1.00  0.00    -0.014 A 
ATOM     75  C   UNL A   1      44.292  32.691  32.813  1.00  0.00     0.009 A 
ATOM     76  C   UNL A   1      44.741  33.432  30.554  1.00  0.00     0.009 A 
ATOM     77  C   UNL A   1      44.568  33.976  33.286  1.00  0.00     0.001 A 
ATOM     78  C   UNL A   1      45.043  34.707  31.033  1.00  0.00     0.001 A 
ATOM     79  C   UNL A   1      44.948  34.980  32.396  1.00  0.00     0.000 A 
ENDBRANCH  61  74
ENDBRANCH  35  36
ENDBRANCH  27  30
ENDBRANCH  25  26
ENDBRANCH  24  25
ENDBRANCH   1  24
TORSDOF 16
ENDMDL
