MODEL 1
REMARK VINA RESULT:     -11.5      0.000      0.000
REMARK SMILES COc1cc(/N=N/c2ccccc2)ccc1NC(=O)[C@H]1CC=CC[C@@H]1C(=O)NCCCCNC(=O)c1ccc(-c2c3nc(c(-c4ccccc4)c4ccc([nH]4)c(-c4ccccc4)c4nc(c(-c5ccccc5)c5ccc2[nH]5)C=C4)C=C3)cc1
REMARK SMILES IDX 29 1 28 2 26 3 27 4 25 6 20 7 21 8 22 9 24 10 23 11 18 12
REMARK SMILES IDX 17 13 19 15 16 16 3 17 4 18 5 19 15 20 14 21 2 22 1 23 6 24
REMARK SMILES IDX 7 25 8 26 9 27 13 28 10 29 12 30 11 31 30 32 31 33 32 34
REMARK SMILES IDX 33 35 34 36 35 38 36 39 37 40 83 41 38 42 82 43 39 44 40 45
REMARK SMILES IDX 41 46 76 47 42 48 81 49 75 50 77 51 43 52 80 53 74 54 73 55
REMARK SMILES IDX 44 57 66 58 51 59 65 60 52 61 55 62 64 63 78 64 53 65 54 66
REMARK SMILES IDX 63 68 79 69 56 70 45 71 46 72 50 73 47 74 49 75 48 76 67 77
REMARK SMILES IDX 68 78 72 79 69 80 71 81 70 82 57 83 58 84 62 85 59 86 61 87
REMARK SMILES IDX 60 88
REMARK H PARENT 28 5 17 14 33 37 77 56 55 67
REMARK Flexibility Score: inf
ROOT
ATOM      1  C   UNL A   1      34.373  29.386  26.987  1.00  0.00     0.116 C 
ENDROOT
BRANCH   1   2
ATOM      2  N   UNL A   1      33.782  29.510  25.679  1.00  0.00    -0.356 N 
ATOM      3  C   UNL A   1      32.891  28.733  25.004  1.00  0.00     0.224 C 
ATOM      4  O   UNL A   1      32.527  29.191  23.917  1.00  0.00    -0.275 OA
ATOM      5  H   UNL A   1      34.077  30.306  25.180  1.00  0.00     0.163 HD
BRANCH   3   6
ATOM      6  C   UNL A   1      32.304  27.423  25.587  1.00  0.00     0.095 C 
ATOM      7  C   UNL A   1      33.248  26.196  25.538  1.00  0.00     0.095 C 
ATOM      8  C   UNL A   1      33.624  25.935  24.053  1.00  0.00     0.041 C 
ATOM      9  C   UNL A   1      32.436  25.963  23.129  1.00  0.00    -0.030 C 
ATOM     10  C   UNL A   1      30.992  27.084  24.834  1.00  0.00     0.041 C 
ATOM     11  C   UNL A   1      31.239  26.448  23.494  1.00  0.00    -0.030 C 
BRANCH   7  12
ATOM     12  C   UNL A   1      32.667  24.896  26.153  1.00  0.00     0.228 C 
ATOM     13  N   UNL A   1      33.338  23.717  26.272  1.00  0.00    -0.323 N 
ATOM     14  H   UNL A   1      32.832  23.054  26.797  1.00  0.00     0.170 HD
ATOM     15  O   UNL A   1      31.504  24.866  26.580  1.00  0.00    -0.274 OA
BRANCH  13  16
ATOM     16  C   UNL A   1      34.568  23.212  25.831  1.00  0.00     0.083 A 
ATOM     17  C   UNL A   1      34.595  21.967  25.187  1.00  0.00     0.144 A 
ATOM     18  C   UNL A   1      35.795  21.261  25.038  1.00  0.00     0.079 A 
ATOM     19  C   UNL A   1      36.999  21.846  25.436  1.00  0.00     0.090 A 
ATOM     20  C   UNL A   1      35.770  23.869  25.998  1.00  0.00     0.032 A 
ATOM     21  C   UNL A   1      36.979  23.190  25.831  1.00  0.00     0.033 A 
BRANCH  17  22
ATOM     22  O   UNL A   1      33.444  21.382  24.720  1.00  0.00    -0.494 OA
ATOM     23  C   UNL A   1      33.319  20.053  25.251  1.00  0.00     0.278 C 
ENDBRANCH  17  22
BRANCH  19  24
ATOM     24  N   UNL A   1      38.205  21.116  25.400  1.00  0.00    -0.150 NA
ATOM     25  N   UNL A   1      39.055  21.686  26.122  1.00  0.00    -0.151 NA
BRANCH  25  26
ATOM     26  C   UNL A   1      40.339  21.101  26.104  1.00  0.00     0.086 A 
ATOM     27  C   UNL A   1      41.438  21.972  26.070  1.00  0.00     0.030 A 
ATOM     28  C   UNL A   1      40.589  19.722  26.064  1.00  0.00     0.030 A 
ATOM     29  C   UNL A   1      42.748  21.487  26.009  1.00  0.00     0.002 A 
ATOM     30  C   UNL A   1      41.897  19.232  26.002  1.00  0.00     0.002 A 
ATOM     31  C   UNL A   1      42.976  20.114  25.975  1.00  0.00     0.000 A 
ENDBRANCH  25  26
ENDBRANCH  19  24
ENDBRANCH  13  16
ENDBRANCH   7  12
ENDBRANCH   3   6
ENDBRANCH   1   2
BRANCH   1  32
ATOM     32  C   UNL A   1      34.526  30.735  27.683  1.00  0.00     0.023 C 
BRANCH  32  33
ATOM     33  C   UNL A   1      33.265  31.599  27.645  1.00  0.00     0.023 C 
BRANCH  33  34
ATOM     34  C   UNL A   1      33.473  33.017  27.124  1.00  0.00     0.116 C 
BRANCH  34  35
ATOM     35  N   UNL A   1      32.839  34.038  27.945  1.00  0.00    -0.352 N 
ATOM     36  C   UNL A   1      33.250  34.525  29.167  1.00  0.00     0.251 C 
ATOM     37  H   UNL A   1      32.011  34.430  27.582  1.00  0.00     0.163 HD
ATOM     38  O   UNL A   1      32.567  35.320  29.787  1.00  0.00    -0.269 OA
BRANCH  36  39
ATOM     39  C   UNL A   1      34.522  34.026  29.733  1.00  0.00     0.039 A 
ATOM     40  C   UNL A   1      34.475  33.152  30.821  1.00  0.00     0.014 A 
ATOM     41  C   UNL A   1      35.741  34.367  29.144  1.00  0.00     0.014 A 
ATOM     42  C   UNL A   1      35.655  32.556  31.271  1.00  0.00     0.010 A 
ATOM     43  C   UNL A   1      36.903  33.719  29.549  1.00  0.00     0.010 A 
ATOM     44  C   UNL A   1      36.870  32.803  30.612  1.00  0.00    -0.014 A 
BRANCH  44  45
ATOM     45  C   UNL A   1      38.117  32.105  31.008  1.00  0.00     0.031 A 
ATOM     46  C   UNL A   1      38.978  32.667  32.104  1.00  0.00     0.074 A 
ATOM     47  C   UNL A   1      38.515  31.011  30.329  1.00  0.00     0.049 A 
ATOM     48  N   UNL A   1      40.136  32.243  32.543  1.00  0.00    -0.248 NA
ATOM     49  C   UNL A   1      38.488  33.881  32.778  1.00  0.00     0.031 C 
ATOM     50  C   UNL A   1      37.793  30.392  29.214  1.00  0.00     0.029 A 
ATOM     51  N   UNL A   1      39.633  30.229  30.474  1.00  0.00    -0.354 N 
ATOM     52  C   UNL A   1      40.523  33.150  33.521  1.00  0.00     0.074 A 
ATOM     53  C   UNL A   1      39.499  34.169  33.585  1.00  0.00     0.031 C 
ATOM     54  C   UNL A   1      38.473  29.310  28.796  1.00  0.00     0.029 A 
ATOM     55  C   UNL A   1      39.693  29.182  29.585  1.00  0.00     0.049 A 
ATOM     56  H   UNL A   1      40.328  30.402  31.149  1.00  0.00     0.167 HD
ATOM     57  C   UNL A   1      41.626  33.128  34.306  1.00  0.00     0.031 A 
ATOM     58  C   UNL A   1      40.629  28.227  29.424  1.00  0.00     0.031 A 
ATOM     59  C   UNL A   1      42.628  32.099  34.266  1.00  0.00     0.049 A 
ATOM     60  C   UNL A   1      41.839  28.226  30.315  1.00  0.00     0.074 A 
ATOM     61  C   UNL A   1      43.738  31.947  35.079  1.00  0.00     0.029 A 
ATOM     62  N   UNL A   1      42.642  31.047  33.365  1.00  0.00    -0.354 N 
ATOM     63  N   UNL A   1      42.148  29.044  31.290  1.00  0.00    -0.248 NA
ATOM     64  C   UNL A   1      42.825  27.159  30.088  1.00  0.00     0.031 C 
ATOM     65  C   UNL A   1      44.448  30.824  34.641  1.00  0.00     0.029 A 
ATOM     66  C   UNL A   1      43.754  30.254  33.587  1.00  0.00     0.049 A 
ATOM     67  H   UNL A   1      41.962  30.887  32.671  1.00  0.00     0.167 HD
ATOM     68  C   UNL A   1      43.346  28.574  31.813  1.00  0.00     0.074 A 
ATOM     69  C   UNL A   1      43.700  27.392  31.056  1.00  0.00     0.031 C 
ATOM     70  C   UNL A   1      44.085  29.075  32.831  1.00  0.00     0.031 A 
BRANCH  57  71
ATOM     71  C   UNL A   1      41.808  34.258  35.279  1.00  0.00    -0.014 A 
ATOM     72  C   UNL A   1      41.203  34.230  36.546  1.00  0.00     0.009 A 
ATOM     73  C   UNL A   1      42.633  35.341  34.942  1.00  0.00     0.009 A 
ATOM     74  C   UNL A   1      41.401  35.280  37.445  1.00  0.00     0.001 A 
ATOM     75  C   UNL A   1      42.850  36.377  35.852  1.00  0.00     0.001 A 
ATOM     76  C   UNL A   1      42.228  36.349  37.099  1.00  0.00     0.000 A 
ENDBRANCH  57  71
BRANCH  58  77
ATOM     77  C   UNL A   1      40.458  27.173  28.389  1.00  0.00    -0.014 A 
ATOM     78  C   UNL A   1      40.992  27.350  27.104  1.00  0.00     0.009 A 
ATOM     79  C   UNL A   1      39.735  26.004  28.669  1.00  0.00     0.009 A 
ATOM     80  C   UNL A   1      40.778  26.394  26.110  1.00  0.00     0.001 A 
ATOM     81  C   UNL A   1      39.544  25.036  27.681  1.00  0.00     0.001 A 
ATOM     82  C   UNL A   1      40.056  25.237  26.399  1.00  0.00     0.000 A 
ENDBRANCH  58  77
BRANCH  70  83
ATOM     83  C   UNL A   1      45.327  28.323  33.214  1.00  0.00    -0.014 A 
ATOM     84  C   UNL A   1      46.574  28.644  32.657  1.00  0.00     0.009 A 
ATOM     85  C   UNL A   1      45.250  27.304  34.176  1.00  0.00     0.009 A 
ATOM     86  C   UNL A   1      47.717  27.938  33.036  1.00  0.00     0.001 A 
ATOM     87  C   UNL A   1      46.398  26.618  34.572  1.00  0.00     0.001 A 
ATOM     88  C   UNL A   1      47.629  26.929  33.996  1.00  0.00     0.000 A 
ENDBRANCH  70  83
ENDBRANCH  44  45
ENDBRANCH  36  39
ENDBRANCH  34  35
ENDBRANCH  33  34
ENDBRANCH  32  33
ENDBRANCH   1  32
TORSDOF 16
ENDMDL
MODEL 2
REMARK VINA RESULT:     -11.3      3.413      9.843
REMARK SMILES COc1cc(/N=N/c2ccccc2)ccc1NC(=O)[C@H]1CC=CC[C@@H]1C(=O)NCCCCNC(=O)c1ccc(-c2c3nc(c(-c4ccccc4)c4ccc([nH]4)c(-c4ccccc4)c4nc(c(-c5ccccc5)c5ccc2[nH]5)C=C4)C=C3)cc1
REMARK SMILES IDX 29 1 28 2 26 3 27 4 25 6 20 7 21 8 22 9 24 10 23 11 18 12
REMARK SMILES IDX 17 13 19 15 16 16 3 17 4 18 5 19 15 20 14 21 2 22 1 23 6 24
REMARK SMILES IDX 7 25 8 26 9 27 13 28 10 29 12 30 11 31 30 32 31 33 32 34
REMARK SMILES IDX 33 35 34 36 35 38 36 39 37 40 83 41 38 42 82 43 39 44 40 45
REMARK SMILES IDX 41 46 76 47 42 48 81 49 75 50 77 51 43 52 80 53 74 54 73 55
REMARK SMILES IDX 44 57 66 58 51 59 65 60 52 61 55 62 64 63 78 64 53 65 54 66
REMARK SMILES IDX 63 68 79 69 56 70 45 71 46 72 50 73 47 74 49 75 48 76 67 77
REMARK SMILES IDX 68 78 72 79 69 80 71 81 70 82 57 83 58 84 62 85 59 86 61 87
REMARK SMILES IDX 60 88
REMARK H PARENT 28 5 17 14 33 37 77 56 55 67
REMARK Flexibility Score: inf
ROOT
ATOM      1  C   UNL A   1      36.642  22.358  24.078  1.00  0.00     0.116 C 
ENDROOT
BRANCH   1   2
ATOM      2  N   UNL A   1      35.359  21.800  24.423  1.00  0.00    -0.356 N 
ATOM      3  C   UNL A   1      34.092  22.127  24.047  1.00  0.00     0.224 C 
ATOM      4  O   UNL A   1      33.216  21.370  24.471  1.00  0.00    -0.275 OA
ATOM      5  H   UNL A   1      35.407  21.039  25.046  1.00  0.00     0.163 HD
BRANCH   3   6
ATOM      6  C   UNL A   1      33.775  23.301  23.085  1.00  0.00     0.095 C 
ATOM      7  C   UNL A   1      33.840  24.712  23.720  1.00  0.00     0.095 C 
ATOM      8  C   UNL A   1      32.820  24.762  24.892  1.00  0.00     0.041 C 
ATOM      9  C   UNL A   1      31.472  24.201  24.525  1.00  0.00    -0.030 C 
ATOM     10  C   UNL A   1      32.367  23.083  22.477  1.00  0.00     0.041 C 
ATOM     11  C   UNL A   1      31.260  23.475  23.417  1.00  0.00    -0.030 C 
BRANCH   7  12
ATOM     12  C   UNL A   1      33.554  25.884  22.746  1.00  0.00     0.228 C 
ATOM     13  N   UNL A   1      33.331  27.176  23.117  1.00  0.00    -0.323 N 
ATOM     14  H   UNL A   1      33.291  27.782  22.341  1.00  0.00     0.170 HD
ATOM     15  O   UNL A   1      33.505  25.690  21.523  1.00  0.00    -0.274 OA
BRANCH  13  16
ATOM     16  C   UNL A   1      33.144  27.856  24.327  1.00  0.00     0.083 A 
ATOM     17  C   UNL A   1      31.935  28.532  24.543  1.00  0.00     0.144 A 
ATOM     18  C   UNL A   1      31.820  29.495  25.552  1.00  0.00     0.079 A 
ATOM     19  C   UNL A   1      32.886  29.713  26.428  1.00  0.00     0.090 A 
ATOM     20  C   UNL A   1      34.090  27.907  25.332  1.00  0.00     0.032 A 
ATOM     21  C   UNL A   1      33.982  28.844  26.361  1.00  0.00     0.033 A 
BRANCH  17  22
ATOM     22  O   UNL A   1      30.840  28.302  23.747  1.00  0.00    -0.494 OA
ATOM     23  C   UNL A   1      30.045  29.495  23.651  1.00  0.00     0.278 C 
ENDBRANCH  17  22
BRANCH  19  24
ATOM     24  N   UNL A   1      32.838  30.753  27.380  1.00  0.00    -0.150 NA
ATOM     25  N   UNL A   1      33.839  31.492  27.236  1.00  0.00    -0.151 NA
BRANCH  25  26
ATOM     26  C   UNL A   1      33.957  32.526  28.189  1.00  0.00     0.086 A 
ATOM     27  C   UNL A   1      34.689  32.244  29.352  1.00  0.00     0.030 A 
ATOM     28  C   UNL A   1      33.354  33.787  28.078  1.00  0.00     0.030 A 
ATOM     29  C   UNL A   1      34.827  33.190  30.371  1.00  0.00     0.002 A 
ATOM     30  C   UNL A   1      33.489  34.738  29.096  1.00  0.00     0.002 A 
ATOM     31  C   UNL A   1      34.225  34.439  30.241  1.00  0.00     0.000 A 
ENDBRANCH  25  26
ENDBRANCH  19  24
ENDBRANCH  13  16
ENDBRANCH   7  12
ENDBRANCH   3   6
ENDBRANCH   1   2
BRANCH   1  32
ATOM     32  C   UNL A   1      37.677  22.150  25.180  1.00  0.00     0.023 C 
BRANCH  32  33
ATOM     33  C   UNL A   1      38.423  20.819  25.087  1.00  0.00     0.023 C 
BRANCH  33  34
ATOM     34  C   UNL A   1      39.300  20.488  26.290  1.00  0.00     0.116 C 
BRANCH  34  35
ATOM     35  N   UNL A   1      40.249  19.413  26.042  1.00  0.00    -0.352 N 
ATOM     36  C   UNL A   1      41.624  19.455  26.123  1.00  0.00     0.251 C 
ATOM     37  H   UNL A   1      39.860  18.546  25.782  1.00  0.00     0.163 HD
ATOM     38  O   UNL A   1      42.301  18.497  25.797  1.00  0.00    -0.269 OA
BRANCH  36  39
ATOM     39  C   UNL A   1      42.265  20.709  26.574  1.00  0.00     0.039 A 
ATOM     40  C   UNL A   1      42.791  21.577  25.615  1.00  0.00     0.014 A 
ATOM     41  C   UNL A   1      42.280  21.049  27.928  1.00  0.00     0.014 A 
ATOM     42  C   UNL A   1      43.264  22.830  26.011  1.00  0.00     0.010 A 
ATOM     43  C   UNL A   1      42.687  22.322  28.311  1.00  0.00     0.010 A 
ATOM     44  C   UNL A   1      43.177  23.227  27.355  1.00  0.00    -0.014 A 
BRANCH  44  45
ATOM     45  C   UNL A   1      43.580  24.589  27.784  1.00  0.00     0.031 A 
ATOM     46  C   UNL A   1      42.532  25.623  28.086  1.00  0.00     0.074 A 
ATOM     47  C   UNL A   1      44.886  24.917  27.826  1.00  0.00     0.049 A 
ATOM     48  N   UNL A   1      42.684  26.883  28.405  1.00  0.00    -0.248 NA
ATOM     49  C   UNL A   1      41.126  25.192  27.990  1.00  0.00     0.031 C 
ATOM     50  C   UNL A   1      46.000  24.018  27.512  1.00  0.00     0.029 A 
ATOM     51  N   UNL A   1      45.498  26.104  28.143  1.00  0.00    -0.354 N 
ATOM     52  C   UNL A   1      41.401  27.400  28.520  1.00  0.00     0.074 A 
ATOM     53  C   UNL A   1      40.481  26.331  28.199  1.00  0.00     0.031 C 
ATOM     54  C   UNL A   1      47.159  24.679  27.680  1.00  0.00     0.029 A 
ATOM     55  C   UNL A   1      46.870  26.053  28.075  1.00  0.00     0.049 A 
ATOM     56  H   UNL A   1      45.001  26.915  28.395  1.00  0.00     0.167 HD
ATOM     57  C   UNL A   1      41.021  28.650  28.876  1.00  0.00     0.031 A 
ATOM     58  C   UNL A   1      47.791  27.009  28.304  1.00  0.00     0.031 A 
ATOM     59  C   UNL A   1      41.932  29.704  29.228  1.00  0.00     0.049 A 
ATOM     60  C   UNL A   1      47.338  28.385  28.704  1.00  0.00     0.074 A 
ATOM     61  C   UNL A   1      41.640  30.978  29.682  1.00  0.00     0.029 A 
ATOM     62  N   UNL A   1      43.312  29.606  29.164  1.00  0.00    -0.354 N 
ATOM     63  N   UNL A   1      46.121  28.833  28.888  1.00  0.00    -0.248 NA
ATOM     64  C   UNL A   1      48.391  29.384  28.938  1.00  0.00     0.031 C 
ATOM     65  C   UNL A   1      42.845  31.667  29.852  1.00  0.00     0.029 A 
ATOM     66  C   UNL A   1      43.886  30.806  29.548  1.00  0.00     0.049 A 
ATOM     67  H   UNL A   1      43.811  28.803  28.887  1.00  0.00     0.167 HD
ATOM     68  C   UNL A   1      46.263  30.155  29.290  1.00  0.00     0.074 A 
ATOM     69  C   UNL A   1      47.683  30.432  29.335  1.00  0.00     0.031 C 
ATOM     70  C   UNL A   1      45.302  31.059  29.597  1.00  0.00     0.031 A 
BRANCH  57  71
ATOM     71  C   UNL A   1      39.548  28.947  28.903  1.00  0.00    -0.014 A 
ATOM     72  C   UNL A   1      38.886  29.442  27.769  1.00  0.00     0.009 A 
ATOM     73  C   UNL A   1      38.806  28.683  30.064  1.00  0.00     0.009 A 
ATOM     74  C   UNL A   1      37.513  29.693  27.807  1.00  0.00     0.001 A 
ATOM     75  C   UNL A   1      37.430  28.911  30.092  1.00  0.00     0.001 A 
ATOM     76  C   UNL A   1      36.786  29.423  28.966  1.00  0.00     0.000 A 
ENDBRANCH  57  71
BRANCH  58  77
ATOM     77  C   UNL A   1      49.240  26.701  28.182  1.00  0.00    -0.014 A 
ATOM     78  C   UNL A   1      49.978  26.316  29.312  1.00  0.00     0.009 A 
ATOM     79  C   UNL A   1      49.898  26.821  26.950  1.00  0.00     0.009 A 
ATOM     80  C   UNL A   1      51.352  26.090  29.217  1.00  0.00     0.001 A 
ATOM     81  C   UNL A   1      51.268  26.568  26.851  1.00  0.00     0.001 A 
ATOM     82  C   UNL A   1      51.996  26.213  27.987  1.00  0.00     0.000 A 
ENDBRANCH  58  77
BRANCH  70  83
ATOM     83  C   UNL A   1      45.755  32.417  30.050  1.00  0.00    -0.014 A 
ATOM     84  C   UNL A   1      46.058  32.672  31.396  1.00  0.00     0.009 A 
ATOM     85  C   UNL A   1      45.921  33.442  29.106  1.00  0.00     0.009 A 
ATOM     86  C   UNL A   1      46.489  33.940  31.792  1.00  0.00     0.001 A 
ATOM     87  C   UNL A   1      46.378  34.699  29.500  1.00  0.00     0.001 A 
ATOM     88  C   UNL A   1      46.654  34.950  30.843  1.00  0.00     0.000 A 
ENDBRANCH  70  83
ENDBRANCH  44  45
ENDBRANCH  36  39
ENDBRANCH  34  35
ENDBRANCH  33  34
ENDBRANCH  32  33
ENDBRANCH   1  32
TORSDOF 16
ENDMDL
MODEL 3
REMARK VINA RESULT:     -11.3      0.714      5.677
REMARK SMILES COc1cc(/N=N/c2ccccc2)ccc1NC(=O)[C@H]1CC=CC[C@@H]1C(=O)NCCCCNC(=O)c1ccc(-c2c3nc(c(-c4ccccc4)c4ccc([nH]4)c(-c4ccccc4)c4nc(c(-c5ccccc5)c5ccc2[nH]5)C=C4)C=C3)cc1
REMARK SMILES IDX 29 1 28 2 26 3 27 4 25 6 20 7 21 8 22 9 24 10 23 11 18 12
REMARK SMILES IDX 17 13 19 15 16 16 3 17 4 18 5 19 15 20 14 21 2 22 1 23 6 24
REMARK SMILES IDX 7 25 8 26 9 27 13 28 10 29 12 30 11 31 30 32 31 33 32 34
REMARK SMILES IDX 33 35 34 36 35 38 36 39 37 40 83 41 38 42 82 43 39 44 40 45
REMARK SMILES IDX 41 46 76 47 42 48 81 49 75 50 77 51 43 52 80 53 74 54 73 55
REMARK SMILES IDX 44 57 66 58 51 59 65 60 52 61 55 62 64 63 78 64 53 65 54 66
REMARK SMILES IDX 63 68 79 69 56 70 45 71 46 72 50 73 47 74 49 75 48 76 67 77
REMARK SMILES IDX 68 78 72 79 69 80 71 81 70 82 57 83 58 84 62 85 59 86 61 87
REMARK SMILES IDX 60 88
REMARK H PARENT 28 5 17 14 33 37 77 56 55 67
REMARK Flexibility Score: inf
ROOT
ATOM      1  C   UNL A   1      33.104  28.686  26.971  1.00  0.00     0.116 C 
ENDROOT
BRANCH   1   2
ATOM      2  N   UNL A   1      32.266  28.654  25.799  1.00  0.00    -0.356 N 
ATOM      3  C   UNL A   1      31.412  27.710  25.315  1.00  0.00     0.224 C 
ATOM      4  O   UNL A   1      30.777  28.054  24.314  1.00  0.00    -0.275 OA
ATOM      5  H   UNL A   1      32.320  29.466  25.245  1.00  0.00     0.163 HD
BRANCH   3   6
ATOM      6  C   UNL A   1      31.180  26.346  26.012  1.00  0.00     0.095 C 
ATOM      7  C   UNL A   1      32.381  25.368  25.968  1.00  0.00     0.095 C 
ATOM      8  C   UNL A   1      32.726  25.093  24.477  1.00  0.00     0.041 C 
ATOM      9  C   UNL A   1      31.515  24.781  23.639  1.00  0.00    -0.030 C 
ATOM     10  C   UNL A   1      29.945  25.661  25.374  1.00  0.00     0.041 C 
ATOM     11  C   UNL A   1      30.261  25.003  24.058  1.00  0.00    -0.030 C 
BRANCH   7  12
ATOM     12  C   UNL A   1      32.155  24.018  26.695  1.00  0.00     0.228 C 
ATOM     13  N   UNL A   1      33.057  22.998  26.757  1.00  0.00    -0.323 N 
ATOM     14  H   UNL A   1      32.765  22.282  27.366  1.00  0.00     0.170 HD
ATOM     15  O   UNL A   1      31.086  23.787  27.279  1.00  0.00    -0.274 OA
BRANCH  13  16
ATOM     16  C   UNL A   1      34.296  22.716  26.166  1.00  0.00     0.083 A 
ATOM     17  C   UNL A   1      34.464  21.495  25.500  1.00  0.00     0.144 A 
ATOM     18  C   UNL A   1      35.742  21.011  25.199  1.00  0.00     0.079 A 
ATOM     19  C   UNL A   1      36.864  21.799  25.466  1.00  0.00     0.090 A 
ATOM     20  C   UNL A   1      35.376  23.575  26.205  1.00  0.00     0.032 A 
ATOM     21  C   UNL A   1      36.657  23.119  25.886  1.00  0.00     0.033 A 
BRANCH  17  22
ATOM     22  O   UNL A   1      33.385  20.716  25.158  1.00  0.00    -0.494 OA
ATOM     23  C   UNL A   1      33.837  19.457  24.634  1.00  0.00     0.278 C 
ENDBRANCH  17  22
BRANCH  19  24
ATOM     24  N   UNL A   1      38.166  21.291  25.276  1.00  0.00    -0.150 NA
ATOM     25  N   UNL A   1      38.889  21.637  26.239  1.00  0.00    -0.151 NA
BRANCH  25  26
ATOM     26  C   UNL A   1      40.245  21.266  26.127  1.00  0.00     0.086 A 
ATOM     27  C   UNL A   1      40.534  19.893  26.109  1.00  0.00     0.030 A 
ATOM     28  C   UNL A   1      41.320  22.166  26.086  1.00  0.00     0.030 A 
ATOM     29  C   UNL A   1      41.850  19.428  26.044  1.00  0.00     0.002 A 
ATOM     30  C   UNL A   1      42.639  21.705  26.020  1.00  0.00     0.002 A 
ATOM     31  C   UNL A   1      42.903  20.337  25.998  1.00  0.00     0.000 A 
ENDBRANCH  25  26
ENDBRANCH  19  24
ENDBRANCH  13  16
ENDBRANCH   7  12
ENDBRANCH   3   6
ENDBRANCH   1   2
BRANCH   1  32
ATOM     32  C   UNL A   1      33.867  30.000  27.099  1.00  0.00     0.023 C 
BRANCH  32  33
ATOM     33  C   UNL A   1      32.985  31.199  27.448  1.00  0.00     0.023 C 
BRANCH  33  34
ATOM     34  C   UNL A   1      33.635  32.561  27.230  1.00  0.00     0.116 C 
BRANCH  34  35
ATOM     35  N   UNL A   1      32.994  33.638  27.970  1.00  0.00    -0.352 N 
ATOM     36  C   UNL A   1      33.408  34.226  29.146  1.00  0.00     0.251 C 
ATOM     37  H   UNL A   1      32.160  33.990  27.584  1.00  0.00     0.163 HD
ATOM     38  O   UNL A   1      32.719  35.061  29.705  1.00  0.00    -0.269 OA
BRANCH  36  39
ATOM     39  C   UNL A   1      34.688  33.788  29.742  1.00  0.00     0.039 A 
ATOM     40  C   UNL A   1      34.660  32.880  30.801  1.00  0.00     0.014 A 
ATOM     41  C   UNL A   1      35.903  34.221  29.205  1.00  0.00     0.014 A 
ATOM     42  C   UNL A   1      35.859  32.342  31.275  1.00  0.00     0.010 A 
ATOM     43  C   UNL A   1      37.089  33.633  29.632  1.00  0.00     0.010 A 
ATOM     44  C   UNL A   1      37.077  32.684  30.666  1.00  0.00    -0.014 A 
BRANCH  44  45
ATOM     45  C   UNL A   1      38.352  32.051  31.084  1.00  0.00     0.031 A 
ATOM     46  C   UNL A   1      38.849  30.820  30.379  1.00  0.00     0.074 A 
ATOM     47  C   UNL A   1      39.022  32.538  32.147  1.00  0.00     0.049 A 
ATOM     48  N   UNL A   1      39.898  30.085  30.643  1.00  0.00    -0.248 NA
ATOM     49  C   UNL A   1      38.044  30.335  29.244  1.00  0.00     0.031 C 
ATOM     50  C   UNL A   1      38.623  33.700  32.947  1.00  0.00     0.029 A 
ATOM     51  N   UNL A   1      40.181  32.108  32.745  1.00  0.00    -0.354 N 
ATOM     52  C   UNL A   1      39.865  29.040  29.729  1.00  0.00     0.074 A 
ATOM     53  C   UNL A   1      38.673  29.212  28.929  1.00  0.00     0.031 C 
ATOM     54  C   UNL A   1      39.536  33.905  33.911  1.00  0.00     0.029 A 
ATOM     55  C   UNL A   1      40.562  32.872  33.822  1.00  0.00     0.049 A 
ATOM     56  H   UNL A   1      40.690  31.326  32.433  1.00  0.00     0.167 HD
ATOM     57  C   UNL A   1      40.756  28.035  29.561  1.00  0.00     0.031 A 
ATOM     58  C   UNL A   1      41.620  32.750  34.648  1.00  0.00     0.031 A 
ATOM     59  C   UNL A   1      41.959  27.881  30.333  1.00  0.00     0.049 A 
ATOM     60  C   UNL A   1      42.595  31.628  34.431  1.00  0.00     0.074 A 
ATOM     61  C   UNL A   1      42.965  26.942  30.181  1.00  0.00     0.029 A 
ATOM     62  N   UNL A   1      42.317  28.686  31.402  1.00  0.00    -0.354 N 
ATOM     63  N   UNL A   1      42.592  30.696  33.510  1.00  0.00    -0.248 NA
ATOM     64  C   UNL A   1      43.728  31.548  35.366  1.00  0.00     0.031 C 
ATOM     65  C   UNL A   1      43.913  27.153  31.188  1.00  0.00     0.029 A 
ATOM     66  C   UNL A   1      43.519  28.251  31.934  1.00  0.00     0.049 A 
ATOM     67  H   UNL A   1      41.796  29.452  31.733  1.00  0.00     0.167 HD
ATOM     68  C   UNL A   1      43.736  29.940  33.734  1.00  0.00     0.074 A 
ATOM     69  C   UNL A   1      44.414  30.529  34.869  1.00  0.00     0.031 C 
ATOM     70  C   UNL A   1      44.185  28.856  33.057  1.00  0.00     0.031 A 
BRANCH  57  71
ATOM     71  C   UNL A   1      40.462  27.016  28.496  1.00  0.00    -0.014 A 
ATOM     72  C   UNL A   1      39.630  25.916  28.753  1.00  0.00     0.009 A 
ATOM     73  C   UNL A   1      40.987  27.187  27.207  1.00  0.00     0.009 A 
ATOM     74  C   UNL A   1      39.352  24.991  27.745  1.00  0.00     0.001 A 
ATOM     75  C   UNL A   1      40.686  26.275  26.194  1.00  0.00     0.001 A 
ATOM     76  C   UNL A   1      39.876  25.174  26.466  1.00  0.00     0.000 A 
ENDBRANCH  57  71
BRANCH  58  77
ATOM     77  C   UNL A   1      41.832  33.728  35.747  1.00  0.00    -0.014 A 
ATOM     78  C   UNL A   1      42.514  34.929  35.503  1.00  0.00     0.009 A 
ATOM     79  C   UNL A   1      41.384  33.453  37.048  1.00  0.00     0.009 A 
ATOM     80  C   UNL A   1      42.774  35.821  36.546  1.00  0.00     0.001 A 
ATOM     81  C   UNL A   1      41.621  34.358  38.084  1.00  0.00     0.001 A 
ATOM     82  C   UNL A   1      42.326  35.536  37.835  1.00  0.00     0.000 A 
ENDBRANCH  58  77
BRANCH  70  83
ATOM     83  C   UNL A   1      45.491  28.264  33.500  1.00  0.00    -0.014 A 
ATOM     84  C   UNL A   1      45.540  27.240  34.458  1.00  0.00     0.009 A 
ATOM     85  C   UNL A   1      46.687  28.711  32.917  1.00  0.00     0.009 A 
ATOM     86  C   UNL A   1      46.766  26.696  34.846  1.00  0.00     0.001 A 
ATOM     87  C   UNL A   1      47.908  28.148  33.288  1.00  0.00     0.001 A 
ATOM     88  C   UNL A   1      47.948  27.147  34.257  1.00  0.00     0.000 A 
ENDBRANCH  70  83
ENDBRANCH  44  45
ENDBRANCH  36  39
ENDBRANCH  34  35
ENDBRANCH  33  34
ENDBRANCH  32  33
ENDBRANCH   1  32
TORSDOF 16
ENDMDL
