MODEL 1
REMARK VINA RESULT:     -10.5      0.000      0.000
REMARK SMILES C=CCN(CC(=O)NCCCCNC(=O)c1ccc(-c2c3nc(c(-c4ccccc4)c4ccc([nH]4)c(-c4ccccc4)c4nc(c(-c5ccccc5)c5ccc2[nH]5)C=C4)C=C3)cc1)C(=O)N1CC[C@@H]([NH+]2CCCCC2)C1
REMARK SMILES IDX 9 1 8 2 6 3 7 4 5 6 4 7 3 8 2 9 1 10 64 11 65 12 66 13 67 14
REMARK SMILES IDX 76 15 68 16 69 17 70 18 71 19 75 20 72 22 74 23 73 24 10 25
REMARK SMILES IDX 11 26 12 27 13 28 14 29 15 31 16 32 17 33 63 34 18 35 62 36
REMARK SMILES IDX 19 37 20 38 21 39 56 40 22 41 61 42 55 43 57 44 23 45 60 46
REMARK SMILES IDX 54 47 53 48 24 50 46 51 31 52 45 53 32 54 35 55 44 56 58 57
REMARK SMILES IDX 33 58 34 59 43 61 59 62 36 63 25 64 26 65 30 66 27 67 29 68
REMARK SMILES IDX 28 69 47 70 48 71 52 72 49 73 51 74 50 75 37 76 38 77 42 78
REMARK SMILES IDX 39 79 41 80 40 81
REMARK H PARENT 8 5 70 21 13 30 57 49 35 60
REMARK Flexibility Score: inf
ROOT
ATOM      1  C   UNL A   1      36.020  22.111  25.505  1.00  0.00     0.116 C 
ENDROOT
BRANCH   1   2
ATOM      2  N   UNL A   1      35.783  23.531  25.592  1.00  0.00    -0.355 N 
ATOM      3  C   UNL A   1      34.952  24.325  24.858  1.00  0.00     0.239 C 
ATOM      4  O   UNL A   1      34.653  25.415  25.363  1.00  0.00    -0.273 OA
ATOM      5  H   UNL A   1      36.299  23.998  26.289  1.00  0.00     0.163 HD
BRANCH   3   6
ATOM      6  C   UNL A   1      34.339  23.910  23.498  1.00  0.00     0.221 C 
BRANCH   6   7
ATOM      7  N   UNL A   1      32.915  24.152  23.180  1.00  0.00    -0.312 N 
BRANCH   7   8
ATOM      8  C   UNL A   1      32.636  25.152  22.156  1.00  0.00     0.149 C 
BRANCH   8   9
ATOM      9  C   UNL A   1      32.611  26.545  22.704  1.00  0.00    -0.013 C 
ATOM     10  C   UNL A   1      33.566  27.443  22.427  1.00  0.00     0.006 C 
ENDBRANCH   8   9
ENDBRANCH   7   8
BRANCH   7  11
ATOM     11  C   UNL A   1      31.854  23.333  23.589  1.00  0.00     0.320 C 
ATOM     12  O   UNL A   1      30.675  23.675  23.501  1.00  0.00    -0.248 OA
BRANCH  11  13
ATOM     13  N   UNL A   1      32.163  22.088  24.058  1.00  0.00    -0.318 N 
ATOM     14  C   UNL A   1      31.812  21.583  25.345  1.00  0.00     0.128 C 
ATOM     15  C   UNL A   1      32.527  20.936  23.229  1.00  0.00     0.186 C 
ATOM     16  C   UNL A   1      32.950  20.631  25.595  1.00  0.00     0.088 C 
ATOM     17  C   UNL A   1      33.027  19.854  24.267  1.00  0.00     0.205 C 
BRANCH  17  18
ATOM     18  N   UNL A   1      32.350  18.539  24.228  1.00  0.00    -0.331 N 
ATOM     19  C   UNL A   1      32.527  17.626  25.361  1.00  0.00     0.262 C 
ATOM     20  C   UNL A   1      32.532  17.806  22.965  1.00  0.00     0.262 C 
ATOM     21  H   UNL A   1      31.384  18.857  24.311  1.00  0.00     0.348 HD
ATOM     22  C   UNL A   1      33.842  16.836  25.381  1.00  0.00     0.062 C 
ATOM     23  C   UNL A   1      33.866  17.074  22.823  1.00  0.00     0.062 C 
ATOM     24  C   UNL A   1      34.211  16.213  24.037  1.00  0.00     0.012 C 
ENDBRANCH  17  18
ENDBRANCH  11  13
ENDBRANCH   7  11
ENDBRANCH   6   7
ENDBRANCH   3   6
ENDBRANCH   1   2
BRANCH   1  25
ATOM     25  C   UNL A   1      37.032  21.703  24.438  1.00  0.00     0.023 C 
BRANCH  25  26
ATOM     26  C   UNL A   1      37.775  20.387  24.687  1.00  0.00     0.023 C 
BRANCH  26  27
ATOM     27  C   UNL A   1      38.697  20.352  25.900  1.00  0.00     0.116 C 
BRANCH  27  28
ATOM     28  N   UNL A   1      39.792  19.401  25.780  1.00  0.00    -0.352 N 
ATOM     29  C   UNL A   1      41.128  19.580  26.042  1.00  0.00     0.251 C 
ATOM     30  H   UNL A   1      39.538  18.503  25.468  1.00  0.00     0.163 HD
ATOM     31  O   UNL A   1      41.927  18.676  25.807  1.00  0.00    -0.269 OA
BRANCH  29  32
ATOM     32  C   UNL A   1      41.615  20.875  26.565  1.00  0.00     0.039 A 
ATOM     33  C   UNL A   1      42.093  21.826  25.661  1.00  0.00     0.014 A 
ATOM     34  C   UNL A   1      41.581  21.161  27.932  1.00  0.00     0.014 A 
ATOM     35  C   UNL A   1      42.465  23.093  26.120  1.00  0.00     0.010 A 
ATOM     36  C   UNL A   1      41.880  22.446  28.378  1.00  0.00     0.010 A 
ATOM     37  C   UNL A   1      42.320  23.428  27.476  1.00  0.00    -0.014 A 
BRANCH  37  38
ATOM     38  C   UNL A   1      42.613  24.799  27.967  1.00  0.00     0.031 A 
ATOM     39  C   UNL A   1      44.017  25.185  28.349  1.00  0.00     0.074 A 
ATOM     40  C   UNL A   1      41.607  25.682  28.122  1.00  0.00     0.049 A 
ATOM     41  N   UNL A   1      44.456  26.312  28.852  1.00  0.00    -0.248 NA
ATOM     42  C   UNL A   1      45.062  24.164  28.162  1.00  0.00     0.031 C 
ATOM     43  C   UNL A   1      40.197  25.426  27.819  1.00  0.00     0.029 A 
ATOM     44  N   UNL A   1      41.616  26.978  28.579  1.00  0.00    -0.354 N 
ATOM     45  C   UNL A   1      45.819  26.133  29.048  1.00  0.00     0.074 A 
ATOM     46  C   UNL A   1      46.127  24.773  28.663  1.00  0.00     0.031 C 
ATOM     47  C   UNL A   1      39.484  26.537  28.069  1.00  0.00     0.029 A 
ATOM     48  C   UNL A   1      40.374  27.567  28.593  1.00  0.00     0.049 A 
ATOM     49  H   UNL A   1      42.435  27.441  28.869  1.00  0.00     0.167 HD
ATOM     50  C   UNL A   1      46.738  27.026  29.485  1.00  0.00     0.031 A 
ATOM     51  C   UNL A   1      39.993  28.794  28.994  1.00  0.00     0.031 A 
ATOM     52  C   UNL A   1      46.436  28.381  29.864  1.00  0.00     0.049 A 
ATOM     53  C   UNL A   1      41.031  29.753  29.516  1.00  0.00     0.074 A 
ATOM     54  C   UNL A   1      47.306  29.372  30.284  1.00  0.00     0.029 A 
ATOM     55  N   UNL A   1      45.166  28.934  29.869  1.00  0.00    -0.354 N 
ATOM     56  N   UNL A   1      42.325  29.586  29.635  1.00  0.00    -0.248 NA
ATOM     57  C   UNL A   1      40.551  31.073  29.948  1.00  0.00     0.031 C 
ATOM     58  C   UNL A   1      46.556  30.509  30.595  1.00  0.00     0.029 A 
ATOM     59  C   UNL A   1      45.227  30.247  30.307  1.00  0.00     0.049 A 
ATOM     60  H   UNL A   1      44.343  28.465  29.601  1.00  0.00     0.167 HD
ATOM     61  C   UNL A   1      42.819  30.791  30.121  1.00  0.00     0.074 A 
ATOM     62  C   UNL A   1      41.687  31.684  30.255  1.00  0.00     0.031 C 
ATOM     63  C   UNL A   1      44.095  31.127  30.427  1.00  0.00     0.031 A 
BRANCH  50  64
ATOM     64  C   UNL A   1      48.167  26.567  29.577  1.00  0.00    -0.014 A 
ATOM     65  C   UNL A   1      49.065  26.775  28.516  1.00  0.00     0.009 A 
ATOM     66  C   UNL A   1      48.638  25.971  30.756  1.00  0.00     0.009 A 
ATOM     67  C   UNL A   1      50.396  26.368  28.626  1.00  0.00     0.001 A 
ATOM     68  C   UNL A   1      49.977  25.593  30.875  1.00  0.00     0.001 A 
ATOM     69  C   UNL A   1      50.852  25.784  29.807  1.00  0.00     0.000 A 
ENDBRANCH  50  64
BRANCH  51  70
ATOM     70  C   UNL A   1      38.564  29.204  28.921  1.00  0.00    -0.014 A 
ATOM     71  C   UNL A   1      38.027  29.714  27.728  1.00  0.00     0.009 A 
ATOM     72  C   UNL A   1      37.740  29.130  30.055  1.00  0.00     0.009 A 
ATOM     73  C   UNL A   1      36.711  30.179  27.683  1.00  0.00     0.001 A 
ATOM     74  C   UNL A   1      36.413  29.562  29.998  1.00  0.00     0.001 A 
ATOM     75  C   UNL A   1      35.904  30.101  28.818  1.00  0.00     0.000 A 
ENDBRANCH  51  70
BRANCH  63  76
ATOM     76  C   UNL A   1      44.344  32.537  30.888  1.00  0.00    -0.014 A 
ATOM     77  C   UNL A   1      44.335  32.875  32.251  1.00  0.00     0.009 A 
ATOM     78  C   UNL A   1      44.630  33.534  29.942  1.00  0.00     0.009 A 
ATOM     79  C   UNL A   1      44.569  34.192  32.651  1.00  0.00     0.001 A 
ATOM     80  C   UNL A   1      44.898  34.841  30.348  1.00  0.00     0.001 A 
ATOM     81  C   UNL A   1      44.856  35.172  31.701  1.00  0.00     0.000 A 
ENDBRANCH  63  76
ENDBRANCH  37  38
ENDBRANCH  29  32
ENDBRANCH  27  28
ENDBRANCH  26  27
ENDBRANCH  25  26
ENDBRANCH   1  25
TORSDOF 17
ENDMDL
MODEL 2
REMARK VINA RESULT:     -10.4      0.412      5.874
REMARK SMILES C=CCN(CC(=O)NCCCCNC(=O)c1ccc(-c2c3nc(c(-c4ccccc4)c4ccc([nH]4)c(-c4ccccc4)c4nc(c(-c5ccccc5)c5ccc2[nH]5)C=C4)C=C3)cc1)C(=O)N1CC[C@@H]([NH+]2CCCCC2)C1
REMARK SMILES IDX 9 1 8 2 6 3 7 4 5 6 4 7 3 8 2 9 1 10 64 11 65 12 66 13 67 14
REMARK SMILES IDX 76 15 68 16 69 17 70 18 71 19 75 20 72 22 74 23 73 24 10 25
REMARK SMILES IDX 11 26 12 27 13 28 14 29 15 31 16 32 17 33 63 34 18 35 62 36
REMARK SMILES IDX 19 37 20 38 21 39 56 40 22 41 61 42 55 43 57 44 23 45 60 46
REMARK SMILES IDX 54 47 53 48 24 50 46 51 31 52 45 53 32 54 35 55 44 56 58 57
REMARK SMILES IDX 33 58 34 59 43 61 59 62 36 63 25 64 26 65 30 66 27 67 29 68
REMARK SMILES IDX 28 69 47 70 48 71 52 72 49 73 51 74 50 75 37 76 38 77 42 78
REMARK SMILES IDX 39 79 41 80 40 81
REMARK H PARENT 8 5 70 21 13 30 57 49 35 60
REMARK Flexibility Score: inf
ROOT
ATOM      1  C   UNL A   1      35.934  22.151  25.569  1.00  0.00     0.116 C 
ENDROOT
BRANCH   1   2
ATOM      2  N   UNL A   1      35.716  23.571  25.702  1.00  0.00    -0.355 N 
ATOM      3  C   UNL A   1      34.847  24.388  25.041  1.00  0.00     0.239 C 
ATOM      4  O   UNL A   1      34.592  25.469  25.588  1.00  0.00    -0.273 OA
ATOM      5  H   UNL A   1      36.281  24.018  26.374  1.00  0.00     0.163 HD
BRANCH   3   6
ATOM      6  C   UNL A   1      34.142  24.008  23.715  1.00  0.00     0.221 C 
BRANCH   6   7
ATOM      7  N   UNL A   1      32.702  24.264  23.499  1.00  0.00    -0.312 N 
BRANCH   7   8
ATOM      8  C   UNL A   1      32.354  25.528  22.859  1.00  0.00     0.149 C 
BRANCH   8   9
ATOM      9  C   UNL A   1      33.538  26.202  22.238  1.00  0.00    -0.013 C 
ATOM     10  C   UNL A   1      33.671  27.536  22.209  1.00  0.00     0.006 C 
ENDBRANCH   8   9
ENDBRANCH   7   8
BRANCH   7  11
ATOM     11  C   UNL A   1      31.692  23.301  23.619  1.00  0.00     0.320 C 
ATOM     12  O   UNL A   1      30.513  23.535  23.357  1.00  0.00    -0.248 OA
BRANCH  11  13
ATOM     13  N   UNL A   1      32.062  22.043  24.001  1.00  0.00    -0.318 N 
ATOM     14  C   UNL A   1      31.810  21.464  25.279  1.00  0.00     0.128 C 
ATOM     15  C   UNL A   1      32.397  20.945  23.091  1.00  0.00     0.186 C 
ATOM     16  C   UNL A   1      32.985  20.532  25.404  1.00  0.00     0.088 C 
ATOM     17  C   UNL A   1      32.992  19.827  24.035  1.00  0.00     0.205 C 
BRANCH  17  18
ATOM     18  N   UNL A   1      32.346  18.497  23.972  1.00  0.00    -0.331 N 
ATOM     19  C   UNL A   1      32.278  17.692  25.195  1.00  0.00     0.262 C 
ATOM     20  C   UNL A   1      32.802  17.660  22.851  1.00  0.00     0.262 C 
ATOM     21  H   UNL A   1      31.384  18.797  23.814  1.00  0.00     0.348 HD
ATOM     22  C   UNL A   1      33.560  16.940  25.571  1.00  0.00     0.062 C 
ATOM     23  C   UNL A   1      34.139  16.951  23.068  1.00  0.00     0.062 C 
ATOM     24  C   UNL A   1      34.216  16.210  24.403  1.00  0.00     0.012 C 
ENDBRANCH  17  18
ENDBRANCH  11  13
ENDBRANCH   7  11
ENDBRANCH   6   7
ENDBRANCH   3   6
ENDBRANCH   1   2
BRANCH   1  25
ATOM     25  C   UNL A   1      36.932  21.764  24.480  1.00  0.00     0.023 C 
BRANCH  25  26
ATOM     26  C   UNL A   1      37.775  20.516  24.756  1.00  0.00     0.023 C 
BRANCH  26  27
ATOM     27  C   UNL A   1      38.854  20.654  25.824  1.00  0.00     0.116 C 
BRANCH  27  28
ATOM     28  N   UNL A   1      39.886  19.630  25.753  1.00  0.00    -0.352 N 
ATOM     29  C   UNL A   1      41.218  19.716  26.078  1.00  0.00     0.251 C 
ATOM     30  H   UNL A   1      39.586  18.751  25.427  1.00  0.00     0.163 HD
ATOM     31  O   UNL A   1      41.963  18.759  25.878  1.00  0.00    -0.269 OA
BRANCH  29  32
ATOM     32  C   UNL A   1      41.767  20.975  26.627  1.00  0.00     0.039 A 
ATOM     33  C   UNL A   1      42.234  21.947  25.739  1.00  0.00     0.014 A 
ATOM     34  C   UNL A   1      41.803  21.209  28.004  1.00  0.00     0.014 A 
ATOM     35  C   UNL A   1      42.665  23.183  26.228  1.00  0.00     0.010 A 
ATOM     36  C   UNL A   1      42.160  22.466  28.484  1.00  0.00     0.010 A 
ATOM     37  C   UNL A   1      42.590  23.469  27.601  1.00  0.00    -0.014 A 
BRANCH  37  38
ATOM     38  C   UNL A   1      42.947  24.811  28.129  1.00  0.00     0.031 A 
ATOM     39  C   UNL A   1      41.881  25.853  28.337  1.00  0.00     0.074 A 
ATOM     40  C   UNL A   1      44.239  25.112  28.371  1.00  0.00     0.049 A 
ATOM     41  N   UNL A   1      42.007  27.095  28.732  1.00  0.00    -0.248 NA
ATOM     42  C   UNL A   1      40.494  25.455  28.042  1.00  0.00     0.031 C 
ATOM     43  C   UNL A   1      45.373  24.204  28.181  1.00  0.00     0.029 A 
ATOM     44  N   UNL A   1      44.817  26.272  28.825  1.00  0.00    -0.354 N 
ATOM     45  C   UNL A   1      40.723  27.626  28.725  1.00  0.00     0.074 A 
ATOM     46  C   UNL A   1      39.840  26.591  28.234  1.00  0.00     0.031 C 
ATOM     47  C   UNL A   1      46.504  24.831  28.545  1.00  0.00     0.029 A 
ATOM     48  C   UNL A   1      46.184  26.197  28.948  1.00  0.00     0.049 A 
ATOM     49  H   UNL A   1      44.300  27.082  29.042  1.00  0.00     0.167 HD
ATOM     50  C   UNL A   1      40.311  28.855  29.114  1.00  0.00     0.031 A 
ATOM     51  C   UNL A   1      47.080  27.125  29.331  1.00  0.00     0.031 A 
ATOM     52  C   UNL A   1      41.186  29.886  29.607  1.00  0.00     0.049 A 
ATOM     53  C   UNL A   1      46.597  28.498  29.719  1.00  0.00     0.074 A 
ATOM     54  C   UNL A   1      40.856  31.151  30.061  1.00  0.00     0.029 A 
ATOM     55  N   UNL A   1      42.562  29.770  29.710  1.00  0.00    -0.354 N 
ATOM     56  N   UNL A   1      45.372  28.961  29.764  1.00  0.00    -0.248 NA
ATOM     57  C   UNL A   1      47.624  29.471  30.117  1.00  0.00     0.031 C 
ATOM     58  C   UNL A   1      42.039  31.820  30.388  1.00  0.00     0.029 A 
ATOM     59  C   UNL A   1      43.099  30.949  30.199  1.00  0.00     0.049 A 
ATOM     60  H   UNL A   1      43.083  28.968  29.471  1.00  0.00     0.167 HD
ATOM     61  C   UNL A   1      45.478  30.265  30.231  1.00  0.00     0.074 A 
ATOM     62  C   UNL A   1      46.885  30.512  30.471  1.00  0.00     0.031 C 
ATOM     63  C   UNL A   1      44.499  31.177  30.442  1.00  0.00     0.031 A 
BRANCH  50  64
ATOM     64  C   UNL A   1      38.840  29.158  29.025  1.00  0.00    -0.014 A 
ATOM     65  C   UNL A   1      37.997  28.987  30.135  1.00  0.00     0.009 A 
ATOM     66  C   UNL A   1      38.301  29.673  27.837  1.00  0.00     0.009 A 
ATOM     67  C   UNL A   1      36.638  29.297  30.047  1.00  0.00     0.001 A 
ATOM     68  C   UNL A   1      36.948  30.012  27.760  1.00  0.00     0.001 A 
ATOM     69  C   UNL A   1      36.118  29.816  28.862  1.00  0.00     0.000 A 
ENDBRANCH  50  64
BRANCH  51  70
ATOM     70  C   UNL A   1      48.533  26.802  29.375  1.00  0.00    -0.014 A 
ATOM     71  C   UNL A   1      49.344  27.004  28.247  1.00  0.00     0.009 A 
ATOM     72  C   UNL A   1      49.107  26.248  30.529  1.00  0.00     0.009 A 
ATOM     73  C   UNL A   1      50.687  26.621  28.260  1.00  0.00     0.001 A 
ATOM     74  C   UNL A   1      50.459  25.898  30.552  1.00  0.00     0.001 A 
ATOM     75  C   UNL A   1      51.244  26.070  29.413  1.00  0.00     0.000 A 
ENDBRANCH  51  70
BRANCH  63  76
ATOM     76  C   UNL A   1      44.907  32.509  31.009  1.00  0.00    -0.014 A 
ATOM     77  C   UNL A   1      44.988  32.723  32.394  1.00  0.00     0.009 A 
ATOM     78  C   UNL A   1      45.254  33.554  30.138  1.00  0.00     0.009 A 
ATOM     79  C   UNL A   1      45.370  33.970  32.893  1.00  0.00     0.001 A 
ATOM     80  C   UNL A   1      45.668  34.788  30.640  1.00  0.00     0.001 A 
ATOM     81  C   UNL A   1      45.716  34.999  32.017  1.00  0.00     0.000 A 
ENDBRANCH  63  76
ENDBRANCH  37  38
ENDBRANCH  29  32
ENDBRANCH  27  28
ENDBRANCH  26  27
ENDBRANCH  25  26
ENDBRANCH   1  25
TORSDOF 17
ENDMDL
MODEL 3
REMARK VINA RESULT:     -10.4      1.770      4.147
REMARK SMILES C=CCN(CC(=O)NCCCCNC(=O)c1ccc(-c2c3nc(c(-c4ccccc4)c4ccc([nH]4)c(-c4ccccc4)c4nc(c(-c5ccccc5)c5ccc2[nH]5)C=C4)C=C3)cc1)C(=O)N1CC[C@@H]([NH+]2CCCCC2)C1
REMARK SMILES IDX 9 1 8 2 6 3 7 4 5 6 4 7 3 8 2 9 1 10 64 11 65 12 66 13 67 14
REMARK SMILES IDX 76 15 68 16 69 17 70 18 71 19 75 20 72 22 74 23 73 24 10 25
REMARK SMILES IDX 11 26 12 27 13 28 14 29 15 31 16 32 17 33 63 34 18 35 62 36
REMARK SMILES IDX 19 37 20 38 21 39 56 40 22 41 61 42 55 43 57 44 23 45 60 46
REMARK SMILES IDX 54 47 53 48 24 50 46 51 31 52 45 53 32 54 35 55 44 56 58 57
REMARK SMILES IDX 33 58 34 59 43 61 59 62 36 63 25 64 26 65 30 66 27 67 29 68
REMARK SMILES IDX 28 69 47 70 48 71 52 72 49 73 51 74 50 75 37 76 38 77 42 78
REMARK SMILES IDX 39 79 41 80 40 81
REMARK H PARENT 8 5 70 21 13 30 57 49 35 60
REMARK Flexibility Score: inf
ROOT
ATOM      1  C   UNL A   1      37.896  23.422  26.076  1.00  0.00     0.116 C 
ENDROOT
BRANCH   1   2
ATOM      2  N   UNL A   1      37.581  23.364  24.670  1.00  0.00    -0.355 N 
ATOM      3  C   UNL A   1      36.536  22.762  24.033  1.00  0.00     0.239 C 
ATOM      4  O   UNL A   1      36.291  23.166  22.889  1.00  0.00    -0.273 OA
ATOM      5  H   UNL A   1      38.217  23.830  24.081  1.00  0.00     0.163 HD
BRANCH   3   6
ATOM      6  C   UNL A   1      35.637  21.679  24.679  1.00  0.00     0.221 C 
BRANCH   6   7
ATOM      7  N   UNL A   1      34.169  21.837  24.765  1.00  0.00    -0.312 N 
BRANCH   7   8
ATOM      8  C   UNL A   1      33.365  20.827  24.087  1.00  0.00     0.149 C 
BRANCH   8   9
ATOM      9  C   UNL A   1      33.538  19.463  24.678  1.00  0.00    -0.013 C 
ATOM     10  C   UNL A   1      32.550  18.556  24.694  1.00  0.00     0.006 C 
ENDBRANCH   8   9
ENDBRANCH   7   8
BRANCH   7  11
ATOM     11  C   UNL A   1      33.508  22.709  25.641  1.00  0.00     0.320 C 
ATOM     12  O   UNL A   1      33.063  22.348  26.730  1.00  0.00    -0.248 OA
BRANCH  11  13
ATOM     13  N   UNL A   1      33.407  24.019  25.270  1.00  0.00    -0.318 N 
ATOM     14  C   UNL A   1      33.209  24.484  23.936  1.00  0.00     0.128 C 
ATOM     15  C   UNL A   1      33.077  25.131  26.165  1.00  0.00     0.186 C 
ATOM     16  C   UNL A   1      33.905  25.816  23.995  1.00  0.00     0.088 C 
ATOM     17  C   UNL A   1      33.347  26.422  25.297  1.00  0.00     0.205 C 
BRANCH  17  18
ATOM     18  N   UNL A   1      32.220  27.371  25.155  1.00  0.00    -0.331 N 
ATOM     19  C   UNL A   1      32.509  28.742  24.725  1.00  0.00     0.262 C 
ATOM     20  C   UNL A   1      31.305  27.393  26.308  1.00  0.00     0.262 C 
ATOM     21  H   UNL A   1      31.758  26.948  24.351  1.00  0.00     0.348 HD
ATOM     22  C   UNL A   1      33.036  29.686  25.814  1.00  0.00     0.062 C 
ATOM     23  C   UNL A   1      31.787  28.211  27.507  1.00  0.00     0.062 C 
ATOM     24  C   UNL A   1      32.259  29.614  27.126  1.00  0.00     0.012 C 
ENDBRANCH  17  18
ENDBRANCH  11  13
ENDBRANCH   7  11
ENDBRANCH   6   7
ENDBRANCH   3   6
ENDBRANCH   1   2
BRANCH   1  25
ATOM     25  C   UNL A   1      39.161  22.666  26.474  1.00  0.00     0.023 C 
BRANCH  25  26
ATOM     26  C   UNL A   1      39.367  21.305  25.803  1.00  0.00     0.023 C 
BRANCH  26  27
ATOM     27  C   UNL A   1      40.109  20.255  26.622  1.00  0.00     0.116 C 
BRANCH  27  28
ATOM     28  N   UNL A   1      41.279  19.706  25.952  1.00  0.00    -0.352 N 
ATOM     29  C   UNL A   1      42.511  20.280  25.750  1.00  0.00     0.251 C 
ATOM     30  H   UNL A   1      41.173  18.795  25.595  1.00  0.00     0.163 HD
ATOM     31  O   UNL A   1      43.362  19.690  25.088  1.00  0.00    -0.269 OA
BRANCH  29  32
ATOM     32  C   UNL A   1      42.800  21.626  26.289  1.00  0.00     0.039 A 
ATOM     33  C   UNL A   1      42.998  22.679  25.393  1.00  0.00     0.014 A 
ATOM     34  C   UNL A   1      42.855  21.858  27.666  1.00  0.00     0.014 A 
ATOM     35  C   UNL A   1      43.174  23.978  25.877  1.00  0.00     0.010 A 
ATOM     36  C   UNL A   1      42.954  23.162  28.145  1.00  0.00     0.010 A 
ATOM     37  C   UNL A   1      43.109  24.237  27.256  1.00  0.00    -0.014 A 
BRANCH  37  38
ATOM     38  C   UNL A   1      43.191  25.623  27.785  1.00  0.00     0.031 A 
ATOM     39  C   UNL A   1      44.521  26.205  28.185  1.00  0.00     0.074 A 
ATOM     40  C   UNL A   1      42.063  26.340  27.958  1.00  0.00     0.049 A 
ATOM     41  N   UNL A   1      44.783  27.371  28.721  1.00  0.00    -0.248 NA
ATOM     42  C   UNL A   1      45.708  25.359  27.978  1.00  0.00     0.031 C 
ATOM     43  C   UNL A   1      40.708  25.883  27.640  1.00  0.00     0.029 A 
ATOM     44  N   UNL A   1      41.876  27.608  28.450  1.00  0.00    -0.354 N 
ATOM     45  C   UNL A   1      46.158  27.393  28.920  1.00  0.00     0.074 A 
ATOM     46  C   UNL A   1      46.668  26.107  28.501  1.00  0.00     0.031 C 
ATOM     47  C   UNL A   1      39.835  26.866  27.916  1.00  0.00     0.029 A 
ATOM     48  C   UNL A   1      40.559  28.004  28.473  1.00  0.00     0.049 A 
ATOM     49  H   UNL A   1      42.616  28.181  28.757  1.00  0.00     0.167 HD
ATOM     50  C   UNL A   1      46.931  28.403  29.387  1.00  0.00     0.031 A 
ATOM     51  C   UNL A   1      39.997  29.148  28.904  1.00  0.00     0.031 A 
ATOM     52  C   UNL A   1      46.428  29.685  29.800  1.00  0.00     0.049 A 
ATOM     53  C   UNL A   1      40.878  30.237  29.457  1.00  0.00     0.074 A 
ATOM     54  C   UNL A   1      47.137  30.784  30.252  1.00  0.00     0.029 A 
ATOM     55  N   UNL A   1      45.089  30.041  29.813  1.00  0.00    -0.354 N 
ATOM     56  N   UNL A   1      42.183  30.264  29.580  1.00  0.00    -0.248 NA
ATOM     57  C   UNL A   1      40.204  31.458  29.922  1.00  0.00     0.031 C 
ATOM     58  C   UNL A   1      46.224  31.787  30.589  1.00  0.00     0.029 A 
ATOM     59  C   UNL A   1      44.950  31.335  30.286  1.00  0.00     0.049 A 
ATOM     60  H   UNL A   1      44.346  29.461  29.527  1.00  0.00     0.167 HD
ATOM     61  C   UNL A   1      42.488  31.515  30.100  1.00  0.00     0.074 A 
ATOM     62  C   UNL A   1      41.234  32.224  30.252  1.00  0.00     0.031 C 
ATOM     63  C   UNL A   1      43.698  32.032  30.423  1.00  0.00     0.031 A 
BRANCH  50  64
ATOM     64  C   UNL A   1      48.413  28.161  29.475  1.00  0.00    -0.014 A 
ATOM     65  C   UNL A   1      48.999  27.678  30.657  1.00  0.00     0.009 A 
ATOM     66  C   UNL A   1      49.225  28.364  28.350  1.00  0.00     0.009 A 
ATOM     67  C   UNL A   1      50.372  27.432  30.717  1.00  0.00     0.001 A 
ATOM     68  C   UNL A   1      50.593  28.088  28.403  1.00  0.00     0.001 A 
ATOM     69  C   UNL A   1      51.165  27.630  29.588  1.00  0.00     0.000 A 
ENDBRANCH  50  64
BRANCH  51  70
ATOM     70  C   UNL A   1      38.523  29.340  28.834  1.00  0.00    -0.014 A 
ATOM     71  C   UNL A   1      37.920  29.816  27.659  1.00  0.00     0.009 A 
ATOM     72  C   UNL A   1      37.715  29.091  29.954  1.00  0.00     0.009 A 
ATOM     73  C   UNL A   1      36.549  30.078  27.620  1.00  0.00     0.001 A 
ATOM     74  C   UNL A   1      36.338  29.319  29.902  1.00  0.00     0.001 A 
ATOM     75  C   UNL A   1      35.759  29.828  28.741  1.00  0.00     0.000 A 
ENDBRANCH  51  70
BRANCH  63  76
ATOM     76  C   UNL A   1      43.731  33.449  30.923  1.00  0.00    -0.014 A 
ATOM     77  C   UNL A   1      43.784  34.539  30.039  1.00  0.00     0.009 A 
ATOM     78  C   UNL A   1      43.670  33.698  32.304  1.00  0.00     0.009 A 
ATOM     79  C   UNL A   1      43.814  35.845  30.530  1.00  0.00     0.001 A 
ATOM     80  C   UNL A   1      43.666  35.005  32.790  1.00  0.00     0.001 A 
ATOM     81  C   UNL A   1      43.749  36.078  31.904  1.00  0.00     0.000 A 
ENDBRANCH  63  76
ENDBRANCH  37  38
ENDBRANCH  29  32
ENDBRANCH  27  28
ENDBRANCH  26  27
ENDBRANCH  25  26
ENDBRANCH   1  25
TORSDOF 17
ENDMDL
