MODEL 1
REMARK VINA RESULT:     -11.4      0.000      0.000
REMARK SMILES CC(C)n1ccc(C[C@@H](C(=O)NCCCCNC(=O)c2ccc(-c3c4nc(c(-c5ccccc5)c5ccc([nH]5)c(-c5ccccc5)c5nc(c(-c6ccccc6)c6ccc3[nH]6)C=C5)C=C4)cc2)c2cccc(Cl)c2)n1
REMARK SMILES IDX 14 1 13 2 12 3 10 4 11 5 9 7 8 8 7 9 4 10 5 11 75 12 6 13
REMARK SMILES IDX 2 14 1 15 3 16 68 17 69 18 74 19 70 20 72 21 71 22 73 23
REMARK SMILES IDX 15 24 16 25 17 26 18 27 19 29 20 30 21 31 67 32 22 33 66 34
REMARK SMILES IDX 23 35 24 36 25 37 60 38 26 39 65 40 59 41 61 42 27 43 64 44
REMARK SMILES IDX 58 45 57 46 28 48 50 49 35 50 49 51 36 52 39 53 48 54 62 55
REMARK SMILES IDX 37 56 38 57 47 59 63 60 40 61 29 62 30 63 34 64 31 65 33 66
REMARK SMILES IDX 32 67 51 68 52 69 56 70 53 71 55 72 54 73 41 74 42 75 46 76
REMARK SMILES IDX 43 77 45 78 44 79
REMARK H PARENT 12 6 17 28 61 47 39 58
REMARK Flexibility Score: inf
ROOT
ATOM      1  C   UNL A   1      37.147  22.359  24.761  1.00  0.00     0.023 C 
ENDROOT
BRANCH   1   2
ATOM      2  C   UNL A   1      36.119  22.834  25.799  1.00  0.00     0.116 C 
BRANCH   2   3
ATOM      3  N   UNL A   1      35.480  21.696  26.437  1.00  0.00    -0.356 N 
ATOM      4  C   UNL A   1      34.154  21.357  26.338  1.00  0.00     0.227 C 
ATOM      5  O   UNL A   1      33.590  21.081  27.402  1.00  0.00    -0.274 OA
ATOM      6  H   UNL A   1      36.050  21.115  26.991  1.00  0.00     0.163 HD
BRANCH   4   7
ATOM      7  C   UNL A   1      33.443  21.276  24.968  1.00  0.00     0.114 C 
BRANCH   7   8
ATOM      8  C   UNL A   1      31.940  21.603  25.126  1.00  0.00     0.076 C 
BRANCH   8   9
ATOM      9  C   UNL A   1      31.538  23.032  25.247  1.00  0.00     0.064 A 
ATOM     10  N   UNL A   1      31.074  25.033  24.694  1.00  0.00    -0.270 N 
ATOM     11  C   UNL A   1      30.689  24.930  26.001  1.00  0.00     0.109 A 
ATOM     12  N   UNL A   1      31.599  23.879  24.210  1.00  0.00    -0.178 NA
ATOM     13  C   UNL A   1      30.975  23.645  26.389  1.00  0.00     0.045 A 
BRANCH  10  14
ATOM     14  C   UNL A   1      31.012  26.214  23.833  1.00  0.00     0.101 C 
ATOM     15  C   UNL A   1      31.433  25.862  22.408  1.00  0.00     0.033 C 
ATOM     16  C   UNL A   1      29.643  26.904  23.833  1.00  0.00     0.033 C 
ENDBRANCH  10  14
ENDBRANCH   8   9
ENDBRANCH   7   8
BRANCH   7  17
ATOM     17  C   UNL A   1      33.501  19.857  24.319  1.00  0.00    -0.034 A 
ATOM     18  C   UNL A   1      32.576  19.531  23.303  1.00  0.00     0.004 A 
ATOM     19  C   UNL A   1      34.329  18.819  24.786  1.00  0.00     0.025 A 
ATOM     20  C   UNL A   1      32.409  18.213  22.861  1.00  0.00     0.002 A 
ATOM     21  C   UNL A   1      34.165  17.504  24.334  1.00  0.00     0.041 A 
ATOM     22  C   UNL A   1      33.192  17.192  23.392  1.00  0.00     0.020 A 
ATOM     23  Cl  UNL A   1      35.147  16.247  24.987  1.00  0.00    -0.084 Cl
ENDBRANCH   7  17
ENDBRANCH   4   7
ENDBRANCH   2   3
ENDBRANCH   1   2
BRANCH   1  24
ATOM     24  C   UNL A   1      37.804  20.991  24.961  1.00  0.00     0.023 C 
BRANCH  24  25
ATOM     25  C   UNL A   1      39.113  21.028  25.733  1.00  0.00     0.116 C 
BRANCH  25  26
ATOM     26  N   UNL A   1      39.848  19.761  25.693  1.00  0.00    -0.352 N 
ATOM     27  C   UNL A   1      41.198  19.553  25.926  1.00  0.00     0.251 C 
ATOM     28  H   UNL A   1      39.319  18.959  25.475  1.00  0.00     0.163 HD
ATOM     29  O   UNL A   1      41.759  18.513  25.635  1.00  0.00    -0.269 OA
BRANCH  27  30
ATOM     30  C   UNL A   1      41.933  20.670  26.542  1.00  0.00     0.039 A 
ATOM     31  C   UNL A   1      42.334  21.761  25.770  1.00  0.00     0.014 A 
ATOM     32  C   UNL A   1      41.939  20.715  27.931  1.00  0.00     0.014 A 
ATOM     33  C   UNL A   1      42.609  22.968  26.413  1.00  0.00     0.010 A 
ATOM     34  C   UNL A   1      42.077  21.945  28.540  1.00  0.00     0.010 A 
ATOM     35  C   UNL A   1      42.418  23.084  27.800  1.00  0.00    -0.014 A 
BRANCH  35  36
ATOM     36  C   UNL A   1      42.451  24.409  28.443  1.00  0.00     0.031 A 
ATOM     37  C   UNL A   1      41.313  25.353  28.182  1.00  0.00     0.074 A 
ATOM     38  C   UNL A   1      43.316  24.755  29.422  1.00  0.00     0.049 A 
ATOM     39  N   UNL A   1      41.369  26.531  27.647  1.00  0.00    -0.248 NA
ATOM     40  C   UNL A   1      39.952  24.941  28.560  1.00  0.00     0.031 C 
ATOM     41  C   UNL A   1      44.330  23.934  30.094  1.00  0.00     0.029 A 
ATOM     42  N   UNL A   1      43.371  25.928  30.116  1.00  0.00    -0.354 N 
ATOM     43  C   UNL A   1      40.087  27.077  27.734  1.00  0.00     0.074 A 
ATOM     44  C   UNL A   1      39.237  26.023  28.233  1.00  0.00     0.031 C 
ATOM     45  C   UNL A   1      44.698  24.529  31.248  1.00  0.00     0.029 A 
ATOM     46  C   UNL A   1      44.118  25.855  31.278  1.00  0.00     0.049 A 
ATOM     47  H   UNL A   1      42.921  26.750  29.817  1.00  0.00     0.167 HD
ATOM     48  C   UNL A   1      39.838  28.405  27.531  1.00  0.00     0.031 A 
ATOM     49  C   UNL A   1      44.279  26.817  32.211  1.00  0.00     0.031 A 
ATOM     50  C   UNL A   1      40.955  29.080  26.927  1.00  0.00     0.049 A 
ATOM     51  C   UNL A   1      43.991  28.116  31.572  1.00  0.00     0.074 A 
ATOM     52  C   UNL A   1      41.650  28.969  25.740  1.00  0.00     0.029 A 
ATOM     53  N   UNL A   1      41.737  29.863  27.740  1.00  0.00    -0.354 N 
ATOM     54  N   UNL A   1      44.727  28.628  30.627  1.00  0.00    -0.248 NA
ATOM     55  C   UNL A   1      42.668  28.698  31.713  1.00  0.00     0.031 C 
ATOM     56  C   UNL A   1      43.007  29.249  26.087  1.00  0.00     0.029 A 
ATOM     57  C   UNL A   1      43.038  29.546  27.452  1.00  0.00     0.049 A 
ATOM     58  H   UNL A   1      41.424  30.522  28.401  1.00  0.00     0.167 HD
ATOM     59  C   UNL A   1      43.833  29.278  29.791  1.00  0.00     0.074 A 
ATOM     60  C   UNL A   1      42.614  29.411  30.584  1.00  0.00     0.031 C 
ATOM     61  C   UNL A   1      44.073  29.393  28.451  1.00  0.00     0.031 A 
BRANCH  48  62
ATOM     62  C   UNL A   1      38.707  29.190  28.154  1.00  0.00    -0.014 A 
ATOM     63  C   UNL A   1      38.454  29.048  29.535  1.00  0.00     0.009 A 
ATOM     64  C   UNL A   1      37.720  29.847  27.400  1.00  0.00     0.009 A 
ATOM     65  C   UNL A   1      37.255  29.484  30.114  1.00  0.00     0.001 A 
ATOM     66  C   UNL A   1      36.538  30.322  27.983  1.00  0.00     0.001 A 
ATOM     67  C   UNL A   1      36.294  30.116  29.335  1.00  0.00     0.000 A 
ENDBRANCH  48  62
BRANCH  49  68
ATOM     68  C   UNL A   1      44.517  26.644  33.653  1.00  0.00    -0.014 A 
ATOM     69  C   UNL A   1      43.499  26.210  34.510  1.00  0.00     0.009 A 
ATOM     70  C   UNL A   1      45.833  26.690  34.152  1.00  0.00     0.009 A 
ATOM     71  C   UNL A   1      43.795  25.809  35.819  1.00  0.00     0.001 A 
ATOM     72  C   UNL A   1      46.127  26.291  35.457  1.00  0.00     0.001 A 
ATOM     73  C   UNL A   1      45.108  25.837  36.287  1.00  0.00     0.000 A 
ENDBRANCH  49  68
BRANCH  61  74
ATOM     74  C   UNL A   1      45.444  29.016  27.940  1.00  0.00    -0.014 A 
ATOM     75  C   UNL A   1      45.802  27.689  27.641  1.00  0.00     0.009 A 
ATOM     76  C   UNL A   1      46.344  30.037  27.597  1.00  0.00     0.009 A 
ATOM     77  C   UNL A   1      47.034  27.390  27.051  1.00  0.00     0.001 A 
ATOM     78  C   UNL A   1      47.566  29.740  26.988  1.00  0.00     0.001 A 
ATOM     79  C   UNL A   1      47.914  28.417  26.721  1.00  0.00     0.000 A 
ENDBRANCH  61  74
ENDBRANCH  35  36
ENDBRANCH  27  30
ENDBRANCH  25  26
ENDBRANCH  24  25
ENDBRANCH   1  24
TORSDOF 15
ENDMDL
MODEL 2
REMARK VINA RESULT:     -11.3      2.956      6.733
REMARK SMILES CC(C)n1ccc(C[C@@H](C(=O)NCCCCNC(=O)c2ccc(-c3c4nc(c(-c5ccccc5)c5ccc([nH]5)c(-c5ccccc5)c5nc(c(-c6ccccc6)c6ccc3[nH]6)C=C5)C=C4)cc2)c2cccc(Cl)c2)n1
REMARK SMILES IDX 14 1 13 2 12 3 10 4 11 5 9 7 8 8 7 9 4 10 5 11 75 12 6 13
REMARK SMILES IDX 2 14 1 15 3 16 68 17 69 18 74 19 70 20 72 21 71 22 73 23
REMARK SMILES IDX 15 24 16 25 17 26 18 27 19 29 20 30 21 31 67 32 22 33 66 34
REMARK SMILES IDX 23 35 24 36 25 37 60 38 26 39 65 40 59 41 61 42 27 43 64 44
REMARK SMILES IDX 58 45 57 46 28 48 50 49 35 50 49 51 36 52 39 53 48 54 62 55
REMARK SMILES IDX 37 56 38 57 47 59 63 60 40 61 29 62 30 63 34 64 31 65 33 66
REMARK SMILES IDX 32 67 51 68 52 69 56 70 53 71 55 72 54 73 41 74 42 75 46 76
REMARK SMILES IDX 43 77 45 78 44 79
REMARK H PARENT 12 6 17 28 61 47 39 58
REMARK Flexibility Score: inf
ROOT
ATOM      1  C   UNL A   1      37.315  23.026  24.823  1.00  0.00     0.023 C 
ENDROOT
BRANCH   1   2
ATOM      2  C   UNL A   1      36.513  23.715  25.937  1.00  0.00     0.116 C 
BRANCH   2   3
ATOM      3  N   UNL A   1      35.755  22.735  26.696  1.00  0.00    -0.356 N 
ATOM      4  C   UNL A   1      34.400  22.756  26.909  1.00  0.00     0.227 C 
ATOM      5  O   UNL A   1      34.037  22.558  28.073  1.00  0.00    -0.274 OA
ATOM      6  H   UNL A   1      36.260  21.989  27.094  1.00  0.00     0.163 HD
BRANCH   4   7
ATOM      7  C   UNL A   1      33.403  22.960  25.745  1.00  0.00     0.114 C 
BRANCH   7   8
ATOM      8  C   UNL A   1      33.788  22.060  24.549  1.00  0.00     0.076 C 
BRANCH   8   9
ATOM      9  C   UNL A   1      33.475  20.605  24.631  1.00  0.00     0.064 A 
ATOM     10  N   UNL A   1      33.755  18.497  24.641  1.00  0.00    -0.270 N 
ATOM     11  C   UNL A   1      32.466  18.683  25.055  1.00  0.00     0.109 A 
ATOM     12  N   UNL A   1      34.394  19.664  24.375  1.00  0.00    -0.178 NA
ATOM     13  C   UNL A   1      32.254  20.039  25.061  1.00  0.00     0.045 A 
BRANCH  10  14
ATOM     14  C   UNL A   1      34.455  17.229  24.435  1.00  0.00     0.101 C 
ATOM     15  C   UNL A   1      33.995  16.190  25.454  1.00  0.00     0.033 C 
ATOM     16  C   UNL A   1      34.324  16.679  23.010  1.00  0.00     0.033 C 
ENDBRANCH  10  14
ENDBRANCH   8   9
ENDBRANCH   7   8
BRANCH   7  17
ATOM     17  C   UNL A   1      33.384  24.418  25.189  1.00  0.00    -0.034 A 
ATOM     18  C   UNL A   1      33.479  24.620  23.794  1.00  0.00     0.004 A 
ATOM     19  C   UNL A   1      33.427  25.565  26.003  1.00  0.00     0.025 A 
ATOM     20  C   UNL A   1      33.719  25.889  23.252  1.00  0.00     0.002 A 
ATOM     21  C   UNL A   1      33.658  26.833  25.457  1.00  0.00     0.041 A 
ATOM     22  C   UNL A   1      33.830  26.996  24.087  1.00  0.00     0.020 A 
ATOM     23  Cl  UNL A   1      33.780  28.202  26.497  1.00  0.00    -0.084 Cl
ENDBRANCH   7  17
ENDBRANCH   4   7
ENDBRANCH   2   3
ENDBRANCH   1   2
BRANCH   1  24
ATOM     24  C   UNL A   1      38.022  21.706  25.145  1.00  0.00     0.023 C 
BRANCH  24  25
ATOM     25  C   UNL A   1      39.039  21.795  26.270  1.00  0.00     0.116 C 
BRANCH  25  26
ATOM     26  N   UNL A   1      40.425  21.855  25.798  1.00  0.00    -0.352 N 
ATOM     27  C   UNL A   1      41.361  22.850  26.030  1.00  0.00     0.251 C 
ATOM     28  H   UNL A   1      40.730  21.095  25.249  1.00  0.00     0.163 HD
ATOM     29  O   UNL A   1      42.400  22.930  25.401  1.00  0.00    -0.269 OA
BRANCH  27  30
ATOM     30  C   UNL A   1      41.029  23.825  27.082  1.00  0.00     0.039 A 
ATOM     31  C   UNL A   1      41.916  24.055  28.133  1.00  0.00     0.014 A 
ATOM     32  C   UNL A   1      39.968  24.683  26.818  1.00  0.00     0.014 A 
ATOM     33  C   UNL A   1      41.815  25.253  28.842  1.00  0.00     0.010 A 
ATOM     34  C   UNL A   1      39.966  25.919  27.431  1.00  0.00     0.010 A 
ATOM     35  C   UNL A   1      40.877  26.222  28.450  1.00  0.00    -0.014 A 
BRANCH  35  36
ATOM     36  C   UNL A   1      40.937  27.581  29.017  1.00  0.00     0.031 A 
ATOM     37  C   UNL A   1      41.884  28.567  28.396  1.00  0.00     0.074 A 
ATOM     38  C   UNL A   1      40.049  28.070  29.909  1.00  0.00     0.049 A 
ATOM     39  N   UNL A   1      42.871  29.183  28.964  1.00  0.00    -0.248 NA
ATOM     40  C   UNL A   1      41.715  28.911  26.975  1.00  0.00     0.031 C 
ATOM     41  C   UNL A   1      38.842  27.439  30.455  1.00  0.00     0.029 A 
ATOM     42  N   UNL A   1      39.989  29.330  30.429  1.00  0.00    -0.354 N 
ATOM     43  C   UNL A   1      43.374  30.092  28.032  1.00  0.00     0.074 A 
ATOM     44  C   UNL A   1      42.675  29.826  26.798  1.00  0.00     0.031 C 
ATOM     45  C   UNL A   1      38.045  28.384  30.996  1.00  0.00     0.029 A 
ATOM     46  C   UNL A   1      38.781  29.630  31.031  1.00  0.00     0.049 A 
ATOM     47  H   UNL A   1      40.738  29.966  30.381  1.00  0.00     0.167 HD
ATOM     48  C   UNL A   1      44.224  31.104  28.376  1.00  0.00     0.031 A 
ATOM     49  C   UNL A   1      38.394  30.815  31.549  1.00  0.00     0.031 A 
ATOM     50  C   UNL A   1      44.770  30.930  29.695  1.00  0.00     0.049 A 
ATOM     51  C   UNL A   1      39.612  31.587  31.862  1.00  0.00     0.074 A 
ATOM     52  C   UNL A   1      45.550  29.981  30.323  1.00  0.00     0.029 A 
ATOM     53  N   UNL A   1      44.245  31.699  30.704  1.00  0.00    -0.354 N 
ATOM     54  N   UNL A   1      40.467  31.237  32.781  1.00  0.00    -0.248 NA
ATOM     55  C   UNL A   1      40.096  32.568  30.905  1.00  0.00     0.031 C 
ATOM     56  C   UNL A   1      45.044  29.917  31.656  1.00  0.00     0.029 A 
ATOM     57  C   UNL A   1      44.015  30.857  31.759  1.00  0.00     0.049 A 
ATOM     58  H   UNL A   1      44.069  32.668  30.675  1.00  0.00     0.167 HD
ATOM     59  C   UNL A   1      41.703  31.608  32.277  1.00  0.00     0.074 A 
ATOM     60  C   UNL A   1      41.399  32.546  31.200  1.00  0.00     0.031 C 
ATOM     61  C   UNL A   1      42.834  30.910  32.593  1.00  0.00     0.031 A 
BRANCH  48  62
ATOM     62  C   UNL A   1      44.345  32.430  27.661  1.00  0.00    -0.014 A 
ATOM     63  C   UNL A   1      43.616  33.537  28.145  1.00  0.00     0.009 A 
ATOM     64  C   UNL A   1      44.923  32.568  26.388  1.00  0.00     0.009 A 
ATOM     65  C   UNL A   1      43.427  34.691  27.372  1.00  0.00     0.001 A 
ATOM     66  C   UNL A   1      44.772  33.736  25.630  1.00  0.00     0.001 A 
ATOM     67  C   UNL A   1      44.001  34.787  26.111  1.00  0.00     0.000 A 
ENDBRANCH  48  62
BRANCH  49  68
ATOM     68  C   UNL A   1      37.030  31.359  31.637  1.00  0.00    -0.014 A 
ATOM     69  C   UNL A   1      36.525  31.864  32.841  1.00  0.00     0.009 A 
ATOM     70  C   UNL A   1      36.295  31.592  30.458  1.00  0.00     0.009 A 
ATOM     71  C   UNL A   1      35.335  32.603  32.860  1.00  0.00     0.001 A 
ATOM     72  C   UNL A   1      35.109  32.328  30.477  1.00  0.00     0.001 A 
ATOM     73  C   UNL A   1      34.636  32.845  31.678  1.00  0.00     0.000 A 
ENDBRANCH  49  68
BRANCH  61  74
ATOM     74  C   UNL A   1      42.748  29.879  33.695  1.00  0.00    -0.014 A 
ATOM     75  C   UNL A   1      43.035  30.180  35.038  1.00  0.00     0.009 A 
ATOM     76  C   UNL A   1      42.210  28.616  33.401  1.00  0.00     0.009 A 
ATOM     77  C   UNL A   1      42.824  29.238  36.050  1.00  0.00     0.001 A 
ATOM     78  C   UNL A   1      41.979  27.682  34.415  1.00  0.00     0.001 A 
ATOM     79  C   UNL A   1      42.292  27.991  35.738  1.00  0.00     0.000 A 
ENDBRANCH  61  74
ENDBRANCH  35  36
ENDBRANCH  27  30
ENDBRANCH  25  26
ENDBRANCH  24  25
ENDBRANCH   1  24
TORSDOF 15
ENDMDL
MODEL 3
REMARK VINA RESULT:     -11.2      2.366      5.913
REMARK SMILES CC(C)n1ccc(C[C@@H](C(=O)NCCCCNC(=O)c2ccc(-c3c4nc(c(-c5ccccc5)c5ccc([nH]5)c(-c5ccccc5)c5nc(c(-c6ccccc6)c6ccc3[nH]6)C=C5)C=C4)cc2)c2cccc(Cl)c2)n1
REMARK SMILES IDX 14 1 13 2 12 3 10 4 11 5 9 7 8 8 7 9 4 10 5 11 75 12 6 13
REMARK SMILES IDX 2 14 1 15 3 16 68 17 69 18 74 19 70 20 72 21 71 22 73 23
REMARK SMILES IDX 15 24 16 25 17 26 18 27 19 29 20 30 21 31 67 32 22 33 66 34
REMARK SMILES IDX 23 35 24 36 25 37 60 38 26 39 65 40 59 41 61 42 27 43 64 44
REMARK SMILES IDX 58 45 57 46 28 48 50 49 35 50 49 51 36 52 39 53 48 54 62 55
REMARK SMILES IDX 37 56 38 57 47 59 63 60 40 61 29 62 30 63 34 64 31 65 33 66
REMARK SMILES IDX 32 67 51 68 52 69 56 70 53 71 55 72 54 73 41 74 42 75 46 76
REMARK SMILES IDX 43 77 45 78 44 79
REMARK H PARENT 12 6 17 28 61 47 39 58
REMARK Flexibility Score: inf
ROOT
ATOM      1  C   UNL A   1      37.420  21.733  24.776  1.00  0.00     0.023 C 
ENDROOT
BRANCH   1   2
ATOM      2  C   UNL A   1      36.468  22.465  25.734  1.00  0.00     0.116 C 
BRANCH   2   3
ATOM      3  N   UNL A   1      35.615  21.513  26.425  1.00  0.00    -0.356 N 
ATOM      4  C   UNL A   1      34.248  21.441  26.330  1.00  0.00     0.227 C 
ATOM      5  O   UNL A   1      33.640  21.342  27.401  1.00  0.00    -0.274 OA
ATOM      6  H   UNL A   1      36.057  20.861  27.015  1.00  0.00     0.163 HD
BRANCH   4   7
ATOM      7  C   UNL A   1      33.534  21.430  24.959  1.00  0.00     0.114 C 
BRANCH   7   8
ATOM      8  C   UNL A   1      32.053  21.841  25.124  1.00  0.00     0.076 C 
BRANCH   8   9
ATOM      9  C   UNL A   1      31.652  23.215  24.710  1.00  0.00     0.064 A 
ATOM     10  N   UNL A   1      31.361  24.930  23.488  1.00  0.00    -0.270 N 
ATOM     11  C   UNL A   1      30.668  25.194  24.636  1.00  0.00     0.109 A 
ATOM     12  N   UNL A   1      31.974  23.720  23.512  1.00  0.00    -0.178 NA
ATOM     13  C   UNL A   1      30.835  24.101  25.448  1.00  0.00     0.045 A 
BRANCH  10  14
ATOM     14  C   UNL A   1      31.525  25.798  22.321  1.00  0.00     0.101 C 
ATOM     15  C   UNL A   1      30.784  27.116  22.525  1.00  0.00     0.033 C 
ATOM     16  C   UNL A   1      32.989  26.057  21.948  1.00  0.00     0.033 C 
ENDBRANCH  10  14
ENDBRANCH   8   9
ENDBRANCH   7   8
BRANCH   7  17
ATOM     17  C   UNL A   1      33.510  20.024  24.281  1.00  0.00    -0.034 A 
ATOM     18  C   UNL A   1      32.527  19.752  23.303  1.00  0.00     0.004 A 
ATOM     19  C   UNL A   1      34.319  18.947  24.688  1.00  0.00     0.025 A 
ATOM     20  C   UNL A   1      32.292  18.450  22.844  1.00  0.00     0.002 A 
ATOM     21  C   UNL A   1      34.087  17.648  24.220  1.00  0.00     0.041 A 
ATOM     22  C   UNL A   1      33.060  17.392  23.319  1.00  0.00     0.020 A 
ATOM     23  Cl  UNL A   1      35.051  16.344  24.802  1.00  0.00    -0.084 Cl
ENDBRANCH   7  17
ENDBRANCH   4   7
ENDBRANCH   2   3
ENDBRANCH   1   2
BRANCH   1  24
ATOM     24  C   UNL A   1      38.534  20.871  25.375  1.00  0.00     0.023 C 
BRANCH  24  25
ATOM     25  C   UNL A   1      39.443  21.605  26.347  1.00  0.00     0.116 C 
BRANCH  25  26
ATOM     26  N   UNL A   1      40.805  21.798  25.838  1.00  0.00    -0.352 N 
ATOM     27  C   UNL A   1      41.614  22.913  25.977  1.00  0.00     0.251 C 
ATOM     28  H   UNL A   1      41.192  21.043  25.338  1.00  0.00     0.163 HD
ATOM     29  O   UNL A   1      42.626  23.073  25.319  1.00  0.00    -0.269 OA
BRANCH  27  30
ATOM     30  C   UNL A   1      41.180  23.915  26.964  1.00  0.00     0.039 A 
ATOM     31  C   UNL A   1      41.953  24.167  28.098  1.00  0.00     0.014 A 
ATOM     32  C   UNL A   1      40.160  24.773  26.570  1.00  0.00     0.014 A 
ATOM     33  C   UNL A   1      41.787  25.382  28.764  1.00  0.00     0.010 A 
ATOM     34  C   UNL A   1      40.103  26.023  27.150  1.00  0.00     0.010 A 
ATOM     35  C   UNL A   1      40.903  26.346  28.252  1.00  0.00    -0.014 A 
BRANCH  35  36
ATOM     36  C   UNL A   1      40.914  27.718  28.790  1.00  0.00     0.031 A 
ATOM     37  C   UNL A   1      41.923  28.686  28.243  1.00  0.00     0.074 A 
ATOM     38  C   UNL A   1      39.944  28.231  29.577  1.00  0.00     0.049 A 
ATOM     39  N   UNL A   1      42.852  29.313  28.892  1.00  0.00    -0.248 NA
ATOM     40  C   UNL A   1      41.898  28.996  26.805  1.00  0.00     0.031 C 
ATOM     41  C   UNL A   1      38.685  27.616  30.016  1.00  0.00     0.029 A 
ATOM     42  N   UNL A   1      39.840  29.503  30.059  1.00  0.00    -0.354 N 
ATOM     43  C   UNL A   1      43.450  30.198  27.993  1.00  0.00     0.074 A 
ATOM     44  C   UNL A   1      42.875  29.904  26.703  1.00  0.00     0.031 C 
ATOM     45  C   UNL A   1      37.843  28.576  30.452  1.00  0.00     0.029 A 
ATOM     46  C   UNL A   1      38.579  29.821  30.531  1.00  0.00     0.049 A 
ATOM     47  H   UNL A   1      40.593  30.136  30.071  1.00  0.00     0.167 HD
ATOM     48  C   UNL A   1      44.267  31.215  28.396  1.00  0.00     0.031 A 
ATOM     49  C   UNL A   1      38.149  31.019  30.980  1.00  0.00     0.031 A 
ATOM     50  C   UNL A   1      44.678  31.071  29.767  1.00  0.00     0.049 A 
ATOM     51  C   UNL A   1      39.334  31.795  31.394  1.00  0.00     0.074 A 
ATOM     52  C   UNL A   1      45.387  30.135  30.491  1.00  0.00     0.029 A 
ATOM     53  N   UNL A   1      44.059  31.866  30.700  1.00  0.00    -0.354 N 
ATOM     54  N   UNL A   1      40.091  31.465  32.401  1.00  0.00    -0.248 NA
ATOM     55  C   UNL A   1      39.915  32.751  30.466  1.00  0.00     0.031 C 
ATOM     56  C   UNL A   1      44.751  30.105  31.769  1.00  0.00     0.029 A 
ATOM     57  C   UNL A   1      43.721  31.050  31.747  1.00  0.00     0.049 A 
ATOM     58  H   UNL A   1      43.892  32.834  30.631  1.00  0.00     0.167 HD
ATOM     59  C   UNL A   1      41.373  31.820  32.015  1.00  0.00     0.074 A 
ATOM     60  C   UNL A   1      41.182  32.733  30.891  1.00  0.00     0.031 C 
ATOM     61  C   UNL A   1      42.463  31.126  32.458  1.00  0.00     0.031 A 
BRANCH  48  62
ATOM     62  C   UNL A   1      44.465  32.523  27.666  1.00  0.00    -0.014 A 
ATOM     63  C   UNL A   1      43.549  33.575  27.884  1.00  0.00     0.009 A 
ATOM     64  C   UNL A   1      45.344  32.673  26.580  1.00  0.00     0.009 A 
ATOM     65  C   UNL A   1      43.478  34.681  27.027  1.00  0.00     0.001 A 
ATOM     66  C   UNL A   1      45.304  33.798  25.746  1.00  0.00     0.001 A 
ATOM     67  C   UNL A   1      44.354  34.789  25.953  1.00  0.00     0.000 A 
ENDBRANCH  48  62
BRANCH  49  68
ATOM     68  C   UNL A   1      36.786  31.569  30.919  1.00  0.00    -0.014 A 
ATOM     69  C   UNL A   1      36.060  31.845  32.084  1.00  0.00     0.009 A 
ATOM     70  C   UNL A   1      36.279  32.042  29.692  1.00  0.00     0.009 A 
ATOM     71  C   UNL A   1      34.879  32.595  32.026  1.00  0.00     0.001 A 
ATOM     72  C   UNL A   1      35.101  32.789  29.635  1.00  0.00     0.001 A 
ATOM     73  C   UNL A   1      34.408  33.077  30.805  1.00  0.00     0.000 A 
ENDBRANCH  49  68
BRANCH  61  74
ATOM     74  C   UNL A   1      42.263  30.122  33.569  1.00  0.00    -0.014 A 
ATOM     75  C   UNL A   1      42.370  30.466  34.928  1.00  0.00     0.009 A 
ATOM     76  C   UNL A   1      41.797  28.839  33.247  1.00  0.00     0.009 A 
ATOM     77  C   UNL A   1      42.055  29.545  35.933  1.00  0.00     0.001 A 
ATOM     78  C   UNL A   1      41.461  27.925  34.250  1.00  0.00     0.001 A 
ATOM     79  C   UNL A   1      41.597  28.276  35.592  1.00  0.00     0.000 A 
ENDBRANCH  61  74
ENDBRANCH  35  36
ENDBRANCH  27  30
ENDBRANCH  25  26
ENDBRANCH  24  25
ENDBRANCH   1  24
TORSDOF 15
ENDMDL
