MODEL 1
REMARK VINA RESULT:     -11.1      0.000      0.000
REMARK SMILES CC[C@H](Oc1cccc(/C=C2\SC(=S)N(NC(=O)c3cccc(O)c3)C2=O)c1)C(=O)NCCCCNC(=O)c1ccc(-c2c3nc(c(-c4ccccc4)c4ccc([nH]4)c(-c4ccccc4)c4nc(c(-c5ccccc5)c5ccc2[nH]5)C=C4)C=C3)cc1
REMARK SMILES IDX 29 1 30 2 31 3 3 5 2 6 1 7 4 8 5 9 6 10 28 11 7 12 9 13 8 14
REMARK SMILES IDX 10 15 11 16 12 17 26 18 13 19 15 20 27 21 14 22 16 23 17 24
REMARK SMILES IDX 18 26 19 27 20 28 25 29 21 30 23 31 22 32 24 33 32 35 33 36
REMARK SMILES IDX 34 37 35 38 36 39 37 40 38 42 39 43 40 44 86 45 41 46 85 47
REMARK SMILES IDX 42 48 43 49 44 50 79 51 45 52 84 53 78 54 80 55 46 56 83 57
REMARK SMILES IDX 77 58 76 59 47 61 69 62 54 63 68 64 55 65 58 66 67 67 81 68
REMARK SMILES IDX 56 69 57 70 66 72 82 73 59 74 48 75 49 76 53 77 50 78 52 79
REMARK SMILES IDX 51 80 70 81 71 82 75 83 72 84 74 85 73 86 60 87 61 88 65 89
REMARK SMILES IDX 62 90 64 91 63 92
REMARK H PARENT 31 4 16 25 24 34 36 41 80 60 58 71
REMARK Flexibility Score: inf
ROOT
ATOM      1  C   UNL A   1      36.489  31.701  28.696  1.00  0.00     0.261 C 
ATOM      2  O   UNL A   1      37.684  31.667  28.387  1.00  0.00    -0.271 OA
ATOM      3  N   UNL A   1      35.950  32.918  29.020  1.00  0.00    -0.353 N 
ATOM      4  H   UNL A   1      36.579  33.675  29.023  1.00  0.00     0.163 HD
ENDROOT
BRANCH   1   5
ATOM      5  C   UNL A   1      35.622  30.423  28.666  1.00  0.00     0.261 C 
BRANCH   5   6
ATOM      6  C   UNL A   1      36.268  29.335  29.564  1.00  0.00     0.052 C 
ATOM      7  C   UNL A   1      36.555  29.661  31.026  1.00  0.00     0.008 C 
ENDBRANCH   5   6
BRANCH   5   8
ATOM      8  O   UNL A   1      35.437  30.095  27.289  1.00  0.00    -0.481 OA
BRANCH   8   9
ATOM      9  C   UNL A   1      34.168  30.019  26.791  1.00  0.00     0.121 A 
ATOM     10  C   UNL A   1      33.066  30.744  27.235  1.00  0.00     0.046 A 
ATOM     11  C   UNL A   1      34.008  29.052  25.794  1.00  0.00     0.054 A 
ATOM     12  C   UNL A   1      31.801  30.449  26.730  1.00  0.00     0.004 A 
ATOM     13  C   UNL A   1      32.739  28.689  25.333  1.00  0.00    -0.021 A 
ATOM     14  C   UNL A   1      31.638  29.422  25.798  1.00  0.00     0.008 A 
BRANCH  13  15
ATOM     15  C   UNL A   1      32.480  27.581  24.394  1.00  0.00     0.029 C 
ATOM     16  C   UNL A   1      31.865  26.406  24.596  1.00  0.00     0.082 C 
ATOM     17  S   UNL A   1      31.247  25.719  26.049  1.00  0.00    -0.052 SA
ATOM     18  C   UNL A   1      31.652  25.454  23.467  1.00  0.00     0.285 C 
ATOM     19  C   UNL A   1      31.064  24.128  25.333  1.00  0.00     0.168 C 
ATOM     20  N   UNL A   1      31.384  24.199  23.990  1.00  0.00    -0.198 N 
ATOM     21  O   UNL A   1      31.681  25.783  22.288  1.00  0.00    -0.266 OA
ATOM     22  S   UNL A   1      30.569  22.789  26.193  1.00  0.00    -0.050 S 
BRANCH  20  23
ATOM     23  N   UNL A   1      31.265  23.067  23.173  1.00  0.00    -0.255 N 
ATOM     24  C   UNL A   1      32.200  22.067  23.006  1.00  0.00     0.270 C 
ATOM     25  H   UNL A   1      30.426  22.974  22.665  1.00  0.00     0.192 HD
ATOM     26  O   UNL A   1      31.933  21.083  22.320  1.00  0.00    -0.267 OA
BRANCH  24  27
ATOM     27  C   UNL A   1      33.555  22.186  23.584  1.00  0.00     0.045 A 
ATOM     28  C   UNL A   1      34.487  22.948  22.867  1.00  0.00     0.014 A 
ATOM     29  C   UNL A   1      33.900  21.606  24.810  1.00  0.00     0.060 A 
ATOM     30  C   UNL A   1      35.749  23.189  23.406  1.00  0.00     0.005 A 
ATOM     31  C   UNL A   1      35.162  21.865  25.337  1.00  0.00     0.116 A 
ATOM     32  C   UNL A   1      36.082  22.657  24.650  1.00  0.00     0.046 A 
BRANCH  31  33
ATOM     33  O   UNL A   1      35.544  21.374  26.551  1.00  0.00    -0.508 OA
ATOM     34  H   UNL A   1      35.624  20.449  26.677  1.00  0.00     0.293 HD
ENDBRANCH  31  33
ENDBRANCH  24  27
ENDBRANCH  20  23
ENDBRANCH  13  15
ENDBRANCH   8   9
ENDBRANCH   5   8
ENDBRANCH   1   5
BRANCH   3  35
ATOM     35  C   UNL A   1      34.579  33.242  29.358  1.00  0.00     0.116 C 
BRANCH  35  36
ATOM     36  C   UNL A   1      34.465  34.163  30.566  1.00  0.00     0.023 C 
BRANCH  36  37
ATOM     37  C   UNL A   1      34.248  33.455  31.903  1.00  0.00     0.023 C 
BRANCH  37  38
ATOM     38  C   UNL A   1      35.324  32.448  32.302  1.00  0.00     0.116 C 
BRANCH  38  39
ATOM     39  N   UNL A   1      35.788  32.596  33.672  1.00  0.00    -0.352 N 
ATOM     40  C   UNL A   1      37.044  32.382  34.190  1.00  0.00     0.251 C 
ATOM     41  H   UNL A   1      35.108  32.891  34.320  1.00  0.00     0.163 HD
ATOM     42  O   UNL A   1      37.238  32.492  35.396  1.00  0.00    -0.269 OA
BRANCH  40  43
ATOM     43  C   UNL A   1      38.152  31.976  33.300  1.00  0.00     0.039 A 
ATOM     44  C   UNL A   1      38.961  30.903  33.685  1.00  0.00     0.014 A 
ATOM     45  C   UNL A   1      38.389  32.637  32.092  1.00  0.00     0.014 A 
ATOM     46  C   UNL A   1      39.966  30.450  32.827  1.00  0.00     0.010 A 
ATOM     47  C   UNL A   1      39.347  32.144  31.209  1.00  0.00     0.010 A 
ATOM     48  C   UNL A   1      40.144  31.046  31.569  1.00  0.00    -0.014 A 
BRANCH  48  49
ATOM     49  C   UNL A   1      41.163  30.538  30.617  1.00  0.00     0.031 A 
ATOM     50  C   UNL A   1      42.391  31.351  30.319  1.00  0.00     0.074 A 
ATOM     51  C   UNL A   1      40.955  29.372  29.975  1.00  0.00     0.049 A 
ATOM     52  N   UNL A   1      43.369  31.093  29.487  1.00  0.00    -0.248 NA
ATOM     53  C   UNL A   1      42.525  32.634  31.027  1.00  0.00     0.031 C 
ATOM     54  C   UNL A   1      39.784  28.508  30.140  1.00  0.00     0.029 A 
ATOM     55  N   UNL A   1      41.724  28.716  29.047  1.00  0.00    -0.354 N 
ATOM     56  C   UNL A   1      44.219  32.190  29.553  1.00  0.00     0.074 A 
ATOM     57  C   UNL A   1      43.621  33.133  30.476  1.00  0.00     0.031 C 
ATOM     58  C   UNL A   1      39.929  27.420  29.366  1.00  0.00     0.029 A 
ATOM     59  C   UNL A   1      41.185  27.525  28.629  1.00  0.00     0.049 A 
ATOM     60  H   UNL A   1      42.583  29.066  28.715  1.00  0.00     0.167 HD
ATOM     61  C   UNL A   1      45.399  32.390  28.920  1.00  0.00     0.031 A 
ATOM     62  C   UNL A   1      41.652  26.616  27.753  1.00  0.00     0.031 A 
ATOM     63  C   UNL A   1      46.009  31.447  28.025  1.00  0.00     0.049 A 
ATOM     64  C   UNL A   1      42.972  26.852  27.077  1.00  0.00     0.074 A 
ATOM     65  C   UNL A   1      47.236  31.529  27.387  1.00  0.00     0.029 A 
ATOM     66  N   UNL A   1      45.438  30.243  27.641  1.00  0.00    -0.354 N 
ATOM     67  N   UNL A   1      43.796  27.863  27.203  1.00  0.00    -0.248 NA
ATOM     68  C   UNL A   1      43.432  25.811  26.146  1.00  0.00     0.031 C 
ATOM     69  C   UNL A   1      47.392  30.389  26.590  1.00  0.00     0.029 A 
ATOM     70  C   UNL A   1      46.280  29.580  26.763  1.00  0.00     0.049 A 
ATOM     71  H   UNL A   1      44.565  29.909  27.946  1.00  0.00     0.167 HD
ATOM     72  C   UNL A   1      44.883  27.568  26.392  1.00  0.00     0.074 A 
ATOM     73  C   UNL A   1      44.618  26.280  25.785  1.00  0.00     0.031 C 
ATOM     74  C   UNL A   1      46.003  28.298  26.172  1.00  0.00     0.031 A 
BRANCH  61  75
ATOM     75  C   UNL A   1      46.101  33.693  29.177  1.00  0.00    -0.014 A 
ATOM     76  C   UNL A   1      47.025  33.826  30.225  1.00  0.00     0.009 A 
ATOM     77  C   UNL A   1      45.846  34.797  28.350  1.00  0.00     0.009 A 
ATOM     78  C   UNL A   1      47.649  35.051  30.466  1.00  0.00     0.001 A 
ATOM     79  C   UNL A   1      46.491  36.015  28.578  1.00  0.00     0.001 A 
ATOM     80  C   UNL A   1      47.383  36.144  29.642  1.00  0.00     0.000 A 
ENDBRANCH  61  75
BRANCH  62  81
ATOM     81  C   UNL A   1      40.886  25.371  27.496  1.00  0.00    -0.014 A 
ATOM     82  C   UNL A   1      39.720  25.411  26.716  1.00  0.00     0.009 A 
ATOM     83  C   UNL A   1      41.308  24.144  28.029  1.00  0.00     0.009 A 
ATOM     84  C   UNL A   1      38.978  24.248  26.493  1.00  0.00     0.001 A 
ATOM     85  C   UNL A   1      40.576  22.980  27.786  1.00  0.00     0.001 A 
ATOM     86  C   UNL A   1      39.408  23.034  27.026  1.00  0.00     0.000 A 
ENDBRANCH  62  81
BRANCH  74  87
ATOM     87  C   UNL A   1      47.040  27.701  25.266  1.00  0.00    -0.014 A 
ATOM     88  C   UNL A   1      47.062  27.995  23.894  1.00  0.00     0.009 A 
ATOM     89  C   UNL A   1      48.025  26.857  25.800  1.00  0.00     0.009 A 
ATOM     90  C   UNL A   1      48.036  27.428  23.069  1.00  0.00     0.001 A 
ATOM     91  C   UNL A   1      49.009  26.310  24.977  1.00  0.00     0.001 A 
ATOM     92  C   UNL A   1      49.008  26.589  23.612  1.00  0.00     0.000 A 
ENDBRANCH  74  87
ENDBRANCH  48  49
ENDBRANCH  40  43
ENDBRANCH  38  39
ENDBRANCH  37  38
ENDBRANCH  36  37
ENDBRANCH  35  36
ENDBRANCH   3  35
TORSDOF 18
ENDMDL
MODEL 2
REMARK VINA RESULT:     -11.0      3.411      9.281
REMARK SMILES CC[C@H](Oc1cccc(/C=C2\SC(=S)N(NC(=O)c3cccc(O)c3)C2=O)c1)C(=O)NCCCCNC(=O)c1ccc(-c2c3nc(c(-c4ccccc4)c4ccc([nH]4)c(-c4ccccc4)c4nc(c(-c5ccccc5)c5ccc2[nH]5)C=C4)C=C3)cc1
REMARK SMILES IDX 29 1 30 2 31 3 3 5 2 6 1 7 4 8 5 9 6 10 28 11 7 12 9 13 8 14
REMARK SMILES IDX 10 15 11 16 12 17 26 18 13 19 15 20 27 21 14 22 16 23 17 24
REMARK SMILES IDX 18 26 19 27 20 28 25 29 21 30 23 31 22 32 24 33 32 35 33 36
REMARK SMILES IDX 34 37 35 38 36 39 37 40 38 42 39 43 40 44 86 45 41 46 85 47
REMARK SMILES IDX 42 48 43 49 44 50 79 51 45 52 84 53 78 54 80 55 46 56 83 57
REMARK SMILES IDX 77 58 76 59 47 61 69 62 54 63 68 64 55 65 58 66 67 67 81 68
REMARK SMILES IDX 56 69 57 70 66 72 82 73 59 74 48 75 49 76 53 77 50 78 52 79
REMARK SMILES IDX 51 80 70 81 71 82 75 83 72 84 74 85 73 86 60 87 61 88 65 89
REMARK SMILES IDX 62 90 64 91 63 92
REMARK H PARENT 31 4 16 25 24 34 36 41 80 60 58 71
REMARK Flexibility Score: inf
ROOT
ATOM      1  C   UNL A   1      41.611  23.534  27.608  1.00  0.00     0.261 C 
ATOM      2  O   UNL A   1      41.757  24.070  28.711  1.00  0.00    -0.271 OA
ATOM      3  N   UNL A   1      42.413  22.465  27.308  1.00  0.00    -0.353 N 
ATOM      4  H   UNL A   1      43.085  22.233  27.990  1.00  0.00     0.163 HD
ENDROOT
BRANCH   1   5
ATOM      5  C   UNL A   1      40.523  24.020  26.624  1.00  0.00     0.261 C 
BRANCH   5   6
ATOM      6  C   UNL A   1      40.646  25.554  26.430  1.00  0.00     0.052 C 
ATOM      7  C   UNL A   1      41.656  26.090  25.419  1.00  0.00     0.008 C 
ENDBRANCH   5   6
BRANCH   5   8
ATOM      8  O   UNL A   1      39.278  23.533  27.128  1.00  0.00    -0.481 OA
BRANCH   8   9
ATOM      9  C   UNL A   1      38.448  22.848  26.288  1.00  0.00     0.121 A 
ATOM     10  C   UNL A   1      38.674  21.581  25.761  1.00  0.00     0.046 A 
ATOM     11  C   UNL A   1      37.315  23.571  25.901  1.00  0.00     0.054 A 
ATOM     12  C   UNL A   1      37.805  21.074  24.796  1.00  0.00     0.004 A 
ATOM     13  C   UNL A   1      36.477  23.113  24.880  1.00  0.00    -0.021 A 
ATOM     14  C   UNL A   1      36.725  21.839  24.351  1.00  0.00     0.008 A 
BRANCH  13  15
ATOM     15  C   UNL A   1      35.352  23.884  24.317  1.00  0.00     0.029 C 
ATOM     16  C   UNL A   1      34.106  24.055  24.782  1.00  0.00     0.082 C 
ATOM     17  S   UNL A   1      33.332  23.351  26.150  1.00  0.00    -0.052 SA
ATOM     18  C   UNL A   1      33.144  24.948  24.072  1.00  0.00     0.285 C 
ATOM     19  C   UNL A   1      31.737  23.869  25.635  1.00  0.00     0.168 C 
ATOM     20  N   UNL A   1      31.860  24.642  24.497  1.00  0.00    -0.198 N 
ATOM     21  O   UNL A   1      33.484  25.820  23.283  1.00  0.00    -0.266 OA
ATOM     22  S   UNL A   1      30.337  23.463  26.444  1.00  0.00    -0.050 S 
BRANCH  20  23
ATOM     23  N   UNL A   1      30.729  25.229  23.913  1.00  0.00    -0.255 N 
ATOM     24  C   UNL A   1      30.303  26.532  24.065  1.00  0.00     0.270 C 
ATOM     25  H   UNL A   1      30.181  24.652  23.332  1.00  0.00     0.192 HD
ATOM     26  O   UNL A   1      29.337  26.942  23.427  1.00  0.00    -0.267 OA
BRANCH  24  27
ATOM     27  C   UNL A   1      30.948  27.435  25.041  1.00  0.00     0.045 A 
ATOM     28  C   UNL A   1      31.458  28.644  24.547  1.00  0.00     0.014 A 
ATOM     29  C   UNL A   1      31.022  27.135  26.406  1.00  0.00     0.060 A 
ATOM     30  C   UNL A   1      31.983  29.588  25.427  1.00  0.00     0.005 A 
ATOM     31  C   UNL A   1      31.540  28.095  27.271  1.00  0.00     0.116 A 
ATOM     32  C   UNL A   1      32.011  29.317  26.794  1.00  0.00     0.046 A 
BRANCH  31  33
ATOM     33  O   UNL A   1      31.592  27.888  28.618  1.00  0.00    -0.508 OA
ATOM     34  H   UNL A   1      32.155  27.226  28.969  1.00  0.00     0.293 HD
ENDBRANCH  31  33
ENDBRANCH  24  27
ENDBRANCH  20  23
ENDBRANCH  13  15
ENDBRANCH   8   9
ENDBRANCH   5   8
ENDBRANCH   1   5
BRANCH   3  35
ATOM     35  C   UNL A   1      42.407  21.630  26.124  1.00  0.00     0.116 C 
BRANCH  35  36
ATOM     36  C   UNL A   1      43.708  21.707  25.335  1.00  0.00     0.023 C 
BRANCH  36  37
ATOM     37  C   UNL A   1      44.146  23.118  24.943  1.00  0.00     0.023 C 
BRANCH  37  38
ATOM     38  C   UNL A   1      45.360  23.667  25.688  1.00  0.00     0.116 C 
BRANCH  38  39
ATOM     39  N   UNL A   1      46.095  24.680  24.948  1.00  0.00    -0.352 N 
ATOM     40  C   UNL A   1      46.072  26.047  25.090  1.00  0.00     0.251 C 
ATOM     41  H   UNL A   1      46.696  24.338  24.245  1.00  0.00     0.163 HD
ATOM     42  O   UNL A   1      46.715  26.757  24.324  1.00  0.00    -0.269 OA
BRANCH  40  43
ATOM     43  C   UNL A   1      45.237  26.666  26.142  1.00  0.00     0.039 A 
ATOM     44  C   UNL A   1      44.798  25.870  27.203  1.00  0.00     0.014 A 
ATOM     45  C   UNL A   1      44.897  28.021  26.092  1.00  0.00     0.014 A 
ATOM     46  C   UNL A   1      44.074  26.446  28.249  1.00  0.00     0.010 A 
ATOM     47  C   UNL A   1      44.232  28.607  27.166  1.00  0.00     0.010 A 
ATOM     48  C   UNL A   1      43.814  27.826  28.254  1.00  0.00    -0.014 A 
BRANCH  48  49
ATOM     49  C   UNL A   1      43.103  28.468  29.387  1.00  0.00     0.031 A 
ATOM     50  C   UNL A   1      43.775  28.600  30.724  1.00  0.00     0.074 A 
ATOM     51  C   UNL A   1      41.829  28.879  29.230  1.00  0.00     0.049 A 
ATOM     52  N   UNL A   1      43.300  29.093  31.841  1.00  0.00    -0.248 NA
ATOM     53  C   UNL A   1      45.150  28.088  30.828  1.00  0.00     0.031 C 
ATOM     54  C   UNL A   1      41.047  28.769  27.997  1.00  0.00     0.029 A 
ATOM     55  N   UNL A   1      40.968  29.469  30.120  1.00  0.00    -0.354 N 
ATOM     56  C   UNL A   1      44.307  28.927  32.784  1.00  0.00     0.074 A 
ATOM     57  C   UNL A   1      45.402  28.252  32.118  1.00  0.00     0.031 C 
ATOM     58  C   UNL A   1      39.832  29.305  28.199  1.00  0.00     0.029 A 
ATOM     59  C   UNL A   1      39.740  29.767  29.581  1.00  0.00     0.049 A 
ATOM     60  H   UNL A   1      41.207  29.662  31.055  1.00  0.00     0.167 HD
ATOM     61  C   UNL A   1      44.329  29.314  34.081  1.00  0.00     0.031 A 
ATOM     62  C   UNL A   1      38.663  30.353  30.136  1.00  0.00     0.031 A 
ATOM     63  C   UNL A   1      43.256  30.008  34.738  1.00  0.00     0.049 A 
ATOM     64  C   UNL A   1      38.718  30.791  31.572  1.00  0.00     0.074 A 
ATOM     65  C   UNL A   1      43.211  30.504  36.030  1.00  0.00     0.029 A 
ATOM     66  N   UNL A   1      42.036  30.307  34.152  1.00  0.00    -0.354 N 
ATOM     67  N   UNL A   1      39.703  30.688  32.429  1.00  0.00    -0.248 NA
ATOM     68  C   UNL A   1      37.514  31.440  32.110  1.00  0.00     0.031 C 
ATOM     69  C   UNL A   1      41.949  31.074  36.236  1.00  0.00     0.029 A 
ATOM     70  C   UNL A   1      41.226  30.967  35.060  1.00  0.00     0.049 A 
ATOM     71  H   UNL A   1      41.784  30.083  33.228  1.00  0.00     0.167 HD
ATOM     72  C   UNL A   1      39.249  31.283  33.599  1.00  0.00     0.074 A 
ATOM     73  C   UNL A   1      37.905  31.753  33.337  1.00  0.00     0.031 C 
ATOM     74  C   UNL A   1      39.892  31.430  34.782  1.00  0.00     0.031 A 
BRANCH  61  75
ATOM     75  C   UNL A   1      45.562  28.987  34.873  1.00  0.00    -0.014 A 
ATOM     76  C   UNL A   1      45.672  27.779  35.580  1.00  0.00     0.009 A 
ATOM     77  C   UNL A   1      46.634  29.892  34.900  1.00  0.00     0.009 A 
ATOM     78  C   UNL A   1      46.816  27.502  36.333  1.00  0.00     0.001 A 
ATOM     79  C   UNL A   1      47.787  29.601  35.633  1.00  0.00     0.001 A 
ATOM     80  C   UNL A   1      47.872  28.412  36.357  1.00  0.00     0.000 A 
ENDBRANCH  61  75
BRANCH  62  81
ATOM     81  C   UNL A   1      37.449  30.601  29.319  1.00  0.00    -0.014 A 
ATOM     82  C   UNL A   1      36.567  29.548  29.031  1.00  0.00     0.009 A 
ATOM     83  C   UNL A   1      37.168  31.881  28.819  1.00  0.00     0.009 A 
ATOM     84  C   UNL A   1      35.438  29.769  28.239  1.00  0.00     0.001 A 
ATOM     85  C   UNL A   1      36.027  32.103  28.046  1.00  0.00     0.001 A 
ATOM     86  C   UNL A   1      35.168  31.046  27.749  1.00  0.00     0.000 A 
ENDBRANCH  62  81
BRANCH  74  87
ATOM     87  C   UNL A   1      39.159  32.160  35.870  1.00  0.00    -0.014 A 
ATOM     88  C   UNL A   1      38.321  31.480  36.765  1.00  0.00     0.009 A 
ATOM     89  C   UNL A   1      39.335  33.545  36.016  1.00  0.00     0.009 A 
ATOM     90  C   UNL A   1      37.648  32.179  37.770  1.00  0.00     0.001 A 
ATOM     91  C   UNL A   1      38.680  34.237  37.034  1.00  0.00     0.001 A 
ATOM     92  C   UNL A   1      37.830  33.555  37.904  1.00  0.00     0.000 A 
ENDBRANCH  74  87
ENDBRANCH  48  49
ENDBRANCH  40  43
ENDBRANCH  38  39
ENDBRANCH  37  38
ENDBRANCH  36  37
ENDBRANCH  35  36
ENDBRANCH   3  35
TORSDOF 18
ENDMDL
MODEL 3
REMARK VINA RESULT:     -10.9      2.833      6.897
REMARK SMILES CC[C@H](Oc1cccc(/C=C2\SC(=S)N(NC(=O)c3cccc(O)c3)C2=O)c1)C(=O)NCCCCNC(=O)c1ccc(-c2c3nc(c(-c4ccccc4)c4ccc([nH]4)c(-c4ccccc4)c4nc(c(-c5ccccc5)c5ccc2[nH]5)C=C4)C=C3)cc1
REMARK SMILES IDX 29 1 30 2 31 3 3 5 2 6 1 7 4 8 5 9 6 10 28 11 7 12 9 13 8 14
REMARK SMILES IDX 10 15 11 16 12 17 26 18 13 19 15 20 27 21 14 22 16 23 17 24
REMARK SMILES IDX 18 26 19 27 20 28 25 29 21 30 23 31 22 32 24 33 32 35 33 36
REMARK SMILES IDX 34 37 35 38 36 39 37 40 38 42 39 43 40 44 86 45 41 46 85 47
REMARK SMILES IDX 42 48 43 49 44 50 79 51 45 52 84 53 78 54 80 55 46 56 83 57
REMARK SMILES IDX 77 58 76 59 47 61 69 62 54 63 68 64 55 65 58 66 67 67 81 68
REMARK SMILES IDX 56 69 57 70 66 72 82 73 59 74 48 75 49 76 53 77 50 78 52 79
REMARK SMILES IDX 51 80 70 81 71 82 75 83 72 84 74 85 73 86 60 87 61 88 65 89
REMARK SMILES IDX 62 90 64 91 63 92
REMARK H PARENT 31 4 16 25 24 34 36 41 80 60 58 71
REMARK Flexibility Score: inf
ROOT
ATOM      1  C   UNL A   1      36.674  29.484  29.505  1.00  0.00     0.261 C 
ATOM      2  O   UNL A   1      36.168  29.723  30.605  1.00  0.00    -0.271 OA
ATOM      3  N   UNL A   1      37.875  28.827  29.485  1.00  0.00    -0.353 N 
ATOM      4  H   UNL A   1      38.268  28.632  30.367  1.00  0.00     0.163 HD
ENDROOT
BRANCH   1   5
ATOM      5  C   UNL A   1      35.948  29.867  28.195  1.00  0.00     0.261 C 
BRANCH   5   6
ATOM      6  C   UNL A   1      36.141  31.381  27.918  1.00  0.00     0.052 C 
ATOM      7  C   UNL A   1      37.060  32.186  28.831  1.00  0.00     0.008 C 
ENDBRANCH   5   6
BRANCH   5   8
ATOM      8  O   UNL A   1      34.604  29.403  28.330  1.00  0.00    -0.481 OA
BRANCH   8   9
ATOM      9  C   UNL A   1      33.713  29.657  27.326  1.00  0.00     0.121 A 
ATOM     10  C   UNL A   1      32.853  30.747  27.247  1.00  0.00     0.046 A 
ATOM     11  C   UNL A   1      33.657  28.654  26.354  1.00  0.00     0.054 A 
ATOM     12  C   UNL A   1      31.893  30.792  26.238  1.00  0.00     0.004 A 
ATOM     13  C   UNL A   1      32.652  28.643  25.381  1.00  0.00    -0.021 A 
ATOM     14  C   UNL A   1      31.786  29.743  25.322  1.00  0.00     0.008 A 
BRANCH  13  15
ATOM     15  C   UNL A   1      32.439  27.547  24.417  1.00  0.00     0.029 C 
ATOM     16  C   UNL A   1      31.817  26.369  24.575  1.00  0.00     0.082 C 
ATOM     17  S   UNL A   1      31.134  25.662  25.989  1.00  0.00    -0.052 SA
ATOM     18  C   UNL A   1      31.659  25.432  23.425  1.00  0.00     0.285 C 
ATOM     19  C   UNL A   1      30.987  24.080  25.244  1.00  0.00     0.168 C 
ATOM     20  N   UNL A   1      31.368  24.169  23.919  1.00  0.00    -0.198 N 
ATOM     21  O   UNL A   1      31.741  25.776  22.253  1.00  0.00    -0.266 OA
ATOM     22  S   UNL A   1      30.454  22.730  26.063  1.00  0.00    -0.050 S 
BRANCH  20  23
ATOM     23  N   UNL A   1      31.289  23.048  23.082  1.00  0.00    -0.255 N 
ATOM     24  C   UNL A   1      32.238  22.059  22.936  1.00  0.00     0.270 C 
ATOM     25  H   UNL A   1      30.470  22.956  22.543  1.00  0.00     0.192 HD
ATOM     26  O   UNL A   1      32.005  21.082  22.228  1.00  0.00    -0.267 OA
BRANCH  24  27
ATOM     27  C   UNL A   1      33.570  22.180  23.565  1.00  0.00     0.045 A 
ATOM     28  C   UNL A   1      34.517  22.971  22.899  1.00  0.00     0.014 A 
ATOM     29  C   UNL A   1      33.879  21.576  24.788  1.00  0.00     0.060 A 
ATOM     30  C   UNL A   1      35.756  23.214  23.488  1.00  0.00     0.005 A 
ATOM     31  C   UNL A   1      35.119  21.839  25.366  1.00  0.00     0.116 A 
ATOM     32  C   UNL A   1      36.051  22.657  24.731  1.00  0.00     0.046 A 
BRANCH  31  33
ATOM     33  O   UNL A   1      35.463  21.325  26.581  1.00  0.00    -0.508 OA
ATOM     34  H   UNL A   1      35.820  20.460  26.640  1.00  0.00     0.293 HD
ENDBRANCH  31  33
ENDBRANCH  24  27
ENDBRANCH  20  23
ENDBRANCH  13  15
ENDBRANCH   8   9
ENDBRANCH   5   8
ENDBRANCH   1   5
BRANCH   3  35
ATOM     35  C   UNL A   1      38.645  28.378  28.343  1.00  0.00     0.116 C 
BRANCH  35  36
ATOM     36  C   UNL A   1      39.963  27.721  28.734  1.00  0.00     0.023 C 
BRANCH  36  37
ATOM     37  C   UNL A   1      40.033  26.214  28.489  1.00  0.00     0.023 C 
BRANCH  37  38
ATOM     38  C   UNL A   1      39.787  25.764  27.052  1.00  0.00     0.116 C 
BRANCH  38  39
ATOM     39  N   UNL A   1      40.210  24.399  26.782  1.00  0.00    -0.352 N 
ATOM     40  C   UNL A   1      41.468  23.920  26.503  1.00  0.00     0.251 C 
ATOM     41  H   UNL A   1      39.495  23.722  26.803  1.00  0.00     0.163 HD
ATOM     42  O   UNL A   1      41.629  22.734  26.232  1.00  0.00    -0.269 OA
BRANCH  40  43
ATOM     43  C   UNL A   1      42.624  24.842  26.487  1.00  0.00     0.039 A 
ATOM     44  C   UNL A   1      42.956  25.477  25.287  1.00  0.00     0.014 A 
ATOM     45  C   UNL A   1      43.370  25.088  27.643  1.00  0.00     0.014 A 
ATOM     46  C   UNL A   1      43.994  26.412  25.262  1.00  0.00     0.010 A 
ATOM     47  C   UNL A   1      44.361  26.066  27.631  1.00  0.00     0.010 A 
ATOM     48  C   UNL A   1      44.682  26.737  26.441  1.00  0.00    -0.014 A 
BRANCH  48  49
ATOM     49  C   UNL A   1      45.744  27.773  26.448  1.00  0.00     0.031 A 
ATOM     50  C   UNL A   1      45.386  29.221  26.628  1.00  0.00     0.074 A 
ATOM     51  C   UNL A   1      47.026  27.418  26.233  1.00  0.00     0.049 A 
ATOM     52  N   UNL A   1      46.169  30.272  26.621  1.00  0.00    -0.248 NA
ATOM     53  C   UNL A   1      43.961  29.534  26.814  1.00  0.00     0.031 C 
ATOM     54  C   UNL A   1      47.502  26.053  26.001  1.00  0.00     0.029 A 
ATOM     55  N   UNL A   1      48.164  28.182  26.170  1.00  0.00    -0.354 N 
ATOM     56  C   UNL A   1      45.329  31.368  26.775  1.00  0.00     0.074 A 
ATOM     57  C   UNL A   1      43.975  30.858  26.832  1.00  0.00     0.031 C 
ATOM     58  C   UNL A   1      48.837  26.072  25.854  1.00  0.00     0.029 A 
ATOM     59  C   UNL A   1      49.305  27.452  25.951  1.00  0.00     0.049 A 
ATOM     60  H   UNL A   1      48.162  29.161  26.274  1.00  0.00     0.167 HD
ATOM     61  C   UNL A   1      45.653  32.679  26.876  1.00  0.00     0.031 A 
ATOM     62  C   UNL A   1      50.587  27.848  25.845  1.00  0.00     0.031 A 
ATOM     63  C   UNL A   1      46.997  33.186  26.846  1.00  0.00     0.049 A 
ATOM     64  C   UNL A   1      50.924  29.306  25.980  1.00  0.00     0.074 A 
ATOM     65  C   UNL A   1      47.431  34.491  27.011  1.00  0.00     0.029 A 
ATOM     66  N   UNL A   1      48.127  32.411  26.640  1.00  0.00    -0.354 N 
ATOM     67  N   UNL A   1      50.124  30.321  26.194  1.00  0.00    -0.248 NA
ATOM     68  C   UNL A   1      52.345  29.667  25.872  1.00  0.00     0.031 C 
ATOM     69  C   UNL A   1      48.824  34.509  26.870  1.00  0.00     0.029 A 
ATOM     70  C   UNL A   1      49.258  33.211  26.658  1.00  0.00     0.049 A 
ATOM     71  H   UNL A   1      48.126  31.437  26.501  1.00  0.00     0.167 HD
ATOM     72  C   UNL A   1      50.946  31.438  26.274  1.00  0.00     0.074 A 
ATOM     73  C   UNL A   1      52.306  30.973  26.096  1.00  0.00     0.031 C 
ATOM     74  C   UNL A   1      50.603  32.732  26.482  1.00  0.00     0.031 A 
BRANCH  61  75
ATOM     75  C   UNL A   1      44.521  33.654  27.025  1.00  0.00    -0.014 A 
ATOM     76  C   UNL A   1      43.939  34.269  25.906  1.00  0.00     0.009 A 
ATOM     77  C   UNL A   1      44.021  33.951  28.302  1.00  0.00     0.009 A 
ATOM     78  C   UNL A   1      42.905  35.193  26.065  1.00  0.00     0.001 A 
ATOM     79  C   UNL A   1      42.970  34.857  28.456  1.00  0.00     0.001 A 
ATOM     80  C   UNL A   1      42.420  35.485  27.339  1.00  0.00     0.000 A 
ENDBRANCH  61  75
BRANCH  62  81
ATOM     81  C   UNL A   1      51.660  26.843  25.640  1.00  0.00    -0.014 A 
ATOM     82  C   UNL A   1      52.148  26.586  24.350  1.00  0.00     0.009 A 
ATOM     83  C   UNL A   1      52.197  26.134  26.726  1.00  0.00     0.009 A 
ATOM     84  C   UNL A   1      53.137  25.621  24.148  1.00  0.00     0.001 A 
ATOM     85  C   UNL A   1      53.201  25.186  26.522  1.00  0.00     0.001 A 
ATOM     86  C   UNL A   1      53.665  24.924  25.233  1.00  0.00     0.000 A 
ENDBRANCH  62  81
BRANCH  74  87
ATOM     87  C   UNL A   1      51.722  33.729  26.563  1.00  0.00    -0.014 A 
ATOM     88  C   UNL A   1      52.181  34.402  25.421  1.00  0.00     0.009 A 
ATOM     89  C   UNL A   1      52.303  34.019  27.806  1.00  0.00     0.009 A 
ATOM     90  C   UNL A   1      53.223  35.326  25.519  1.00  0.00     0.001 A 
ATOM     91  C   UNL A   1      53.329  34.959  27.905  1.00  0.00     0.001 A 
ATOM     92  C   UNL A   1      53.794  35.604  26.760  1.00  0.00     0.000 A 
ENDBRANCH  74  87
ENDBRANCH  48  49
ENDBRANCH  40  43
ENDBRANCH  38  39
ENDBRANCH  37  38
ENDBRANCH  36  37
ENDBRANCH  35  36
ENDBRANCH   3  35
TORSDOF 18
ENDMDL
