MODEL 1
REMARK VINA RESULT:     -11.6      0.000      0.000
REMARK SMILES COC(=O)c1cccc(NC(=O)[C@@H]2[C@@H]3CC[C@@H](C3)[C@@H]2C(=O)NCCCCNC(=O)c2ccc(-c3c4nc(c(-c5ccccc5)c5ccc([nH]5)c(-c5ccccc5)c5nc(c(-c6ccccc6)c6ccc3[nH]6)C=C5)C=C4)cc2)c1
REMARK SMILES IDX 23 1 22 2 20 3 21 4 19 6 13 7 14 8 15 9 18 10 17 11 16 12
REMARK SMILES IDX 11 13 10 14 12 16 9 17 5 18 6 19 78 20 7 21 8 22 3 23 4 24
REMARK SMILES IDX 2 25 1 26 24 27 25 28 26 29 27 30 28 31 29 33 30 34 31 35
REMARK SMILES IDX 77 36 32 37 76 38 33 39 34 40 35 41 70 42 36 43 75 44 69 45
REMARK SMILES IDX 71 46 37 47 74 48 68 49 67 50 38 52 60 53 45 54 59 55 46 56
REMARK SMILES IDX 49 57 58 58 72 59 47 60 48 61 57 63 73 64 50 65 39 66 40 67
REMARK SMILES IDX 44 68 41 69 43 70 42 71 61 72 62 73 66 74 63 75 65 76 64 77
REMARK SMILES IDX 51 78 52 79 56 80 53 81 55 82 54 83
REMARK H PARENT 22 5 10 15 27 32 71 51 49 62
REMARK Flexibility Score: inf
ROOT
ATOM      1  C   UNL A   1      34.125  23.345  22.711  1.00  0.00     0.116 C 
ENDROOT
BRANCH   1   2
ATOM      2  N   UNL A   1      32.731  23.720  22.865  1.00  0.00    -0.356 N 
ATOM      3  C   UNL A   1      32.143  24.792  23.472  1.00  0.00     0.224 C 
ATOM      4  O   UNL A   1      30.944  24.965  23.256  1.00  0.00    -0.275 OA
ATOM      5  H   UNL A   1      32.096  23.087  22.458  1.00  0.00     0.163 HD
BRANCH   3   6
ATOM      6  C   UNL A   1      32.987  25.750  24.304  1.00  0.00     0.094 C 
ATOM      7  C   UNL A   1      32.609  26.092  25.777  1.00  0.00     0.094 C 
ATOM      8  C   UNL A   1      32.661  27.646  25.756  1.00  0.00     0.002 C 
ATOM      9  C   UNL A   1      31.473  28.225  24.974  1.00  0.00     0.005 C 
ATOM     10  C   UNL A   1      33.822  27.911  24.791  1.00  0.00     0.009 C 
ATOM     11  C   UNL A   1      33.159  27.144  23.645  1.00  0.00     0.002 C 
ATOM     12  C   UNL A   1      31.837  27.919  23.519  1.00  0.00     0.005 C 
BRANCH   7  13
ATOM     13  C   UNL A   1      31.358  25.489  26.406  1.00  0.00     0.228 C 
ATOM     14  N   UNL A   1      31.314  24.204  26.870  1.00  0.00    -0.326 N 
ATOM     15  H   UNL A   1      30.509  24.031  27.411  1.00  0.00     0.169 HD
ATOM     16  O   UNL A   1      30.304  26.120  26.496  1.00  0.00    -0.274 OA
BRANCH  14  17
ATOM     17  C   UNL A   1      32.136  23.067  26.766  1.00  0.00     0.042 A 
ATOM     18  C   UNL A   1      32.592  20.995  25.560  1.00  0.00     0.062 A 
ATOM     19  C   UNL A   1      33.647  20.709  26.427  1.00  0.00     0.016 A 
ATOM     20  C   UNL A   1      31.836  22.166  25.732  1.00  0.00     0.041 A 
ATOM     21  C   UNL A   1      33.982  21.620  27.420  1.00  0.00     0.003 A 
ATOM     22  C   UNL A   1      33.245  22.799  27.570  1.00  0.00     0.026 A 
BRANCH  18  23
ATOM     23  C   UNL A   1      32.325  20.035  24.466  1.00  0.00     0.337 C 
ATOM     24  O   UNL A   1      32.173  20.363  23.301  1.00  0.00    -0.246 OA
BRANCH  23  25
ATOM     25  O   UNL A   1      32.156  18.794  24.985  1.00  0.00    -0.465 OA
ATOM     26  C   UNL A   1      32.656  17.750  24.146  1.00  0.00     0.282 C 
ENDBRANCH  23  25
ENDBRANCH  18  23
ENDBRANCH  14  17
ENDBRANCH   7  13
ENDBRANCH   3   6
ENDBRANCH   1   2
BRANCH   1  27
ATOM     27  C   UNL A   1      34.850  23.223  24.049  1.00  0.00     0.023 C 
BRANCH  27  28
ATOM     28  C   UNL A   1      36.371  23.085  23.956  1.00  0.00     0.023 C 
BRANCH  28  29
ATOM     29  C   UNL A   1      37.156  23.517  25.191  1.00  0.00     0.116 C 
BRANCH  29  30
ATOM     30  N   UNL A   1      38.318  22.684  25.458  1.00  0.00    -0.352 N 
ATOM     31  C   UNL A   1      39.471  22.991  26.140  1.00  0.00     0.251 C 
ATOM     32  H   UNL A   1      38.271  21.768  25.100  1.00  0.00     0.163 HD
ATOM     33  O   UNL A   1      40.394  22.184  26.180  1.00  0.00    -0.269 OA
BRANCH  31  34
ATOM     34  C   UNL A   1      39.619  24.310  26.792  1.00  0.00     0.039 A 
ATOM     35  C   UNL A   1      39.089  24.487  28.073  1.00  0.00     0.014 A 
ATOM     36  C   UNL A   1      40.283  25.364  26.158  1.00  0.00     0.014 A 
ATOM     37  C   UNL A   1      39.293  25.692  28.749  1.00  0.00     0.010 A 
ATOM     38  C   UNL A   1      40.540  26.542  26.856  1.00  0.00     0.010 A 
ATOM     39  C   UNL A   1      40.055  26.715  28.162  1.00  0.00    -0.014 A 
BRANCH  39  40
ATOM     40  C   UNL A   1      40.378  27.955  28.912  1.00  0.00     0.031 A 
ATOM     41  C   UNL A   1      41.684  28.087  29.645  1.00  0.00     0.074 A 
ATOM     42  C   UNL A   1      39.465  28.944  28.985  1.00  0.00     0.049 A 
ATOM     43  N   UNL A   1      42.118  29.075  30.386  1.00  0.00    -0.248 NA
ATOM     44  C   UNL A   1      42.617  26.953  29.548  1.00  0.00     0.031 C 
ATOM     45  C   UNL A   1      38.142  28.925  28.358  1.00  0.00     0.029 A 
ATOM     46  N   UNL A   1      39.510  30.155  29.628  1.00  0.00    -0.354 N 
ATOM     47  C   UNL A   1      43.362  28.676  30.857  1.00  0.00     0.074 A 
ATOM     48  C   UNL A   1      43.597  27.341  30.351  1.00  0.00     0.031 C 
ATOM     49  C   UNL A   1      37.513  30.080  28.626  1.00  0.00     0.029 A 
ATOM     50  C   UNL A   1      38.370  30.904  29.473  1.00  0.00     0.049 A 
ATOM     51  H   UNL A   1      40.287  30.459  30.152  1.00  0.00     0.167 HD
ATOM     52  C   UNL A   1      44.238  29.365  31.627  1.00  0.00     0.031 A 
ATOM     53  C   UNL A   1      38.045  32.117  29.959  1.00  0.00     0.031 A 
ATOM     54  C   UNL A   1      44.014  30.697  32.123  1.00  0.00     0.049 A 
ATOM     55  C   UNL A   1      39.033  32.857  30.815  1.00  0.00     0.074 A 
ATOM     56  C   UNL A   1      44.870  31.497  32.862  1.00  0.00     0.029 A 
ATOM     57  N   UNL A   1      42.849  31.423  31.936  1.00  0.00    -0.354 N 
ATOM     58  N   UNL A   1      40.235  32.493  31.193  1.00  0.00    -0.248 NA
ATOM     59  C   UNL A   1      38.621  34.181  31.306  1.00  0.00     0.031 C 
ATOM     60  C   UNL A   1      44.204  32.691  33.157  1.00  0.00     0.029 A 
ATOM     61  C   UNL A   1      42.954  32.653  32.563  1.00  0.00     0.049 A 
ATOM     62  H   UNL A   1      42.064  31.110  31.431  1.00  0.00     0.167 HD
ATOM     63  C   UNL A   1      40.730  33.551  31.943  1.00  0.00     0.074 A 
ATOM     64  C   UNL A   1      39.708  34.576  31.953  1.00  0.00     0.031 C 
ATOM     65  C   UNL A   1      41.927  33.662  32.568  1.00  0.00     0.031 A 
BRANCH  52  66
ATOM     66  C   UNL A   1      45.528  28.681  31.983  1.00  0.00    -0.014 A 
ATOM     67  C   UNL A   1      46.667  28.813  31.172  1.00  0.00     0.009 A 
ATOM     68  C   UNL A   1      45.618  27.929  33.164  1.00  0.00     0.009 A 
ATOM     69  C   UNL A   1      47.859  28.175  31.520  1.00  0.00     0.001 A 
ATOM     70  C   UNL A   1      46.819  27.315  33.523  1.00  0.00     0.001 A 
ATOM     71  C   UNL A   1      47.936  27.431  32.696  1.00  0.00     0.000 A 
ENDBRANCH  52  66
BRANCH  53  72
ATOM     72  C   UNL A   1      36.729  32.722  29.634  1.00  0.00    -0.014 A 
ATOM     73  C   UNL A   1      35.681  32.687  30.567  1.00  0.00     0.009 A 
ATOM     74  C   UNL A   1      36.509  33.327  28.387  1.00  0.00     0.009 A 
ATOM     75  C   UNL A   1      34.431  33.222  30.247  1.00  0.00     0.001 A 
ATOM     76  C   UNL A   1      35.266  33.885  28.081  1.00  0.00     0.001 A 
ATOM     77  C   UNL A   1      34.226  33.825  29.007  1.00  0.00     0.000 A 
ENDBRANCH  53  72
BRANCH  65  78
ATOM     78  C   UNL A   1      42.205  34.948  33.291  1.00  0.00    -0.014 A 
ATOM     79  C   UNL A   1      43.002  35.949  32.714  1.00  0.00     0.009 A 
ATOM     80  C   UNL A   1      41.635  35.175  34.553  1.00  0.00     0.009 A 
ATOM     81  C   UNL A   1      43.251  37.138  33.403  1.00  0.00     0.001 A 
ATOM     82  C   UNL A   1      41.864  36.374  35.229  1.00  0.00     0.001 A 
ATOM     83  C   UNL A   1      42.679  37.351  34.658  1.00  0.00     0.000 A 
ENDBRANCH  65  78
ENDBRANCH  39  40
ENDBRANCH  31  34
ENDBRANCH  29  30
ENDBRANCH  28  29
ENDBRANCH  27  28
ENDBRANCH   1  27
TORSDOF 15
ENDMDL
MODEL 2
REMARK VINA RESULT:     -11.5      1.020      5.896
REMARK SMILES COC(=O)c1cccc(NC(=O)[C@@H]2[C@@H]3CC[C@@H](C3)[C@@H]2C(=O)NCCCCNC(=O)c2ccc(-c3c4nc(c(-c5ccccc5)c5ccc([nH]5)c(-c5ccccc5)c5nc(c(-c6ccccc6)c6ccc3[nH]6)C=C5)C=C4)cc2)c1
REMARK SMILES IDX 23 1 22 2 20 3 21 4 19 6 13 7 14 8 15 9 18 10 17 11 16 12
REMARK SMILES IDX 11 13 10 14 12 16 9 17 5 18 6 19 78 20 7 21 8 22 3 23 4 24
REMARK SMILES IDX 2 25 1 26 24 27 25 28 26 29 27 30 28 31 29 33 30 34 31 35
REMARK SMILES IDX 77 36 32 37 76 38 33 39 34 40 35 41 70 42 36 43 75 44 69 45
REMARK SMILES IDX 71 46 37 47 74 48 68 49 67 50 38 52 60 53 45 54 59 55 46 56
REMARK SMILES IDX 49 57 58 58 72 59 47 60 48 61 57 63 73 64 50 65 39 66 40 67
REMARK SMILES IDX 44 68 41 69 43 70 42 71 61 72 62 73 66 74 63 75 65 76 64 77
REMARK SMILES IDX 51 78 52 79 56 80 53 81 55 82 54 83
REMARK H PARENT 22 5 10 15 27 32 71 51 49 62
REMARK Flexibility Score: inf
ROOT
ATOM      1  C   UNL A   1      34.620  23.647  22.816  1.00  0.00     0.116 C 
ENDROOT
BRANCH   1   2
ATOM      2  N   UNL A   1      33.192  23.881  22.941  1.00  0.00    -0.356 N 
ATOM      3  C   UNL A   1      32.485  24.824  23.632  1.00  0.00     0.224 C 
ATOM      4  O   UNL A   1      31.285  24.915  23.377  1.00  0.00    -0.275 OA
ATOM      5  H   UNL A   1      32.633  23.246  22.437  1.00  0.00     0.163 HD
BRANCH   3   6
ATOM      6  C   UNL A   1      33.206  25.751  24.603  1.00  0.00     0.094 C 
ATOM      7  C   UNL A   1      32.643  26.023  26.031  1.00  0.00     0.094 C 
ATOM      8  C   UNL A   1      32.674  27.577  26.084  1.00  0.00     0.002 C 
ATOM      9  C   UNL A   1      31.583  28.179  25.186  1.00  0.00     0.005 C 
ATOM     10  C   UNL A   1      33.941  27.896  25.283  1.00  0.00     0.009 C 
ATOM     11  C   UNL A   1      33.437  27.175  24.031  1.00  0.00     0.002 C 
ATOM     12  C   UNL A   1      32.129  27.942  23.776  1.00  0.00     0.005 C 
BRANCH   7  13
ATOM     13  C   UNL A   1      31.333  25.380  26.473  1.00  0.00     0.228 C 
ATOM     14  N   UNL A   1      31.241  24.060  26.818  1.00  0.00    -0.326 N 
ATOM     15  H   UNL A   1      30.384  23.850  27.256  1.00  0.00     0.169 HD
ATOM     16  O   UNL A   1      30.276  26.011  26.508  1.00  0.00    -0.274 OA
BRANCH  14  17
ATOM     17  C   UNL A   1      32.069  22.929  26.702  1.00  0.00     0.042 A 
ATOM     18  C   UNL A   1      32.561  20.893  25.449  1.00  0.00     0.062 A 
ATOM     19  C   UNL A   1      33.594  20.585  26.334  1.00  0.00     0.016 A 
ATOM     20  C   UNL A   1      31.798  22.057  25.636  1.00  0.00     0.041 A 
ATOM     21  C   UNL A   1      33.902  21.468  27.361  1.00  0.00     0.003 A 
ATOM     22  C   UNL A   1      33.158  22.641  27.526  1.00  0.00     0.026 A 
BRANCH  18  23
ATOM     23  C   UNL A   1      32.325  19.964  24.322  1.00  0.00     0.337 C 
ATOM     24  O   UNL A   1      32.195  20.326  23.164  1.00  0.00    -0.246 OA
BRANCH  23  25
ATOM     25  O   UNL A   1      32.153  18.707  24.801  1.00  0.00    -0.465 OA
ATOM     26  C   UNL A   1      32.863  17.711  24.060  1.00  0.00     0.282 C 
ENDBRANCH  23  25
ENDBRANCH  18  23
ENDBRANCH  14  17
ENDBRANCH   7  13
ENDBRANCH   3   6
ENDBRANCH   1   2
BRANCH   1  27
ATOM     27  C   UNL A   1      35.200  22.909  24.018  1.00  0.00     0.023 C 
BRANCH  27  28
ATOM     28  C   UNL A   1      36.322  23.645  24.755  1.00  0.00     0.023 C 
BRANCH  28  29
ATOM     29  C   UNL A   1      36.698  23.085  26.124  1.00  0.00     0.116 C 
BRANCH  29  30
ATOM     30  N   UNL A   1      37.931  22.314  26.114  1.00  0.00    -0.352 N 
ATOM     31  C   UNL A   1      39.210  22.713  26.422  1.00  0.00     0.251 C 
ATOM     32  H   UNL A   1      37.836  21.371  25.848  1.00  0.00     0.163 HD
ATOM     33  O   UNL A   1      40.150  21.941  26.259  1.00  0.00    -0.269 OA
BRANCH  31  34
ATOM     34  C   UNL A   1      39.463  24.085  26.912  1.00  0.00     0.039 A 
ATOM     35  C   UNL A   1      39.136  24.394  28.236  1.00  0.00     0.014 A 
ATOM     36  C   UNL A   1      40.025  25.061  26.084  1.00  0.00     0.014 A 
ATOM     37  C   UNL A   1      39.446  25.654  28.751  1.00  0.00     0.010 A 
ATOM     38  C   UNL A   1      40.391  26.295  26.617  1.00  0.00     0.010 A 
ATOM     39  C   UNL A   1      40.113  26.601  27.958  1.00  0.00    -0.014 A 
BRANCH  39  40
ATOM     40  C   UNL A   1      40.553  27.901  28.525  1.00  0.00     0.031 A 
ATOM     41  C   UNL A   1      39.568  29.019  28.729  1.00  0.00     0.074 A 
ATOM     42  C   UNL A   1      41.858  28.100  28.798  1.00  0.00     0.049 A 
ATOM     43  N   UNL A   1      39.779  30.234  29.169  1.00  0.00    -0.248 NA
ATOM     44  C   UNL A   1      38.166  28.741  28.376  1.00  0.00     0.031 C 
ATOM     45  C   UNL A   1      42.924  27.114  28.604  1.00  0.00     0.029 A 
ATOM     46  N   UNL A   1      42.510  29.202  29.291  1.00  0.00    -0.354 N 
ATOM     47  C   UNL A   1      38.545  30.870  29.128  1.00  0.00     0.074 A 
ATOM     48  C   UNL A   1      37.598  29.920  28.584  1.00  0.00     0.031 C 
ATOM     49  C   UNL A   1      44.091  27.648  28.998  1.00  0.00     0.029 A 
ATOM     50  C   UNL A   1      43.864  29.022  29.435  1.00  0.00     0.049 A 
ATOM     51  H   UNL A   1      42.051  30.042  29.519  1.00  0.00     0.167 HD
ATOM     52  C   UNL A   1      38.223  32.124  29.525  1.00  0.00     0.031 A 
ATOM     53  C   UNL A   1      44.819  29.867  29.869  1.00  0.00     0.031 A 
ATOM     54  C   UNL A   1      39.159  33.068  30.076  1.00  0.00     0.049 A 
ATOM     55  C   UNL A   1      44.436  31.255  30.296  1.00  0.00     0.074 A 
ATOM     56  C   UNL A   1      38.913  34.342  30.560  1.00  0.00     0.029 A 
ATOM     57  N   UNL A   1      40.519  32.843  30.213  1.00  0.00    -0.354 N 
ATOM     58  N   UNL A   1      43.251  31.816  30.317  1.00  0.00    -0.248 NA
ATOM     59  C   UNL A   1      45.525  32.124  30.767  1.00  0.00     0.031 C 
ATOM     60  C   UNL A   1      40.134  34.904  30.950  1.00  0.00     0.029 A 
ATOM     61  C   UNL A   1      41.130  33.963  30.754  1.00  0.00     0.049 A 
ATOM     62  H   UNL A   1      40.981  32.011  29.964  1.00  0.00     0.167 HD
ATOM     63  C   UNL A   1      43.448  33.093  30.826  1.00  0.00     0.074 A 
ATOM     64  C   UNL A   1      44.861  33.218  31.116  1.00  0.00     0.031 C 
ATOM     65  C   UNL A   1      42.538  34.075  31.034  1.00  0.00     0.031 A 
BRANCH  52  66
ATOM     66  C   UNL A   1      36.790  32.550  29.371  1.00  0.00    -0.014 A 
ATOM     67  C   UNL A   1      35.881  32.432  30.433  1.00  0.00     0.009 A 
ATOM     68  C   UNL A   1      36.354  33.112  28.161  1.00  0.00     0.009 A 
ATOM     69  C   UNL A   1      34.554  32.838  30.276  1.00  0.00     0.001 A 
ATOM     70  C   UNL A   1      35.033  33.541  28.015  1.00  0.00     0.001 A 
ATOM     71  C   UNL A   1      34.133  33.395  29.070  1.00  0.00     0.000 A 
ENDBRANCH  52  66
BRANCH  53  72
ATOM     72  C   UNL A   1      46.233  29.420  29.938  1.00  0.00    -0.014 A 
ATOM     73  C   UNL A   1      47.088  29.594  28.839  1.00  0.00     0.009 A 
ATOM     74  C   UNL A   1      46.732  28.807  31.098  1.00  0.00     0.009 A 
ATOM     75  C   UNL A   1      48.408  29.140  28.891  1.00  0.00     0.001 A 
ATOM     76  C   UNL A   1      48.060  28.379  31.156  1.00  0.00     0.001 A 
ATOM     77  C   UNL A   1      48.893  28.538  30.050  1.00  0.00     0.000 A 
ENDBRANCH  53  72
BRANCH  65  78
ATOM     78  C   UNL A   1      43.039  35.358  31.629  1.00  0.00    -0.014 A 
ATOM     79  C   UNL A   1      42.933  35.612  33.005  1.00  0.00     0.009 A 
ATOM     80  C   UNL A   1      43.655  36.313  30.806  1.00  0.00     0.009 A 
ATOM     81  C   UNL A   1      43.403  36.813  33.540  1.00  0.00     0.001 A 
ATOM     82  C   UNL A   1      44.148  37.502  31.346  1.00  0.00     0.001 A 
ATOM     83  C   UNL A   1      44.013  37.755  32.710  1.00  0.00     0.000 A 
ENDBRANCH  65  78
ENDBRANCH  39  40
ENDBRANCH  31  34
ENDBRANCH  29  30
ENDBRANCH  28  29
ENDBRANCH  27  28
ENDBRANCH   1  27
TORSDOF 15
ENDMDL
MODEL 3
REMARK VINA RESULT:     -11.5      2.463      7.955
REMARK SMILES COC(=O)c1cccc(NC(=O)[C@@H]2[C@@H]3CC[C@@H](C3)[C@@H]2C(=O)NCCCCNC(=O)c2ccc(-c3c4nc(c(-c5ccccc5)c5ccc([nH]5)c(-c5ccccc5)c5nc(c(-c6ccccc6)c6ccc3[nH]6)C=C5)C=C4)cc2)c1
REMARK SMILES IDX 23 1 22 2 20 3 21 4 19 6 13 7 14 8 15 9 18 10 17 11 16 12
REMARK SMILES IDX 11 13 10 14 12 16 9 17 5 18 6 19 78 20 7 21 8 22 3 23 4 24
REMARK SMILES IDX 2 25 1 26 24 27 25 28 26 29 27 30 28 31 29 33 30 34 31 35
REMARK SMILES IDX 77 36 32 37 76 38 33 39 34 40 35 41 70 42 36 43 75 44 69 45
REMARK SMILES IDX 71 46 37 47 74 48 68 49 67 50 38 52 60 53 45 54 59 55 46 56
REMARK SMILES IDX 49 57 58 58 72 59 47 60 48 61 57 63 73 64 50 65 39 66 40 67
REMARK SMILES IDX 44 68 41 69 43 70 42 71 61 72 62 73 66 74 63 75 65 76 64 77
REMARK SMILES IDX 51 78 52 79 56 80 53 81 55 82 54 83
REMARK H PARENT 22 5 10 15 27 32 71 51 49 62
REMARK Flexibility Score: inf
ROOT
ATOM      1  C   UNL A   1      32.514  26.069  26.255  1.00  0.00     0.116 C 
ENDROOT
BRANCH   1   2
ATOM      2  N   UNL A   1      31.769  24.823  26.200  1.00  0.00    -0.356 N 
ATOM      3  C   UNL A   1      32.176  23.533  26.013  1.00  0.00     0.224 C 
ATOM      4  O   UNL A   1      31.346  22.652  26.234  1.00  0.00    -0.275 OA
ATOM      5  H   UNL A   1      30.798  24.928  26.320  1.00  0.00     0.163 HD
BRANCH   3   6
ATOM      6  C   UNL A   1      33.620  23.240  25.627  1.00  0.00     0.094 C 
ATOM      7  C   UNL A   1      33.995  22.764  24.192  1.00  0.00     0.094 C 
ATOM      8  C   UNL A   1      34.873  21.517  24.499  1.00  0.00     0.002 C 
ATOM      9  C   UNL A   1      34.013  20.353  25.013  1.00  0.00     0.005 C 
ATOM     10  C   UNL A   1      35.600  21.950  25.777  1.00  0.00     0.009 C 
ATOM     11  C   UNL A   1      34.297  22.186  26.543  1.00  0.00     0.002 C 
ATOM     12  C   UNL A   1      33.654  20.793  26.434  1.00  0.00     0.005 C 
BRANCH   7  13
ATOM     13  C   UNL A   1      32.905  22.552  23.147  1.00  0.00     0.228 C 
ATOM     14  N   UNL A   1      32.348  23.585  22.444  1.00  0.00    -0.326 N 
ATOM     15  H   UNL A   1      31.805  23.269  21.686  1.00  0.00     0.169 HD
ATOM     16  O   UNL A   1      32.439  21.438  22.905  1.00  0.00    -0.274 OA
BRANCH  14  17
ATOM     17  C   UNL A   1      32.361  24.989  22.538  1.00  0.00     0.042 A 
ATOM     18  C   UNL A   1      31.040  27.013  22.873  1.00  0.00     0.062 A 
ATOM     19  C   UNL A   1      32.182  27.799  22.714  1.00  0.00     0.016 A 
ATOM     20  C   UNL A   1      31.128  25.615  22.779  1.00  0.00     0.041 A 
ATOM     21  C   UNL A   1      33.414  27.185  22.527  1.00  0.00     0.003 A 
ATOM     22  C   UNL A   1      33.502  25.790  22.464  1.00  0.00     0.026 A 
BRANCH  18  23
ATOM     23  C   UNL A   1      29.765  27.709  23.153  1.00  0.00     0.337 C 
ATOM     24  O   UNL A   1      28.743  27.136  23.497  1.00  0.00    -0.246 OA
BRANCH  23  25
ATOM     25  O   UNL A   1      29.889  29.023  22.845  1.00  0.00    -0.465 OA
ATOM     26  C   UNL A   1      28.637  29.701  22.712  1.00  0.00     0.282 C 
ENDBRANCH  23  25
ENDBRANCH  18  23
ENDBRANCH  14  17
ENDBRANCH   7  13
ENDBRANCH   3   6
ENDBRANCH   1   2
BRANCH   1  27
ATOM     27  C   UNL A   1      31.623  27.271  26.555  1.00  0.00     0.023 C 
BRANCH  27  28
ATOM     28  C   UNL A   1      32.287  28.637  26.369  1.00  0.00     0.023 C 
BRANCH  28  29
ATOM     29  C   UNL A   1      33.502  28.912  27.250  1.00  0.00     0.116 C 
BRANCH  29  30
ATOM     30  N   UNL A   1      33.536  30.266  27.781  1.00  0.00    -0.352 N 
ATOM     31  C   UNL A   1      34.557  30.923  28.425  1.00  0.00     0.251 C 
ATOM     32  H   UNL A   1      32.710  30.787  27.660  1.00  0.00     0.163 HD
ATOM     33  O   UNL A   1      34.368  32.040  28.895  1.00  0.00    -0.269 OA
BRANCH  31  34
ATOM     34  C   UNL A   1      35.873  30.268  28.592  1.00  0.00     0.039 A 
ATOM     35  C   UNL A   1      36.767  30.281  27.518  1.00  0.00     0.014 A 
ATOM     36  C   UNL A   1      36.234  29.656  29.796  1.00  0.00     0.014 A 
ATOM     37  C   UNL A   1      38.049  29.750  27.675  1.00  0.00     0.010 A 
ATOM     38  C   UNL A   1      37.533  29.185  29.972  1.00  0.00     0.010 A 
ATOM     39  C   UNL A   1      38.457  29.235  28.916  1.00  0.00    -0.014 A 
BRANCH  39  40
ATOM     40  C   UNL A   1      39.851  28.774  29.133  1.00  0.00     0.031 A 
ATOM     41  C   UNL A   1      40.880  29.700  29.721  1.00  0.00     0.074 A 
ATOM     42  C   UNL A   1      40.211  27.536  28.741  1.00  0.00     0.049 A 
ATOM     43  N   UNL A   1      42.153  29.486  29.941  1.00  0.00    -0.248 NA
ATOM     44  C   UNL A   1      40.423  31.049  30.094  1.00  0.00     0.031 C 
ATOM     45  C   UNL A   1      39.323  26.553  28.117  1.00  0.00     0.029 A 
ATOM     46  N   UNL A   1      41.423  26.895  28.804  1.00  0.00    -0.354 N 
ATOM     47  C   UNL A   1      42.652  30.675  30.459  1.00  0.00     0.074 A 
ATOM     48  C   UNL A   1      41.555  31.618  30.484  1.00  0.00     0.031 C 
ATOM     49  C   UNL A   1      40.014  25.427  27.878  1.00  0.00     0.029 A 
ATOM     50  C   UNL A   1      41.399  25.619  28.296  1.00  0.00     0.049 A 
ATOM     51  H   UNL A   1      42.234  27.311  29.177  1.00  0.00     0.167 HD
ATOM     52  C   UNL A   1      43.905  30.951  30.892  1.00  0.00     0.031 A 
ATOM     53  C   UNL A   1      42.380  24.705  28.176  1.00  0.00     0.031 A 
ATOM     54  C   UNL A   1      44.996  30.014  30.880  1.00  0.00     0.049 A 
ATOM     55  C   UNL A   1      43.763  25.041  28.658  1.00  0.00     0.074 A 
ATOM     56  C   UNL A   1      46.286  30.186  31.353  1.00  0.00     0.029 A 
ATOM     57  N   UNL A   1      44.927  28.730  30.365  1.00  0.00    -0.354 N 
ATOM     58  N   UNL A   1      44.199  26.147  29.210  1.00  0.00    -0.248 NA
ATOM     59  C   UNL A   1      44.786  23.995  28.507  1.00  0.00     0.031 C 
ATOM     60  C   UNL A   1      47.009  29.019  31.084  1.00  0.00     0.029 A 
ATOM     61  C   UNL A   1      46.157  28.105  30.488  1.00  0.00     0.049 A 
ATOM     62  H   UNL A   1      44.122  28.322  29.971  1.00  0.00     0.167 HD
ATOM     63  C   UNL A   1      45.540  25.922  29.494  1.00  0.00     0.074 A 
ATOM     64  C   UNL A   1      45.840  24.570  29.070  1.00  0.00     0.031 C 
ATOM     65  C   UNL A   1      46.442  26.761  30.057  1.00  0.00     0.031 A 
BRANCH  52  66
ATOM     66  C   UNL A   1      44.163  32.336  31.416  1.00  0.00    -0.014 A 
ATOM     67  C   UNL A   1      43.999  32.639  32.777  1.00  0.00     0.009 A 
ATOM     68  C   UNL A   1      44.613  33.340  30.545  1.00  0.00     0.009 A 
ATOM     69  C   UNL A   1      44.249  33.929  33.249  1.00  0.00     0.001 A 
ATOM     70  C   UNL A   1      44.887  34.623  31.025  1.00  0.00     0.001 A 
ATOM     71  C   UNL A   1      44.696  34.918  32.375  1.00  0.00     0.000 A 
ENDBRANCH  52  66
BRANCH  53  72
ATOM     72  C   UNL A   1      42.089  23.374  27.588  1.00  0.00    -0.014 A 
ATOM     73  C   UNL A   1      42.376  23.115  26.239  1.00  0.00     0.009 A 
ATOM     74  C   UNL A   1      41.515  22.358  28.368  1.00  0.00     0.009 A 
ATOM     75  C   UNL A   1      42.068  21.874  25.676  1.00  0.00     0.001 A 
ATOM     76  C   UNL A   1      41.233  21.110  27.809  1.00  0.00     0.001 A 
ATOM     77  C   UNL A   1      41.502  20.872  26.462  1.00  0.00     0.000 A 
ENDBRANCH  53  72
BRANCH  65  78
ATOM     78  C   UNL A   1      47.830  26.231  30.271  1.00  0.00    -0.014 A 
ATOM     79  C   UNL A   1      48.776  26.229  29.235  1.00  0.00     0.009 A 
ATOM     80  C   UNL A   1      48.206  25.754  31.537  1.00  0.00     0.009 A 
ATOM     81  C   UNL A   1      50.061  25.729  29.453  1.00  0.00     0.001 A 
ATOM     82  C   UNL A   1      49.498  25.278  31.760  1.00  0.00     0.001 A 
ATOM     83  C   UNL A   1      50.422  25.257  30.716  1.00  0.00     0.000 A 
ENDBRANCH  65  78
ENDBRANCH  39  40
ENDBRANCH  31  34
ENDBRANCH  29  30
ENDBRANCH  28  29
ENDBRANCH  27  28
ENDBRANCH   1  27
TORSDOF 15
ENDMDL
