MODEL 1
REMARK VINA RESULT:     -11.1      0.000      0.000
REMARK SMILES C[C@@H]1C[N@@H+](Cc2cccc(C(=O)NCCCCNC(=O)c3ccc(-c4c5nc(c(-c6ccccc6)c6ccc([nH]6)c(-c6ccccc6)c6nc(c(-c7ccccc7)c7ccc4[nH]7)C=C6)C=C5)cc3)c2)CCN1C(=O)OC(C)(C)C
REMARK SMILES IDX 14 1 13 2 11 3 12 4 10 6 6 7 7 8 69 9 8 10 9 11 5 12 4 13
REMARK SMILES IDX 1 14 2 15 3 16 72 17 71 18 70 19 73 21 74 22 75 23 76 24
REMARK SMILES IDX 77 25 78 26 79 27 15 28 16 29 17 30 18 31 19 32 20 34 21 35
REMARK SMILES IDX 22 36 68 37 23 38 67 39 24 40 25 41 26 42 61 43 27 44 66 45
REMARK SMILES IDX 60 46 62 47 28 48 65 49 59 50 58 51 29 53 51 54 36 55 50 56
REMARK SMILES IDX 37 57 40 58 49 59 63 60 38 61 39 62 48 64 64 65 41 66 30 67
REMARK SMILES IDX 31 68 35 69 32 70 34 71 33 72 52 73 53 74 57 75 54 76 56 77
REMARK SMILES IDX 55 78 42 79 43 80 47 81 44 82 46 83 45 84
REMARK H PARENT 13 5 4 20 18 33 62 52 40 63
REMARK Flexibility Score: inf
ROOT
ATOM      1  C   UNL A   1      34.291  28.932  26.935  1.00  0.00     0.116 C 
ENDROOT
BRANCH   1   2
ATOM      2  N   UNL A   1      33.099  28.584  27.676  1.00  0.00    -0.352 N 
ATOM      3  C   UNL A   1      31.871  28.115  27.275  1.00  0.00     0.251 C 
ATOM      4  O   UNL A   1      31.075  27.806  28.164  1.00  0.00    -0.269 OA
ATOM      5  H   UNL A   1      33.183  28.704  28.649  1.00  0.00     0.163 HD
BRANCH   3   6
ATOM      6  C   UNL A   1      31.484  27.897  25.845  1.00  0.00     0.040 A 
ATOM      7  C   UNL A   1      30.644  26.543  23.982  1.00  0.00     0.007 A 
ATOM      8  C   UNL A   1      30.544  27.698  23.198  1.00  0.00     0.009 A 
ATOM      9  C   UNL A   1      31.217  26.651  25.266  1.00  0.00     0.023 A 
ATOM     10  C   UNL A   1      30.936  28.934  23.713  1.00  0.00     0.001 A 
ATOM     11  C   UNL A   1      31.368  29.036  25.037  1.00  0.00     0.014 A 
BRANCH   7  12
ATOM     12  C   UNL A   1      30.093  25.217  23.478  1.00  0.00     0.299 C 
BRANCH  12  13
ATOM     13  N   UNL A   1      31.076  24.226  22.973  1.00  0.00    -0.328 N 
ATOM     14  C   UNL A   1      31.952  21.223  22.454  1.00  0.00     0.037 C 
ATOM     15  C   UNL A   1      32.560  22.206  23.461  1.00  0.00     0.140 C 
ATOM     16  C   UNL A   1      31.488  23.223  23.986  1.00  0.00     0.287 C 
ATOM     17  N   UNL A   1      33.689  22.939  22.855  1.00  0.00    -0.294 N 
ATOM     18  C   UNL A   1      33.304  23.891  21.818  1.00  0.00     0.185 C 
ATOM     19  C   UNL A   1      32.270  24.864  22.392  1.00  0.00     0.284 C 
ATOM     20  H   UNL A   1      30.577  23.727  22.237  1.00  0.00     0.348 HD
BRANCH  17  21
ATOM     21  C   UNL A   1      34.986  22.962  23.339  1.00  0.00     0.410 C 
ATOM     22  O   UNL A   1      35.946  23.285  22.650  1.00  0.00    -0.224 OA
BRANCH  21  23
ATOM     23  O   UNL A   1      35.078  22.593  24.645  1.00  0.00    -0.444 OA
BRANCH  23  24
ATOM     24  C   UNL A   1      35.292  23.598  25.676  1.00  0.00     0.106 C 
ATOM     25  C   UNL A   1      36.786  23.784  25.974  1.00  0.00     0.056 C 
ATOM     26  C   UNL A   1      34.613  24.930  25.331  1.00  0.00     0.056 C 
ATOM     27  C   UNL A   1      34.620  23.030  26.938  1.00  0.00     0.056 C 
ENDBRANCH  23  24
ENDBRANCH  21  23
ENDBRANCH  17  21
ENDBRANCH  12  13
ENDBRANCH   7  12
ENDBRANCH   3   6
ENDBRANCH   1   2
BRANCH   1  28
ATOM     28  C   UNL A   1      35.043  30.090  27.596  1.00  0.00     0.023 C 
BRANCH  28  29
ATOM     29  C   UNL A   1      34.465  31.456  27.238  1.00  0.00     0.023 C 
BRANCH  29  30
ATOM     30  C   UNL A   1      33.175  31.795  27.974  1.00  0.00     0.116 C 
BRANCH  30  31
ATOM     31  N   UNL A   1      32.829  33.211  27.931  1.00  0.00    -0.352 N 
ATOM     32  C   UNL A   1      33.452  34.238  28.605  1.00  0.00     0.251 C 
ATOM     33  H   UNL A   1      32.066  33.458  27.360  1.00  0.00     0.163 HD
ATOM     34  O   UNL A   1      33.024  35.384  28.565  1.00  0.00    -0.269 OA
BRANCH  32  35
ATOM     35  C   UNL A   1      34.632  33.898  29.424  1.00  0.00     0.039 A 
ATOM     36  C   UNL A   1      34.480  33.036  30.510  1.00  0.00     0.014 A 
ATOM     37  C   UNL A   1      35.899  34.306  28.998  1.00  0.00     0.014 A 
ATOM     38  C   UNL A   1      35.617  32.504  31.122  1.00  0.00     0.010 A 
ATOM     39  C   UNL A   1      37.021  33.707  29.551  1.00  0.00     0.010 A 
ATOM     40  C   UNL A   1      36.893  32.794  30.612  1.00  0.00    -0.014 A 
BRANCH  40  41
ATOM     41  C   UNL A   1      38.122  32.171  31.161  1.00  0.00     0.031 A 
ATOM     42  C   UNL A   1      38.781  31.054  30.403  1.00  0.00     0.074 A 
ATOM     43  C   UNL A   1      38.586  32.531  32.374  1.00  0.00     0.049 A 
ATOM     44  N   UNL A   1      39.762  30.269  30.771  1.00  0.00    -0.248 NA
ATOM     45  C   UNL A   1      38.241  30.759  29.067  1.00  0.00     0.031 C 
ATOM     46  C   UNL A   1      38.031  33.590  33.221  1.00  0.00     0.029 A 
ATOM     47  N   UNL A   1      39.627  32.028  33.115  1.00  0.00    -0.354 N 
ATOM     48  C   UNL A   1      39.936  29.375  29.722  1.00  0.00     0.074 A 
ATOM     49  C   UNL A   1      38.924  29.676  28.733  1.00  0.00     0.031 C 
ATOM     50  C   UNL A   1      38.751  33.671  34.351  1.00  0.00     0.029 A 
ATOM     51  C   UNL A   1      39.780  32.637  34.336  1.00  0.00     0.049 A 
ATOM     52  H   UNL A   1      40.209  31.298  32.800  1.00  0.00     0.167 HD
ATOM     53  C   UNL A   1      40.867  28.402  29.583  1.00  0.00     0.031 A 
ATOM     54  C   UNL A   1      40.642  32.378  35.340  1.00  0.00     0.031 A 
ATOM     55  C   UNL A   1      41.871  28.103  30.567  1.00  0.00     0.049 A 
ATOM     56  C   UNL A   1      41.631  31.254  35.188  1.00  0.00     0.074 A 
ATOM     57  C   UNL A   1      42.883  27.161  30.507  1.00  0.00     0.029 A 
ATOM     58  N   UNL A   1      41.989  28.742  31.792  1.00  0.00    -0.354 N 
ATOM     59  N   UNL A   1      41.814  30.445  34.172  1.00  0.00    -0.248 NA
ATOM     60  C   UNL A   1      42.535  31.011  36.322  1.00  0.00     0.031 C 
ATOM     61  C   UNL A   1      43.575  27.189  31.721  1.00  0.00     0.029 A 
ATOM     62  C   UNL A   1      43.041  28.198  32.507  1.00  0.00     0.049 A 
ATOM     63  H   UNL A   1      41.409  29.473  32.106  1.00  0.00     0.167 HD
ATOM     64  C   UNL A   1      42.880  29.627  34.527  1.00  0.00     0.074 A 
ATOM     65  C   UNL A   1      43.304  30.040  35.848  1.00  0.00     0.031 C 
ATOM     66  C   UNL A   1      43.460  28.629  33.817  1.00  0.00     0.031 A 
BRANCH  53  67
ATOM     67  C   UNL A   1      40.821  27.583  28.321  1.00  0.00    -0.014 A 
ATOM     68  C   UNL A   1      40.092  26.385  28.257  1.00  0.00     0.009 A 
ATOM     69  C   UNL A   1      41.510  28.020  27.180  1.00  0.00     0.009 A 
ATOM     70  C   UNL A   1      40.096  25.615  27.091  1.00  0.00     0.001 A 
ATOM     71  C   UNL A   1      41.482  27.267  26.005  1.00  0.00     0.001 A 
ATOM     72  C   UNL A   1      40.788  26.059  25.966  1.00  0.00     0.000 A 
ENDBRANCH  53  67
BRANCH  54  73
ATOM     73  C   UNL A   1      40.623  33.206  36.576  1.00  0.00    -0.014 A 
ATOM     74  C   UNL A   1      41.475  34.315  36.700  1.00  0.00     0.009 A 
ATOM     75  C   UNL A   1      39.767  32.891  37.643  1.00  0.00     0.009 A 
ATOM     76  C   UNL A   1      41.491  35.071  37.874  1.00  0.00     0.001 A 
ATOM     77  C   UNL A   1      39.761  33.668  38.803  1.00  0.00     0.001 A 
ATOM     78  C   UNL A   1      40.631  34.751  38.922  1.00  0.00     0.000 A 
ENDBRANCH  54  73
BRANCH  66  79
ATOM     79  C   UNL A   1      44.659  27.951  34.418  1.00  0.00    -0.014 A 
ATOM     80  C   UNL A   1      44.538  26.790  35.196  1.00  0.00     0.009 A 
ATOM     81  C   UNL A   1      45.943  28.452  34.140  1.00  0.00     0.009 A 
ATOM     82  C   UNL A   1      45.675  26.158  35.702  1.00  0.00     0.001 A 
ATOM     83  C   UNL A   1      47.079  27.800  34.620  1.00  0.00     0.001 A 
ATOM     84  C   UNL A   1      46.944  26.658  35.407  1.00  0.00     0.000 A 
ENDBRANCH  66  79
ENDBRANCH  40  41
ENDBRANCH  32  35
ENDBRANCH  30  31
ENDBRANCH  29  30
ENDBRANCH  28  29
ENDBRANCH   1  28
TORSDOF 16
ENDMDL
MODEL 2
REMARK VINA RESULT:     -10.7      1.105      5.863
REMARK SMILES C[C@@H]1C[N@@H+](Cc2cccc(C(=O)NCCCCNC(=O)c3ccc(-c4c5nc(c(-c6ccccc6)c6ccc([nH]6)c(-c6ccccc6)c6nc(c(-c7ccccc7)c7ccc4[nH]7)C=C6)C=C5)cc3)c2)CCN1C(=O)OC(C)(C)C
REMARK SMILES IDX 14 1 13 2 11 3 12 4 10 6 6 7 7 8 69 9 8 10 9 11 5 12 4 13
REMARK SMILES IDX 1 14 2 15 3 16 72 17 71 18 70 19 73 21 74 22 75 23 76 24
REMARK SMILES IDX 77 25 78 26 79 27 15 28 16 29 17 30 18 31 19 32 20 34 21 35
REMARK SMILES IDX 22 36 68 37 23 38 67 39 24 40 25 41 26 42 61 43 27 44 66 45
REMARK SMILES IDX 60 46 62 47 28 48 65 49 59 50 58 51 29 53 51 54 36 55 50 56
REMARK SMILES IDX 37 57 40 58 49 59 63 60 38 61 39 62 48 64 64 65 41 66 30 67
REMARK SMILES IDX 31 68 35 69 32 70 34 71 33 72 52 73 53 74 57 75 54 76 56 77
REMARK SMILES IDX 55 78 42 79 43 80 47 81 44 82 46 83 45 84
REMARK H PARENT 13 5 4 20 18 33 62 52 40 63
REMARK Flexibility Score: inf
ROOT
ATOM      1  C   UNL A   1      33.884  29.489  26.003  1.00  0.00     0.116 C 
ENDROOT
BRANCH   1   2
ATOM      2  N   UNL A   1      32.735  30.048  25.326  1.00  0.00    -0.352 N 
ATOM      3  C   UNL A   1      31.511  29.515  24.999  1.00  0.00     0.251 C 
ATOM      4  O   UNL A   1      30.683  30.283  24.504  1.00  0.00    -0.269 OA
ATOM      5  H   UNL A   1      32.851  30.984  25.048  1.00  0.00     0.163 HD
BRANCH   3   6
ATOM      6  C   UNL A   1      31.114  28.097  25.273  1.00  0.00     0.040 A 
ATOM      7  C   UNL A   1      30.354  25.864  24.609  1.00  0.00     0.007 A 
ATOM      8  C   UNL A   1      30.651  25.390  25.892  1.00  0.00     0.009 A 
ATOM      9  C   UNL A   1      30.494  27.244  24.355  1.00  0.00     0.023 A 
ATOM     10  C   UNL A   1      31.143  26.258  26.866  1.00  0.00     0.001 A 
ATOM     11  C   UNL A   1      31.405  27.592  26.548  1.00  0.00     0.014 A 
BRANCH   7  12
ATOM     12  C   UNL A   1      29.947  24.900  23.503  1.00  0.00     0.299 C 
BRANCH  12  13
ATOM     13  N   UNL A   1      31.003  24.007  22.964  1.00  0.00    -0.328 N 
ATOM     14  C   UNL A   1      32.068  21.107  22.252  1.00  0.00     0.037 C 
ATOM     15  C   UNL A   1      32.581  22.039  23.354  1.00  0.00     0.140 C 
ATOM     16  C   UNL A   1      31.435  22.951  23.913  1.00  0.00     0.287 C 
ATOM     17  N   UNL A   1      33.688  22.877  22.853  1.00  0.00    -0.294 N 
ATOM     18  C   UNL A   1      33.287  23.886  21.878  1.00  0.00     0.185 C 
ATOM     19  C   UNL A   1      32.178  24.753  22.483  1.00  0.00     0.284 C 
ATOM     20  H   UNL A   1      30.561  23.542  22.172  1.00  0.00     0.348 HD
BRANCH  17  21
ATOM     21  C   UNL A   1      34.963  22.932  23.390  1.00  0.00     0.410 C 
ATOM     22  O   UNL A   1      35.934  23.326  22.754  1.00  0.00    -0.224 OA
BRANCH  21  23
ATOM     23  O   UNL A   1      35.021  22.509  24.681  1.00  0.00    -0.444 OA
BRANCH  23  24
ATOM     24  C   UNL A   1      35.030  23.476  25.769  1.00  0.00     0.106 C 
ATOM     25  C   UNL A   1      34.462  24.829  25.319  1.00  0.00     0.056 C 
ATOM     26  C   UNL A   1      34.311  22.946  27.016  1.00  0.00     0.056 C 
ATOM     27  C   UNL A   1      36.514  23.674  26.120  1.00  0.00     0.056 C 
ENDBRANCH  23  24
ENDBRANCH  21  23
ENDBRANCH  17  21
ENDBRANCH  12  13
ENDBRANCH   7  12
ENDBRANCH   3   6
ENDBRANCH   1   2
BRANCH   1  28
ATOM     28  C   UNL A   1      34.128  30.173  27.350  1.00  0.00     0.023 C 
BRANCH  28  29
ATOM     29  C   UNL A   1      33.150  31.312  27.625  1.00  0.00     0.023 C 
BRANCH  29  30
ATOM     30  C   UNL A   1      33.690  32.691  27.274  1.00  0.00     0.116 C 
BRANCH  30  31
ATOM     31  N   UNL A   1      32.978  33.784  27.924  1.00  0.00    -0.352 N 
ATOM     32  C   UNL A   1      33.298  34.388  29.120  1.00  0.00     0.251 C 
ATOM     33  H   UNL A   1      32.180  34.126  27.458  1.00  0.00     0.163 HD
ATOM     34  O   UNL A   1      32.578  35.244  29.620  1.00  0.00    -0.269 OA
BRANCH  32  35
ATOM     35  C   UNL A   1      34.519  33.930  29.809  1.00  0.00     0.039 A 
ATOM     36  C   UNL A   1      34.403  33.041  30.879  1.00  0.00     0.014 A 
ATOM     37  C   UNL A   1      35.768  34.255  29.274  1.00  0.00     0.014 A 
ATOM     38  C   UNL A   1      35.547  32.402  31.361  1.00  0.00     0.010 A 
ATOM     39  C   UNL A   1      36.886  33.552  29.696  1.00  0.00     0.010 A 
ATOM     40  C   UNL A   1      36.788  32.613  30.737  1.00  0.00    -0.014 A 
BRANCH  40  41
ATOM     41  C   UNL A   1      38.010  31.877  31.144  1.00  0.00     0.031 A 
ATOM     42  C   UNL A   1      38.869  32.431  32.245  1.00  0.00     0.074 A 
ATOM     43  C   UNL A   1      38.403  30.781  30.467  1.00  0.00     0.049 A 
ATOM     44  N   UNL A   1      40.051  32.041  32.650  1.00  0.00    -0.248 NA
ATOM     45  C   UNL A   1      38.341  33.602  32.964  1.00  0.00     0.031 C 
ATOM     46  C   UNL A   1      37.671  30.148  29.367  1.00  0.00     0.029 A 
ATOM     47  N   UNL A   1      39.534  30.012  30.596  1.00  0.00    -0.354 N 
ATOM     48  C   UNL A   1      40.414  32.934  33.651  1.00  0.00     0.074 A 
ATOM     49  C   UNL A   1      39.358  33.916  33.751  1.00  0.00     0.031 C 
ATOM     50  C   UNL A   1      38.358  29.076  28.941  1.00  0.00     0.029 A 
ATOM     51  C   UNL A   1      39.604  28.978  29.694  1.00  0.00     0.049 A 
ATOM     52  H   UNL A   1      40.229  30.185  31.272  1.00  0.00     0.167 HD
ATOM     53  C   UNL A   1      41.520  32.926  34.433  1.00  0.00     0.031 A 
ATOM     54  C   UNL A   1      40.573  28.065  29.485  1.00  0.00     0.031 A 
ATOM     55  C   UNL A   1      42.569  31.949  34.332  1.00  0.00     0.049 A 
ATOM     56  C   UNL A   1      41.820  28.110  30.327  1.00  0.00     0.074 A 
ATOM     57  C   UNL A   1      43.714  31.832  35.101  1.00  0.00     0.029 A 
ATOM     58  N   UNL A   1      42.603  30.921  33.402  1.00  0.00    -0.354 N 
ATOM     59  N   UNL A   1      42.132  28.933  31.300  1.00  0.00    -0.248 NA
ATOM     60  C   UNL A   1      42.848  27.098  30.042  1.00  0.00     0.031 C 
ATOM     61  C   UNL A   1      44.470  30.770  34.597  1.00  0.00     0.029 A 
ATOM     62  C   UNL A   1      43.761  30.180  33.562  1.00  0.00     0.049 A 
ATOM     63  H   UNL A   1      41.907  30.746  32.728  1.00  0.00     0.167 HD
ATOM     64  C   UNL A   1      43.369  28.511  31.772  1.00  0.00     0.074 A 
ATOM     65  C   UNL A   1      43.748  27.359  30.980  1.00  0.00     0.031 C 
ATOM     66  C   UNL A   1      44.118  29.027  32.776  1.00  0.00     0.031 A 
BRANCH  53  67
ATOM     67  C   UNL A   1      41.647  34.025  35.452  1.00  0.00    -0.014 A 
ATOM     68  C   UNL A   1      41.127  33.881  36.749  1.00  0.00     0.009 A 
ATOM     69  C   UNL A   1      42.302  35.219  35.114  1.00  0.00     0.009 A 
ATOM     70  C   UNL A   1      41.214  34.929  37.668  1.00  0.00     0.001 A 
ATOM     71  C   UNL A   1      42.422  36.250  36.047  1.00  0.00     0.001 A 
ATOM     72  C   UNL A   1      41.866  36.110  37.317  1.00  0.00     0.000 A 
ENDBRANCH  53  67
BRANCH  54  73
ATOM     73  C   UNL A   1      40.403  27.016  28.443  1.00  0.00    -0.014 A 
ATOM     74  C   UNL A   1      39.730  25.822  28.744  1.00  0.00     0.009 A 
ATOM     75  C   UNL A   1      40.919  27.193  27.150  1.00  0.00     0.009 A 
ATOM     76  C   UNL A   1      39.602  24.817  27.782  1.00  0.00     0.001 A 
ATOM     77  C   UNL A   1      40.763  26.200  26.181  1.00  0.00     0.001 A 
ATOM     78  C   UNL A   1      40.113  25.008  26.500  1.00  0.00     0.000 A 
ENDBRANCH  54  73
BRANCH  66  79
ATOM     79  C   UNL A   1      45.396  28.317  33.127  1.00  0.00    -0.014 A 
ATOM     80  C   UNL A   1      45.423  27.255  34.042  1.00  0.00     0.009 A 
ATOM     81  C   UNL A   1      46.585  28.681  32.472  1.00  0.00     0.009 A 
ATOM     82  C   UNL A   1      46.619  26.587  34.313  1.00  0.00     0.001 A 
ATOM     83  C   UNL A   1      47.772  27.991  32.720  1.00  0.00     0.001 A 
ATOM     84  C   UNL A   1      47.789  26.950  33.646  1.00  0.00     0.000 A 
ENDBRANCH  66  79
ENDBRANCH  40  41
ENDBRANCH  32  35
ENDBRANCH  30  31
ENDBRANCH  29  30
ENDBRANCH  28  29
ENDBRANCH   1  28
TORSDOF 16
ENDMDL
MODEL 3
REMARK VINA RESULT:     -10.7      1.585      2.243
REMARK SMILES C[C@@H]1C[N@@H+](Cc2cccc(C(=O)NCCCCNC(=O)c3ccc(-c4c5nc(c(-c6ccccc6)c6ccc([nH]6)c(-c6ccccc6)c6nc(c(-c7ccccc7)c7ccc4[nH]7)C=C6)C=C5)cc3)c2)CCN1C(=O)OC(C)(C)C
REMARK SMILES IDX 14 1 13 2 11 3 12 4 10 6 6 7 7 8 69 9 8 10 9 11 5 12 4 13
REMARK SMILES IDX 1 14 2 15 3 16 72 17 71 18 70 19 73 21 74 22 75 23 76 24
REMARK SMILES IDX 77 25 78 26 79 27 15 28 16 29 17 30 18 31 19 32 20 34 21 35
REMARK SMILES IDX 22 36 68 37 23 38 67 39 24 40 25 41 26 42 61 43 27 44 66 45
REMARK SMILES IDX 60 46 62 47 28 48 65 49 59 50 58 51 29 53 51 54 36 55 50 56
REMARK SMILES IDX 37 57 40 58 49 59 63 60 38 61 39 62 48 64 64 65 41 66 30 67
REMARK SMILES IDX 31 68 35 69 32 70 34 71 33 72 52 73 53 74 57 75 54 76 56 77
REMARK SMILES IDX 55 78 42 79 43 80 47 81 44 82 46 83 45 84
REMARK H PARENT 13 5 4 20 18 33 62 52 40 63
REMARK Flexibility Score: inf
ROOT
ATOM      1  C   UNL A   1      33.793  28.580  26.340  1.00  0.00     0.116 C 
ENDROOT
BRANCH   1   2
ATOM      2  N   UNL A   1      33.777  28.970  24.948  1.00  0.00    -0.352 N 
ATOM      3  C   UNL A   1      32.894  28.705  23.929  1.00  0.00     0.251 C 
ATOM      4  O   UNL A   1      33.097  29.274  22.854  1.00  0.00    -0.269 OA
ATOM      5  H   UNL A   1      34.540  29.531  24.681  1.00  0.00     0.163 HD
BRANCH   3   6
ATOM      6  C   UNL A   1      31.682  27.838  24.074  1.00  0.00     0.040 A 
ATOM      7  C   UNL A   1      30.286  26.197  25.243  1.00  0.00     0.007 A 
ATOM      8  C   UNL A   1      29.240  26.465  24.353  1.00  0.00     0.009 A 
ATOM      9  C   UNL A   1      31.533  26.817  25.018  1.00  0.00     0.023 A 
ATOM     10  C   UNL A   1      29.415  27.383  23.317  1.00  0.00     0.001 A 
ATOM     11  C   UNL A   1      30.614  28.089  23.202  1.00  0.00     0.014 A 
BRANCH   7  12
ATOM     12  C   UNL A   1      30.062  25.302  26.453  1.00  0.00     0.299 C 
BRANCH  12  13
ATOM     13  N   UNL A   1      30.894  24.077  26.551  1.00  0.00    -0.328 N 
ATOM     14  C   UNL A   1      33.045  22.314  28.073  1.00  0.00     0.037 C 
ATOM     15  C   UNL A   1      33.224  23.052  26.742  1.00  0.00     0.140 C 
ATOM     16  C   UNL A   1      32.346  24.350  26.684  1.00  0.00     0.287 C 
ATOM     17  N   UNL A   1      32.886  22.170  25.608  1.00  0.00    -0.294 N 
ATOM     18  C   UNL A   1      31.467  21.849  25.495  1.00  0.00     0.185 C 
ATOM     19  C   UNL A   1      30.664  23.151  25.429  1.00  0.00     0.284 C 
ATOM     20  H   UNL A   1      30.588  23.631  27.415  1.00  0.00     0.348 HD
BRANCH  17  21
ATOM     21  C   UNL A   1      33.734  21.840  24.564  1.00  0.00     0.410 C 
ATOM     22  O   UNL A   1      33.333  21.370  23.507  1.00  0.00    -0.224 OA
BRANCH  21  23
ATOM     23  O   UNL A   1      35.043  22.091  24.836  1.00  0.00    -0.444 OA
BRANCH  23  24
ATOM     24  C   UNL A   1      35.708  23.239  24.235  1.00  0.00     0.106 C 
ATOM     25  C   UNL A   1      36.702  22.803  23.149  1.00  0.00     0.056 C 
ATOM     26  C   UNL A   1      34.705  24.271  23.703  1.00  0.00     0.056 C 
ATOM     27  C   UNL A   1      36.503  23.888  25.379  1.00  0.00     0.056 C 
ENDBRANCH  23  24
ENDBRANCH  21  23
ENDBRANCH  17  21
ENDBRANCH  12  13
ENDBRANCH   7  12
ENDBRANCH   3   6
ENDBRANCH   1   2
BRANCH   1  28
ATOM     28  C   UNL A   1      32.683  29.276  27.131  1.00  0.00     0.023 C 
BRANCH  28  29
ATOM     29  C   UNL A   1      32.500  30.739  26.737  1.00  0.00     0.023 C 
BRANCH  29  30
ATOM     30  C   UNL A   1      33.403  31.702  27.495  1.00  0.00     0.116 C 
BRANCH  30  31
ATOM     31  N   UNL A   1      32.810  33.017  27.709  1.00  0.00    -0.352 N 
ATOM     32  C   UNL A   1      33.301  34.029  28.504  1.00  0.00     0.251 C 
ATOM     33  H   UNL A   1      31.966  33.200  27.236  1.00  0.00     0.163 HD
ATOM     34  O   UNL A   1      32.676  35.067  28.681  1.00  0.00    -0.269 OA
BRANCH  32  35
ATOM     35  C   UNL A   1      34.592  33.798  29.180  1.00  0.00     0.039 A 
ATOM     36  C   UNL A   1      34.621  33.034  30.347  1.00  0.00     0.014 A 
ATOM     37  C   UNL A   1      35.774  34.200  28.552  1.00  0.00     0.014 A 
ATOM     38  C   UNL A   1      35.850  32.591  30.842  1.00  0.00     0.010 A 
ATOM     39  C   UNL A   1      36.983  33.686  28.995  1.00  0.00     0.010 A 
ATOM     40  C   UNL A   1      37.034  32.870  30.140  1.00  0.00    -0.014 A 
BRANCH  40  41
ATOM     41  C   UNL A   1      38.349  32.333  30.567  1.00  0.00     0.031 A 
ATOM     42  C   UNL A   1      38.845  31.045  29.975  1.00  0.00     0.074 A 
ATOM     43  C   UNL A   1      39.046  32.938  31.549  1.00  0.00     0.049 A 
ATOM     44  N   UNL A   1      39.881  30.321  30.316  1.00  0.00    -0.248 NA
ATOM     45  C   UNL A   1      38.048  30.478  28.875  1.00  0.00     0.031 C 
ATOM     46  C   UNL A   1      38.670  34.186  32.219  1.00  0.00     0.029 A 
ATOM     47  N   UNL A   1      40.215  32.571  32.169  1.00  0.00    -0.354 N 
ATOM     48  C   UNL A   1      39.843  29.205  29.489  1.00  0.00     0.074 A 
ATOM     49  C   UNL A   1      38.653  29.318  28.675  1.00  0.00     0.031 C 
ATOM     50  C   UNL A   1      39.602  34.490  33.136  1.00  0.00     0.029 A 
ATOM     51  C   UNL A   1      40.609  33.434  33.161  1.00  0.00     0.049 A 
ATOM     52  H   UNL A   1      40.723  31.763  31.923  1.00  0.00     0.167 HD
ATOM     53  C   UNL A   1      40.729  28.185  29.400  1.00  0.00     0.031 A 
ATOM     54  C   UNL A   1      41.655  33.372  34.009  1.00  0.00     0.031 A 
ATOM     55  C   UNL A   1      41.910  28.073  30.212  1.00  0.00     0.049 A 
ATOM     56  C   UNL A   1      42.595  32.200  33.932  1.00  0.00     0.074 A 
ATOM     57  C   UNL A   1      42.891  27.098  30.175  1.00  0.00     0.029 A 
ATOM     58  N   UNL A   1      42.270  28.968  31.208  1.00  0.00    -0.354 N 
ATOM     59  N   UNL A   1      42.573  31.173  33.116  1.00  0.00    -0.248 NA
ATOM     60  C   UNL A   1      43.709  32.180  34.893  1.00  0.00     0.031 C 
ATOM     61  C   UNL A   1      43.813  27.370  31.191  1.00  0.00     0.029 A 
ATOM     62  C   UNL A   1      43.445  28.554  31.810  1.00  0.00     0.049 A 
ATOM     63  H   UNL A   1      41.763  29.776  31.451  1.00  0.00     0.167 HD
ATOM     64  C   UNL A   1      43.690  30.410  33.435  1.00  0.00     0.074 A 
ATOM     65  C   UNL A   1      44.369  31.094  34.516  1.00  0.00     0.031 C 
ATOM     66  C   UNL A   1      44.117  29.253  32.876  1.00  0.00     0.031 A 
BRANCH  53  67
ATOM     67  C   UNL A   1      40.432  27.103  28.397  1.00  0.00    -0.014 A 
ATOM     68  C   UNL A   1      40.961  27.151  27.097  1.00  0.00     0.009 A 
ATOM     69  C   UNL A   1      39.620  26.019  28.760  1.00  0.00     0.009 A 
ATOM     70  C   UNL A   1      40.639  26.161  26.165  1.00  0.00     0.001 A 
ATOM     71  C   UNL A   1      39.330  25.011  27.837  1.00  0.00     0.001 A 
ATOM     72  C   UNL A   1      39.828  25.091  26.538  1.00  0.00     0.000 A 
ENDBRANCH  53  67
BRANCH  54  73
ATOM     73  C   UNL A   1      41.882  34.459  34.999  1.00  0.00    -0.014 A 
ATOM     74  C   UNL A   1      42.676  35.568  34.665  1.00  0.00     0.009 A 
ATOM     75  C   UNL A   1      41.322  34.394  36.284  1.00  0.00     0.009 A 
ATOM     76  C   UNL A   1      42.927  36.572  35.603  1.00  0.00     0.001 A 
ATOM     77  C   UNL A   1      41.547  35.415  37.211  1.00  0.00     0.001 A 
ATOM     78  C   UNL A   1      42.358  36.498  36.873  1.00  0.00     0.000 A 
ENDBRANCH  54  73
BRANCH  66  79
ATOM     79  C   UNL A   1      45.413  28.676  33.373  1.00  0.00    -0.014 A 
ATOM     80  C   UNL A   1      46.648  29.061  32.830  1.00  0.00     0.009 A 
ATOM     81  C   UNL A   1      45.396  27.779  34.455  1.00  0.00     0.009 A 
ATOM     82  C   UNL A   1      47.838  28.541  33.345  1.00  0.00     0.001 A 
ATOM     83  C   UNL A   1      46.587  27.286  34.988  1.00  0.00     0.001 A 
ATOM     84  C   UNL A   1      47.806  27.662  34.428  1.00  0.00     0.000 A 
ENDBRANCH  66  79
ENDBRANCH  40  41
ENDBRANCH  32  35
ENDBRANCH  30  31
ENDBRANCH  29  30
ENDBRANCH  28  29
ENDBRANCH   1  28
TORSDOF 16
ENDMDL
