MODEL 1
REMARK VINA RESULT:     -11.3      0.000      0.000
REMARK SMILES O=C(NCCCCNC(=O)[C@H]1c2[nH]cnc2CC[N@H+]1Cc1ccoc1)c1ccc(-c2c3nc(c(-c4ccccc4)c4ccc([nH]4)c(-c4ccccc4)c4nc(c(-c5ccccc5)c5ccc2[nH]5)C=C4)C=C3)cc1
REMARK SMILES IDX 5 1 4 2 3 3 1 4 2 5 26 7 27 8 73 9 28 10 72 11 29 12 30 13
REMARK SMILES IDX 31 14 66 15 32 16 71 17 65 18 67 19 33 20 70 21 64 22 63 23
REMARK SMILES IDX 34 25 56 26 41 27 55 28 42 29 45 30 54 31 68 32 43 33 44 34
REMARK SMILES IDX 53 36 69 37 46 38 35 39 36 40 40 41 37 42 39 43 38 44 57 45
REMARK SMILES IDX 58 46 62 47 59 48 61 49 60 50 47 51 48 52 52 53 49 54 51 55
REMARK SMILES IDX 50 56 6 57 7 58 8 59 9 60 10 62 11 63 12 64 19 65 13 66
REMARK SMILES IDX 16 67 18 68 14 70 15 72 17 73 20 74 21 75 22 76 25 77 23 78
REMARK SMILES IDX 24 79
REMARK H PARENT 3 6 67 24 45 35 8 61 19 69 13 71
REMARK Flexibility Score: inf
ROOT
ATOM      1  C   UNL A   1      34.086  30.756  27.412  1.00  0.00     0.023 C 
ENDROOT
BRANCH   1   2
ATOM      2  C   UNL A   1      34.970  31.858  28.006  1.00  0.00     0.116 C 
BRANCH   2   3
ATOM      3  N   UNL A   1      34.756  32.051  29.424  1.00  0.00    -0.352 N 
ATOM      4  O   UNL A   1      34.995  32.094  31.621  1.00  0.00    -0.269 OA
ATOM      5  C   UNL A   1      35.481  31.758  30.547  1.00  0.00     0.251 C 
ATOM      6  H   UNL A   1      33.900  32.492  29.627  1.00  0.00     0.163 HD
BRANCH   5   7
ATOM      7  C   UNL A   1      36.778  31.023  30.543  1.00  0.00     0.039 A 
ATOM      8  C   UNL A   1      38.042  31.604  30.434  1.00  0.00     0.014 A 
ATOM      9  C   UNL A   1      36.691  29.623  30.644  1.00  0.00     0.014 A 
ATOM     10  C   UNL A   1      39.183  30.821  30.343  1.00  0.00     0.010 A 
ATOM     11  C   UNL A   1      37.832  28.832  30.587  1.00  0.00     0.010 A 
ATOM     12  C   UNL A   1      39.074  29.436  30.399  1.00  0.00    -0.014 A 
BRANCH  12  13
ATOM     13  C   UNL A   1      40.310  28.665  30.351  1.00  0.00     0.031 A 
ATOM     14  C   UNL A   1      41.046  28.509  31.642  1.00  0.00     0.074 A 
ATOM     15  C   UNL A   1      40.677  27.998  29.241  1.00  0.00     0.049 A 
ATOM     16  N   UNL A   1      42.310  28.662  31.885  1.00  0.00    -0.248 NA
ATOM     17  C   UNL A   1      40.246  28.174  32.834  1.00  0.00     0.031 C 
ATOM     18  C   UNL A   1      39.900  27.823  28.011  1.00  0.00     0.029 A 
ATOM     19  N   UNL A   1      41.763  27.199  29.045  1.00  0.00    -0.354 N 
ATOM     20  C   UNL A   1      42.495  28.297  33.218  1.00  0.00     0.074 A 
ATOM     21  C   UNL A   1      41.182  28.094  33.777  1.00  0.00     0.031 C 
ATOM     22  C   UNL A   1      40.403  26.779  27.321  1.00  0.00     0.029 A 
ATOM     23  C   UNL A   1      41.599  26.305  27.999  1.00  0.00     0.049 A 
ATOM     24  H   UNL A   1      42.582  27.252  29.589  1.00  0.00     0.167 HD
ATOM     25  C   UNL A   1      43.713  27.999  33.747  1.00  0.00     0.031 A 
ATOM     26  C   UNL A   1      42.324  25.187  27.768  1.00  0.00     0.031 A 
ATOM     27  C   UNL A   1      44.798  28.553  32.992  1.00  0.00     0.049 A 
ATOM     28  C   UNL A   1      43.585  25.282  28.533  1.00  0.00     0.074 A 
ATOM     29  C   UNL A   1      45.210  29.828  32.659  1.00  0.00     0.029 A 
ATOM     30  N   UNL A   1      45.524  27.708  32.191  1.00  0.00    -0.354 N 
ATOM     31  N   UNL A   1      44.535  26.130  28.267  1.00  0.00    -0.248 NA
ATOM     32  C   UNL A   1      43.639  24.682  29.857  1.00  0.00     0.031 C 
ATOM     33  C   UNL A   1      45.784  29.702  31.361  1.00  0.00     0.029 A 
ATOM     34  C   UNL A   1      45.702  28.356  30.998  1.00  0.00     0.049 A 
ATOM     35  H   UNL A   1      45.854  26.811  32.428  1.00  0.00     0.167 HD
ATOM     36  C   UNL A   1      45.057  26.482  29.502  1.00  0.00     0.074 A 
ATOM     37  C   UNL A   1      44.552  25.471  30.427  1.00  0.00     0.031 C 
ATOM     38  C   UNL A   1      45.616  27.711  29.708  1.00  0.00     0.031 A 
BRANCH  25  39
ATOM     39  C   UNL A   1      43.920  26.898  34.759  1.00  0.00    -0.014 A 
ATOM     40  C   UNL A   1      43.679  25.564  34.382  1.00  0.00     0.009 A 
ATOM     41  C   UNL A   1      44.062  27.149  36.138  1.00  0.00     0.009 A 
ATOM     42  C   UNL A   1      43.520  24.553  35.340  1.00  0.00     0.001 A 
ATOM     43  C   UNL A   1      43.947  26.136  37.093  1.00  0.00     0.001 A 
ATOM     44  C   UNL A   1      43.647  24.842  36.695  1.00  0.00     0.000 A 
ENDBRANCH  25  39
BRANCH  26  45
ATOM     45  C   UNL A   1      41.842  23.924  27.171  1.00  0.00    -0.014 A 
ATOM     46  C   UNL A   1      42.497  23.346  26.076  1.00  0.00     0.009 A 
ATOM     47  C   UNL A   1      40.859  23.160  27.829  1.00  0.00     0.009 A 
ATOM     48  C   UNL A   1      42.186  22.043  25.664  1.00  0.00     0.001 A 
ATOM     49  C   UNL A   1      40.543  21.864  27.413  1.00  0.00     0.001 A 
ATOM     50  C   UNL A   1      41.216  21.302  26.336  1.00  0.00     0.000 A 
ENDBRANCH  26  45
BRANCH  38  51
ATOM     51  C   UNL A   1      45.852  28.589  28.506  1.00  0.00    -0.014 A 
ATOM     52  C   UNL A   1      44.844  29.413  27.973  1.00  0.00     0.009 A 
ATOM     53  C   UNL A   1      47.154  28.719  28.004  1.00  0.00     0.009 A 
ATOM     54  C   UNL A   1      45.126  30.317  26.945  1.00  0.00     0.001 A 
ATOM     55  C   UNL A   1      47.439  29.637  26.989  1.00  0.00     0.001 A 
ATOM     56  C   UNL A   1      46.425  30.432  26.457  1.00  0.00     0.000 A 
ENDBRANCH  38  51
ENDBRANCH  12  13
ENDBRANCH   5   7
ENDBRANCH   2   3
ENDBRANCH   1   2
BRANCH   1  57
ATOM     57  C   UNL A   1      34.697  29.359  27.556  1.00  0.00     0.023 C 
BRANCH  57  58
ATOM     58  C   UNL A   1      34.232  28.400  26.457  1.00  0.00     0.116 C 
BRANCH  58  59
ATOM     59  N   UNL A   1      34.026  29.152  25.239  1.00  0.00    -0.351 N 
ATOM     60  C   UNL A   1      33.074  29.009  24.275  1.00  0.00     0.284 C 
ATOM     61  H   UNL A   1      34.672  29.878  25.081  1.00  0.00     0.163 HD
ATOM     62  O   UNL A   1      33.424  29.304  23.123  1.00  0.00    -0.268 OA
BRANCH  60  63
ATOM     63  C   UNL A   1      31.598  28.641  24.554  1.00  0.00     0.324 C 
ATOM     64  C   UNL A   1      30.630  29.741  24.298  1.00  0.00     0.106 A 
ATOM     65  N   UNL A   1      31.170  27.411  23.834  1.00  0.00    -0.315 N 
ATOM     66  N   UNL A   1      30.571  30.981  24.872  1.00  0.00    -0.343 N 
ATOM     67  C   UNL A   1      29.618  29.724  23.368  1.00  0.00     0.074 A 
ATOM     68  C   UNL A   1      30.573  27.605  22.504  1.00  0.00     0.270 C 
ATOM     69  H   UNL A   1      30.342  27.141  24.366  1.00  0.00     0.349 HD
ATOM     70  C   UNL A   1      29.589  31.674  24.209  1.00  0.00     0.197 A 
ATOM     71  H   UNL A   1      31.125  31.312  25.614  1.00  0.00     0.167 HD
ATOM     72  N   UNL A   1      28.991  30.935  23.298  1.00  0.00    -0.241 NA
ATOM     73  C   UNL A   1      29.341  28.550  22.510  1.00  0.00     0.120 C 
BRANCH  65  74
ATOM     74  C   UNL A   1      32.008  26.225  24.024  1.00  0.00     0.303 C 
BRANCH  74  75
ATOM     75  C   UNL A   1      31.569  25.307  25.125  1.00  0.00     0.044 A 
ATOM     76  C   UNL A   1      30.930  24.035  25.020  1.00  0.00     0.051 A 
ATOM     77  C   UNL A   1      31.795  25.471  26.479  1.00  0.00     0.204 A 
ATOM     78  C   UNL A   1      30.754  23.567  26.299  1.00  0.00     0.195 A 
ATOM     79  O   UNL A   1      31.285  24.436  27.194  1.00  0.00    -0.472 OA
ENDBRANCH  74  75
ENDBRANCH  65  74
ENDBRANCH  60  63
ENDBRANCH  58  59
ENDBRANCH  57  58
ENDBRANCH   1  57
TORSDOF 13
ENDMDL
MODEL 2
REMARK VINA RESULT:     -11.2      1.190      2.672
REMARK SMILES O=C(NCCCCNC(=O)[C@H]1c2[nH]cnc2CC[N@H+]1Cc1ccoc1)c1ccc(-c2c3nc(c(-c4ccccc4)c4ccc([nH]4)c(-c4ccccc4)c4nc(c(-c5ccccc5)c5ccc2[nH]5)C=C4)C=C3)cc1
REMARK SMILES IDX 5 1 4 2 3 3 1 4 2 5 26 7 27 8 73 9 28 10 72 11 29 12 30 13
REMARK SMILES IDX 31 14 66 15 32 16 71 17 65 18 67 19 33 20 70 21 64 22 63 23
REMARK SMILES IDX 34 25 56 26 41 27 55 28 42 29 45 30 54 31 68 32 43 33 44 34
REMARK SMILES IDX 53 36 69 37 46 38 35 39 36 40 40 41 37 42 39 43 38 44 57 45
REMARK SMILES IDX 58 46 62 47 59 48 61 49 60 50 47 51 48 52 52 53 49 54 51 55
REMARK SMILES IDX 50 56 6 57 7 58 8 59 9 60 10 62 11 63 12 64 19 65 13 66
REMARK SMILES IDX 16 67 18 68 14 70 15 72 17 73 20 74 21 75 22 76 25 77 23 78
REMARK SMILES IDX 24 79
REMARK H PARENT 3 6 67 24 45 35 8 61 19 69 13 71
REMARK Flexibility Score: inf
ROOT
ATOM      1  C   UNL A   1      33.806  30.279  27.350  1.00  0.00     0.023 C 
ENDROOT
BRANCH   1   2
ATOM      2  C   UNL A   1      34.675  31.485  27.722  1.00  0.00     0.116 C 
BRANCH   2   3
ATOM      3  N   UNL A   1      34.537  31.873  29.109  1.00  0.00    -0.352 N 
ATOM      4  O   UNL A   1      34.895  32.223  31.262  1.00  0.00    -0.269 OA
ATOM      5  C   UNL A   1      35.325  31.741  30.220  1.00  0.00     0.251 C 
ATOM      6  H   UNL A   1      33.689  32.337  29.296  1.00  0.00     0.163 HD
BRANCH   5   7
ATOM      7  C   UNL A   1      36.627  31.016  30.247  1.00  0.00     0.039 A 
ATOM      8  C   UNL A   1      37.889  31.604  30.150  1.00  0.00     0.014 A 
ATOM      9  C   UNL A   1      36.547  29.616  30.366  1.00  0.00     0.014 A 
ATOM     10  C   UNL A   1      39.036  30.827  30.087  1.00  0.00     0.010 A 
ATOM     11  C   UNL A   1      37.695  28.833  30.338  1.00  0.00     0.010 A 
ATOM     12  C   UNL A   1      38.935  29.443  30.161  1.00  0.00    -0.014 A 
BRANCH  12  13
ATOM     13  C   UNL A   1      40.177  28.680  30.142  1.00  0.00     0.031 A 
ATOM     14  C   UNL A   1      40.888  28.538  31.450  1.00  0.00     0.074 A 
ATOM     15  C   UNL A   1      40.571  28.008  29.045  1.00  0.00     0.049 A 
ATOM     16  N   UNL A   1      42.147  28.700  31.716  1.00  0.00    -0.248 NA
ATOM     17  C   UNL A   1      40.067  28.205  32.627  1.00  0.00     0.031 C 
ATOM     18  C   UNL A   1      39.820  27.819  27.801  1.00  0.00     0.029 A 
ATOM     19  N   UNL A   1      41.666  27.215  28.876  1.00  0.00    -0.354 N 
ATOM     20  C   UNL A   1      42.306  28.346  33.056  1.00  0.00     0.074 A 
ATOM     21  C   UNL A   1      40.984  28.138  33.589  1.00  0.00     0.031 C 
ATOM     22  C   UNL A   1      40.344  26.774  27.129  1.00  0.00     0.029 A 
ATOM     23  C   UNL A   1      41.529  26.313  27.833  1.00  0.00     0.049 A 
ATOM     24  H   UNL A   1      42.473  27.277  29.437  1.00  0.00     0.167 HD
ATOM     25  C   UNL A   1      43.516  28.060  33.611  1.00  0.00     0.031 A 
ATOM     26  C   UNL A   1      42.266  25.198  27.624  1.00  0.00     0.031 A 
ATOM     27  C   UNL A   1      44.612  28.616  32.874  1.00  0.00     0.049 A 
ATOM     28  C   UNL A   1      43.510  25.307  28.414  1.00  0.00     0.074 A 
ATOM     29  C   UNL A   1      45.022  29.891  32.540  1.00  0.00     0.029 A 
ATOM     30  N   UNL A   1      45.360  27.771  32.094  1.00  0.00    -0.354 N 
ATOM     31  N   UNL A   1      44.460  26.160  28.161  1.00  0.00    -0.248 NA
ATOM     32  C   UNL A   1      43.542  24.716  29.743  1.00  0.00     0.031 C 
ATOM     33  C   UNL A   1      45.623  29.761  31.255  1.00  0.00     0.029 A 
ATOM     34  C   UNL A   1      45.557  28.412  30.900  1.00  0.00     0.049 A 
ATOM     35  H   UNL A   1      45.691  26.878  32.344  1.00  0.00     0.167 HD
ATOM     36  C   UNL A   1      44.955  26.523  29.405  1.00  0.00     0.074 A 
ATOM     37  C   UNL A   1      44.438  25.515  30.326  1.00  0.00     0.031 C 
ATOM     38  C   UNL A   1      45.502  27.758  29.613  1.00  0.00     0.031 A 
BRANCH  25  39
ATOM     39  C   UNL A   1      43.710  26.967  34.634  1.00  0.00    -0.014 A 
ATOM     40  C   UNL A   1      43.559  25.624  34.243  1.00  0.00     0.009 A 
ATOM     41  C   UNL A   1      43.748  27.220  36.020  1.00  0.00     0.009 A 
ATOM     42  C   UNL A   1      43.388  24.603  35.188  1.00  0.00     0.001 A 
ATOM     43  C   UNL A   1      43.622  26.200  36.965  1.00  0.00     0.001 A 
ATOM     44  C   UNL A   1      43.411  24.894  36.548  1.00  0.00     0.000 A 
ENDBRANCH  25  39
BRANCH  26  45
ATOM     45  C   UNL A   1      41.804  23.928  27.027  1.00  0.00    -0.014 A 
ATOM     46  C   UNL A   1      42.637  23.181  26.186  1.00  0.00     0.009 A 
ATOM     47  C   UNL A   1      40.609  23.330  27.470  1.00  0.00     0.009 A 
ATOM     48  C   UNL A   1      42.291  21.875  25.813  1.00  0.00     0.001 A 
ATOM     49  C   UNL A   1      40.259  22.032  27.092  1.00  0.00     0.001 A 
ATOM     50  C   UNL A   1      41.107  21.300  26.271  1.00  0.00     0.000 A 
ENDBRANCH  26  45
BRANCH  38  51
ATOM     51  C   UNL A   1      45.756  28.629  28.410  1.00  0.00    -0.014 A 
ATOM     52  C   UNL A   1      44.765  29.474  27.876  1.00  0.00     0.009 A 
ATOM     53  C   UNL A   1      47.060  28.731  27.908  1.00  0.00     0.009 A 
ATOM     54  C   UNL A   1      45.066  30.370  26.847  1.00  0.00     0.001 A 
ATOM     55  C   UNL A   1      47.364  29.642  26.892  1.00  0.00     0.001 A 
ATOM     56  C   UNL A   1      46.367  30.457  26.358  1.00  0.00     0.000 A 
ENDBRANCH  38  51
ENDBRANCH  12  13
ENDBRANCH   5   7
ENDBRANCH   2   3
ENDBRANCH   1   2
BRANCH   1  57
ATOM     57  C   UNL A   1      34.628  29.019  27.056  1.00  0.00     0.023 C 
BRANCH  57  58
ATOM     58  C   UNL A   1      33.954  28.106  26.030  1.00  0.00     0.116 C 
BRANCH  58  59
ATOM     59  N   UNL A   1      33.984  28.755  24.737  1.00  0.00    -0.351 N 
ATOM     60  C   UNL A   1      33.625  28.279  23.513  1.00  0.00     0.284 C 
ATOM     61  H   UNL A   1      34.315  29.683  24.743  1.00  0.00     0.163 HD
ATOM     62  O   UNL A   1      34.266  28.728  22.551  1.00  0.00    -0.268 OA
BRANCH  60  63
ATOM     63  C   UNL A   1      32.418  27.348  23.258  1.00  0.00     0.324 C 
ATOM     64  C   UNL A   1      32.514  26.020  23.922  1.00  0.00     0.106 A 
ATOM     65  N   UNL A   1      31.119  27.989  23.595  1.00  0.00    -0.315 N 
ATOM     66  N   UNL A   1      33.468  25.051  23.768  1.00  0.00    -0.343 N 
ATOM     67  C   UNL A   1      31.658  25.535  24.883  1.00  0.00     0.074 A 
ATOM     68  C   UNL A   1      30.623  27.787  24.965  1.00  0.00     0.270 C 
ATOM     69  H   UNL A   1      30.462  27.406  23.077  1.00  0.00     0.349 HD
ATOM     70  C   UNL A   1      33.190  24.075  24.692  1.00  0.00     0.197 A 
ATOM     71  H   UNL A   1      34.209  25.054  23.121  1.00  0.00     0.167 HD
ATOM     72  N   UNL A   1      32.096  24.339  25.376  1.00  0.00    -0.241 NA
ATOM     73  C   UNL A   1      30.477  26.291  25.355  1.00  0.00     0.120 C 
BRANCH  65  74
ATOM     74  C   UNL A   1      30.862  29.293  22.977  1.00  0.00     0.303 C 
BRANCH  74  75
ATOM     75  C   UNL A   1      29.462  29.805  23.135  1.00  0.00     0.044 A 
ATOM     76  C   UNL A   1      29.030  31.073  23.629  1.00  0.00     0.051 A 
ATOM     77  C   UNL A   1      28.300  29.177  22.729  1.00  0.00     0.204 A 
ATOM     78  C   UNL A   1      27.659  31.086  23.555  1.00  0.00     0.195 A 
ATOM     79  O   UNL A   1      27.207  29.934  23.001  1.00  0.00    -0.472 OA
ENDBRANCH  74  75
ENDBRANCH  65  74
ENDBRANCH  60  63
ENDBRANCH  58  59
ENDBRANCH  57  58
ENDBRANCH   1  57
TORSDOF 13
ENDMDL
MODEL 3
REMARK VINA RESULT:     -11.1      3.358      7.646
REMARK SMILES O=C(NCCCCNC(=O)[C@H]1c2[nH]cnc2CC[N@H+]1Cc1ccoc1)c1ccc(-c2c3nc(c(-c4ccccc4)c4ccc([nH]4)c(-c4ccccc4)c4nc(c(-c5ccccc5)c5ccc2[nH]5)C=C4)C=C3)cc1
REMARK SMILES IDX 5 1 4 2 3 3 1 4 2 5 26 7 27 8 73 9 28 10 72 11 29 12 30 13
REMARK SMILES IDX 31 14 66 15 32 16 71 17 65 18 67 19 33 20 70 21 64 22 63 23
REMARK SMILES IDX 34 25 56 26 41 27 55 28 42 29 45 30 54 31 68 32 43 33 44 34
REMARK SMILES IDX 53 36 69 37 46 38 35 39 36 40 40 41 37 42 39 43 38 44 57 45
REMARK SMILES IDX 58 46 62 47 59 48 61 49 60 50 47 51 48 52 52 53 49 54 51 55
REMARK SMILES IDX 50 56 6 57 7 58 8 59 9 60 10 62 11 63 12 64 19 65 13 66
REMARK SMILES IDX 16 67 18 68 14 70 15 72 17 73 20 74 21 75 22 76 25 77 23 78
REMARK SMILES IDX 24 79
REMARK H PARENT 3 6 67 24 45 35 8 61 19 69 13 71
REMARK Flexibility Score: inf
ROOT
ATOM      1  C   UNL A   1      38.503  20.443  24.953  1.00  0.00     0.023 C 
ENDROOT
BRANCH   1   2
ATOM      2  C   UNL A   1      38.904  19.244  25.819  1.00  0.00     0.116 C 
BRANCH   2   3
ATOM      3  N   UNL A   1      40.262  18.805  25.582  1.00  0.00    -0.352 N 
ATOM      4  O   UNL A   1      42.467  18.656  25.526  1.00  0.00    -0.269 OA
ATOM      5  C   UNL A   1      41.496  19.328  25.857  1.00  0.00     0.251 C 
ATOM      6  H   UNL A   1      40.309  17.936  25.122  1.00  0.00     0.163 HD
BRANCH   5   7
ATOM      7  C   UNL A   1      41.724  20.664  26.477  1.00  0.00     0.039 A 
ATOM      8  C   UNL A   1      42.376  21.741  25.875  1.00  0.00     0.014 A 
ATOM      9  C   UNL A   1      41.243  20.821  27.790  1.00  0.00     0.014 A 
ATOM     10  C   UNL A   1      42.621  22.911  26.577  1.00  0.00     0.010 A 
ATOM     11  C   UNL A   1      41.455  22.003  28.489  1.00  0.00     0.010 A 
ATOM     12  C   UNL A   1      42.178  23.033  27.889  1.00  0.00    -0.014 A 
BRANCH  12  13
ATOM     13  C   UNL A   1      42.417  24.303  28.561  1.00  0.00     0.031 A 
ATOM     14  C   UNL A   1      41.473  25.416  28.234  1.00  0.00     0.074 A 
ATOM     15  C   UNL A   1      43.334  24.417  29.540  1.00  0.00     0.049 A 
ATOM     16  N   UNL A   1      41.738  26.650  27.938  1.00  0.00    -0.248 NA
ATOM     17  C   UNL A   1      40.038  25.088  28.195  1.00  0.00     0.031 C 
ATOM     18  C   UNL A   1      44.110  23.341  30.161  1.00  0.00     0.029 A 
ATOM     19  N   UNL A   1      43.645  25.508  30.296  1.00  0.00    -0.354 N 
ATOM     20  C   UNL A   1      40.505  27.292  27.824  1.00  0.00     0.074 A 
ATOM     21  C   UNL A   1      39.496  26.267  27.901  1.00  0.00     0.031 C 
ATOM     22  C   UNL A   1      44.588  23.773  31.346  1.00  0.00     0.029 A 
ATOM     23  C   UNL A   1      44.255  25.180  31.497  1.00  0.00     0.049 A 
ATOM     24  H   UNL A   1      43.457  26.433  30.018  1.00  0.00     0.167 HD
ATOM     25  C   UNL A   1      40.364  28.646  27.858  1.00  0.00     0.031 A 
ATOM     26  C   UNL A   1      44.378  25.973  32.585  1.00  0.00     0.031 A 
ATOM     27  C   UNL A   1      41.575  29.339  27.530  1.00  0.00     0.049 A 
ATOM     28  C   UNL A   1      44.158  27.375  32.169  1.00  0.00     0.074 A 
ATOM     29  C   UNL A   1      42.392  29.413  26.420  1.00  0.00     0.029 A 
ATOM     30  N   UNL A   1      42.287  29.914  28.552  1.00  0.00    -0.354 N 
ATOM     31  N   UNL A   1      44.974  28.044  31.407  1.00  0.00    -0.248 NA
ATOM     32  C   UNL A   1      42.819  27.931  32.286  1.00  0.00     0.031 C 
ATOM     33  C   UNL A   1      43.708  29.574  26.941  1.00  0.00     0.029 A 
ATOM     34  C   UNL A   1      43.604  29.607  28.333  1.00  0.00     0.049 A 
ATOM     35  H   UNL A   1      41.923  30.444  29.298  1.00  0.00     0.167 HD
ATOM     36  C   UNL A   1      44.157  28.854  30.633  1.00  0.00     0.074 A 
ATOM     37  C   UNL A   1      42.860  28.831  31.302  1.00  0.00     0.031 C 
ATOM     38  C   UNL A   1      44.531  29.238  29.376  1.00  0.00     0.031 A 
BRANCH  25  39
ATOM     39  C   UNL A   1      39.207  29.332  28.543  1.00  0.00    -0.014 A 
ATOM     40  C   UNL A   1      39.090  29.249  29.943  1.00  0.00     0.009 A 
ATOM     41  C   UNL A   1      38.081  29.807  27.842  1.00  0.00     0.009 A 
ATOM     42  C   UNL A   1      37.888  29.560  30.594  1.00  0.00     0.001 A 
ATOM     43  C   UNL A   1      36.896  30.159  28.492  1.00  0.00     0.001 A 
ATOM     44  C   UNL A   1      36.790  30.006  29.866  1.00  0.00     0.000 A 
ENDBRANCH  25  39
BRANCH  26  45
ATOM     45  C   UNL A   1      44.369  25.547  34.000  1.00  0.00    -0.014 A 
ATOM     46  C   UNL A   1      45.254  26.108  34.929  1.00  0.00     0.009 A 
ATOM     47  C   UNL A   1      43.323  24.741  34.490  1.00  0.00     0.009 A 
ATOM     48  C   UNL A   1      45.088  25.879  36.302  1.00  0.00     0.001 A 
ATOM     49  C   UNL A   1      43.163  24.505  35.857  1.00  0.00     0.001 A 
ATOM     50  C   UNL A   1      44.040  25.084  36.765  1.00  0.00     0.000 A 
ENDBRANCH  26  45
BRANCH  38  51
ATOM     51  C   UNL A   1      45.944  28.945  28.940  1.00  0.00    -0.014 A 
ATOM     52  C   UNL A   1      46.317  27.701  28.399  1.00  0.00     0.009 A 
ATOM     53  C   UNL A   1      46.879  29.989  28.915  1.00  0.00     0.009 A 
ATOM     54  C   UNL A   1      47.598  27.500  27.877  1.00  0.00     0.001 A 
ATOM     55  C   UNL A   1      48.153  29.793  28.376  1.00  0.00     0.001 A 
ATOM     56  C   UNL A   1      48.514  28.549  27.862  1.00  0.00     0.000 A 
ENDBRANCH  38  51
ENDBRANCH  12  13
ENDBRANCH   5   7
ENDBRANCH   2   3
ENDBRANCH   1   2
BRANCH   1  57
ATOM     57  C   UNL A   1      38.768  21.788  25.638  1.00  0.00     0.023 C 
BRANCH  57  58
ATOM     58  C   UNL A   1      37.496  22.626  25.796  1.00  0.00     0.116 C 
BRANCH  58  59
ATOM     59  N   UNL A   1      37.150  23.193  24.512  1.00  0.00    -0.351 N 
ATOM     60  C   UNL A   1      35.983  23.122  23.811  1.00  0.00     0.284 C 
ATOM     61  H   UNL A   1      37.866  23.710  24.076  1.00  0.00     0.163 HD
ATOM     62  O   UNL A   1      36.094  23.131  22.576  1.00  0.00    -0.268 OA
BRANCH  60  63
ATOM     63  C   UNL A   1      34.577  23.163  24.452  1.00  0.00     0.324 C 
ATOM     64  C   UNL A   1      33.712  24.273  23.969  1.00  0.00     0.106 A 
ATOM     65  N   UNL A   1      33.854  21.868  24.330  1.00  0.00    -0.315 N 
ATOM     66  N   UNL A   1      33.931  25.621  24.036  1.00  0.00    -0.343 N 
ATOM     67  C   UNL A   1      32.520  24.133  23.298  1.00  0.00     0.074 A 
ATOM     68  C   UNL A   1      32.998  21.704  23.145  1.00  0.00     0.270 C 
ATOM     69  H   UNL A   1      33.144  21.961  25.056  1.00  0.00     0.349 HD
ATOM     70  C   UNL A   1      32.913  26.220  23.338  1.00  0.00     0.197 A 
ATOM     71  H   UNL A   1      34.674  26.073  24.495  1.00  0.00     0.167 HD
ATOM     72  N   UNL A   1      32.041  25.343  22.886  1.00  0.00    -0.241 NA
ATOM     73  C   UNL A   1      31.920  22.812  23.004  1.00  0.00     0.120 C 
BRANCH  65  74
ATOM     74  C   UNL A   1      34.569  20.681  24.807  1.00  0.00     0.303 C 
BRANCH  74  75
ATOM     75  C   UNL A   1      33.768  19.414  24.803  1.00  0.00     0.044 A 
ATOM     76  C   UNL A   1      34.114  18.146  24.247  1.00  0.00     0.051 A 
ATOM     77  C   UNL A   1      32.560  19.195  25.439  1.00  0.00     0.204 A 
ATOM     78  C   UNL A   1      33.074  17.291  24.519  1.00  0.00     0.195 A 
ATOM     79  O   UNL A   1      32.125  17.924  25.252  1.00  0.00    -0.472 OA
ENDBRANCH  74  75
ENDBRANCH  65  74
ENDBRANCH  60  63
ENDBRANCH  58  59
ENDBRANCH  57  58
ENDBRANCH   1  57
TORSDOF 13
ENDMDL
