MODEL 1
REMARK VINA RESULT:      -8.8      0.000      0.000
REMARK SMILES Nc1cc(F)c([C@H]([NH3+])C(=O)NCCCCNC(=O)c2ccc(-c3c4nc(c(-c5ccccc5)c5ccc([nH]5)c(-c5ccccc5)c5nc(c(-c6ccccc6)c6ccc3[nH]6)C=C5)C=C4)cc2)cc1F
REMARK SMILES IDX 13 1 12 2 11 3 9 4 10 5 7 7 6 8 2 9 3 10 68 11 4 12 67 13
REMARK SMILES IDX 69 14 5 15 1 16 8 19 14 23 15 24 16 25 17 26 18 28 19 29
REMARK SMILES IDX 20 30 66 31 21 32 65 33 22 34 23 35 24 36 59 37 25 38 64 39
REMARK SMILES IDX 58 40 60 41 26 42 63 43 57 44 56 45 27 47 49 48 34 49 48 50
REMARK SMILES IDX 35 51 38 52 47 53 61 54 36 55 37 56 46 58 62 59 39 60 28 61
REMARK SMILES IDX 29 62 33 63 30 64 32 65 31 66 50 67 51 68 55 69 52 70 54 71
REMARK SMILES IDX 53 72 40 73 41 74 45 75 42 76 44 77 43 78
REMARK H PARENT 11 6 1 17 1 18 8 20 8 21 8 22 16 27 60 46 38 57
REMARK Flexibility Score: inf
ROOT
ATOM      1  C   UNL A   1      46.366  21.306  24.504  1.00  0.00     0.023 C 
ENDROOT
BRANCH   1   2
ATOM      2  C   UNL A   1      45.831  22.732  24.595  1.00  0.00     0.116 C 
BRANCH   2   3
ATOM      3  N   UNL A   1      46.655  23.671  23.857  1.00  0.00    -0.351 N 
ATOM      4  C   UNL A   1      47.297  24.791  24.302  1.00  0.00     0.283 C 
ATOM      5  O   UNL A   1      47.868  25.496  23.464  1.00  0.00    -0.268 OA
ATOM      6  H   UNL A   1      46.766  23.472  22.900  1.00  0.00     0.163 HD
BRANCH   4   7
ATOM      7  C   UNL A   1      47.253  25.211  25.798  1.00  0.00     0.305 C 
BRANCH   7   8
ATOM      8  C   UNL A   1      46.467  26.485  26.064  1.00  0.00     0.058 A 
ATOM      9  C   UNL A   1      44.920  28.830  26.528  1.00  0.00     0.071 A 
ATOM     10  C   UNL A   1      44.341  27.699  25.959  1.00  0.00     0.068 A 
ATOM     11  C   UNL A   1      46.283  28.778  26.847  1.00  0.00     0.146 A 
ATOM     12  C   UNL A   1      45.100  26.544  25.755  1.00  0.00     0.135 A 
ATOM     13  C   UNL A   1      47.047  27.628  26.636  1.00  0.00     0.055 A 
ATOM     14  F   UNL A   1      46.880  29.860  27.371  1.00  0.00    -0.205 F 
ATOM     15  F   UNL A   1      44.486  25.475  25.229  1.00  0.00    -0.206 F 
BRANCH   9  16
ATOM     16  N   UNL A   1      44.194  30.005  26.664  1.00  0.00    -0.396 N 
ATOM     17  H   UNL A   1      44.564  30.755  27.185  1.00  0.00     0.156 HD
ATOM     18  H   UNL A   1      43.310  30.090  26.238  1.00  0.00     0.156 HD
ENDBRANCH   9  16
ENDBRANCH   7   8
BRANCH   7  19
ATOM     19  N   UNL A   1      48.643  25.235  26.315  1.00  0.00    -0.343 N 
ATOM     20  H   UNL A   1      48.805  26.110  26.815  1.00  0.00     0.345 HD
ATOM     21  H   UNL A   1      49.297  25.162  25.536  1.00  0.00     0.345 HD
ATOM     22  H   UNL A   1      48.783  24.450  26.951  1.00  0.00     0.345 HD
ENDBRANCH   7  19
ENDBRANCH   4   7
ENDBRANCH   2   3
ENDBRANCH   1   2
BRANCH   1  23
ATOM     23  C   UNL A   1      45.301  20.225  24.319  1.00  0.00     0.023 C 
BRANCH  23  24
ATOM     24  C   UNL A   1      44.695  19.678  25.606  1.00  0.00     0.116 C 
BRANCH  24  25
ATOM     25  N   UNL A   1      43.376  19.088  25.423  1.00  0.00    -0.352 N 
ATOM     26  C   UNL A   1      42.149  19.589  25.795  1.00  0.00     0.251 C 
ATOM     27  H   UNL A   1      43.360  18.213  24.973  1.00  0.00     0.163 HD
ATOM     28  O   UNL A   1      41.130  18.920  25.653  1.00  0.00    -0.269 OA
BRANCH  26  29
ATOM     29  C   UNL A   1      42.076  20.928  26.416  1.00  0.00     0.039 A 
ATOM     30  C   UNL A   1      42.267  22.077  25.647  1.00  0.00     0.014 A 
ATOM     31  C   UNL A   1      41.886  21.026  27.797  1.00  0.00     0.014 A 
ATOM     32  C   UNL A   1      42.454  23.300  26.280  1.00  0.00     0.010 A 
ATOM     33  C   UNL A   1      41.989  22.271  28.422  1.00  0.00     0.010 A 
ATOM     34  C   UNL A   1      42.334  23.408  27.675  1.00  0.00    -0.014 A 
BRANCH  34  35
ATOM     35  C   UNL A   1      42.593  24.715  28.330  1.00  0.00     0.031 A 
ATOM     36  C   UNL A   1      43.976  25.084  28.799  1.00  0.00     0.074 A 
ATOM     37  C   UNL A   1      41.587  25.603  28.448  1.00  0.00     0.049 A 
ATOM     38  N   UNL A   1      44.385  26.198  29.353  1.00  0.00    -0.248 NA
ATOM     39  C   UNL A   1      45.036  24.076  28.631  1.00  0.00     0.031 C 
ATOM     40  C   UNL A   1      40.208  25.371  28.015  1.00  0.00     0.029 A 
ATOM     41  N   UNL A   1      41.574  26.885  28.935  1.00  0.00    -0.354 N 
ATOM     42  C   UNL A   1      45.737  26.017  29.622  1.00  0.00     0.074 A 
ATOM     43  C   UNL A   1      46.077  24.679  29.189  1.00  0.00     0.031 C 
ATOM     44  C   UNL A   1      39.497  26.493  28.202  1.00  0.00     0.029 A 
ATOM     45  C   UNL A   1      40.352  27.500  28.823  1.00  0.00     0.049 A 
ATOM     46  H   UNL A   1      42.365  27.321  29.328  1.00  0.00     0.167 HD
ATOM     47  C   UNL A   1      46.614  26.888  30.171  1.00  0.00     0.031 A 
ATOM     48  C   UNL A   1      39.953  28.733  29.186  1.00  0.00     0.031 A 
ATOM     49  C   UNL A   1      46.282  28.228  30.577  1.00  0.00     0.049 A 
ATOM     50  C   UNL A   1      40.937  29.671  29.820  1.00  0.00     0.074 A 
ATOM     51  C   UNL A   1      47.120  29.197  31.102  1.00  0.00     0.029 A 
ATOM     52  N   UNL A   1      45.016  28.787  30.507  1.00  0.00    -0.354 N 
ATOM     53  N   UNL A   1      42.213  29.487  30.051  1.00  0.00    -0.248 NA
ATOM     54  C   UNL A   1      40.427  30.981  30.247  1.00  0.00     0.031 C 
ATOM     55  C   UNL A   1      46.350  30.324  31.401  1.00  0.00     0.029 A 
ATOM     56  C   UNL A   1      45.044  30.077  31.009  1.00  0.00     0.049 A 
ATOM     57  H   UNL A   1      44.216  28.335  30.153  1.00  0.00     0.167 HD
ATOM     58  C   UNL A   1      42.662  30.656  30.649  1.00  0.00     0.074 A 
ATOM     59  C   UNL A   1      41.526  31.552  30.725  1.00  0.00     0.031 C 
ATOM     60  C   UNL A   1      43.906  30.954  31.094  1.00  0.00     0.031 A 
BRANCH  47  61
ATOM     61  C   UNL A   1      48.028  26.426  30.389  1.00  0.00    -0.014 A 
ATOM     62  C   UNL A   1      48.976  26.593  29.367  1.00  0.00     0.009 A 
ATOM     63  C   UNL A   1      48.402  25.748  31.559  1.00  0.00     0.009 A 
ATOM     64  C   UNL A   1      50.268  26.083  29.507  1.00  0.00     0.001 A 
ATOM     65  C   UNL A   1      49.702  25.259  31.706  1.00  0.00     0.001 A 
ATOM     66  C   UNL A   1      50.631  25.419  30.678  1.00  0.00     0.000 A 
ENDBRANCH  47  61
BRANCH  48  67
ATOM     67  C   UNL A   1      38.544  29.134  28.941  1.00  0.00    -0.014 A 
ATOM     68  C   UNL A   1      38.160  29.652  27.692  1.00  0.00     0.009 A 
ATOM     69  C   UNL A   1      37.598  29.077  29.973  1.00  0.00     0.009 A 
ATOM     70  C   UNL A   1      36.867  30.135  27.493  1.00  0.00     0.001 A 
ATOM     71  C   UNL A   1      36.295  29.536  29.761  1.00  0.00     0.001 A 
ATOM     72  C   UNL A   1      35.935  30.074  28.526  1.00  0.00     0.000 A 
ENDBRANCH  48  67
BRANCH  60  73
ATOM     73  C   UNL A   1      44.121  32.305  31.714  1.00  0.00    -0.014 A 
ATOM     74  C   UNL A   1      43.906  32.486  33.090  1.00  0.00     0.009 A 
ATOM     75  C   UNL A   1      44.437  33.418  30.921  1.00  0.00     0.009 A 
ATOM     76  C   UNL A   1      43.987  33.758  33.657  1.00  0.00     0.001 A 
ATOM     77  C   UNL A   1      44.541  34.686  31.496  1.00  0.00     0.001 A 
ATOM     78  C   UNL A   1      44.307  34.857  32.860  1.00  0.00     0.000 A 
ENDBRANCH  60  73
ENDBRANCH  34  35
ENDBRANCH  26  29
ENDBRANCH  24  25
ENDBRANCH  23  24
ENDBRANCH   1  23
TORSDOF 14
ENDMDL
MODEL 2
REMARK VINA RESULT:      -8.7      6.212     11.753
REMARK SMILES Nc1cc(F)c([C@H]([NH3+])C(=O)NCCCCNC(=O)c2ccc(-c3c4nc(c(-c5ccccc5)c5ccc([nH]5)c(-c5ccccc5)c5nc(c(-c6ccccc6)c6ccc3[nH]6)C=C5)C=C4)cc2)cc1F
REMARK SMILES IDX 13 1 12 2 11 3 9 4 10 5 7 7 6 8 2 9 3 10 68 11 4 12 67 13
REMARK SMILES IDX 69 14 5 15 1 16 8 19 14 23 15 24 16 25 17 26 18 28 19 29
REMARK SMILES IDX 20 30 66 31 21 32 65 33 22 34 23 35 24 36 59 37 25 38 64 39
REMARK SMILES IDX 58 40 60 41 26 42 63 43 57 44 56 45 27 47 49 48 34 49 48 50
REMARK SMILES IDX 35 51 38 52 47 53 61 54 36 55 37 56 46 58 62 59 39 60 28 61
REMARK SMILES IDX 29 62 33 63 30 64 32 65 31 66 50 67 51 68 55 69 52 70 54 71
REMARK SMILES IDX 53 72 40 73 41 74 45 75 42 76 44 77 43 78
REMARK H PARENT 11 6 1 17 1 18 8 20 8 21 8 22 16 27 60 46 38 57
REMARK Flexibility Score: inf
ROOT
ATOM      1  C   UNL A   1      31.814  29.106  27.287  1.00  0.00     0.023 C 
ENDROOT
BRANCH   1   2
ATOM      2  C   UNL A   1      31.911  27.889  26.370  1.00  0.00     0.116 C 
BRANCH   2   3
ATOM      3  N   UNL A   1      30.968  26.852  26.741  1.00  0.00    -0.351 N 
ATOM      4  C   UNL A   1      30.273  25.990  25.940  1.00  0.00     0.283 C 
ATOM      5  O   UNL A   1      29.446  25.248  26.479  1.00  0.00    -0.268 OA
ATOM      6  H   UNL A   1      30.805  26.756  27.707  1.00  0.00     0.163 HD
BRANCH   4   7
ATOM      7  C   UNL A   1      30.457  25.991  24.397  1.00  0.00     0.305 C 
BRANCH   7   8
ATOM      8  C   UNL A   1      29.765  27.143  23.687  1.00  0.00     0.058 A 
ATOM      9  C   UNL A   1      28.387  29.267  22.386  1.00  0.00     0.071 A 
ATOM     10  C   UNL A   1      27.684  28.288  23.083  1.00  0.00     0.068 A 
ATOM     11  C   UNL A   1      29.782  29.163  22.337  1.00  0.00     0.146 A 
ATOM     12  C   UNL A   1      28.368  27.260  23.737  1.00  0.00     0.135 A 
ATOM     13  C   UNL A   1      30.468  28.133  22.983  1.00  0.00     0.055 A 
ATOM     14  F   UNL A   1      30.489  30.075  21.651  1.00  0.00    -0.205 F 
ATOM     15  F   UNL A   1      27.645  26.359  24.416  1.00  0.00    -0.206 F 
BRANCH   9  16
ATOM     16  N   UNL A   1      27.713  30.247  21.669  1.00  0.00    -0.396 N 
ATOM     17  H   UNL A   1      27.507  30.105  20.716  1.00  0.00     0.156 HD
ATOM     18  H   UNL A   1      27.439  31.082  22.114  1.00  0.00     0.156 HD
ENDBRANCH   9  16
ENDBRANCH   7   8
BRANCH   7  19
ATOM     19  N   UNL A   1      30.084  24.649  23.885  1.00  0.00    -0.343 N 
ATOM     20  H   UNL A   1      30.012  24.681  22.868  1.00  0.00     0.345 HD
ATOM     21  H   UNL A   1      29.185  24.372  24.280  1.00  0.00     0.345 HD
ATOM     22  H   UNL A   1      30.796  23.971  24.154  1.00  0.00     0.345 HD
ENDBRANCH   7  19
ENDBRANCH   4   7
ENDBRANCH   2   3
ENDBRANCH   1   2
BRANCH   1  23
ATOM     23  C   UNL A   1      31.854  30.458  26.576  1.00  0.00     0.023 C 
BRANCH  23  24
ATOM     24  C   UNL A   1      32.956  31.405  27.034  1.00  0.00     0.116 C 
BRANCH  24  25
ATOM     25  N   UNL A   1      32.473  32.729  27.399  1.00  0.00    -0.352 N 
ATOM     26  C   UNL A   1      33.073  33.675  28.199  1.00  0.00     0.251 C 
ATOM     27  H   UNL A   1      31.598  32.981  27.025  1.00  0.00     0.163 HD
ATOM     28  O   UNL A   1      32.487  34.713  28.489  1.00  0.00    -0.269 OA
BRANCH  26  29
ATOM     29  C   UNL A   1      34.419  33.406  28.748  1.00  0.00     0.039 A 
ATOM     30  C   UNL A   1      35.561  33.771  28.033  1.00  0.00     0.014 A 
ATOM     31  C   UNL A   1      34.532  32.713  29.956  1.00  0.00     0.014 A 
ATOM     32  C   UNL A   1      36.801  33.285  28.431  1.00  0.00     0.010 A 
ATOM     33  C   UNL A   1      35.791  32.298  30.399  1.00  0.00     0.010 A 
ATOM     34  C   UNL A   1      36.928  32.529  29.608  1.00  0.00    -0.014 A 
BRANCH  34  35
ATOM     35  C   UNL A   1      38.254  31.975  29.979  1.00  0.00     0.031 A 
ATOM     36  C   UNL A   1      39.139  32.684  30.970  1.00  0.00     0.074 A 
ATOM     37  C   UNL A   1      38.639  30.791  29.464  1.00  0.00     0.049 A 
ATOM     38  N   UNL A   1      40.307  32.319  31.435  1.00  0.00    -0.248 NA
ATOM     39  C   UNL A   1      38.657  33.967  31.506  1.00  0.00     0.031 C 
ATOM     40  C   UNL A   1      37.863  29.999  28.509  1.00  0.00     0.029 A 
ATOM     41  N   UNL A   1      39.760  30.034  29.695  1.00  0.00    -0.354 N 
ATOM     42  C   UNL A   1      40.710  33.334  32.295  1.00  0.00     0.074 A 
ATOM     43  C   UNL A   1      39.672  34.341  32.274  1.00  0.00     0.031 C 
ATOM     44  C   UNL A   1      38.502  28.842  28.281  1.00  0.00     0.029 A 
ATOM     45  C   UNL A   1      39.759  28.838  29.022  1.00  0.00     0.049 A 
ATOM     46  H   UNL A   1      40.493  30.323  30.285  1.00  0.00     0.167 HD
ATOM     47  C   UNL A   1      41.838  33.415  33.039  1.00  0.00     0.031 A 
ATOM     48  C   UNL A   1      40.669  27.846  28.992  1.00  0.00     0.031 A 
ATOM     49  C   UNL A   1      42.858  32.401  33.080  1.00  0.00     0.049 A 
ATOM     50  C   UNL A   1      41.924  27.973  29.803  1.00  0.00     0.074 A 
ATOM     51  C   UNL A   1      44.014  32.379  33.842  1.00  0.00     0.029 A 
ATOM     52  N   UNL A   1      42.848  31.235  32.332  1.00  0.00    -0.354 N 
ATOM     53  N   UNL A   1      42.280  28.932  30.621  1.00  0.00    -0.248 NA
ATOM     54  C   UNL A   1      42.905  26.885  29.684  1.00  0.00     0.031 C 
ATOM     55  C   UNL A   1      44.731  31.226  33.514  1.00  0.00     0.029 A 
ATOM     56  C   UNL A   1      43.994  30.502  32.590  1.00  0.00     0.049 A 
ATOM     57  H   UNL A   1      42.133  30.967  31.710  1.00  0.00     0.167 HD
ATOM     58  C   UNL A   1      43.523  28.566  31.117  1.00  0.00     0.074 A 
ATOM     59  C   UNL A   1      43.851  27.286  30.524  1.00  0.00     0.031 C 
ATOM     60  C   UNL A   1      44.318  29.237  31.984  1.00  0.00     0.031 A 
BRANCH  47  61
ATOM     61  C   UNL A   1      42.052  34.651  33.867  1.00  0.00    -0.014 A 
ATOM     62  C   UNL A   1      41.532  34.711  35.170  1.00  0.00     0.009 A 
ATOM     63  C   UNL A   1      42.683  35.786  33.335  1.00  0.00     0.009 A 
ATOM     64  C   UNL A   1      41.631  35.883  35.921  1.00  0.00     0.001 A 
ATOM     65  C   UNL A   1      42.803  36.949  34.097  1.00  0.00     0.001 A 
ATOM     66  C   UNL A   1      42.269  37.000  35.385  1.00  0.00     0.000 A 
ENDBRANCH  47  61
BRANCH  48  67
ATOM     67  C   UNL A   1      40.399  26.647  28.159  1.00  0.00    -0.014 A 
ATOM     68  C   UNL A   1      40.881  26.576  26.841  1.00  0.00     0.009 A 
ATOM     69  C   UNL A   1      39.595  25.607  28.647  1.00  0.00     0.009 A 
ATOM     70  C   UNL A   1      40.535  25.504  26.018  1.00  0.00     0.001 A 
ATOM     71  C   UNL A   1      39.274  24.521  27.828  1.00  0.00     0.001 A 
ATOM     72  C   UNL A   1      39.734  24.477  26.513  1.00  0.00     0.000 A 
ENDBRANCH  48  67
BRANCH  60  73
ATOM     73  C   UNL A   1      45.633  28.612  32.354  1.00  0.00    -0.014 A 
ATOM     74  C   UNL A   1      46.765  28.842  31.556  1.00  0.00     0.009 A 
ATOM     75  C   UNL A   1      45.726  27.717  33.429  1.00  0.00     0.009 A 
ATOM     76  C   UNL A   1      47.962  28.175  31.819  1.00  0.00     0.001 A 
ATOM     77  C   UNL A   1      46.932  27.070  33.704  1.00  0.00     0.001 A 
ATOM     78  C   UNL A   1      48.045  27.291  32.894  1.00  0.00     0.000 A 
ENDBRANCH  60  73
ENDBRANCH  34  35
ENDBRANCH  26  29
ENDBRANCH  24  25
ENDBRANCH  23  24
ENDBRANCH   1  23
TORSDOF 14
ENDMDL
MODEL 3
REMARK VINA RESULT:      -8.6      6.197     11.745
REMARK SMILES Nc1cc(F)c([C@H]([NH3+])C(=O)NCCCCNC(=O)c2ccc(-c3c4nc(c(-c5ccccc5)c5ccc([nH]5)c(-c5ccccc5)c5nc(c(-c6ccccc6)c6ccc3[nH]6)C=C5)C=C4)cc2)cc1F
REMARK SMILES IDX 13 1 12 2 11 3 9 4 10 5 7 7 6 8 2 9 3 10 68 11 4 12 67 13
REMARK SMILES IDX 69 14 5 15 1 16 8 19 14 23 15 24 16 25 17 26 18 28 19 29
REMARK SMILES IDX 20 30 66 31 21 32 65 33 22 34 23 35 24 36 59 37 25 38 64 39
REMARK SMILES IDX 58 40 60 41 26 42 63 43 57 44 56 45 27 47 49 48 34 49 48 50
REMARK SMILES IDX 35 51 38 52 47 53 61 54 36 55 37 56 46 58 62 59 39 60 28 61
REMARK SMILES IDX 29 62 33 63 30 64 32 65 31 66 50 67 51 68 55 69 52 70 54 71
REMARK SMILES IDX 53 72 40 73 41 74 45 75 42 76 44 77 43 78
REMARK H PARENT 11 6 1 17 1 18 8 20 8 21 8 22 16 27 60 46 38 57
REMARK Flexibility Score: inf
ROOT
ATOM      1  C   UNL A   1      31.751  29.003  27.287  1.00  0.00     0.023 C 
ENDROOT
BRANCH   1   2
ATOM      2  C   UNL A   1      31.996  27.724  26.492  1.00  0.00     0.116 C 
BRANCH   2   3
ATOM      3  N   UNL A   1      31.024  26.694  26.805  1.00  0.00    -0.351 N 
ATOM      4  C   UNL A   1      30.304  25.900  25.957  1.00  0.00     0.283 C 
ATOM      5  O   UNL A   1      29.456  25.153  26.454  1.00  0.00    -0.268 OA
ATOM      6  H   UNL A   1      30.859  26.546  27.764  1.00  0.00     0.163 HD
BRANCH   4   7
ATOM      7  C   UNL A   1      30.487  25.985  24.416  1.00  0.00     0.305 C 
BRANCH   7   8
ATOM      8  C   UNL A   1      29.700  27.106  23.756  1.00  0.00     0.058 A 
ATOM      9  C   UNL A   1      28.308  29.243  22.490  1.00  0.00     0.071 A 
ATOM     10  C   UNL A   1      29.698  29.171  22.436  1.00  0.00     0.068 A 
ATOM     11  C   UNL A   1      27.627  28.243  23.194  1.00  0.00     0.146 A 
ATOM     12  C   UNL A   1      30.373  28.109  23.041  1.00  0.00     0.135 A 
ATOM     13  C   UNL A   1      28.300  27.183  23.807  1.00  0.00     0.055 A 
ATOM     14  F   UNL A   1      26.289  28.295  23.289  1.00  0.00    -0.205 F 
ATOM     15  F   UNL A   1      31.709  28.075  22.937  1.00  0.00    -0.206 F 
BRANCH   9  16
ATOM     16  N   UNL A   1      27.634  30.334  21.959  1.00  0.00    -0.396 N 
ATOM     17  H   UNL A   1      27.778  31.233  22.337  1.00  0.00     0.156 HD
ATOM     18  H   UNL A   1      27.014  30.210  21.203  1.00  0.00     0.156 HD
ENDBRANCH   9  16
ENDBRANCH   7   8
BRANCH   7  19
ATOM     19  N   UNL A   1      30.227  24.641  23.843  1.00  0.00    -0.343 N 
ATOM     20  H   UNL A   1      31.107  24.133  23.754  1.00  0.00     0.345 HD
ATOM     21  H   UNL A   1      29.798  24.741  22.923  1.00  0.00     0.345 HD
ATOM     22  H   UNL A   1      29.597  24.126  24.457  1.00  0.00     0.345 HD
ENDBRANCH   7  19
ENDBRANCH   4   7
ENDBRANCH   2   3
ENDBRANCH   1   2
BRANCH   1  23
ATOM     23  C   UNL A   1      31.894  30.299  26.490  1.00  0.00     0.023 C 
BRANCH  23  24
ATOM     24  C   UNL A   1      32.976  31.253  26.982  1.00  0.00     0.116 C 
BRANCH  24  25
ATOM     25  N   UNL A   1      32.482  32.589  27.280  1.00  0.00    -0.352 N 
ATOM     26  C   UNL A   1      33.057  33.565  28.063  1.00  0.00     0.251 C 
ATOM     27  H   UNL A   1      31.622  32.828  26.866  1.00  0.00     0.163 HD
ATOM     28  O   UNL A   1      32.463  34.614  28.293  1.00  0.00    -0.269 OA
BRANCH  26  29
ATOM     29  C   UNL A   1      34.382  33.316  28.668  1.00  0.00     0.039 A 
ATOM     30  C   UNL A   1      35.549  33.623  27.966  1.00  0.00     0.014 A 
ATOM     31  C   UNL A   1      34.451  32.700  29.921  1.00  0.00     0.014 A 
ATOM     32  C   UNL A   1      36.771  33.149  28.431  1.00  0.00     0.010 A 
ATOM     33  C   UNL A   1      35.691  32.300  30.426  1.00  0.00     0.010 A 
ATOM     34  C   UNL A   1      36.853  32.468  29.657  1.00  0.00    -0.014 A 
BRANCH  34  35
ATOM     35  C   UNL A   1      38.161  31.923  30.101  1.00  0.00     0.031 A 
ATOM     36  C   UNL A   1      38.682  30.620  29.556  1.00  0.00     0.074 A 
ATOM     37  C   UNL A   1      38.913  32.639  30.959  1.00  0.00     0.049 A 
ATOM     38  N   UNL A   1      39.819  30.021  29.806  1.00  0.00    -0.248 NA
ATOM     39  C   UNL A   1      37.818  29.890  28.613  1.00  0.00     0.031 C 
ATOM     40  C   UNL A   1      38.527  33.924  31.544  1.00  0.00     0.029 A 
ATOM     41  N   UNL A   1      40.169  32.405  31.461  1.00  0.00    -0.354 N 
ATOM     42  C   UNL A   1      39.797  28.839  29.075  1.00  0.00     0.074 A 
ATOM     43  C   UNL A   1      38.526  28.792  28.386  1.00  0.00     0.031 C 
ATOM     44  C   UNL A   1      39.547  34.393  32.278  1.00  0.00     0.029 A 
ATOM     45  C   UNL A   1      40.631  33.417  32.266  1.00  0.00     0.049 A 
ATOM     46  H   UNL A   1      40.686  31.591  31.264  1.00  0.00     0.167 HD
ATOM     47  C   UNL A   1      40.753  27.885  28.981  1.00  0.00     0.031 A 
ATOM     48  C   UNL A   1      41.794  33.547  32.932  1.00  0.00     0.031 A 
ATOM     49  C   UNL A   1      42.028  27.944  29.644  1.00  0.00     0.049 A 
ATOM     50  C   UNL A   1      42.825  32.461  32.835  1.00  0.00     0.074 A 
ATOM     51  C   UNL A   1      43.075  27.042  29.570  1.00  0.00     0.029 A 
ATOM     52  N   UNL A   1      42.429  28.955  30.503  1.00  0.00    -0.354 N 
ATOM     53  N   UNL A   1      42.792  31.359  32.127  1.00  0.00    -0.248 NA
ATOM     54  C   UNL A   1      44.048  32.633  33.631  1.00  0.00     0.031 C 
ATOM     55  C   UNL A   1      44.089  27.478  30.426  1.00  0.00     0.029 A 
ATOM     56  C   UNL A   1      43.696  28.682  30.990  1.00  0.00     0.049 A 
ATOM     57  H   UNL A   1      41.893  29.749  30.733  1.00  0.00     0.167 HD
ATOM     58  C   UNL A   1      43.989  30.706  32.388  1.00  0.00     0.074 A 
ATOM     59  C   UNL A   1      44.735  31.546  33.303  1.00  0.00     0.031 C 
ATOM     60  C   UNL A   1      44.423  29.516  31.911  1.00  0.00     0.031 A 
BRANCH  47  61
ATOM     61  C   UNL A   1      40.461  26.672  28.141  1.00  0.00    -0.014 A 
ATOM     62  C   UNL A   1      40.919  26.623  26.815  1.00  0.00     0.009 A 
ATOM     63  C   UNL A   1      39.662  25.625  28.624  1.00  0.00     0.009 A 
ATOM     64  C   UNL A   1      40.577  25.554  25.985  1.00  0.00     0.001 A 
ATOM     65  C   UNL A   1      39.341  24.545  27.799  1.00  0.00     0.001 A 
ATOM     66  C   UNL A   1      39.791  24.514  26.479  1.00  0.00     0.000 A 
ENDBRANCH  47  61
BRANCH  48  67
ATOM     67  C   UNL A   1      42.026  34.769  33.741  1.00  0.00    -0.014 A 
ATOM     68  C   UNL A   1      42.653  35.891  33.171  1.00  0.00     0.009 A 
ATOM     69  C   UNL A   1      41.697  34.794  35.104  1.00  0.00     0.009 A 
ATOM     70  C   UNL A   1      42.975  36.998  33.956  1.00  0.00     0.001 A 
ATOM     71  C   UNL A   1      41.997  35.916  35.881  1.00  0.00     0.001 A 
ATOM     72  C   UNL A   1      42.645  37.011  35.309  1.00  0.00     0.000 A 
ENDBRANCH  48  67
BRANCH  60  73
ATOM     73  C   UNL A   1      45.770  29.030  32.364  1.00  0.00    -0.014 A 
ATOM     74  C   UNL A   1      46.915  29.337  31.611  1.00  0.00     0.009 A 
ATOM     75  C   UNL A   1      45.893  28.186  33.478  1.00  0.00     0.009 A 
ATOM     76  C   UNL A   1      48.153  28.795  31.953  1.00  0.00     0.001 A 
ATOM     77  C   UNL A   1      47.138  27.665  33.832  1.00  0.00     0.001 A 
ATOM     78  C   UNL A   1      48.265  27.961  33.066  1.00  0.00     0.000 A 
ENDBRANCH  60  73
ENDBRANCH  34  35
ENDBRANCH  26  29
ENDBRANCH  24  25
ENDBRANCH  23  24
ENDBRANCH   1  23
TORSDOF 14
ENDMDL
