MODEL 1
REMARK VINA RESULT:     -11.2      0.000      0.000
REMARK SMILES CCOC(=O)C1=NN(c2ccc(C)cc2Cl)[C@@](C)(C(=O)NCCCCNC(=O)c2ccc(-c3c4nc(c(-c5ccccc5)c5ccc([nH]5)c(-c5ccccc5)c5nc(c(-c6ccccc6)c6ccc3[nH]6)C=C5)C=C4)cc2)C1
REMARK SMILES IDX 23 1 22 2 21 3 19 4 20 5 17 7 6 8 7 9 77 10 8 11 18 12 4 13
REMARK SMILES IDX 5 14 3 15 2 16 1 17 9 18 10 19 15 20 11 21 14 22 16 23 12 24
REMARK SMILES IDX 13 25 24 26 25 27 26 28 27 29 28 31 29 32 30 33 76 34 31 35
REMARK SMILES IDX 75 36 32 37 33 38 34 39 69 40 35 41 74 42 68 43 70 44 36 45
REMARK SMILES IDX 73 46 67 47 66 48 37 50 59 51 44 52 58 53 45 54 48 55 57 56
REMARK SMILES IDX 71 57 46 58 47 59 56 61 72 62 49 63 38 64 39 65 43 66 40 67
REMARK SMILES IDX 42 68 41 69 60 70 61 71 65 72 62 73 64 74 63 75 50 76 51 77
REMARK SMILES IDX 55 78 52 79 54 80 53 81
REMARK H PARENT 21 6 26 30 70 49 48 60
REMARK Flexibility Score: inf
ROOT
ATOM      1  C   UNL A   1      36.229  20.915  25.011  1.00  0.00     0.023 C 
ENDROOT
BRANCH   1   2
ATOM      2  C   UNL A   1      36.403  22.253  25.728  1.00  0.00     0.116 C 
BRANCH   2   3
ATOM      3  N   UNL A   1      35.626  23.307  25.111  1.00  0.00    -0.354 N 
ATOM      4  C   UNL A   1      34.327  23.697  25.225  1.00  0.00     0.248 C 
ATOM      5  O   UNL A   1      34.008  24.613  24.454  1.00  0.00    -0.272 OA
ATOM      6  H   UNL A   1      36.144  23.855  24.478  1.00  0.00     0.163 HD
BRANCH   4   7
ATOM      7  C   UNL A   1      33.299  23.106  26.242  1.00  0.00     0.144 C 
ATOM      8  C   UNL A   1      31.230  24.056  25.789  1.00  0.00     0.149 C 
ATOM      9  N   UNL A   1      31.163  22.891  25.226  1.00  0.00    -0.169 NA
ATOM     10  C   UNL A   1      32.380  24.271  26.711  1.00  0.00     0.106 C 
ATOM     11  N   UNL A   1      32.303  22.220  25.583  1.00  0.00    -0.248 N 
ATOM     12  C   UNL A   1      33.948  22.527  27.499  1.00  0.00     0.048 C 
BRANCH   8  13
ATOM     13  C   UNL A   1      30.203  25.145  25.607  1.00  0.00     0.354 C 
ATOM     14  O   UNL A   1      29.509  25.527  26.531  1.00  0.00    -0.245 OA
BRANCH  13  15
ATOM     15  O   UNL A   1      30.163  25.551  24.324  1.00  0.00    -0.461 OA
BRANCH  15  16
ATOM     16  C   UNL A   1      29.018  26.333  23.956  1.00  0.00     0.230 C 
ATOM     17  C   UNL A   1      29.442  27.695  23.438  1.00  0.00     0.049 C 
ENDBRANCH  15  16
ENDBRANCH  13  15
ENDBRANCH   8  13
BRANCH  11  18
ATOM     18  C   UNL A   1      32.520  20.957  25.040  1.00  0.00     0.079 A 
ATOM     19  C   UNL A   1      32.708  19.857  25.895  1.00  0.00     0.030 A 
ATOM     20  C   UNL A   1      32.524  20.686  23.653  1.00  0.00     0.066 A 
ATOM     21  C   UNL A   1      32.955  18.566  25.408  1.00  0.00     0.006 A 
ATOM     22  C   UNL A   1      32.758  19.389  23.163  1.00  0.00     0.026 A 
ATOM     23  Cl  UNL A   1      32.376  21.937  22.459  1.00  0.00    -0.082 Cl
ATOM     24  C   UNL A   1      32.982  18.321  24.036  1.00  0.00    -0.049 A 
ATOM     25  C   UNL A   1      33.305  16.957  23.499  1.00  0.00     0.044 C 
ENDBRANCH  11  18
ENDBRANCH   4   7
ENDBRANCH   2   3
ENDBRANCH   1   2
BRANCH   1  26
ATOM     26  C   UNL A   1      37.504  20.092  24.817  1.00  0.00     0.023 C 
BRANCH  26  27
ATOM     27  C   UNL A   1      38.686  20.487  25.697  1.00  0.00     0.116 C 
BRANCH  27  28
ATOM     28  N   UNL A   1      39.763  19.510  25.673  1.00  0.00    -0.352 N 
ATOM     29  C   UNL A   1      41.083  19.654  26.021  1.00  0.00     0.251 C 
ATOM     30  H   UNL A   1      39.507  18.612  25.362  1.00  0.00     0.163 HD
ATOM     31  O   UNL A   1      41.873  18.738  25.815  1.00  0.00    -0.269 OA
BRANCH  29  32
ATOM     32  C   UNL A   1      41.567  20.918  26.617  1.00  0.00     0.039 A 
ATOM     33  C   UNL A   1      41.969  21.947  25.758  1.00  0.00     0.014 A 
ATOM     34  C   UNL A   1      41.650  21.083  28.002  1.00  0.00     0.014 A 
ATOM     35  C   UNL A   1      42.387  23.169  26.287  1.00  0.00     0.010 A 
ATOM     36  C   UNL A   1      42.043  22.313  28.530  1.00  0.00     0.010 A 
ATOM     37  C   UNL A   1      42.404  23.365  27.676  1.00  0.00    -0.014 A 
BRANCH  37  38
ATOM     38  C   UNL A   1      42.785  24.671  28.258  1.00  0.00     0.031 A 
ATOM     39  C   UNL A   1      41.739  25.712  28.527  1.00  0.00     0.074 A 
ATOM     40  C   UNL A   1      44.084  24.949  28.475  1.00  0.00     0.049 A 
ATOM     41  N   UNL A   1      41.897  26.968  28.861  1.00  0.00    -0.248 NA
ATOM     42  C   UNL A   1      40.337  25.293  28.380  1.00  0.00     0.031 C 
ATOM     43  C   UNL A   1      45.202  24.037  28.227  1.00  0.00     0.029 A 
ATOM     44  N   UNL A   1      44.679  26.093  28.940  1.00  0.00    -0.354 N 
ATOM     45  C   UNL A   1      40.620  27.506  28.906  1.00  0.00     0.074 A 
ATOM     46  C   UNL A   1      39.695  26.433  28.600  1.00  0.00     0.031 C 
ATOM     47  C   UNL A   1      46.350  24.657  28.547  1.00  0.00     0.029 A 
ATOM     48  C   UNL A   1      46.047  26.010  29.003  1.00  0.00     0.049 A 
ATOM     49  H   UNL A   1      44.174  26.896  29.204  1.00  0.00     0.167 HD
ATOM     50  C   UNL A   1      40.251  28.783  29.159  1.00  0.00     0.031 A 
ATOM     51  C   UNL A   1      46.956  26.928  29.376  1.00  0.00     0.031 A 
ATOM     52  C   UNL A   1      41.155  29.844  29.508  1.00  0.00     0.049 A 
ATOM     53  C   UNL A   1      46.509  28.297  29.789  1.00  0.00     0.074 A 
ATOM     54  C   UNL A   1      40.875  31.177  29.759  1.00  0.00     0.029 A 
ATOM     55  N   UNL A   1      42.519  29.682  29.684  1.00  0.00    -0.354 N 
ATOM     56  N   UNL A   1      45.302  28.804  29.778  1.00  0.00    -0.248 NA
ATOM     57  C   UNL A   1      47.551  29.218  30.265  1.00  0.00     0.031 C 
ATOM     58  C   UNL A   1      42.072  31.818  30.105  1.00  0.00     0.029 A 
ATOM     59  C   UNL A   1      43.092  30.882  30.069  1.00  0.00     0.049 A 
ATOM     60  H   UNL A   1      43.009  28.838  29.554  1.00  0.00     0.167 HD
ATOM     61  C   UNL A   1      45.438  30.108  30.232  1.00  0.00     0.074 A 
ATOM     62  C   UNL A   1      46.843  30.308  30.528  1.00  0.00     0.031 C 
ATOM     63  C   UNL A   1      44.485  31.058  30.375  1.00  0.00     0.031 A 
BRANCH  50  64
ATOM     64  C   UNL A   1      38.794  29.098  29.034  1.00  0.00    -0.014 A 
ATOM     65  C   UNL A   1      38.242  29.459  27.797  1.00  0.00     0.009 A 
ATOM     66  C   UNL A   1      37.967  29.030  30.164  1.00  0.00     0.009 A 
ATOM     67  C   UNL A   1      36.882  29.763  27.699  1.00  0.00     0.001 A 
ATOM     68  C   UNL A   1      36.608  29.332  30.062  1.00  0.00     0.001 A 
ATOM     69  C   UNL A   1      36.069  29.701  28.830  1.00  0.00     0.000 A 
ENDBRANCH  50  64
BRANCH  51  70
ATOM     70  C   UNL A   1      48.393  26.577  29.368  1.00  0.00    -0.014 A 
ATOM     71  C   UNL A   1      49.175  26.831  28.232  1.00  0.00     0.009 A 
ATOM     72  C   UNL A   1      48.988  26.003  30.500  1.00  0.00     0.009 A 
ATOM     73  C   UNL A   1      50.532  26.505  28.227  1.00  0.00     0.001 A 
ATOM     74  C   UNL A   1      50.346  25.681  30.492  1.00  0.00     0.001 A 
ATOM     75  C   UNL A   1      51.116  25.930  29.356  1.00  0.00     0.000 A 
ENDBRANCH  51  70
BRANCH  63  76
ATOM     76  C   UNL A   1      44.937  32.393  30.878  1.00  0.00    -0.014 A 
ATOM     77  C   UNL A   1      45.360  33.382  29.978  1.00  0.00     0.009 A 
ATOM     78  C   UNL A   1      44.926  32.673  32.251  1.00  0.00     0.009 A 
ATOM     79  C   UNL A   1      45.778  34.628  30.448  1.00  0.00     0.001 A 
ATOM     80  C   UNL A   1      45.347  33.918  32.718  1.00  0.00     0.001 A 
ATOM     81  C   UNL A   1      45.774  34.894  31.818  1.00  0.00     0.000 A 
ENDBRANCH  63  76
ENDBRANCH  37  38
ENDBRANCH  29  32
ENDBRANCH  27  28
ENDBRANCH  26  27
ENDBRANCH   1  26
TORSDOF 15
ENDMDL
MODEL 2
REMARK VINA RESULT:     -11.1      3.623      8.469
REMARK SMILES CCOC(=O)C1=NN(c2ccc(C)cc2Cl)[C@@](C)(C(=O)NCCCCNC(=O)c2ccc(-c3c4nc(c(-c5ccccc5)c5ccc([nH]5)c(-c5ccccc5)c5nc(c(-c6ccccc6)c6ccc3[nH]6)C=C5)C=C4)cc2)C1
REMARK SMILES IDX 23 1 22 2 21 3 19 4 20 5 17 7 6 8 7 9 77 10 8 11 18 12 4 13
REMARK SMILES IDX 5 14 3 15 2 16 1 17 9 18 10 19 15 20 11 21 14 22 16 23 12 24
REMARK SMILES IDX 13 25 24 26 25 27 26 28 27 29 28 31 29 32 30 33 76 34 31 35
REMARK SMILES IDX 75 36 32 37 33 38 34 39 69 40 35 41 74 42 68 43 70 44 36 45
REMARK SMILES IDX 73 46 67 47 66 48 37 50 59 51 44 52 58 53 45 54 48 55 57 56
REMARK SMILES IDX 71 57 46 58 47 59 56 61 72 62 49 63 38 64 39 65 43 66 40 67
REMARK SMILES IDX 42 68 41 69 60 70 61 71 65 72 62 73 64 74 63 75 50 76 51 77
REMARK SMILES IDX 55 78 52 79 54 80 53 81
REMARK H PARENT 21 6 26 30 70 49 48 60
REMARK Flexibility Score: inf
ROOT
ATOM      1  C   UNL A   1      34.337  30.720  27.629  1.00  0.00     0.023 C 
ENDROOT
BRANCH   1   2
ATOM      2  C   UNL A   1      34.334  29.324  27.009  1.00  0.00     0.116 C 
BRANCH   2   3
ATOM      3  N   UNL A   1      34.217  29.370  25.567  1.00  0.00    -0.354 N 
ATOM      4  C   UNL A   1      33.296  28.884  24.690  1.00  0.00     0.248 C 
ATOM      5  O   UNL A   1      33.592  29.061  23.500  1.00  0.00    -0.272 OA
ATOM      6  H   UNL A   1      34.955  29.852  25.130  1.00  0.00     0.163 HD
BRANCH   4   7
ATOM      7  C   UNL A   1      31.953  28.192  25.091  1.00  0.00     0.144 C 
ATOM      8  C   UNL A   1      30.463  28.470  23.332  1.00  0.00     0.149 C 
ATOM      9  N   UNL A   1      30.901  27.261  23.176  1.00  0.00    -0.169 NA
ATOM     10  C   UNL A   1      30.792  29.121  24.631  1.00  0.00     0.106 C 
ATOM     11  N   UNL A   1      31.678  26.983  24.270  1.00  0.00    -0.248 N 
ATOM     12  C   UNL A   1      31.791  28.002  26.598  1.00  0.00     0.048 C 
BRANCH   8  13
ATOM     13  C   UNL A   1      29.616  29.201  22.322  1.00  0.00     0.354 C 
ATOM     14  O   UNL A   1      30.113  29.775  21.370  1.00  0.00    -0.245 OA
BRANCH  13  15
ATOM     15  O   UNL A   1      28.315  29.149  22.665  1.00  0.00    -0.461 OA
BRANCH  15  16
ATOM     16  C   UNL A   1      27.574  30.361  22.472  1.00  0.00     0.230 C 
ATOM     17  C   UNL A   1      27.739  31.287  23.663  1.00  0.00     0.049 C 
ENDBRANCH  15  16
ENDBRANCH  13  15
ENDBRANCH   8  13
BRANCH  11  18
ATOM     18  C   UNL A   1      32.342  25.761  24.313  1.00  0.00     0.079 A 
ATOM     19  C   UNL A   1      33.531  25.591  23.581  1.00  0.00     0.030 A 
ATOM     20  C   UNL A   1      31.918  24.661  25.092  1.00  0.00     0.066 A 
ATOM     21  C   UNL A   1      34.230  24.377  23.565  1.00  0.00     0.006 A 
ATOM     22  C   UNL A   1      32.627  23.447  25.088  1.00  0.00     0.026 A 
ATOM     23  Cl  UNL A   1      30.437  24.677  25.998  1.00  0.00    -0.082 Cl
ATOM     24  C   UNL A   1      33.784  23.293  24.319  1.00  0.00    -0.049 A 
ATOM     25  C   UNL A   1      34.488  21.969  24.265  1.00  0.00     0.044 C 
ENDBRANCH  11  18
ENDBRANCH   4   7
ENDBRANCH   2   3
ENDBRANCH   1   2
BRANCH   1  26
ATOM     26  C   UNL A   1      32.989  31.444  27.646  1.00  0.00     0.023 C 
BRANCH  26  27
ATOM     27  C   UNL A   1      32.944  32.777  26.905  1.00  0.00     0.116 C 
BRANCH  27  28
ATOM     28  N   UNL A   1      32.588  33.894  27.765  1.00  0.00    -0.352 N 
ATOM     29  C   UNL A   1      33.227  34.378  28.879  1.00  0.00     0.251 C 
ATOM     30  H   UNL A   1      31.768  34.374  27.510  1.00  0.00     0.163 HD
ATOM     31  O   UNL A   1      32.701  35.262  29.550  1.00  0.00    -0.269 OA
BRANCH  29  32
ATOM     32  C   UNL A   1      34.532  33.822  29.296  1.00  0.00     0.039 A 
ATOM     33  C   UNL A   1      34.579  33.024  30.445  1.00  0.00     0.014 A 
ATOM     34  C   UNL A   1      35.701  34.100  28.583  1.00  0.00     0.014 A 
ATOM     35  C   UNL A   1      35.786  32.445  30.838  1.00  0.00     0.010 A 
ATOM     36  C   UNL A   1      36.902  33.500  28.962  1.00  0.00     0.010 A 
ATOM     37  C   UNL A   1      36.950  32.663  30.085  1.00  0.00    -0.014 A 
BRANCH  37  38
ATOM     38  C   UNL A   1      38.228  32.011  30.449  1.00  0.00     0.031 A 
ATOM     39  C   UNL A   1      39.184  32.693  31.382  1.00  0.00     0.074 A 
ATOM     40  C   UNL A   1      38.562  30.839  29.879  1.00  0.00     0.049 A 
ATOM     41  N   UNL A   1      40.418  32.369  31.674  1.00  0.00    -0.248 NA
ATOM     42  C   UNL A   1      38.698  33.907  32.055  1.00  0.00     0.031 C 
ATOM     43  C   UNL A   1      37.738  30.087  28.933  1.00  0.00     0.029 A 
ATOM     44  N   UNL A   1      39.700  30.085  30.007  1.00  0.00    -0.354 N 
ATOM     45  C   UNL A   1      40.878  33.370  32.517  1.00  0.00     0.074 A 
ATOM     46  C   UNL A   1      39.780  34.294  32.718  1.00  0.00     0.031 C 
ATOM     47  C   UNL A   1      38.396  28.975  28.567  1.00  0.00     0.029 A 
ATOM     48  C   UNL A   1      39.692  28.948  29.239  1.00  0.00     0.049 A 
ATOM     49  H   UNL A   1      40.451  30.335  30.593  1.00  0.00     0.167 HD
ATOM     50  C   UNL A   1      42.109  33.517  33.059  1.00  0.00     0.031 A 
ATOM     51  C   UNL A   1      40.628  27.996  29.086  1.00  0.00     0.031 A 
ATOM     52  C   UNL A   1      43.190  32.584  32.903  1.00  0.00     0.049 A 
ATOM     53  C   UNL A   1      41.935  28.112  29.811  1.00  0.00     0.074 A 
ATOM     54  C   UNL A   1      44.483  32.661  33.396  1.00  0.00     0.029 A 
ATOM     55  N   UNL A   1      43.093  31.383  32.220  1.00  0.00    -0.354 N 
ATOM     56  N   UNL A   1      42.372  29.089  30.565  1.00  0.00    -0.248 NA
ATOM     57  C   UNL A   1      42.876  26.992  29.661  1.00  0.00     0.031 C 
ATOM     58  C   UNL A   1      45.163  31.494  33.024  1.00  0.00     0.029 A 
ATOM     59  C   UNL A   1      44.292  30.695  32.303  1.00  0.00     0.049 A 
ATOM     60  H   UNL A   1      42.291  31.065  31.747  1.00  0.00     0.167 HD
ATOM     61  C   UNL A   1      43.643  28.711  30.970  1.00  0.00     0.074 A 
ATOM     62  C   UNL A   1      43.901  27.406  30.395  1.00  0.00     0.031 C 
ATOM     63  C   UNL A   1      44.524  29.393  31.739  1.00  0.00     0.031 A 
BRANCH  50  64
ATOM     64  C   UNL A   1      42.349  34.763  33.851  1.00  0.00    -0.014 A 
ATOM     65  C   UNL A   1      42.792  35.936  33.226  1.00  0.00     0.009 A 
ATOM     66  C   UNL A   1      42.125  34.762  35.235  1.00  0.00     0.009 A 
ATOM     67  C   UNL A   1      43.024  37.088  33.982  1.00  0.00     0.001 A 
ATOM     68  C   UNL A   1      42.356  35.915  35.987  1.00  0.00     0.001 A 
ATOM     69  C   UNL A   1      42.808  37.075  35.360  1.00  0.00     0.000 A 
ENDBRANCH  50  64
BRANCH  51  70
ATOM     70  C   UNL A   1      40.362  26.846  28.196  1.00  0.00    -0.014 A 
ATOM     71  C   UNL A   1      40.863  26.836  26.886  1.00  0.00     0.009 A 
ATOM     72  C   UNL A   1      39.621  25.750  28.658  1.00  0.00     0.009 A 
ATOM     73  C   UNL A   1      40.616  25.748  26.048  1.00  0.00     0.001 A 
ATOM     74  C   UNL A   1      39.379  24.662  27.818  1.00  0.00     0.001 A 
ATOM     75  C   UNL A   1      39.874  24.663  26.514  1.00  0.00     0.000 A 
ENDBRANCH  51  70
BRANCH  63  76
ATOM     76  C   UNL A   1      45.841  28.732  32.001  1.00  0.00    -0.014 A 
ATOM     77  C   UNL A   1      45.999  27.883  33.105  1.00  0.00     0.009 A 
ATOM     78  C   UNL A   1      46.923  28.943  31.135  1.00  0.00     0.009 A 
ATOM     79  C   UNL A   1      47.227  27.264  33.347  1.00  0.00     0.001 A 
ATOM     80  C   UNL A   1      48.150  28.326  31.382  1.00  0.00     0.001 A 
ATOM     81  C   UNL A   1      48.302  27.489  32.487  1.00  0.00     0.000 A 
ENDBRANCH  63  76
ENDBRANCH  37  38
ENDBRANCH  29  32
ENDBRANCH  27  28
ENDBRANCH  26  27
ENDBRANCH   1  26
TORSDOF 15
ENDMDL
MODEL 3
REMARK VINA RESULT:     -11.1      2.691      7.068
REMARK SMILES CCOC(=O)C1=NN(c2ccc(C)cc2Cl)[C@@](C)(C(=O)NCCCCNC(=O)c2ccc(-c3c4nc(c(-c5ccccc5)c5ccc([nH]5)c(-c5ccccc5)c5nc(c(-c6ccccc6)c6ccc3[nH]6)C=C5)C=C4)cc2)C1
REMARK SMILES IDX 23 1 22 2 21 3 19 4 20 5 17 7 6 8 7 9 77 10 8 11 18 12 4 13
REMARK SMILES IDX 5 14 3 15 2 16 1 17 9 18 10 19 15 20 11 21 14 22 16 23 12 24
REMARK SMILES IDX 13 25 24 26 25 27 26 28 27 29 28 31 29 32 30 33 76 34 31 35
REMARK SMILES IDX 75 36 32 37 33 38 34 39 69 40 35 41 74 42 68 43 70 44 36 45
REMARK SMILES IDX 73 46 67 47 66 48 37 50 59 51 44 52 58 53 45 54 48 55 57 56
REMARK SMILES IDX 71 57 46 58 47 59 56 61 72 62 49 63 38 64 39 65 43 66 40 67
REMARK SMILES IDX 42 68 41 69 60 70 61 71 65 72 62 73 64 74 63 75 50 76 51 77
REMARK SMILES IDX 55 78 52 79 54 80 53 81
REMARK H PARENT 21 6 26 30 70 49 48 60
REMARK Flexibility Score: inf
ROOT
ATOM      1  C   UNL A   1      35.008  24.674  24.415  1.00  0.00     0.023 C 
ENDROOT
BRANCH   1   2
ATOM      2  C   UNL A   1      34.330  25.650  25.375  1.00  0.00     0.116 C 
BRANCH   2   3
ATOM      3  N   UNL A   1      34.118  26.949  24.771  1.00  0.00    -0.354 N 
ATOM      4  C   UNL A   1      33.001  27.673  24.487  1.00  0.00     0.248 C 
ATOM      5  O   UNL A   1      33.229  28.731  23.881  1.00  0.00    -0.272 OA
ATOM      6  H   UNL A   1      34.953  27.401  24.514  1.00  0.00     0.163 HD
BRANCH   4   7
ATOM      7  C   UNL A   1      31.546  27.277  24.895  1.00  0.00     0.144 C 
ATOM      8  C   UNL A   1      30.110  28.083  23.259  1.00  0.00     0.149 C 
ATOM      9  N   UNL A   1      30.240  26.828  22.962  1.00  0.00    -0.169 NA
ATOM     10  C   UNL A   1      30.626  28.496  24.594  1.00  0.00     0.106 C 
ATOM     11  N   UNL A   1      30.963  26.261  23.979  1.00  0.00    -0.248 N 
ATOM     12  C   UNL A   1      31.392  26.970  26.384  1.00  0.00     0.048 C 
BRANCH   8  13
ATOM     13  C   UNL A   1      29.429  29.096  22.373  1.00  0.00     0.354 C 
ATOM     14  O   UNL A   1      30.034  29.681  21.493  1.00  0.00    -0.245 OA
BRANCH  13  15
ATOM     15  O   UNL A   1      28.144  29.259  22.739  1.00  0.00    -0.461 OA
BRANCH  15  16
ATOM     16  C   UNL A   1      27.572  30.540  22.440  1.00  0.00     0.230 C 
ATOM     17  C   UNL A   1      27.715  31.481  23.622  1.00  0.00     0.049 C 
ENDBRANCH  15  16
ENDBRANCH  13  15
ENDBRANCH   8  13
BRANCH  11  18
ATOM     18  C   UNL A   1      31.317  24.920  23.866  1.00  0.00     0.079 A 
ATOM     19  C   UNL A   1      30.946  24.017  24.878  1.00  0.00     0.030 A 
ATOM     20  C   UNL A   1      32.004  24.378  22.758  1.00  0.00     0.066 A 
ATOM     21  C   UNL A   1      31.294  22.660  24.833  1.00  0.00     0.006 A 
ATOM     22  C   UNL A   1      32.342  23.014  22.704  1.00  0.00     0.026 A 
ATOM     23  Cl  UNL A   1      32.596  25.361  21.456  1.00  0.00    -0.082 Cl
ATOM     24  C   UNL A   1      31.996  22.146  23.744  1.00  0.00    -0.049 A 
ATOM     25  C   UNL A   1      32.428  20.709  23.709  1.00  0.00     0.044 C 
ENDBRANCH  11  18
ENDBRANCH   4   7
ENDBRANCH   2   3
ENDBRANCH   1   2
BRANCH   1  26
ATOM     26  C   UNL A   1      35.553  23.391  25.044  1.00  0.00     0.023 C 
BRANCH  26  27
ATOM     27  C   UNL A   1      36.604  23.582  26.134  1.00  0.00     0.116 C 
BRANCH  27  28
ATOM     28  N   UNL A   1      37.726  22.666  26.009  1.00  0.00    -0.352 N 
ATOM     29  C   UNL A   1      39.054  22.866  26.289  1.00  0.00     0.251 C 
ATOM     30  H   UNL A   1      37.498  21.769  25.673  1.00  0.00     0.163 HD
ATOM     31  O   UNL A   1      39.877  22.002  25.999  1.00  0.00    -0.269 OA
BRANCH  29  32
ATOM     32  C   UNL A   1      39.507  24.128  26.912  1.00  0.00     0.039 A 
ATOM     33  C   UNL A   1      40.139  25.080  26.104  1.00  0.00     0.014 A 
ATOM     34  C   UNL A   1      39.337  24.366  28.278  1.00  0.00     0.014 A 
ATOM     35  C   UNL A   1      40.535  26.302  26.650  1.00  0.00     0.010 A 
ATOM     36  C   UNL A   1      39.710  25.597  28.819  1.00  0.00     0.010 A 
ATOM     37  C   UNL A   1      40.302  26.574  28.006  1.00  0.00    -0.014 A 
BRANCH  37  38
ATOM     38  C   UNL A   1      40.659  27.884  28.594  1.00  0.00     0.031 A 
ATOM     39  C   UNL A   1      42.041  28.121  29.127  1.00  0.00     0.074 A 
ATOM     40  C   UNL A   1      39.718  28.837  28.717  1.00  0.00     0.049 A 
ATOM     41  N   UNL A   1      42.488  29.128  29.835  1.00  0.00    -0.248 NA
ATOM     42  C   UNL A   1      43.044  27.082  28.849  1.00  0.00     0.031 C 
ATOM     43  C   UNL A   1      38.329  28.724  28.268  1.00  0.00     0.029 A 
ATOM     44  N   UNL A   1      39.790  30.087  29.275  1.00  0.00    -0.354 N 
ATOM     45  C   UNL A   1      43.804  28.817  30.138  1.00  0.00     0.074 A 
ATOM     46  C   UNL A   1      44.098  27.545  29.509  1.00  0.00     0.031 C 
ATOM     47  C   UNL A   1      37.679  29.861  28.566  1.00  0.00     0.029 A 
ATOM     48  C   UNL A   1      38.601  30.771  29.240  1.00  0.00     0.049 A 
ATOM     49  H   UNL A   1      40.615  30.459  29.663  1.00  0.00     0.167 HD
ATOM     50  C   UNL A   1      44.685  29.519  30.889  1.00  0.00     0.031 A 
ATOM     51  C   UNL A   1      38.287  31.991  29.708  1.00  0.00     0.031 A 
ATOM     52  C   UNL A   1      44.420  30.801  31.479  1.00  0.00     0.049 A 
ATOM     53  C   UNL A   1      39.324  32.809  30.416  1.00  0.00     0.074 A 
ATOM     54  C   UNL A   1      45.244  31.577  32.278  1.00  0.00     0.029 A 
ATOM     55  N   UNL A   1      43.244  31.512  31.309  1.00  0.00    -0.354 N 
ATOM     56  N   UNL A   1      40.550  32.480  30.737  1.00  0.00    -0.248 NA
ATOM     57  C   UNL A   1      38.931  34.165  30.825  1.00  0.00     0.031 C 
ATOM     58  C   UNL A   1      44.570  32.768  32.576  1.00  0.00     0.029 A 
ATOM     59  C   UNL A   1      43.329  32.730  31.962  1.00  0.00     0.049 A 
ATOM     60  H   UNL A   1      42.463  31.197  30.800  1.00  0.00     0.167 HD
ATOM     61  C   UNL A   1      41.073  33.582  31.398  1.00  0.00     0.074 A 
ATOM     62  C   UNL A   1      40.039  34.596  31.415  1.00  0.00     0.031 C 
ATOM     63  C   UNL A   1      42.298  33.732  31.954  1.00  0.00     0.031 A 
BRANCH  50  64
ATOM     64  C   UNL A   1      46.016  28.880  31.134  1.00  0.00    -0.014 A 
ATOM     65  C   UNL A   1      46.216  28.039  32.237  1.00  0.00     0.009 A 
ATOM     66  C   UNL A   1      47.077  29.121  30.249  1.00  0.00     0.009 A 
ATOM     67  C   UNL A   1      47.468  27.461  32.458  1.00  0.00     0.001 A 
ATOM     68  C   UNL A   1      48.326  28.540  30.473  1.00  0.00     0.001 A 
ATOM     69  C   UNL A   1      48.521  27.714  31.579  1.00  0.00     0.000 A 
ENDBRANCH  50  64
BRANCH  51  70
ATOM     70  C   UNL A   1      36.914  32.512  29.526  1.00  0.00    -0.014 A 
ATOM     71  C   UNL A   1      36.575  33.214  28.360  1.00  0.00     0.009 A 
ATOM     72  C   UNL A   1      35.939  32.296  30.509  1.00  0.00     0.009 A 
ATOM     73  C   UNL A   1      35.278  33.700  28.186  1.00  0.00     0.001 A 
ATOM     74  C   UNL A   1      34.643  32.782  30.329  1.00  0.00     0.001 A 
ATOM     75  C   UNL A   1      34.315  33.484  29.170  1.00  0.00     0.000 A 
ENDBRANCH  51  70
BRANCH  63  76
ATOM     76  C   UNL A   1      42.579  35.042  32.620  1.00  0.00    -0.014 A 
ATOM     77  C   UNL A   1      42.102  35.294  33.914  1.00  0.00     0.009 A 
ATOM     78  C   UNL A   1      43.334  36.023  31.962  1.00  0.00     0.009 A 
ATOM     79  C   UNL A   1      42.366  36.515  34.536  1.00  0.00     0.001 A 
ATOM     80  C   UNL A   1      43.593  37.244  32.585  1.00  0.00     0.001 A 
ATOM     81  C   UNL A   1      43.109  37.491  33.870  1.00  0.00     0.000 A 
ENDBRANCH  63  76
ENDBRANCH  37  38
ENDBRANCH  29  32
ENDBRANCH  27  28
ENDBRANCH  26  27
ENDBRANCH   1  26
TORSDOF 15
ENDMDL
