MODEL 1
REMARK VINA RESULT:     -11.3      0.000      0.000
REMARK SMILES N#Cc1ccc(/C=C/C(=O)N2C[C@@H](O)C[C@H]2C(=O)NCCCCNC(=O)c2ccc(-c3c4nc(c(-c5ccccc5)c5ccc([nH]5)c(-c5ccccc5)c5nc(c(-c6ccccc6)c6ccc3[nH]6)C=C5)C=C4)cc2)cc1
REMARK SMILES IDX 20 1 19 2 17 3 18 4 16 6 11 7 12 8 13 9 15 10 9 11 10 12
REMARK SMILES IDX 8 13 7 14 6 15 3 16 4 17 76 18 5 19 75 20 2 21 1 22 14 23
REMARK SMILES IDX 21 25 22 26 23 27 24 28 25 29 26 31 27 32 28 33 74 34 29 35
REMARK SMILES IDX 73 36 30 37 31 38 32 39 67 40 33 41 72 42 66 43 68 44 34 45
REMARK SMILES IDX 71 46 65 47 64 48 35 50 57 51 42 52 56 53 43 54 46 55 55 56
REMARK SMILES IDX 69 57 44 58 45 59 54 61 70 62 47 63 36 64 37 65 41 66 38 67
REMARK SMILES IDX 40 68 39 69 58 70 59 71 63 72 60 73 62 74 61 75 48 76 49 77
REMARK SMILES IDX 53 78 50 79 52 80 51 81
REMARK H PARENT 19 5 14 24 24 30 68 49 46 60
REMARK Flexibility Score: inf
ROOT
ATOM      1  C   UNL A   1      36.704  23.289  24.895  1.00  0.00     0.116 C 
ENDROOT
BRANCH   1   2
ATOM      2  N   UNL A   1      35.954  23.012  26.094  1.00  0.00    -0.354 N 
ATOM      3  C   UNL A   1      34.661  23.314  26.406  1.00  0.00     0.242 C 
ATOM      4  O   UNL A   1      34.184  22.750  27.397  1.00  0.00    -0.273 OA
ATOM      5  H   UNL A   1      36.451  22.532  26.795  1.00  0.00     0.163 HD
BRANCH   3   6
ATOM      6  C   UNL A   1      33.761  24.147  25.467  1.00  0.00     0.177 C 
ATOM      7  N   UNL A   1      32.724  23.425  24.718  1.00  0.00    -0.324 N 
ATOM      8  C   UNL A   1      31.390  23.910  25.034  1.00  0.00     0.152 C 
ATOM      9  C   UNL A   1      31.619  25.293  25.634  1.00  0.00     0.136 C 
ATOM     10  C   UNL A   1      33.020  25.245  26.241  1.00  0.00     0.069 C 
BRANCH   7  11
ATOM     11  C   UNL A   1      33.116  22.604  23.687  1.00  0.00     0.247 C 
ATOM     12  O   UNL A   1      33.565  23.032  22.627  1.00  0.00    -0.270 OA
BRANCH  11  13
ATOM     13  C   UNL A   1      32.954  21.136  23.835  1.00  0.00     0.072 C 
ATOM     14  C   UNL A   1      33.889  20.418  24.477  1.00  0.00     0.014 C 
BRANCH  14  15
ATOM     15  C   UNL A   1      33.812  18.992  24.804  1.00  0.00    -0.025 A 
ATOM     16  C   UNL A   1      33.419  16.244  25.250  1.00  0.00     0.052 A 
ATOM     17  C   UNL A   1      34.523  16.689  24.516  1.00  0.00     0.020 A 
ATOM     18  C   UNL A   1      32.524  17.174  25.784  1.00  0.00     0.020 A 
ATOM     19  C   UNL A   1      34.717  18.056  24.294  1.00  0.00     0.009 A 
ATOM     20  C   UNL A   1      32.718  18.539  25.558  1.00  0.00     0.009 A 
BRANCH  16  21
ATOM     21  C   UNL A   1      33.187  14.839  25.427  1.00  0.00     0.099 C 
ATOM     22  N   UNL A   1      33.005  13.703  25.558  1.00  0.00    -0.192 NA
ENDBRANCH  16  21
ENDBRANCH  14  15
ENDBRANCH  11  13
ENDBRANCH   7  11
BRANCH   9  23
ATOM     23  O   UNL A   1      30.639  25.627  26.604  1.00  0.00    -0.391 OA
ATOM     24  H   UNL A   1      30.937  26.397  27.112  1.00  0.00     0.211 HD
ENDBRANCH   9  23
ENDBRANCH   3   6
ENDBRANCH   1   2
BRANCH   1  25
ATOM     25  C   UNL A   1      36.966  22.039  24.069  1.00  0.00     0.023 C 
BRANCH  25  26
ATOM     26  C   UNL A   1      37.422  20.846  24.908  1.00  0.00     0.023 C 
BRANCH  26  27
ATOM     27  C   UNL A   1      38.696  21.086  25.709  1.00  0.00     0.116 C 
BRANCH  27  28
ATOM     28  N   UNL A   1      39.608  19.949  25.689  1.00  0.00    -0.352 N 
ATOM     29  C   UNL A   1      40.942  19.925  26.016  1.00  0.00     0.251 C 
ATOM     30  H   UNL A   1      39.218  19.091  25.404  1.00  0.00     0.163 HD
ATOM     31  O   UNL A   1      41.620  18.926  25.809  1.00  0.00    -0.269 OA
BRANCH  29  32
ATOM     32  C   UNL A   1      41.551  21.139  26.589  1.00  0.00     0.039 A 
ATOM     33  C   UNL A   1      42.091  22.097  25.730  1.00  0.00     0.014 A 
ATOM     34  C   UNL A   1      41.518  21.357  27.970  1.00  0.00     0.014 A 
ATOM     35  C   UNL A   1      42.540  23.308  26.255  1.00  0.00     0.010 A 
ATOM     36  C   UNL A   1      41.878  22.599  28.476  1.00  0.00     0.010 A 
ATOM     37  C   UNL A   1      42.399  23.586  27.626  1.00  0.00    -0.014 A 
BRANCH  37  38
ATOM     38  C   UNL A   1      42.791  24.903  28.187  1.00  0.00     0.031 A 
ATOM     39  C   UNL A   1      41.753  25.968  28.406  1.00  0.00     0.074 A 
ATOM     40  C   UNL A   1      44.087  25.158  28.452  1.00  0.00     0.049 A 
ATOM     41  N   UNL A   1      41.905  27.191  28.848  1.00  0.00    -0.248 NA
ATOM     42  C   UNL A   1      40.363  25.626  28.056  1.00  0.00     0.031 C 
ATOM     43  C   UNL A   1      45.196  24.221  28.251  1.00  0.00     0.029 A 
ATOM     44  N   UNL A   1      44.693  26.285  28.949  1.00  0.00    -0.354 N 
ATOM     45  C   UNL A   1      40.639  27.762  28.821  1.00  0.00     0.074 A 
ATOM     46  C   UNL A   1      39.742  26.777  28.259  1.00  0.00     0.031 C 
ATOM     47  C   UNL A   1      46.338  24.798  28.656  1.00  0.00     0.029 A 
ATOM     48  C   UNL A   1      46.053  26.161  29.093  1.00  0.00     0.049 A 
ATOM     49  H   UNL A   1      44.199  27.105  29.178  1.00  0.00     0.167 HD
ATOM     50  C   UNL A   1      40.253  28.988  29.245  1.00  0.00     0.031 A 
ATOM     51  C   UNL A   1      46.972  27.049  29.519  1.00  0.00     0.031 A 
ATOM     52  C   UNL A   1      41.149  29.968  29.797  1.00  0.00     0.049 A 
ATOM     53  C   UNL A   1      46.523  28.422  29.940  1.00  0.00     0.074 A 
ATOM     54  C   UNL A   1      40.848  31.223  30.299  1.00  0.00     0.029 A 
ATOM     55  N   UNL A   1      42.522  29.810  29.910  1.00  0.00    -0.354 N 
ATOM     56  N   UNL A   1      45.311  28.922  29.977  1.00  0.00    -0.248 NA
ATOM     57  C   UNL A   1      47.570  29.350  30.389  1.00  0.00     0.031 C 
ATOM     58  C   UNL A   1      42.047  31.853  30.644  1.00  0.00     0.029 A 
ATOM     59  C   UNL A   1      43.085  30.959  30.440  1.00  0.00     0.049 A 
ATOM     60  H   UNL A   1      43.021  29.001  29.654  1.00  0.00     0.167 HD
ATOM     61  C   UNL A   1      45.446  30.208  30.484  1.00  0.00     0.074 A 
ATOM     62  C   UNL A   1      46.855  30.403  30.759  1.00  0.00     0.031 C 
ATOM     63  C   UNL A   1      44.489  31.142  30.706  1.00  0.00     0.031 A 
BRANCH  50  64
ATOM     64  C   UNL A   1      38.797  29.344  29.107  1.00  0.00    -0.014 A 
ATOM     65  C   UNL A   1      38.277  29.852  27.905  1.00  0.00     0.009 A 
ATOM     66  C   UNL A   1      37.924  29.137  30.187  1.00  0.00     0.009 A 
ATOM     67  C   UNL A   1      36.924  30.181  27.801  1.00  0.00     0.001 A 
ATOM     68  C   UNL A   1      36.565  29.432  30.069  1.00  0.00     0.001 A 
ATOM     69  C   UNL A   1      36.068  29.964  28.881  1.00  0.00     0.000 A 
ENDBRANCH  50  64
BRANCH  51  70
ATOM     70  C   UNL A   1      48.411  26.672  29.572  1.00  0.00    -0.014 A 
ATOM     71  C   UNL A   1      48.957  26.085  30.724  1.00  0.00     0.009 A 
ATOM     72  C   UNL A   1      49.253  26.917  28.475  1.00  0.00     0.009 A 
ATOM     73  C   UNL A   1      50.320  25.785  30.789  1.00  0.00     0.001 A 
ATOM     74  C   UNL A   1      50.608  26.580  28.529  1.00  0.00     0.001 A 
ATOM     75  C   UNL A   1      51.142  26.028  29.692  1.00  0.00     0.000 A 
ENDBRANCH  51  70
BRANCH  63  76
ATOM     76  C   UNL A   1      44.924  32.446  31.321  1.00  0.00    -0.014 A 
ATOM     77  C   UNL A   1      45.283  33.549  30.531  1.00  0.00     0.009 A 
ATOM     78  C   UNL A   1      44.931  32.582  32.719  1.00  0.00     0.009 A 
ATOM     79  C   UNL A   1      45.678  34.749  31.130  1.00  0.00     0.001 A 
ATOM     80  C   UNL A   1      45.288  33.792  33.314  1.00  0.00     0.001 A 
ATOM     81  C   UNL A   1      45.674  34.870  32.520  1.00  0.00     0.000 A 
ENDBRANCH  63  76
ENDBRANCH  37  38
ENDBRANCH  29  32
ENDBRANCH  27  28
ENDBRANCH  26  27
ENDBRANCH  25  26
ENDBRANCH   1  25
TORSDOF 16
ENDMDL
MODEL 2
REMARK VINA RESULT:     -11.3      0.361      5.846
REMARK SMILES N#Cc1ccc(/C=C/C(=O)N2C[C@@H](O)C[C@H]2C(=O)NCCCCNC(=O)c2ccc(-c3c4nc(c(-c5ccccc5)c5ccc([nH]5)c(-c5ccccc5)c5nc(c(-c6ccccc6)c6ccc3[nH]6)C=C5)C=C4)cc2)cc1
REMARK SMILES IDX 20 1 19 2 17 3 18 4 16 6 11 7 12 8 13 9 15 10 9 11 10 12
REMARK SMILES IDX 8 13 7 14 6 15 3 16 4 17 76 18 5 19 75 20 2 21 1 22 14 23
REMARK SMILES IDX 21 25 22 26 23 27 24 28 25 29 26 31 27 32 28 33 74 34 29 35
REMARK SMILES IDX 73 36 30 37 31 38 32 39 67 40 33 41 72 42 66 43 68 44 34 45
REMARK SMILES IDX 71 46 65 47 64 48 35 50 57 51 42 52 56 53 43 54 46 55 55 56
REMARK SMILES IDX 69 57 44 58 45 59 54 61 70 62 47 63 36 64 37 65 41 66 38 67
REMARK SMILES IDX 40 68 39 69 58 70 59 71 63 72 60 73 62 74 61 75 48 76 49 77
REMARK SMILES IDX 53 78 50 79 52 80 51 81
REMARK H PARENT 19 5 14 24 24 30 68 49 46 60
REMARK Flexibility Score: inf
ROOT
ATOM      1  C   UNL A   1      36.790  23.233  24.985  1.00  0.00     0.116 C 
ENDROOT
BRANCH   1   2
ATOM      2  N   UNL A   1      35.968  22.899  26.121  1.00  0.00    -0.354 N 
ATOM      3  C   UNL A   1      34.664  23.205  26.377  1.00  0.00     0.242 C 
ATOM      4  O   UNL A   1      34.121  22.592  27.302  1.00  0.00    -0.273 OA
ATOM      5  H   UNL A   1      36.416  22.368  26.819  1.00  0.00     0.163 HD
BRANCH   3   6
ATOM      6  C   UNL A   1      33.832  24.110  25.440  1.00  0.00     0.177 C 
ATOM      7  N   UNL A   1      32.714  23.484  24.724  1.00  0.00    -0.324 N 
ATOM      8  C   UNL A   1      31.442  24.106  25.056  1.00  0.00     0.152 C 
ATOM      9  C   UNL A   1      31.820  25.468  25.627  1.00  0.00     0.136 C 
ATOM     10  C   UNL A   1      33.222  25.289  26.209  1.00  0.00     0.069 C 
BRANCH   7  11
ATOM     11  C   UNL A   1      32.999  22.611  23.700  1.00  0.00     0.247 C 
ATOM     12  O   UNL A   1      33.375  22.984  22.592  1.00  0.00    -0.270 OA
BRANCH  11  13
ATOM     13  C   UNL A   1      32.811  21.156  23.921  1.00  0.00     0.072 C 
ATOM     14  C   UNL A   1      33.838  20.401  24.338  1.00  0.00     0.014 C 
BRANCH  14  15
ATOM     15  C   UNL A   1      33.776  18.985  24.711  1.00  0.00    -0.025 A 
ATOM     16  C   UNL A   1      33.428  16.244  25.230  1.00  0.00     0.052 A 
ATOM     17  C   UNL A   1      34.570  16.696  24.564  1.00  0.00     0.020 A 
ATOM     18  C   UNL A   1      32.470  17.164  25.661  1.00  0.00     0.020 A 
ATOM     19  C   UNL A   1      34.743  18.060  24.305  1.00  0.00     0.009 A 
ATOM     20  C   UNL A   1      32.642  18.526  25.399  1.00  0.00     0.009 A 
BRANCH  16  21
ATOM     21  C   UNL A   1      33.222  14.840  25.442  1.00  0.00     0.099 C 
ATOM     22  N   UNL A   1      33.060  13.704  25.600  1.00  0.00    -0.192 NA
ENDBRANCH  16  21
ENDBRANCH  14  15
ENDBRANCH  11  13
ENDBRANCH   7  11
BRANCH   9  23
ATOM     23  O   UNL A   1      30.899  25.914  26.609  1.00  0.00    -0.391 OA
ATOM     24  H   UNL A   1      30.969  26.877  26.705  1.00  0.00     0.211 HD
ENDBRANCH   9  23
ENDBRANCH   3   6
ENDBRANCH   1   2
BRANCH   1  25
ATOM     25  C   UNL A   1      36.994  22.053  24.047  1.00  0.00     0.023 C 
BRANCH  25  26
ATOM     26  C   UNL A   1      37.446  20.782  24.763  1.00  0.00     0.023 C 
BRANCH  26  27
ATOM     27  C   UNL A   1      38.608  20.979  25.729  1.00  0.00     0.116 C 
BRANCH  27  28
ATOM     28  N   UNL A   1      39.576  19.889  25.690  1.00  0.00    -0.352 N 
ATOM     29  C   UNL A   1      40.910  19.928  26.013  1.00  0.00     0.251 C 
ATOM     30  H   UNL A   1      39.229  19.017  25.395  1.00  0.00     0.163 HD
ATOM     31  O   UNL A   1      41.637  18.967  25.790  1.00  0.00    -0.269 OA
BRANCH  29  32
ATOM     32  C   UNL A   1      41.461  21.163  26.601  1.00  0.00     0.039 A 
ATOM     33  C   UNL A   1      42.024  22.122  25.759  1.00  0.00     0.014 A 
ATOM     34  C   UNL A   1      41.348  21.397  27.975  1.00  0.00     0.014 A 
ATOM     35  C   UNL A   1      42.416  23.350  26.290  1.00  0.00     0.010 A 
ATOM     36  C   UNL A   1      41.652  22.654  28.482  1.00  0.00     0.010 A 
ATOM     37  C   UNL A   1      42.195  23.642  27.648  1.00  0.00    -0.014 A 
BRANCH  37  38
ATOM     38  C   UNL A   1      42.526  24.975  28.211  1.00  0.00     0.031 A 
ATOM     39  C   UNL A   1      43.933  25.281  28.644  1.00  0.00     0.074 A 
ATOM     40  C   UNL A   1      41.552  25.889  28.382  1.00  0.00     0.049 A 
ATOM     41  N   UNL A   1      44.408  26.371  29.193  1.00  0.00    -0.248 NA
ATOM     42  C   UNL A   1      44.933  24.216  28.461  1.00  0.00     0.031 C 
ATOM     43  C   UNL A   1      40.140  25.703  28.035  1.00  0.00     0.029 A 
ATOM     44  N   UNL A   1      41.601  27.164  28.891  1.00  0.00    -0.354 N 
ATOM     45  C   UNL A   1      45.753  26.117  29.428  1.00  0.00     0.074 A 
ATOM     46  C   UNL A   1      46.005  24.753  29.023  1.00  0.00     0.031 C 
ATOM     47  C   UNL A   1      39.468  26.832  28.306  1.00  0.00     0.029 A 
ATOM     48  C   UNL A   1      40.385  27.803  28.894  1.00  0.00     0.049 A 
ATOM     49  H   UNL A   1      42.429  27.579  29.223  1.00  0.00     0.167 HD
ATOM     50  C   UNL A   1      46.700  26.952  29.917  1.00  0.00     0.031 A 
ATOM     51  C   UNL A   1      40.043  29.029  29.332  1.00  0.00     0.031 A 
ATOM     52  C   UNL A   1      46.446  28.307  30.326  1.00  0.00     0.049 A 
ATOM     53  C   UNL A   1      41.106  29.920  29.916  1.00  0.00     0.074 A 
ATOM     54  C   UNL A   1      47.347  29.249  30.792  1.00  0.00     0.029 A 
ATOM     55  N   UNL A   1      45.198  28.911  30.330  1.00  0.00    -0.354 N 
ATOM     56  N   UNL A   1      42.389  29.692  30.063  1.00  0.00    -0.248 NA
ATOM     57  C   UNL A   1      40.673  31.244  30.384  1.00  0.00     0.031 C 
ATOM     58  C   UNL A   1      46.633  30.396  31.149  1.00  0.00     0.029 A 
ATOM     59  C   UNL A   1      45.301  30.201  30.824  1.00  0.00     0.049 A 
ATOM     60  H   UNL A   1      44.363  28.486  30.025  1.00  0.00     0.167 HD
ATOM     61  C   UNL A   1      42.920  30.855  30.608  1.00  0.00     0.074 A 
ATOM     62  C   UNL A   1      41.825  31.791  30.745  1.00  0.00     0.031 C 
ATOM     63  C   UNL A   1      44.202  31.123  30.959  1.00  0.00     0.031 A 
BRANCH  50  64
ATOM     64  C   UNL A   1      48.099  26.412  30.055  1.00  0.00    -0.014 A 
ATOM     65  C   UNL A   1      49.042  26.550  29.024  1.00  0.00     0.009 A 
ATOM     66  C   UNL A   1      48.489  25.786  31.250  1.00  0.00     0.009 A 
ATOM     67  C   UNL A   1      50.333  26.037  29.171  1.00  0.00     0.001 A 
ATOM     68  C   UNL A   1      49.791  25.308  31.408  1.00  0.00     0.001 A 
ATOM     69  C   UNL A   1      50.708  25.423  30.366  1.00  0.00     0.000 A 
ENDBRANCH  50  64
BRANCH  51  70
ATOM     70  C   UNL A   1      38.632  29.493  29.238  1.00  0.00    -0.014 A 
ATOM     71  C   UNL A   1      37.752  29.337  30.321  1.00  0.00     0.009 A 
ATOM     72  C   UNL A   1      38.150  30.076  28.055  1.00  0.00     0.009 A 
ATOM     73  C   UNL A   1      36.414  29.722  30.207  1.00  0.00     0.001 A 
ATOM     74  C   UNL A   1      36.821  30.495  27.958  1.00  0.00     0.001 A 
ATOM     75  C   UNL A   1      35.951  30.305  29.029  1.00  0.00     0.000 A 
ENDBRANCH  51  70
BRANCH  63  76
ATOM     76  C   UNL A   1      44.502  32.503  31.482  1.00  0.00    -0.014 A 
ATOM     77  C   UNL A   1      44.827  33.562  30.621  1.00  0.00     0.009 A 
ATOM     78  C   UNL A   1      44.413  32.752  32.861  1.00  0.00     0.009 A 
ATOM     79  C   UNL A   1      45.097  34.833  31.136  1.00  0.00     0.001 A 
ATOM     80  C   UNL A   1      44.643  34.031  33.369  1.00  0.00     0.001 A 
ATOM     81  C   UNL A   1      44.998  35.067  32.507  1.00  0.00     0.000 A 
ENDBRANCH  63  76
ENDBRANCH  37  38
ENDBRANCH  29  32
ENDBRANCH  27  28
ENDBRANCH  26  27
ENDBRANCH  25  26
ENDBRANCH   1  25
TORSDOF 16
ENDMDL
MODEL 3
REMARK VINA RESULT:     -10.7      3.750      8.624
REMARK SMILES N#Cc1ccc(/C=C/C(=O)N2C[C@@H](O)C[C@H]2C(=O)NCCCCNC(=O)c2ccc(-c3c4nc(c(-c5ccccc5)c5ccc([nH]5)c(-c5ccccc5)c5nc(c(-c6ccccc6)c6ccc3[nH]6)C=C5)C=C4)cc2)cc1
REMARK SMILES IDX 20 1 19 2 17 3 18 4 16 6 11 7 12 8 13 9 15 10 9 11 10 12
REMARK SMILES IDX 8 13 7 14 6 15 3 16 4 17 76 18 5 19 75 20 2 21 1 22 14 23
REMARK SMILES IDX 21 25 22 26 23 27 24 28 25 29 26 31 27 32 28 33 74 34 29 35
REMARK SMILES IDX 73 36 30 37 31 38 32 39 67 40 33 41 72 42 66 43 68 44 34 45
REMARK SMILES IDX 71 46 65 47 64 48 35 50 57 51 42 52 56 53 43 54 46 55 55 56
REMARK SMILES IDX 69 57 44 58 45 59 54 61 70 62 47 63 36 64 37 65 41 66 38 67
REMARK SMILES IDX 40 68 39 69 58 70 59 71 63 72 60 73 62 74 61 75 48 76 49 77
REMARK SMILES IDX 53 78 50 79 52 80 51 81
REMARK H PARENT 19 5 14 24 24 30 68 49 46 60
REMARK Flexibility Score: inf
ROOT
ATOM      1  C   UNL A   1      34.514  29.451  27.392  1.00  0.00     0.116 C 
ENDROOT
BRANCH   1   2
ATOM      2  N   UNL A   1      33.246  28.992  27.901  1.00  0.00    -0.354 N 
ATOM      3  C   UNL A   1      32.198  28.416  27.246  1.00  0.00     0.242 C 
ATOM      4  O   UNL A   1      31.328  27.888  27.947  1.00  0.00    -0.273 OA
ATOM      5  H   UNL A   1      33.117  29.112  28.870  1.00  0.00     0.163 HD
BRANCH   3   6
ATOM      6  C   UNL A   1      32.185  28.237  25.711  1.00  0.00     0.177 C 
ATOM      7  N   UNL A   1      31.215  27.285  25.155  1.00  0.00    -0.324 N 
ATOM      8  C   UNL A   1      30.291  27.929  24.235  1.00  0.00     0.152 C 
ATOM      9  C   UNL A   1      30.993  29.220  23.829  1.00  0.00     0.136 C 
ATOM     10  C   UNL A   1      31.910  29.569  25.001  1.00  0.00     0.069 C 
BRANCH   7  11
ATOM     11  C   UNL A   1      31.429  25.941  25.355  1.00  0.00     0.247 C 
ATOM     12  O   UNL A   1      30.538  25.168  25.691  1.00  0.00    -0.270 OA
BRANCH  11  13
ATOM     13  C   UNL A   1      32.802  25.401  25.197  1.00  0.00     0.072 C 
ATOM     14  C   UNL A   1      33.167  24.290  25.855  1.00  0.00     0.014 C 
BRANCH  14  15
ATOM     15  C   UNL A   1      34.438  23.575  25.709  1.00  0.00    -0.025 A 
ATOM     16  C   UNL A   1      36.977  22.368  25.666  1.00  0.00     0.052 A 
ATOM     17  C   UNL A   1      35.852  21.631  26.048  1.00  0.00     0.020 A 
ATOM     18  C   UNL A   1      36.830  23.702  25.280  1.00  0.00     0.020 A 
ATOM     19  C   UNL A   1      34.589  22.233  26.070  1.00  0.00     0.009 A 
ATOM     20  C   UNL A   1      35.569  24.302  25.306  1.00  0.00     0.009 A 
BRANCH  16  21
ATOM     21  C   UNL A   1      38.280  21.769  25.702  1.00  0.00     0.099 C 
ATOM     22  N   UNL A   1      39.334  21.290  25.743  1.00  0.00    -0.192 NA
ENDBRANCH  16  21
ENDBRANCH  14  15
ENDBRANCH  11  13
ENDBRANCH   7  11
BRANCH   9  23
ATOM     23  O   UNL A   1      30.077  30.266  23.552  1.00  0.00    -0.391 OA
ATOM     24  H   UNL A   1      29.263  30.126  24.060  1.00  0.00     0.211 HD
ENDBRANCH   9  23
ENDBRANCH   3   6
ENDBRANCH   1   2
BRANCH   1  25
ATOM     25  C   UNL A   1      34.854  30.858  27.860  1.00  0.00     0.023 C 
BRANCH  25  26
ATOM     26  C   UNL A   1      33.648  31.795  27.886  1.00  0.00     0.023 C 
BRANCH  26  27
ATOM     27  C   UNL A   1      33.984  33.266  27.674  1.00  0.00     0.116 C 
BRANCH  27  28
ATOM     28  N   UNL A   1      33.367  34.142  28.663  1.00  0.00    -0.352 N 
ATOM     29  C   UNL A   1      33.730  34.330  29.974  1.00  0.00     0.251 C 
ATOM     30  H   UNL A   1      32.592  34.663  28.352  1.00  0.00     0.163 HD
ATOM     31  O   UNL A   1      33.027  34.988  30.731  1.00  0.00    -0.269 OA
BRANCH  29  32
ATOM     32  C   UNL A   1      34.968  33.693  30.464  1.00  0.00     0.039 A 
ATOM     33  C   UNL A   1      34.872  32.617  31.346  1.00  0.00     0.014 A 
ATOM     34  C   UNL A   1      36.212  34.118  29.988  1.00  0.00     0.014 A 
ATOM     35  C   UNL A   1      36.028  31.922  31.701  1.00  0.00     0.010 A 
ATOM     36  C   UNL A   1      37.345  33.367  30.269  1.00  0.00     0.010 A 
ATOM     37  C   UNL A   1      37.268  32.265  31.133  1.00  0.00    -0.014 A 
BRANCH  37  38
ATOM     38  C   UNL A   1      38.493  31.482  31.432  1.00  0.00     0.031 A 
ATOM     39  C   UNL A   1      39.368  31.866  32.592  1.00  0.00     0.074 A 
ATOM     40  C   UNL A   1      38.844  30.458  30.629  1.00  0.00     0.049 A 
ATOM     41  N   UNL A   1      40.495  31.330  32.988  1.00  0.00    -0.248 NA
ATOM     42  C   UNL A   1      38.936  33.020  33.399  1.00  0.00     0.031 C 
ATOM     43  C   UNL A   1      38.099  30.007  29.450  1.00  0.00     0.029 A 
ATOM     44  N   UNL A   1      39.922  29.609  30.683  1.00  0.00    -0.354 N 
ATOM     45  C   UNL A   1      40.908  32.085  34.078  1.00  0.00     0.074 A 
ATOM     46  C   UNL A   1      39.948  33.153  34.242  1.00  0.00     0.031 C 
ATOM     47  C   UNL A   1      38.720  28.943  28.918  1.00  0.00     0.029 A 
ATOM     48  C   UNL A   1      39.934  28.670  29.681  1.00  0.00     0.049 A 
ATOM     49  H   UNL A   1      40.620  29.669  31.374  1.00  0.00     0.167 HD
ATOM     50  C   UNL A   1      41.979  31.895  34.884  1.00  0.00     0.031 A 
ATOM     51  C   UNL A   1      40.828  27.703  29.399  1.00  0.00     0.031 A 
ATOM     52  C   UNL A   1      42.937  30.836  34.714  1.00  0.00     0.049 A 
ATOM     53  C   UNL A   1      42.035  27.542  30.283  1.00  0.00     0.074 A 
ATOM     54  C   UNL A   1      44.030  30.530  35.505  1.00  0.00     0.029 A 
ATOM     55  N   UNL A   1      42.923  29.916  33.677  1.00  0.00    -0.354 N 
ATOM     56  N   UNL A   1      42.373  28.219  31.355  1.00  0.00    -0.248 NA
ATOM     57  C   UNL A   1      42.979  26.476  29.924  1.00  0.00     0.031 C 
ATOM     58  C   UNL A   1      44.721  29.474  34.905  1.00  0.00     0.029 A 
ATOM     59  C   UNL A   1      44.010  29.065  33.788  1.00  0.00     0.049 A 
ATOM     60  H   UNL A   1      42.241  29.873  32.968  1.00  0.00     0.167 HD
ATOM     61  C   UNL A   1      43.548  27.638  31.815  1.00  0.00     0.074 A 
ATOM     62  C   UNL A   1      43.852  26.543  30.919  1.00  0.00     0.031 C 
ATOM     63  C   UNL A   1      44.304  27.979  32.887  1.00  0.00     0.031 A 
BRANCH  50  64
ATOM     64  C   UNL A   1      42.181  32.869  36.013  1.00  0.00    -0.014 A 
ATOM     65  C   UNL A   1      42.921  34.050  35.839  1.00  0.00     0.009 A 
ATOM     66  C   UNL A   1      41.592  32.619  37.263  1.00  0.00     0.009 A 
ATOM     67  C   UNL A   1      43.101  34.938  36.902  1.00  0.00     0.001 A 
ATOM     68  C   UNL A   1      41.742  33.526  38.313  1.00  0.00     0.001 A 
ATOM     69  C   UNL A   1      42.505  34.679  38.135  1.00  0.00     0.000 A 
ENDBRANCH  50  64
BRANCH  51  70
ATOM     70  C   UNL A   1      40.620  26.807  28.229  1.00  0.00    -0.014 A 
ATOM     71  C   UNL A   1      39.837  25.647  28.344  1.00  0.00     0.009 A 
ATOM     72  C   UNL A   1      41.221  27.096  26.994  1.00  0.00     0.009 A 
ATOM     73  C   UNL A   1      39.691  24.780  27.258  1.00  0.00     0.001 A 
ATOM     74  C   UNL A   1      41.042  26.246  25.899  1.00  0.00     0.001 A 
ATOM     75  C   UNL A   1      40.289  25.082  26.037  1.00  0.00     0.000 A 
ENDBRANCH  51  70
BRANCH  63  76
ATOM     76  C   UNL A   1      45.512  27.129  33.181  1.00  0.00    -0.014 A 
ATOM     77  C   UNL A   1      46.777  27.441  32.659  1.00  0.00     0.009 A 
ATOM     78  C   UNL A   1      45.384  26.021  34.034  1.00  0.00     0.009 A 
ATOM     79  C   UNL A   1      47.880  26.635  32.953  1.00  0.00     0.001 A 
ATOM     80  C   UNL A   1      46.495  25.242  34.358  1.00  0.00     0.001 A 
ATOM     81  C   UNL A   1      47.739  25.542  33.807  1.00  0.00     0.000 A 
ENDBRANCH  63  76
ENDBRANCH  37  38
ENDBRANCH  29  32
ENDBRANCH  27  28
ENDBRANCH  26  27
ENDBRANCH  25  26
ENDBRANCH   1  25
TORSDOF 16
ENDMDL
