MODEL 1
REMARK VINA RESULT:     -12.3      0.000      0.000
REMARK SMILES CN(C)c1ccc(CCC(=O)N2C[C@@H](C(=O)NCCCCNC(=O)c3ccc(-c4c5nc(c(-c6ccccc6)c6ccc([nH]6)c(-c6ccccc6)c6nc(c(-c7ccccc7)c7ccc4[nH]7)C=C6)C=C5)cc3)[C@H](c3cccnc3)C2)cc1
REMARK SMILES IDX 18 1 17 2 15 3 16 4 14 6 12 7 13 8 80 9 73 10 10 11 11 12
REMARK SMILES IDX 9 13 8 14 7 15 4 16 5 17 82 18 6 19 81 20 2 21 1 22 3 23
REMARK SMILES IDX 74 24 75 25 79 26 76 27 78 28 77 29 19 30 20 31 21 32 22 33
REMARK SMILES IDX 23 34 24 36 25 37 26 38 72 39 27 40 71 41 28 42 29 43 30 44
REMARK SMILES IDX 65 45 31 46 70 47 64 48 66 49 32 50 69 51 63 52 62 53 33 55
REMARK SMILES IDX 55 56 40 57 54 58 41 59 44 60 53 61 67 62 42 63 43 64 52 66
REMARK SMILES IDX 68 67 45 68 34 69 35 70 39 71 36 72 38 73 37 74 56 75 57 76
REMARK SMILES IDX 61 77 58 78 60 79 59 80 46 81 47 82 51 83 48 84 50 85 49 86
REMARK H PARENT 17 5 22 35 66 54 44 65
REMARK Flexibility Score: inf
ROOT
ATOM      1  C   UNL A   1      36.408  21.959  25.350  1.00  0.00     0.116 C 
ENDROOT
BRANCH   1   2
ATOM      2  N   UNL A   1      35.706  22.312  26.567  1.00  0.00    -0.356 N 
ATOM      3  C   UNL A   1      34.375  22.499  26.786  1.00  0.00     0.225 C 
ATOM      4  O   UNL A   1      33.982  22.509  27.953  1.00  0.00    -0.275 OA
ATOM      5  H   UNL A   1      36.280  22.436  27.359  1.00  0.00     0.163 HD
BRANCH   3   6
ATOM      6  C   UNL A   1      33.449  22.734  25.606  1.00  0.00     0.107 C 
ATOM      7  N   UNL A   1      31.620  24.258  25.405  1.00  0.00    -0.341 N 
ATOM      8  C   UNL A   1      33.043  24.192  25.630  1.00  0.00     0.133 C 
ATOM      9  C   UNL A   1      31.035  22.931  25.284  1.00  0.00     0.128 C 
ATOM     10  C   UNL A   1      32.126  21.939  25.726  1.00  0.00     0.054 C 
BRANCH   7  11
ATOM     11  C   UNL A   1      30.857  25.408  25.419  1.00  0.00     0.222 C 
ATOM     12  O   UNL A   1      30.444  25.900  26.470  1.00  0.00    -0.275 OA
BRANCH  11  13
ATOM     13  C   UNL A   1      30.481  26.037  24.078  1.00  0.00     0.105 C 
BRANCH  13  14
ATOM     14  C   UNL A   1      29.024  26.497  23.962  1.00  0.00     0.045 C 
BRANCH  14  15
ATOM     15  C   UNL A   1      28.841  27.834  23.287  1.00  0.00    -0.047 A 
ATOM     16  C   UNL A   1      28.491  30.496  22.281  1.00  0.00     0.036 A 
ATOM     17  C   UNL A   1      27.411  29.722  22.730  1.00  0.00     0.026 A 
ATOM     18  C   UNL A   1      29.749  29.870  22.306  1.00  0.00     0.026 A 
ATOM     19  C   UNL A   1      27.573  28.414  23.212  1.00  0.00     0.006 A 
ATOM     20  C   UNL A   1      29.930  28.567  22.804  1.00  0.00     0.006 A 
BRANCH  16  21
ATOM     21  N   UNL A   1      28.342  31.809  21.852  1.00  0.00    -0.378 N 
ATOM     22  C   UNL A   1      28.815  32.903  22.690  1.00  0.00     0.143 C 
ATOM     23  C   UNL A   1      28.017  32.133  20.464  1.00  0.00     0.143 C 
ENDBRANCH  16  21
ENDBRANCH  14  15
ENDBRANCH  13  14
ENDBRANCH  11  13
ENDBRANCH   7  11
BRANCH  10  24
ATOM     24  C   UNL A   1      32.304  20.626  24.987  1.00  0.00    -0.024 A 
ATOM     25  C   UNL A   1      32.767  19.507  25.701  1.00  0.00     0.007 A 
ATOM     26  C   UNL A   1      32.185  20.474  23.611  1.00  0.00     0.115 A 
ATOM     27  C   UNL A   1      33.139  18.346  25.036  1.00  0.00     0.020 A 
ATOM     28  N   UNL A   1      32.527  19.350  22.936  1.00  0.00    -0.264 NA
ATOM     29  C   UNL A   1      33.008  18.318  23.662  1.00  0.00     0.111 A 
ENDBRANCH  10  24
ENDBRANCH   3   6
ENDBRANCH   1   2
BRANCH   1  30
ATOM     30  C   UNL A   1      36.281  20.477  24.985  1.00  0.00     0.023 C 
BRANCH  30  31
ATOM     31  C   UNL A   1      37.587  19.674  24.927  1.00  0.00     0.023 C 
BRANCH  31  32
ATOM     32  C   UNL A   1      38.774  20.298  25.656  1.00  0.00     0.116 C 
BRANCH  32  33
ATOM     33  N   UNL A   1      39.875  19.359  25.785  1.00  0.00    -0.352 N 
ATOM     34  C   UNL A   1      41.207  19.575  26.038  1.00  0.00     0.251 C 
ATOM     35  H   UNL A   1      39.625  18.414  25.670  1.00  0.00     0.163 HD
ATOM     36  O   UNL A   1      42.001  18.657  25.842  1.00  0.00    -0.269 OA
BRANCH  34  37
ATOM     37  C   UNL A   1      41.715  20.874  26.547  1.00  0.00     0.039 A 
ATOM     38  C   UNL A   1      41.638  21.124  27.924  1.00  0.00     0.014 A 
ATOM     39  C   UNL A   1      42.152  21.891  25.694  1.00  0.00     0.014 A 
ATOM     40  C   UNL A   1      42.015  22.369  28.442  1.00  0.00     0.010 A 
ATOM     41  C   UNL A   1      42.584  23.115  26.217  1.00  0.00     0.010 A 
ATOM     42  C   UNL A   1      42.501  23.374  27.594  1.00  0.00    -0.014 A 
BRANCH  42  43
ATOM     43  C   UNL A   1      42.879  24.714  28.124  1.00  0.00     0.031 A 
ATOM     44  C   UNL A   1      41.824  25.767  28.350  1.00  0.00     0.074 A 
ATOM     45  C   UNL A   1      44.171  25.006  28.379  1.00  0.00     0.049 A 
ATOM     46  N   UNL A   1      41.965  27.013  28.731  1.00  0.00    -0.248 NA
ATOM     47  C   UNL A   1      40.428  25.371  28.102  1.00  0.00     0.031 C 
ATOM     48  C   UNL A   1      45.298  24.090  28.203  1.00  0.00     0.029 A 
ATOM     49  N   UNL A   1      44.750  26.163  28.836  1.00  0.00    -0.354 N 
ATOM     50  C   UNL A   1      40.684  27.552  28.749  1.00  0.00     0.074 A 
ATOM     51  C   UNL A   1      39.782  26.511  28.306  1.00  0.00     0.031 C 
ATOM     52  C   UNL A   1      46.431  24.714  28.567  1.00  0.00     0.029 A 
ATOM     53  C   UNL A   1      46.117  26.083  28.963  1.00  0.00     0.049 A 
ATOM     54  H   UNL A   1      44.236  26.974  29.053  1.00  0.00     0.167 HD
ATOM     55  C   UNL A   1      40.287  28.795  29.116  1.00  0.00     0.031 A 
ATOM     56  C   UNL A   1      47.017  27.010  29.345  1.00  0.00     0.031 A 
ATOM     57  C   UNL A   1      41.170  29.833  29.577  1.00  0.00     0.049 A 
ATOM     58  C   UNL A   1      46.552  28.388  29.725  1.00  0.00     0.074 A 
ATOM     59  C   UNL A   1      40.851  31.113  29.996  1.00  0.00     0.029 A 
ATOM     60  N   UNL A   1      42.544  29.706  29.691  1.00  0.00    -0.354 N 
ATOM     61  N   UNL A   1      45.334  28.870  29.758  1.00  0.00    -0.248 NA
ATOM     62  C   UNL A   1      47.591  29.349  30.127  1.00  0.00     0.031 C 
ATOM     63  C   UNL A   1      42.038  31.773  30.333  1.00  0.00     0.029 A 
ATOM     64  C   UNL A   1      43.089  30.888  30.164  1.00  0.00     0.049 A 
ATOM     65  H   UNL A   1      43.058  28.896  29.468  1.00  0.00     0.167 HD
ATOM     66  C   UNL A   1      45.458  30.177  30.213  1.00  0.00     0.074 A 
ATOM     67  C   UNL A   1      46.866  30.409  30.455  1.00  0.00     0.031 C 
ATOM     68  C   UNL A   1      44.489  31.103  30.412  1.00  0.00     0.031 A 
BRANCH  55  69
ATOM     69  C   UNL A   1      38.819  29.107  29.033  1.00  0.00    -0.014 A 
ATOM     70  C   UNL A   1      37.992  28.996  30.161  1.00  0.00     0.009 A 
ATOM     71  C   UNL A   1      38.267  29.568  27.827  1.00  0.00     0.009 A 
ATOM     72  C   UNL A   1      36.635  29.316  30.077  1.00  0.00     0.001 A 
ATOM     73  C   UNL A   1      36.916  29.910  27.752  1.00  0.00     0.001 A 
ATOM     74  C   UNL A   1      36.100  29.776  28.874  1.00  0.00     0.000 A 
ENDBRANCH  55  69
BRANCH  56  75
ATOM     75  C   UNL A   1      48.464  26.671  29.394  1.00  0.00    -0.014 A 
ATOM     76  C   UNL A   1      49.025  26.121  30.556  1.00  0.00     0.009 A 
ATOM     77  C   UNL A   1      49.295  26.929  28.293  1.00  0.00     0.009 A 
ATOM     78  C   UNL A   1      50.396  25.864  30.626  1.00  0.00     0.001 A 
ATOM     79  C   UNL A   1      50.660  26.645  28.356  1.00  0.00     0.001 A 
ATOM     80  C   UNL A   1      51.212  26.124  29.526  1.00  0.00     0.000 A 
ENDBRANCH  56  75
BRANCH  68  81
ATOM     81  C   UNL A   1      44.913  32.435  30.959  1.00  0.00    -0.014 A 
ATOM     82  C   UNL A   1      44.979  32.667  32.341  1.00  0.00     0.009 A 
ATOM     83  C   UNL A   1      45.286  33.461  30.077  1.00  0.00     0.009 A 
ATOM     84  C   UNL A   1      45.380  33.912  32.829  1.00  0.00     0.001 A 
ATOM     85  C   UNL A   1      45.711  34.697  30.567  1.00  0.00     0.001 A 
ATOM     86  C   UNL A   1      45.749  34.924  31.943  1.00  0.00     0.000 A 
ENDBRANCH  68  81
ENDBRANCH  42  43
ENDBRANCH  34  37
ENDBRANCH  32  33
ENDBRANCH  31  32
ENDBRANCH  30  31
ENDBRANCH   1  30
TORSDOF 17
ENDMDL
MODEL 2
REMARK VINA RESULT:     -12.3      0.527      5.729
REMARK SMILES CN(C)c1ccc(CCC(=O)N2C[C@@H](C(=O)NCCCCNC(=O)c3ccc(-c4c5nc(c(-c6ccccc6)c6ccc([nH]6)c(-c6ccccc6)c6nc(c(-c7ccccc7)c7ccc4[nH]7)C=C6)C=C5)cc3)[C@H](c3cccnc3)C2)cc1
REMARK SMILES IDX 18 1 17 2 15 3 16 4 14 6 12 7 13 8 80 9 73 10 10 11 11 12
REMARK SMILES IDX 9 13 8 14 7 15 4 16 5 17 82 18 6 19 81 20 2 21 1 22 3 23
REMARK SMILES IDX 74 24 75 25 79 26 76 27 78 28 77 29 19 30 20 31 21 32 22 33
REMARK SMILES IDX 23 34 24 36 25 37 26 38 72 39 27 40 71 41 28 42 29 43 30 44
REMARK SMILES IDX 65 45 31 46 70 47 64 48 66 49 32 50 69 51 63 52 62 53 33 55
REMARK SMILES IDX 55 56 40 57 54 58 41 59 44 60 53 61 67 62 42 63 43 64 52 66
REMARK SMILES IDX 68 67 45 68 34 69 35 70 39 71 36 72 38 73 37 74 56 75 57 76
REMARK SMILES IDX 61 77 58 78 60 79 59 80 46 81 47 82 51 83 48 84 50 85 49 86
REMARK H PARENT 17 5 22 35 66 54 44 65
REMARK Flexibility Score: inf
ROOT
ATOM      1  C   UNL A   1      36.393  21.732  24.981  1.00  0.00     0.116 C 
ENDROOT
BRANCH   1   2
ATOM      2  N   UNL A   1      35.846  22.284  26.204  1.00  0.00    -0.356 N 
ATOM      3  C   UNL A   1      34.555  22.558  26.539  1.00  0.00     0.225 C 
ATOM      4  O   UNL A   1      34.300  22.750  27.728  1.00  0.00    -0.275 OA
ATOM      5  H   UNL A   1      36.511  22.493  26.900  1.00  0.00     0.163 HD
BRANCH   3   6
ATOM      6  C   UNL A   1      33.505  22.663  25.447  1.00  0.00     0.107 C 
ATOM      7  N   UNL A   1      31.525  23.998  25.385  1.00  0.00    -0.341 N 
ATOM      8  C   UNL A   1      32.962  24.076  25.475  1.00  0.00     0.133 C 
ATOM      9  C   UNL A   1      31.064  22.619  25.351  1.00  0.00     0.128 C 
ATOM     10  C   UNL A   1      32.284  21.750  25.712  1.00  0.00     0.054 C 
BRANCH   7  11
ATOM     11  C   UNL A   1      30.657  25.070  25.443  1.00  0.00     0.222 C 
ATOM     12  O   UNL A   1      29.923  25.258  26.414  1.00  0.00    -0.275 OA
BRANCH  11  13
ATOM     13  C   UNL A   1      30.584  26.002  24.234  1.00  0.00     0.105 C 
BRANCH  13  14
ATOM     14  C   UNL A   1      29.168  26.385  23.794  1.00  0.00     0.045 C 
BRANCH  14  15
ATOM     15  C   UNL A   1      29.005  27.831  23.394  1.00  0.00    -0.047 A 
ATOM     16  C   UNL A   1      28.727  30.486  22.348  1.00  0.00     0.036 A 
ATOM     17  C   UNL A   1      29.982  29.901  22.569  1.00  0.00     0.026 A 
ATOM     18  C   UNL A   1      27.614  29.713  22.717  1.00  0.00     0.026 A 
ATOM     19  C   UNL A   1      30.126  28.607  23.092  1.00  0.00     0.006 A 
ATOM     20  C   UNL A   1      27.741  28.407  23.225  1.00  0.00     0.006 A 
BRANCH  16  21
ATOM     21  N   UNL A   1      28.579  31.747  21.782  1.00  0.00    -0.378 N 
ATOM     22  C   UNL A   1      27.958  31.883  20.471  1.00  0.00     0.143 C 
ATOM     23  C   UNL A   1      28.734  32.968  22.571  1.00  0.00     0.143 C 
ENDBRANCH  16  21
ENDBRANCH  14  15
ENDBRANCH  13  14
ENDBRANCH  11  13
ENDBRANCH   7  11
BRANCH  10  24
ATOM     24  C   UNL A   1      32.521  20.437  24.990  1.00  0.00    -0.024 A 
ATOM     25  C   UNL A   1      32.356  20.395  23.595  1.00  0.00     0.007 A 
ATOM     26  C   UNL A   1      32.750  19.220  25.621  1.00  0.00     0.115 A 
ATOM     27  C   UNL A   1      32.361  19.183  22.916  1.00  0.00     0.020 A 
ATOM     28  N   UNL A   1      32.774  18.025  24.985  1.00  0.00    -0.264 NA
ATOM     29  C   UNL A   1      32.566  18.032  23.651  1.00  0.00     0.111 A 
ENDBRANCH  10  24
ENDBRANCH   3   6
ENDBRANCH   1   2
BRANCH   1  30
ATOM     30  C   UNL A   1      36.259  20.209  24.890  1.00  0.00     0.023 C 
BRANCH  30  31
ATOM     31  C   UNL A   1      37.565  19.405  24.953  1.00  0.00     0.023 C 
BRANCH  31  32
ATOM     32  C   UNL A   1      38.753  20.130  25.580  1.00  0.00     0.116 C 
BRANCH  32  33
ATOM     33  N   UNL A   1      39.890  19.243  25.749  1.00  0.00    -0.352 N 
ATOM     34  C   UNL A   1      41.203  19.520  26.040  1.00  0.00     0.251 C 
ATOM     35  H   UNL A   1      39.687  18.286  25.635  1.00  0.00     0.163 HD
ATOM     36  O   UNL A   1      42.043  18.639  25.875  1.00  0.00    -0.269 OA
BRANCH  34  37
ATOM     37  C   UNL A   1      41.637  20.845  26.553  1.00  0.00     0.039 A 
ATOM     38  C   UNL A   1      41.390  21.149  27.899  1.00  0.00     0.014 A 
ATOM     39  C   UNL A   1      42.169  21.831  25.718  1.00  0.00     0.014 A 
ATOM     40  C   UNL A   1      41.692  22.418  28.406  1.00  0.00     0.010 A 
ATOM     41  C   UNL A   1      42.525  23.080  26.239  1.00  0.00     0.010 A 
ATOM     42  C   UNL A   1      42.273  23.394  27.583  1.00  0.00    -0.014 A 
BRANCH  42  43
ATOM     43  C   UNL A   1      42.574  24.758  28.100  1.00  0.00     0.031 A 
ATOM     44  C   UNL A   1      43.977  25.122  28.513  1.00  0.00     0.074 A 
ATOM     45  C   UNL A   1      41.588  25.669  28.231  1.00  0.00     0.049 A 
ATOM     46  N   UNL A   1      44.421  26.229  29.057  1.00  0.00    -0.248 NA
ATOM     47  C   UNL A   1      45.017  24.102  28.300  1.00  0.00     0.031 C 
ATOM     48  C   UNL A   1      40.184  25.457  27.877  1.00  0.00     0.029 A 
ATOM     49  N   UNL A   1      41.621  26.958  28.704  1.00  0.00    -0.354 N 
ATOM     50  C   UNL A   1      45.780  26.031  29.267  1.00  0.00     0.074 A 
ATOM     51  C   UNL A   1      46.084  24.686  28.826  1.00  0.00     0.031 C 
ATOM     52  C   UNL A   1      39.494  26.583  28.128  1.00  0.00     0.029 A 
ATOM     53  C   UNL A   1      40.396  27.580  28.695  1.00  0.00     0.049 A 
ATOM     54  H   UNL A   1      42.445  27.395  29.020  1.00  0.00     0.167 HD
ATOM     55  C   UNL A   1      46.700  26.893  29.765  1.00  0.00     0.031 A 
ATOM     56  C   UNL A   1      40.036  28.812  29.105  1.00  0.00     0.031 A 
ATOM     57  C   UNL A   1      46.416  28.238  30.188  1.00  0.00     0.049 A 
ATOM     58  C   UNL A   1      41.073  29.740  29.676  1.00  0.00     0.074 A 
ATOM     59  C   UNL A   1      47.293  29.191  30.679  1.00  0.00     0.029 A 
ATOM     60  N   UNL A   1      45.163  28.826  30.158  1.00  0.00    -0.354 N 
ATOM     61  N   UNL A   1      42.357  29.543  29.843  1.00  0.00    -0.248 NA
ATOM     62  C   UNL A   1      40.606  31.067  30.108  1.00  0.00     0.031 C 
ATOM     63  C   UNL A   1      46.562  30.346  30.978  1.00  0.00     0.029 A 
ATOM     64  C   UNL A   1      45.240  30.125  30.632  1.00  0.00     0.049 A 
ATOM     65  H   UNL A   1      44.338  28.386  29.847  1.00  0.00     0.167 HD
ATOM     66  C   UNL A   1      42.856  30.727  30.369  1.00  0.00     0.074 A 
ATOM     67  C   UNL A   1      41.740  31.643  30.482  1.00  0.00     0.031 C 
ATOM     68  C   UNL A   1      44.126  31.029  30.728  1.00  0.00     0.031 A 
BRANCH  55  69
ATOM     69  C   UNL A   1      48.116  26.403  29.883  1.00  0.00    -0.014 A 
ATOM     70  C   UNL A   1      49.033  26.588  28.837  1.00  0.00     0.009 A 
ATOM     71  C   UNL A   1      48.553  25.799  31.073  1.00  0.00     0.009 A 
ATOM     72  C   UNL A   1      50.354  26.152  28.971  1.00  0.00     0.001 A 
ATOM     73  C   UNL A   1      49.879  25.388  31.213  1.00  0.00     0.001 A 
ATOM     74  C   UNL A   1      50.776  25.557  30.160  1.00  0.00     0.000 A 
ENDBRANCH  55  69
BRANCH  56  75
ATOM     75  C   UNL A   1      38.621  29.254  28.993  1.00  0.00    -0.014 A 
ATOM     76  C   UNL A   1      37.755  29.148  30.091  1.00  0.00     0.009 A 
ATOM     77  C   UNL A   1      38.122  29.751  27.778  1.00  0.00     0.009 A 
ATOM     78  C   UNL A   1      36.409  29.501  29.968  1.00  0.00     0.001 A 
ATOM     79  C   UNL A   1      36.784  30.129  27.666  1.00  0.00     0.001 A 
ATOM     80  C   UNL A   1      35.925  29.993  28.756  1.00  0.00     0.000 A 
ENDBRANCH  56  75
BRANCH  68  81
ATOM     81  C   UNL A   1      44.387  32.419  31.232  1.00  0.00    -0.014 A 
ATOM     82  C   UNL A   1      44.704  33.465  30.353  1.00  0.00     0.009 A 
ATOM     83  C   UNL A   1      44.277  32.692  32.605  1.00  0.00     0.009 A 
ATOM     84  C   UNL A   1      44.938  34.751  30.843  1.00  0.00     0.001 A 
ATOM     85  C   UNL A   1      44.487  33.983  33.089  1.00  0.00     0.001 A 
ATOM     86  C   UNL A   1      44.825  35.010  32.209  1.00  0.00     0.000 A 
ENDBRANCH  68  81
ENDBRANCH  42  43
ENDBRANCH  34  37
ENDBRANCH  32  33
ENDBRANCH  31  32
ENDBRANCH  30  31
ENDBRANCH   1  30
TORSDOF 17
ENDMDL
MODEL 3
REMARK VINA RESULT:     -11.9      1.755      5.997
REMARK SMILES CN(C)c1ccc(CCC(=O)N2C[C@@H](C(=O)NCCCCNC(=O)c3ccc(-c4c5nc(c(-c6ccccc6)c6ccc([nH]6)c(-c6ccccc6)c6nc(c(-c7ccccc7)c7ccc4[nH]7)C=C6)C=C5)cc3)[C@H](c3cccnc3)C2)cc1
REMARK SMILES IDX 18 1 17 2 15 3 16 4 14 6 12 7 13 8 80 9 73 10 10 11 11 12
REMARK SMILES IDX 9 13 8 14 7 15 4 16 5 17 82 18 6 19 81 20 2 21 1 22 3 23
REMARK SMILES IDX 74 24 75 25 79 26 76 27 78 28 77 29 19 30 20 31 21 32 22 33
REMARK SMILES IDX 23 34 24 36 25 37 26 38 72 39 27 40 71 41 28 42 29 43 30 44
REMARK SMILES IDX 65 45 31 46 70 47 64 48 66 49 32 50 69 51 63 52 62 53 33 55
REMARK SMILES IDX 55 56 40 57 54 58 41 59 44 60 53 61 67 62 42 63 43 64 52 66
REMARK SMILES IDX 68 67 45 68 34 69 35 70 39 71 36 72 38 73 37 74 56 75 57 76
REMARK SMILES IDX 61 77 58 78 60 79 59 80 46 81 47 82 51 83 48 84 50 85 49 86
REMARK H PARENT 17 5 22 35 66 54 44 65
REMARK Flexibility Score: inf
ROOT
ATOM      1  C   UNL A   1      36.900  21.594  25.584  1.00  0.00     0.116 C 
ENDROOT
BRANCH   1   2
ATOM      2  N   UNL A   1      35.679  21.783  26.340  1.00  0.00    -0.356 N 
ATOM      3  C   UNL A   1      34.381  21.670  25.945  1.00  0.00     0.225 C 
ATOM      4  O   UNL A   1      33.519  21.593  26.822  1.00  0.00    -0.275 OA
ATOM      5  H   UNL A   1      35.807  22.031  27.284  1.00  0.00     0.163 HD
BRANCH   3   6
ATOM      6  C   UNL A   1      34.044  21.693  24.464  1.00  0.00     0.107 C 
ATOM      7  N   UNL A   1      32.754  23.283  23.236  1.00  0.00    -0.341 N 
ATOM      8  C   UNL A   1      33.939  23.143  24.044  1.00  0.00     0.133 C 
ATOM      9  C   UNL A   1      32.026  22.028  23.129  1.00  0.00     0.128 C 
ATOM     10  C   UNL A   1      32.655  21.078  24.164  1.00  0.00     0.054 C 
BRANCH   7  11
ATOM     11  C   UNL A   1      32.273  24.468  22.714  1.00  0.00     0.222 C 
ATOM     12  O   UNL A   1      32.934  25.146  21.927  1.00  0.00    -0.275 OA
BRANCH  11  13
ATOM     13  C   UNL A   1      30.905  24.958  23.187  1.00  0.00     0.105 C 
BRANCH  13  14
ATOM     14  C   UNL A   1      30.759  25.113  24.704  1.00  0.00     0.045 C 
BRANCH  14  15
ATOM     15  C   UNL A   1      30.984  26.515  25.216  1.00  0.00    -0.047 A 
ATOM     16  C   UNL A   1      31.706  29.124  26.160  1.00  0.00     0.036 A 
ATOM     17  C   UNL A   1      31.684  28.007  27.006  1.00  0.00     0.026 A 
ATOM     18  C   UNL A   1      31.304  28.899  24.832  1.00  0.00     0.026 A 
ATOM     19  C   UNL A   1      31.319  26.729  26.554  1.00  0.00     0.006 A 
ATOM     20  C   UNL A   1      30.954  27.621  24.359  1.00  0.00     0.006 A 
BRANCH  16  21
ATOM     21  N   UNL A   1      32.117  30.380  26.591  1.00  0.00    -0.378 N 
ATOM     22  C   UNL A   1      33.503  30.593  26.984  1.00  0.00     0.143 C 
ATOM     23  C   UNL A   1      31.300  31.573  26.373  1.00  0.00     0.143 C 
ENDBRANCH  16  21
ENDBRANCH  14  15
ENDBRANCH  13  14
ENDBRANCH  11  13
ENDBRANCH   7  11
BRANCH  10  24
ATOM     24  C   UNL A   1      32.859  19.613  23.826  1.00  0.00    -0.024 A 
ATOM     25  C   UNL A   1      33.798  18.874  24.567  1.00  0.00     0.007 A 
ATOM     26  C   UNL A   1      32.292  18.970  22.732  1.00  0.00     0.115 A 
ATOM     27  C   UNL A   1      34.168  17.596  24.169  1.00  0.00     0.020 A 
ATOM     28  N   UNL A   1      32.622  17.720  22.328  1.00  0.00    -0.264 NA
ATOM     29  C   UNL A   1      33.561  17.068  23.047  1.00  0.00     0.111 A 
ENDBRANCH  10  24
ENDBRANCH   3   6
ENDBRANCH   1   2
BRANCH   1  30
ATOM     30  C   UNL A   1      37.009  20.206  24.945  1.00  0.00     0.023 C 
BRANCH  30  31
ATOM     31  C   UNL A   1      38.421  19.613  24.837  1.00  0.00     0.023 C 
BRANCH  31  32
ATOM     32  C   UNL A   1      39.358  19.933  25.999  1.00  0.00     0.116 C 
BRANCH  32  33
ATOM     33  N   UNL A   1      40.579  19.151  25.930  1.00  0.00    -0.352 N 
ATOM     34  C   UNL A   1      41.894  19.542  25.981  1.00  0.00     0.251 C 
ATOM     35  H   UNL A   1      40.442  18.181  25.829  1.00  0.00     0.163 HD
ATOM     36  O   UNL A   1      42.762  18.741  25.639  1.00  0.00    -0.269 OA
BRANCH  34  37
ATOM     37  C   UNL A   1      42.299  20.894  26.441  1.00  0.00     0.039 A 
ATOM     38  C   UNL A   1      42.249  21.171  27.814  1.00  0.00     0.014 A 
ATOM     39  C   UNL A   1      42.611  21.924  25.549  1.00  0.00     0.014 A 
ATOM     40  C   UNL A   1      42.529  22.458  28.289  1.00  0.00     0.010 A 
ATOM     41  C   UNL A   1      42.948  23.195  26.029  1.00  0.00     0.010 A 
ATOM     42  C   UNL A   1      42.891  23.481  27.402  1.00  0.00    -0.014 A 
BRANCH  42  43
ATOM     43  C   UNL A   1      43.164  24.863  27.888  1.00  0.00     0.031 A 
ATOM     44  C   UNL A   1      44.576  25.302  28.175  1.00  0.00     0.074 A 
ATOM     45  C   UNL A   1      42.146  25.721  28.104  1.00  0.00     0.049 A 
ATOM     46  N   UNL A   1      45.007  26.434  28.677  1.00  0.00    -0.248 NA
ATOM     47  C   UNL A   1      45.646  24.337  27.873  1.00  0.00     0.031 C 
ATOM     48  C   UNL A   1      40.730  25.433  27.874  1.00  0.00     0.029 A 
ATOM     49  N   UNL A   1      42.153  27.013  28.569  1.00  0.00    -0.354 N 
ATOM     50  C   UNL A   1      46.388  26.310  28.767  1.00  0.00     0.074 A 
ATOM     51  C   UNL A   1      46.722  24.980  28.303  1.00  0.00     0.031 C 
ATOM     52  C   UNL A   1      40.005  26.522  28.183  1.00  0.00     0.029 A 
ATOM     53  C   UNL A   1      40.900  27.570  28.667  1.00  0.00     0.049 A 
ATOM     54  H   UNL A   1      42.976  27.494  28.811  1.00  0.00     0.167 HD
ATOM     55  C   UNL A   1      47.300  27.221  29.181  1.00  0.00     0.031 A 
ATOM     56  C   UNL A   1      40.512  28.783  29.105  1.00  0.00     0.031 A 
ATOM     57  C   UNL A   1      46.984  28.553  29.625  1.00  0.00     0.049 A 
ATOM     58  C   UNL A   1      41.544  29.768  29.581  1.00  0.00     0.074 A 
ATOM     59  C   UNL A   1      47.849  29.553  30.036  1.00  0.00     0.029 A 
ATOM     60  N   UNL A   1      45.704  29.074  29.704  1.00  0.00    -0.354 N 
ATOM     61  N   UNL A   1      42.847  29.640  29.635  1.00  0.00    -0.248 NA
ATOM     62  C   UNL A   1      41.047  31.071  30.050  1.00  0.00     0.031 C 
ATOM     63  C   UNL A   1      47.087  30.670  30.396  1.00  0.00     0.029 A 
ATOM     64  C   UNL A   1      45.754  30.378  30.167  1.00  0.00     0.049 A 
ATOM     65  H   UNL A   1      44.880  28.589  29.467  1.00  0.00     0.167 HD
ATOM     66  C   UNL A   1      43.326  30.852  30.114  1.00  0.00     0.074 A 
ATOM     67  C   UNL A   1      42.178  31.708  30.323  1.00  0.00     0.031 C 
ATOM     68  C   UNL A   1      44.606  31.223  30.359  1.00  0.00     0.031 A 
BRANCH  55  69
ATOM     69  C   UNL A   1      48.745  26.808  29.175  1.00  0.00    -0.014 A 
ATOM     70  C   UNL A   1      49.565  27.060  28.063  1.00  0.00     0.009 A 
ATOM     71  C   UNL A   1      49.309  26.208  30.313  1.00  0.00     0.009 A 
ATOM     72  C   UNL A   1      50.913  26.696  28.082  1.00  0.00     0.001 A 
ATOM     73  C   UNL A   1      50.662  25.867  30.337  1.00  0.00     0.001 A 
ATOM     74  C   UNL A   1      51.461  26.104  29.220  1.00  0.00     0.000 A 
ENDBRANCH  55  69
BRANCH  56  75
ATOM     75  C   UNL A   1      39.072  29.149  29.117  1.00  0.00    -0.014 A 
ATOM     76  C   UNL A   1      38.293  28.933  30.264  1.00  0.00     0.009 A 
ATOM     77  C   UNL A   1      38.461  29.684  27.971  1.00  0.00     0.009 A 
ATOM     78  C   UNL A   1      36.925  29.216  30.254  1.00  0.00     0.001 A 
ATOM     79  C   UNL A   1      37.100  29.991  27.974  1.00  0.00     0.001 A 
ATOM     80  C   UNL A   1      36.330  29.746  29.111  1.00  0.00     0.000 A 
ENDBRANCH  56  75
BRANCH  68  81
ATOM     81  C   UNL A   1      44.836  32.628  30.836  1.00  0.00    -0.014 A 
ATOM     82  C   UNL A   1      44.893  32.932  32.205  1.00  0.00     0.009 A 
ATOM     83  C   UNL A   1      45.035  33.655  29.901  1.00  0.00     0.009 A 
ATOM     84  C   UNL A   1      45.112  34.244  32.626  1.00  0.00     0.001 A 
ATOM     85  C   UNL A   1      45.279  34.962  30.324  1.00  0.00     0.001 A 
ATOM     86  C   UNL A   1      45.309  35.257  31.687  1.00  0.00     0.000 A 
ENDBRANCH  68  81
ENDBRANCH  42  43
ENDBRANCH  34  37
ENDBRANCH  32  33
ENDBRANCH  31  32
ENDBRANCH  30  31
ENDBRANCH   1  30
TORSDOF 17
ENDMDL
