MODEL 1
REMARK VINA RESULT:     -11.7      0.000      0.000
REMARK SMILES COc1cc(NC(=O)C2CCN(S(=O)(=O)c3cccs3)CC2)c(Cl)cc1C(=O)NCCCCNC(=O)c1ccc(-c2c3nc(c(-c4ccccc4)c4ccc([nH]4)c(-c4ccccc4)c4nc(c(-c5ccccc5)c5ccc2[nH]5)C=C4)C=C3)cc1
REMARK SMILES IDX 30 1 29 2 27 3 28 4 26 6 3 7 4 8 5 9 25 10 23 11 24 12 2 13
REMARK SMILES IDX 1 14 6 15 7 16 8 18 9 19 10 20 22 21 11 22 21 23 12 24 13 25
REMARK SMILES IDX 14 26 15 27 16 28 17 29 20 30 18 31 19 32 31 33 32 34 33 35
REMARK SMILES IDX 34 36 35 37 36 39 37 40 38 41 84 42 39 43 83 44 40 45 41 46
REMARK SMILES IDX 42 47 77 48 43 49 82 50 76 51 78 52 44 53 81 54 75 55 74 56
REMARK SMILES IDX 45 58 67 59 52 60 66 61 53 62 56 63 65 64 79 65 54 66 55 67
REMARK SMILES IDX 64 69 80 70 57 71 46 72 47 73 51 74 48 75 50 76 49 77 68 78
REMARK SMILES IDX 69 79 73 80 70 81 72 82 71 83 58 84 59 85 63 86 60 87 62 88
REMARK SMILES IDX 61 89
REMARK H PARENT 29 5 6 17 34 38 78 57 56 68
REMARK Flexibility Score: inf
ROOT
ATOM      1  C   UNL A   1      34.242  21.821  27.218  1.00  0.00     0.116 C 
ENDROOT
BRANCH   1   2
ATOM      2  N   UNL A   1      33.654  20.534  26.918  1.00  0.00    -0.352 N 
ATOM      3  C   UNL A   1      32.763  20.213  25.917  1.00  0.00     0.255 C 
ATOM      4  O   UNL A   1      32.388  19.050  25.791  1.00  0.00    -0.269 OA
ATOM      5  H   UNL A   1      33.926  19.791  27.504  1.00  0.00     0.163 HD
BRANCH   3   6
ATOM      6  C   UNL A   1      32.133  21.261  25.075  1.00  0.00     0.083 A 
ATOM      7  C   UNL A   1      32.256  21.356  23.680  1.00  0.00     0.133 A 
ATOM      8  C   UNL A   1      31.686  22.453  23.011  1.00  0.00     0.075 A 
ATOM      9  C   UNL A   1      31.117  23.502  23.732  1.00  0.00     0.063 A 
ATOM     10  C   UNL A   1      31.373  22.215  25.770  1.00  0.00     0.040 A 
ATOM     11  C   UNL A   1      30.864  23.325  25.101  1.00  0.00     0.065 A 
ATOM     12  Cl  UNL A   1      30.032  24.531  26.020  1.00  0.00    -0.082 Cl
BRANCH   7  13
ATOM     13  O   UNL A   1      32.910  20.370  22.987  1.00  0.00    -0.496 OA
ATOM     14  C   UNL A   1      32.071  19.598  22.120  1.00  0.00     0.278 C 
ENDBRANCH   7  13
BRANCH   9  15
ATOM     15  N   UNL A   1      30.840  24.751  23.151  1.00  0.00    -0.324 N 
ATOM     16  C   UNL A   1      31.601  25.865  22.949  1.00  0.00     0.227 C 
ATOM     17  H   UNL A   1      29.916  24.840  22.825  1.00  0.00     0.169 HD
ATOM     18  O   UNL A   1      31.038  26.806  22.378  1.00  0.00    -0.274 OA
BRANCH  16  19
ATOM     19  C   UNL A   1      33.071  26.014  23.400  1.00  0.00     0.081 C 
ATOM     20  C   UNL A   1      33.388  25.837  24.884  1.00  0.00     0.030 C 
ATOM     21  C   UNL A   1      33.590  27.434  23.047  1.00  0.00     0.030 C 
ATOM     22  C   UNL A   1      32.653  26.849  25.733  1.00  0.00     0.103 C 
ATOM     23  C   UNL A   1      33.012  28.528  23.969  1.00  0.00     0.103 C 
ATOM     24  N   UNL A   1      33.205  28.176  25.410  1.00  0.00    -0.197 NA
BRANCH  24  25
ATOM     25  S   UNL A   1      32.713  29.365  26.545  1.00  0.00     0.252 S 
ATOM     26  O   UNL A   1      32.048  30.424  25.815  1.00  0.00    -0.206 OA
ATOM     27  O   UNL A   1      32.061  28.687  27.646  1.00  0.00    -0.206 OA
BRANCH  25  28
ATOM     28  C   UNL A   1      34.192  30.103  27.203  1.00  0.00     0.135 A 
ATOM     29  C   UNL A   1      35.482  29.623  27.323  1.00  0.00     0.033 A 
ATOM     30  S   UNL A   1      34.063  31.696  27.820  1.00  0.00    -0.131 S 
ATOM     31  C   UNL A   1      36.366  30.571  27.913  1.00  0.00     0.013 A 
ATOM     32  C   UNL A   1      35.724  31.751  28.217  1.00  0.00     0.066 A 
ENDBRANCH  25  28
ENDBRANCH  24  25
ENDBRANCH  16  19
ENDBRANCH   9  15
ENDBRANCH   3   6
ENDBRANCH   1   2
BRANCH   1  33
ATOM     33  C   UNL A   1      35.214  22.357  26.172  1.00  0.00     0.023 C 
BRANCH  33  34
ATOM     34  C   UNL A   1      36.087  21.315  25.472  1.00  0.00     0.023 C 
BRANCH  34  35
ATOM     35  C   UNL A   1      37.519  21.729  25.143  1.00  0.00     0.116 C 
BRANCH  35  36
ATOM     36  N   UNL A   1      38.533  20.784  25.592  1.00  0.00    -0.352 N 
ATOM     37  C   UNL A   1      39.668  20.988  26.345  1.00  0.00     0.251 C 
ATOM     38  H   UNL A   1      38.382  19.851  25.314  1.00  0.00     0.163 HD
ATOM     39  O   UNL A   1      40.427  20.051  26.576  1.00  0.00    -0.269 OA
BRANCH  37  40
ATOM     40  C   UNL A   1      40.005  22.344  26.834  1.00  0.00     0.039 A 
ATOM     41  C   UNL A   1      41.018  22.484  27.788  1.00  0.00     0.014 A 
ATOM     42  C   UNL A   1      39.364  23.474  26.327  1.00  0.00     0.014 A 
ATOM     43  C   UNL A   1      41.466  23.761  28.142  1.00  0.00     0.010 A 
ATOM     44  C   UNL A   1      39.872  24.739  26.607  1.00  0.00     0.010 A 
ATOM     45  C   UNL A   1      40.939  24.897  27.507  1.00  0.00    -0.014 A 
BRANCH  45  46
ATOM     46  C   UNL A   1      41.503  26.252  27.739  1.00  0.00     0.031 A 
ATOM     47  C   UNL A   1      42.802  26.658  27.100  1.00  0.00     0.074 A 
ATOM     48  C   UNL A   1      40.895  27.090  28.603  1.00  0.00     0.049 A 
ATOM     49  N   UNL A   1      43.489  27.763  27.251  1.00  0.00    -0.248 NA
ATOM     50  C   UNL A   1      43.427  25.680  26.197  1.00  0.00     0.031 C 
ATOM     51  C   UNL A   1      39.656  26.809  29.333  1.00  0.00     0.029 A 
ATOM     52  N   UNL A   1      41.244  28.352  29.020  1.00  0.00    -0.354 N 
ATOM     53  C   UNL A   1      44.638  27.598  26.489  1.00  0.00     0.074 A 
ATOM     54  C   UNL A   1      44.580  26.270  25.918  1.00  0.00     0.031 C 
ATOM     55  C   UNL A   1      39.328  27.881  30.072  1.00  0.00     0.029 A 
ATOM     56  C   UNL A   1      40.354  28.905  29.906  1.00  0.00     0.049 A 
ATOM     57  H   UNL A   1      42.057  28.815  28.711  1.00  0.00     0.167 HD
ATOM     58  C   UNL A   1      45.644  28.477  26.264  1.00  0.00     0.031 A 
ATOM     59  C   UNL A   1      40.359  30.104  30.520  1.00  0.00     0.031 A 
ATOM     60  C   UNL A   1      45.699  29.805  26.814  1.00  0.00     0.049 A 
ATOM     61  C   UNL A   1      41.487  31.061  30.264  1.00  0.00     0.074 A 
ATOM     62  C   UNL A   1      46.638  30.796  26.587  1.00  0.00     0.029 A 
ATOM     63  N   UNL A   1      44.776  30.327  27.706  1.00  0.00    -0.354 N 
ATOM     64  N   UNL A   1      42.530  30.919  29.483  1.00  0.00    -0.248 NA
ATOM     65  C   UNL A   1      41.432  32.350  30.969  1.00  0.00     0.031 C 
ATOM     66  C   UNL A   1      46.309  31.902  27.379  1.00  0.00     0.029 A 
ATOM     67  C   UNL A   1      45.136  31.618  28.060  1.00  0.00     0.049 A 
ATOM     68  H   UNL A   1      43.981  29.852  28.041  1.00  0.00     0.167 HD
ATOM     69  C   UNL A   1      43.242  32.107  29.581  1.00  0.00     0.074 A 
ATOM     70  C   UNL A   1      42.506  32.963  30.489  1.00  0.00     0.031 C 
ATOM     71  C   UNL A   1      44.399  32.457  28.969  1.00  0.00     0.031 A 
BRANCH  58  72
ATOM     72  C   UNL A   1      46.776  28.011  25.390  1.00  0.00    -0.014 A 
ATOM     73  C   UNL A   1      46.712  28.126  23.991  1.00  0.00     0.009 A 
ATOM     74  C   UNL A   1      47.919  27.442  25.972  1.00  0.00     0.009 A 
ATOM     75  C   UNL A   1      47.746  27.632  23.192  1.00  0.00     0.001 A 
ATOM     76  C   UNL A   1      48.965  26.979  25.173  1.00  0.00     0.001 A 
ATOM     77  C   UNL A   1      48.871  27.060  23.784  1.00  0.00     0.000 A 
ENDBRANCH  58  72
BRANCH  59  78
ATOM     78  C   UNL A   1      39.230  30.484  31.409  1.00  0.00    -0.014 A 
ATOM     79  C   UNL A   1      38.151  31.220  30.897  1.00  0.00     0.009 A 
ATOM     80  C   UNL A   1      39.215  30.104  32.760  1.00  0.00     0.009 A 
ATOM     81  C   UNL A   1      37.085  31.582  31.723  1.00  0.00     0.001 A 
ATOM     82  C   UNL A   1      38.135  30.447  33.578  1.00  0.00     0.001 A 
ATOM     83  C   UNL A   1      37.076  31.190  33.061  1.00  0.00     0.000 A 
ENDBRANCH  59  78
BRANCH  71  84
ATOM     84  C   UNL A   1      44.927  33.839  29.236  1.00  0.00    -0.014 A 
ATOM     85  C   UNL A   1      45.836  34.084  30.277  1.00  0.00     0.009 A 
ATOM     86  C   UNL A   1      44.534  34.902  28.409  1.00  0.00     0.009 A 
ATOM     87  C   UNL A   1      46.320  35.374  30.500  1.00  0.00     0.001 A 
ATOM     88  C   UNL A   1      45.039  36.186  28.619  1.00  0.00     0.001 A 
ATOM     89  C   UNL A   1      45.925  36.422  29.669  1.00  0.00     0.000 A 
ENDBRANCH  71  84
ENDBRANCH  45  46
ENDBRANCH  37  40
ENDBRANCH  35  36
ENDBRANCH  34  35
ENDBRANCH  33  34
ENDBRANCH   1  33
TORSDOF 16
ENDMDL
MODEL 2
REMARK VINA RESULT:     -11.3      2.232      6.315
REMARK SMILES COc1cc(NC(=O)C2CCN(S(=O)(=O)c3cccs3)CC2)c(Cl)cc1C(=O)NCCCCNC(=O)c1ccc(-c2c3nc(c(-c4ccccc4)c4ccc([nH]4)c(-c4ccccc4)c4nc(c(-c5ccccc5)c5ccc2[nH]5)C=C4)C=C3)cc1
REMARK SMILES IDX 30 1 29 2 27 3 28 4 26 6 3 7 4 8 5 9 25 10 23 11 24 12 2 13
REMARK SMILES IDX 1 14 6 15 7 16 8 18 9 19 10 20 22 21 11 22 21 23 12 24 13 25
REMARK SMILES IDX 14 26 15 27 16 28 17 29 20 30 18 31 19 32 31 33 32 34 33 35
REMARK SMILES IDX 34 36 35 37 36 39 37 40 38 41 84 42 39 43 83 44 40 45 41 46
REMARK SMILES IDX 42 47 77 48 43 49 82 50 76 51 78 52 44 53 81 54 75 55 74 56
REMARK SMILES IDX 45 58 67 59 52 60 66 61 53 62 56 63 65 64 79 65 54 66 55 67
REMARK SMILES IDX 64 69 80 70 57 71 46 72 47 73 51 74 48 75 50 76 49 77 68 78
REMARK SMILES IDX 69 79 73 80 70 81 72 82 71 83 58 84 59 85 63 86 60 87 62 88
REMARK SMILES IDX 61 89
REMARK H PARENT 29 5 6 17 34 38 78 57 56 68
REMARK Flexibility Score: inf
ROOT
ATOM      1  C   UNL A   1      35.985  21.790  25.223  1.00  0.00     0.116 C 
ENDROOT
BRANCH   1   2
ATOM      2  N   UNL A   1      34.714  21.332  24.706  1.00  0.00    -0.352 N 
ATOM      3  C   UNL A   1      33.667  22.083  24.219  1.00  0.00     0.255 C 
ATOM      4  O   UNL A   1      32.664  21.518  23.790  1.00  0.00    -0.269 OA
ATOM      5  H   UNL A   1      34.580  20.356  24.700  1.00  0.00     0.163 HD
BRANCH   3   6
ATOM      6  C   UNL A   1      33.658  23.564  24.331  1.00  0.00     0.083 A 
ATOM      7  C   UNL A   1      33.508  24.281  25.528  1.00  0.00     0.133 A 
ATOM      8  C   UNL A   1      33.422  25.683  25.486  1.00  0.00     0.075 A 
ATOM      9  C   UNL A   1      33.357  26.349  24.263  1.00  0.00     0.063 A 
ATOM     10  C   UNL A   1      33.807  24.260  23.120  1.00  0.00     0.040 A 
ATOM     11  C   UNL A   1      33.662  25.644  23.089  1.00  0.00     0.065 A 
ATOM     12  Cl  UNL A   1      33.738  26.445  21.558  1.00  0.00    -0.082 Cl
BRANCH   7  13
ATOM     13  O   UNL A   1      33.467  23.608  26.722  1.00  0.00    -0.496 OA
ATOM     14  C   UNL A   1      32.149  23.263  27.164  1.00  0.00     0.278 C 
ENDBRANCH   7  13
BRANCH   9  15
ATOM     15  N   UNL A   1      32.941  27.688  24.156  1.00  0.00    -0.324 N 
ATOM     16  C   UNL A   1      32.672  28.648  25.087  1.00  0.00     0.227 C 
ATOM     17  H   UNL A   1      32.822  27.993  23.228  1.00  0.00     0.169 HD
ATOM     18  O   UNL A   1      32.340  29.753  24.642  1.00  0.00    -0.274 OA
BRANCH  16  19
ATOM     19  C   UNL A   1      32.737  28.428  26.615  1.00  0.00     0.081 C 
ATOM     20  C   UNL A   1      31.932  29.367  27.511  1.00  0.00     0.030 C 
ATOM     21  C   UNL A   1      34.204  28.567  27.105  1.00  0.00     0.030 C 
ATOM     22  C   UNL A   1      32.367  30.804  27.342  1.00  0.00     0.103 C 
ATOM     23  C   UNL A   1      34.693  30.031  27.117  1.00  0.00     0.103 C 
ATOM     24  N   UNL A   1      33.740  30.911  27.863  1.00  0.00    -0.197 NA
BRANCH  24  25
ATOM     25  S   UNL A   1      34.224  32.546  28.055  1.00  0.00     0.252 S 
ATOM     26  O   UNL A   1      35.497  32.712  27.386  1.00  0.00    -0.206 OA
ATOM     27  O   UNL A   1      33.090  33.387  27.732  1.00  0.00    -0.206 OA
BRANCH  25  28
ATOM     28  C   UNL A   1      34.566  32.790  29.784  1.00  0.00     0.135 A 
ATOM     29  C   UNL A   1      35.086  31.944  30.745  1.00  0.00     0.033 A 
ATOM     30  S   UNL A   1      34.205  34.330  30.443  1.00  0.00    -0.131 S 
ATOM     31  C   UNL A   1      35.196  32.567  32.020  1.00  0.00     0.013 A 
ATOM     32  C   UNL A   1      34.766  33.875  31.991  1.00  0.00     0.066 A 
ENDBRANCH  25  28
ENDBRANCH  24  25
ENDBRANCH  16  19
ENDBRANCH   9  15
ENDBRANCH   3   6
ENDBRANCH   1   2
BRANCH   1  33
ATOM     33  C   UNL A   1      37.212  21.329  24.444  1.00  0.00     0.023 C 
BRANCH  33  34
ATOM     34  C   UNL A   1      37.937  20.102  24.999  1.00  0.00     0.023 C 
BRANCH  34  35
ATOM     35  C   UNL A   1      39.242  20.356  25.749  1.00  0.00     0.116 C 
BRANCH  35  36
ATOM     36  N   UNL A   1      40.142  19.210  25.789  1.00  0.00    -0.352 N 
ATOM     37  C   UNL A   1      41.482  19.143  26.101  1.00  0.00     0.251 C 
ATOM     38  H   UNL A   1      39.726  18.349  25.558  1.00  0.00     0.163 HD
ATOM     39  O   UNL A   1      42.075  18.070  26.026  1.00  0.00    -0.269 OA
BRANCH  37  40
ATOM     40  C   UNL A   1      42.224  20.367  26.475  1.00  0.00     0.039 A 
ATOM     41  C   UNL A   1      42.913  21.069  25.481  1.00  0.00     0.014 A 
ATOM     42  C   UNL A   1      42.206  20.850  27.784  1.00  0.00     0.014 A 
ATOM     43  C   UNL A   1      43.481  22.312  25.776  1.00  0.00     0.010 A 
ATOM     44  C   UNL A   1      42.689  22.127  28.054  1.00  0.00     0.010 A 
ATOM     45  C   UNL A   1      43.319  22.880  27.050  1.00  0.00    -0.014 A 
BRANCH  45  46
ATOM     46  C   UNL A   1      43.768  24.264  27.349  1.00  0.00     0.031 A 
ATOM     47  C   UNL A   1      42.784  25.303  27.809  1.00  0.00     0.074 A 
ATOM     48  C   UNL A   1      45.049  24.617  27.117  1.00  0.00     0.049 A 
ATOM     49  N   UNL A   1      42.973  26.579  28.038  1.00  0.00    -0.248 NA
ATOM     50  C   UNL A   1      41.397  24.856  28.007  1.00  0.00     0.031 C 
ATOM     51  C   UNL A   1      46.102  23.725  26.624  1.00  0.00     0.029 A 
ATOM     52  N   UNL A   1      45.683  25.827  27.261  1.00  0.00    -0.354 N 
ATOM     53  C   UNL A   1      41.726  27.090  28.375  1.00  0.00     0.074 A 
ATOM     54  C   UNL A   1      40.781  25.999  28.272  1.00  0.00     0.031 C 
ATOM     55  C   UNL A   1      47.255  24.407  26.546  1.00  0.00     0.029 A 
ATOM     56  C   UNL A   1      47.017  25.792  26.939  1.00  0.00     0.049 A 
ATOM     57  H   UNL A   1      45.223  26.643  27.565  1.00  0.00     0.167 HD
ATOM     58  C   UNL A   1      41.395  28.347  28.757  1.00  0.00     0.031 A 
ATOM     59  C   UNL A   1      47.949  26.764  26.957  1.00  0.00     0.031 A 
ATOM     60  C   UNL A   1      42.333  29.431  28.878  1.00  0.00     0.049 A 
ATOM     61  C   UNL A   1      47.561  28.153  27.376  1.00  0.00     0.074 A 
ATOM     62  C   UNL A   1      42.109  30.721  29.327  1.00  0.00     0.029 A 
ATOM     63  N   UNL A   1      43.676  29.352  28.544  1.00  0.00    -0.354 N 
ATOM     64  N   UNL A   1      46.392  28.603  27.761  1.00  0.00    -0.248 NA
ATOM     65  C   UNL A   1      48.626  29.166  27.369  1.00  0.00     0.031 C 
ATOM     66  C   UNL A   1      43.307  31.436  29.220  1.00  0.00     0.029 A 
ATOM     67  C   UNL A   1      44.289  30.577  28.753  1.00  0.00     0.049 A 
ATOM     68  H   UNL A   1      44.129  28.544  28.208  1.00  0.00     0.167 HD
ATOM     69  C   UNL A   1      46.584  29.943  28.068  1.00  0.00     0.074 A 
ATOM     70  C   UNL A   1      47.985  30.230  27.834  1.00  0.00     0.031 C 
ATOM     71  C   UNL A   1      45.681  30.852  28.510  1.00  0.00     0.031 A 
BRANCH  58  72
ATOM     72  C   UNL A   1      39.945  28.610  29.055  1.00  0.00    -0.014 A 
ATOM     73  C   UNL A   1      39.107  29.226  28.111  1.00  0.00     0.009 A 
ATOM     74  C   UNL A   1      39.411  28.245  30.300  1.00  0.00     0.009 A 
ATOM     75  C   UNL A   1      37.778  29.518  28.428  1.00  0.00     0.001 A 
ATOM     76  C   UNL A   1      38.074  28.509  30.602  1.00  0.00     0.001 A 
ATOM     77  C   UNL A   1      37.263  29.159  29.673  1.00  0.00     0.000 A 
ENDBRANCH  58  72
BRANCH  59  78
ATOM     78  C   UNL A   1      49.357  26.445  26.605  1.00  0.00    -0.014 A 
ATOM     79  C   UNL A   1      49.831  26.699  25.309  1.00  0.00     0.009 A 
ATOM     80  C   UNL A   1      50.235  25.903  27.556  1.00  0.00     0.009 A 
ATOM     81  C   UNL A   1      51.152  26.404  24.967  1.00  0.00     0.001 A 
ATOM     82  C   UNL A   1      51.563  25.631  27.218  1.00  0.00     0.001 A 
ATOM     83  C   UNL A   1      52.018  25.876  25.924  1.00  0.00     0.000 A 
ENDBRANCH  59  78
BRANCH  71  84
ATOM     84  C   UNL A   1      46.186  32.237  28.799  1.00  0.00    -0.014 A 
ATOM     85  C   UNL A   1      46.734  32.568  30.048  1.00  0.00     0.009 A 
ATOM     86  C   UNL A   1      46.146  33.214  27.792  1.00  0.00     0.009 A 
ATOM     87  C   UNL A   1      47.206  33.859  30.291  1.00  0.00     0.001 A 
ATOM     88  C   UNL A   1      46.643  34.496  28.030  1.00  0.00     0.001 A 
ATOM     89  C   UNL A   1      47.164  34.821  29.281  1.00  0.00     0.000 A 
ENDBRANCH  71  84
ENDBRANCH  45  46
ENDBRANCH  37  40
ENDBRANCH  35  36
ENDBRANCH  34  35
ENDBRANCH  33  34
ENDBRANCH   1  33
TORSDOF 16
ENDMDL
MODEL 3
REMARK VINA RESULT:     -11.2      5.795     10.108
REMARK SMILES COc1cc(NC(=O)C2CCN(S(=O)(=O)c3cccs3)CC2)c(Cl)cc1C(=O)NCCCCNC(=O)c1ccc(-c2c3nc(c(-c4ccccc4)c4ccc([nH]4)c(-c4ccccc4)c4nc(c(-c5ccccc5)c5ccc2[nH]5)C=C4)C=C3)cc1
REMARK SMILES IDX 30 1 29 2 27 3 28 4 26 6 3 7 4 8 5 9 25 10 23 11 24 12 2 13
REMARK SMILES IDX 1 14 6 15 7 16 8 18 9 19 10 20 22 21 11 22 21 23 12 24 13 25
REMARK SMILES IDX 14 26 15 27 16 28 17 29 20 30 18 31 19 32 31 33 32 34 33 35
REMARK SMILES IDX 34 36 35 37 36 39 37 40 38 41 84 42 39 43 83 44 40 45 41 46
REMARK SMILES IDX 42 47 77 48 43 49 82 50 76 51 78 52 44 53 81 54 75 55 74 56
REMARK SMILES IDX 45 58 67 59 52 60 66 61 53 62 56 63 65 64 79 65 54 66 55 67
REMARK SMILES IDX 64 69 80 70 57 71 46 72 47 73 51 74 48 75 50 76 49 77 68 78
REMARK SMILES IDX 69 79 73 80 70 81 72 82 71 83 58 84 59 85 63 86 60 87 62 88
REMARK SMILES IDX 61 89
REMARK H PARENT 29 5 6 17 34 38 78 57 56 68
REMARK Flexibility Score: inf
ROOT
ATOM      1  C   UNL A   1      37.378  34.322  31.770  1.00  0.00     0.116 C 
ENDROOT
BRANCH   1   2
ATOM      2  N   UNL A   1      36.016  33.841  31.838  1.00  0.00    -0.352 N 
ATOM      3  C   UNL A   1      35.530  32.596  31.504  1.00  0.00     0.255 C 
ATOM      4  O   UNL A   1      34.334  32.352  31.655  1.00  0.00    -0.269 OA
ATOM      5  H   UNL A   1      35.349  34.487  32.167  1.00  0.00     0.163 HD
BRANCH   3   6
ATOM      6  C   UNL A   1      36.384  31.585  30.831  1.00  0.00     0.083 A 
ATOM      7  C   UNL A   1      36.810  31.651  29.496  1.00  0.00     0.133 A 
ATOM      8  C   UNL A   1      37.541  30.579  28.952  1.00  0.00     0.075 A 
ATOM      9  C   UNL A   1      37.729  29.409  29.687  1.00  0.00     0.063 A 
ATOM     10  C   UNL A   1      36.765  30.493  31.628  1.00  0.00     0.040 A 
ATOM     11  C   UNL A   1      37.438  29.415  31.059  1.00  0.00     0.065 A 
ATOM     12  Cl  UNL A   1      37.783  28.043  32.053  1.00  0.00    -0.082 Cl
BRANCH   7  13
ATOM     13  O   UNL A   1      36.529  32.763  28.747  1.00  0.00    -0.496 OA
ATOM     14  C   UNL A   1      35.330  32.668  27.969  1.00  0.00     0.278 C 
ENDBRANCH   7  13
BRANCH   9  15
ATOM     15  N   UNL A   1      38.148  28.207  29.091  1.00  0.00    -0.324 N 
ATOM     16  C   UNL A   1      39.380  27.666  28.869  1.00  0.00     0.227 C 
ATOM     17  H   UNL A   1      37.406  27.644  28.772  1.00  0.00     0.169 HD
ATOM     18  O   UNL A   1      39.392  26.556  28.325  1.00  0.00    -0.274 OA
BRANCH  16  19
ATOM     19  C   UNL A   1      40.715  28.354  29.230  1.00  0.00     0.081 C 
ATOM     20  C   UNL A   1      41.317  29.329  28.219  1.00  0.00     0.030 C 
ATOM     21  C   UNL A   1      41.816  27.284  29.459  1.00  0.00     0.030 C 
ATOM     22  C   UNL A   1      41.615  28.648  26.902  1.00  0.00     0.103 C 
ATOM     23  C   UNL A   1      42.301  26.637  28.144  1.00  0.00     0.103 C 
ATOM     24  N   UNL A   1      42.696  27.677  27.145  1.00  0.00    -0.197 NA
BRANCH  24  25
ATOM     25  S   UNL A   1      43.368  27.092  25.679  1.00  0.00     0.252 S 
ATOM     26  O   UNL A   1      42.287  26.927  24.732  1.00  0.00    -0.206 OA
ATOM     27  O   UNL A   1      44.526  27.903  25.364  1.00  0.00    -0.206 OA
BRANCH  25  28
ATOM     28  C   UNL A   1      43.968  25.448  25.999  1.00  0.00     0.135 A 
ATOM     29  C   UNL A   1      44.863  24.963  26.934  1.00  0.00     0.033 A 
ATOM     30  S   UNL A   1      43.371  24.189  25.002  1.00  0.00    -0.131 S 
ATOM     31  C   UNL A   1      45.048  23.555  26.835  1.00  0.00     0.013 A 
ATOM     32  C   UNL A   1      44.280  23.005  25.832  1.00  0.00     0.066 A 
ENDBRANCH  25  28
ENDBRANCH  24  25
ENDBRANCH  16  19
ENDBRANCH   9  15
ENDBRANCH   3   6
ENDBRANCH   1   2
BRANCH   1  33
ATOM     33  C   UNL A   1      38.068  34.527  33.114  1.00  0.00     0.023 C 
BRANCH  33  34
ATOM     34  C   UNL A   1      37.231  34.204  34.353  1.00  0.00     0.023 C 
BRANCH  34  35
ATOM     35  C   UNL A   1      37.972  34.156  35.688  1.00  0.00     0.116 C 
BRANCH  35  36
ATOM     36  N   UNL A   1      37.783  32.917  36.431  1.00  0.00    -0.352 N 
ATOM     37  C   UNL A   1      38.395  31.691  36.287  1.00  0.00     0.251 C 
ATOM     38  H   UNL A   1      37.113  32.964  37.151  1.00  0.00     0.163 HD
ATOM     39  O   UNL A   1      38.052  30.748  36.996  1.00  0.00    -0.269 OA
BRANCH  37  40
ATOM     40  C   UNL A   1      39.428  31.490  35.247  1.00  0.00     0.039 A 
ATOM     41  C   UNL A   1      40.760  31.782  35.553  1.00  0.00     0.014 A 
ATOM     42  C   UNL A   1      39.098  30.974  33.993  1.00  0.00     0.014 A 
ATOM     43  C   UNL A   1      41.771  31.447  34.647  1.00  0.00     0.010 A 
ATOM     44  C   UNL A   1      40.109  30.555  33.133  1.00  0.00     0.010 A 
ATOM     45  C   UNL A   1      41.458  30.772  33.456  1.00  0.00    -0.014 A 
BRANCH  45  46
ATOM     46  C   UNL A   1      42.518  30.257  32.550  1.00  0.00     0.031 A 
ATOM     47  C   UNL A   1      42.984  31.076  31.379  1.00  0.00     0.074 A 
ATOM     48  C   UNL A   1      42.999  29.010  32.725  1.00  0.00     0.049 A 
ATOM     49  N   UNL A   1      43.835  30.760  30.434  1.00  0.00    -0.248 NA
ATOM     50  C   UNL A   1      42.390  32.413  31.230  1.00  0.00     0.031 C 
ATOM     51  C   UNL A   1      42.602  28.085  33.790  1.00  0.00     0.029 A 
ATOM     52  N   UNL A   1      43.926  28.300  32.000  1.00  0.00    -0.354 N 
ATOM     53  C   UNL A   1      43.854  31.845  29.567  1.00  0.00     0.074 A 
ATOM     54  C   UNL A   1      42.893  32.803  30.068  1.00  0.00     0.031 C 
ATOM     55  C   UNL A   1      43.310  26.951  33.673  1.00  0.00     0.029 A 
ATOM     56  C   UNL A   1      44.175  27.047  32.503  1.00  0.00     0.049 A 
ATOM     57  H   UNL A   1      44.369  28.657  31.197  1.00  0.00     0.167 HD
ATOM     58  C   UNL A   1      44.615  32.039  28.463  1.00  0.00     0.031 A 
ATOM     59  C   UNL A   1      45.008  26.080  32.072  1.00  0.00     0.031 A 
ATOM     60  C   UNL A   1      45.583  31.098  27.969  1.00  0.00     0.049 A 
ATOM     61  C   UNL A   1      45.837  26.312  30.842  1.00  0.00     0.074 A 
ATOM     62  C   UNL A   1      46.455  31.234  26.903  1.00  0.00     0.029 A 
ATOM     63  N   UNL A   1      45.807  29.840  28.509  1.00  0.00    -0.354 N 
ATOM     64  N   UNL A   1      45.896  27.372  30.074  1.00  0.00    -0.248 NA
ATOM     65  C   UNL A   1      46.721  25.213  30.425  1.00  0.00     0.031 C 
ATOM     66  C   UNL A   1      47.172  30.040  26.768  1.00  0.00     0.029 A 
ATOM     67  C   UNL A   1      46.783  29.180  27.783  1.00  0.00     0.049 A 
ATOM     68  H   UNL A   1      45.339  29.471  29.294  1.00  0.00     0.167 HD
ATOM     69  C   UNL A   1      46.841  27.081  29.099  1.00  0.00     0.074 A 
ATOM     70  C   UNL A   1      47.337  25.749  29.379  1.00  0.00     0.031 C 
ATOM     71  C   UNL A   1      47.263  27.852  28.067  1.00  0.00     0.031 A 
BRANCH  58  72
ATOM     72  C   UNL A   1      44.408  33.324  27.709  1.00  0.00    -0.014 A 
ATOM     73  C   UNL A   1      43.576  33.380  26.578  1.00  0.00     0.009 A 
ATOM     74  C   UNL A   1      45.059  34.493  28.131  1.00  0.00     0.009 A 
ATOM     75  C   UNL A   1      43.444  34.568  25.855  1.00  0.00     0.001 A 
ATOM     76  C   UNL A   1      44.900  35.686  27.424  1.00  0.00     0.001 A 
ATOM     77  C   UNL A   1      44.106  35.719  26.279  1.00  0.00     0.000 A 
ENDBRANCH  58  72
BRANCH  59  78
ATOM     78  C   UNL A   1      45.129  24.813  32.840  1.00  0.00    -0.014 A 
ATOM     79  C   UNL A   1      44.224  23.766  32.613  1.00  0.00     0.009 A 
ATOM     80  C   UNL A   1      46.151  24.636  33.785  1.00  0.00     0.009 A 
ATOM     81  C   UNL A   1      44.329  22.571  33.328  1.00  0.00     0.001 A 
ATOM     82  C   UNL A   1      46.269  23.431  34.482  1.00  0.00     0.001 A 
ATOM     83  C   UNL A   1      45.355  22.403  34.257  1.00  0.00     0.000 A 
ENDBRANCH  59  78
BRANCH  71  84
ATOM     84  C   UNL A   1      48.337  27.286  27.181  1.00  0.00    -0.014 A 
ATOM     85  C   UNL A   1      49.697  27.447  27.489  1.00  0.00     0.009 A 
ATOM     86  C   UNL A   1      47.979  26.549  26.042  1.00  0.00     0.009 A 
ATOM     87  C   UNL A   1      50.677  26.905  26.657  1.00  0.00     0.001 A 
ATOM     88  C   UNL A   1      48.961  25.986  25.226  1.00  0.00     0.001 A 
ATOM     89  C   UNL A   1      50.308  26.171  25.529  1.00  0.00     0.000 A 
ENDBRANCH  71  84
ENDBRANCH  45  46
ENDBRANCH  37  40
ENDBRANCH  35  36
ENDBRANCH  34  35
ENDBRANCH  33  34
ENDBRANCH   1  33
TORSDOF 16
ENDMDL
