MODEL 1
REMARK VINA RESULT:     -11.2      0.000      0.000
REMARK SMILES C[C@@H](C(=O)NCCCCNC(=O)c1ccc(-c2c3nc(c(-c4ccccc4)c4ccc([nH]4)c(-c4ccccc4)c4nc(c(-c5ccccc5)c5ccc2[nH]5)C=C4)C=C3)cc1)c1ccc(O[C@H]2CCCC2=O)cc1F
REMARK SMILES IDX 7 1 6 2 5 3 3 4 4 5 2 7 1 8 61 9 62 10 73 11 63 12 72 13
REMARK SMILES IDX 74 14 64 15 65 16 66 17 67 18 70 19 68 20 69 21 71 22 8 23
REMARK SMILES IDX 9 24 10 25 11 26 12 28 13 29 14 30 60 31 15 32 59 33 16 34
REMARK SMILES IDX 17 35 18 36 53 37 19 38 58 39 52 40 54 41 20 42 57 43 51 44
REMARK SMILES IDX 50 45 21 47 43 48 28 49 42 50 29 51 32 52 41 53 55 54 30 55
REMARK SMILES IDX 31 56 40 58 56 59 33 60 22 61 23 62 27 63 24 64 26 65 25 66
REMARK SMILES IDX 44 67 45 68 49 69 46 70 48 71 47 72 34 73 35 74 39 75 36 76
REMARK SMILES IDX 38 77 37 78
REMARK H PARENT 5 6 10 27 54 46 32 57
REMARK Flexibility Score: inf
ROOT
ATOM      1  C   UNL A   1      36.339  20.405  24.995  1.00  0.00     0.023 C 
ENDROOT
BRANCH   1   2
ATOM      2  C   UNL A   1      36.461  21.912  25.224  1.00  0.00     0.116 C 
BRANCH   2   3
ATOM      3  N   UNL A   1      36.069  22.643  24.038  1.00  0.00    -0.356 N 
ATOM      4  C   UNL A   1      34.827  22.884  23.529  1.00  0.00     0.227 C 
ATOM      5  O   UNL A   1      34.783  23.399  22.409  1.00  0.00    -0.274 OA
ATOM      6  H   UNL A   1      36.813  23.025  23.519  1.00  0.00     0.163 HD
BRANCH   4   7
ATOM      7  C   UNL A   1      33.574  22.542  24.350  1.00  0.00     0.108 C 
ATOM      8  C   UNL A   1      32.858  21.288  23.840  1.00  0.00     0.023 C 
BRANCH   7   9
ATOM      9  C   UNL A   1      32.610  23.717  24.399  1.00  0.00     0.000 A 
ATOM     10  C   UNL A   1      31.506  23.798  23.540  1.00  0.00     0.011 A 
ATOM     11  C   UNL A   1      32.834  24.780  25.277  1.00  0.00     0.130 A 
ATOM     12  C   UNL A   1      30.656  24.904  23.586  1.00  0.00     0.047 A 
ATOM     13  C   UNL A   1      31.985  25.886  25.326  1.00  0.00     0.086 A 
ATOM     14  F   UNL A   1      33.890  24.750  26.105  1.00  0.00    -0.207 F 
ATOM     15  C   UNL A   1      30.881  25.950  24.485  1.00  0.00     0.123 A 
BRANCH  15  16
ATOM     16  O   UNL A   1      29.962  26.950  24.403  1.00  0.00    -0.483 OA
BRANCH  16  17
ATOM     17  C   UNL A   1      29.706  27.629  23.199  1.00  0.00     0.239 C 
ATOM     18  C   UNL A   1      28.300  28.238  23.108  1.00  0.00     0.054 C 
ATOM     19  C   UNL A   1      30.616  28.715  22.640  1.00  0.00     0.173 C 
ATOM     20  C   UNL A   1      28.470  29.694  22.677  1.00  0.00     0.012 C 
ATOM     21  C   UNL A   1      29.820  29.808  21.984  1.00  0.00     0.080 C 
ATOM     22  O   UNL A   1      31.839  28.692  22.663  1.00  0.00    -0.296 OA
ENDBRANCH  16  17
ENDBRANCH  15  16
ENDBRANCH   7   9
ENDBRANCH   4   7
ENDBRANCH   2   3
ENDBRANCH   1   2
BRANCH   1  23
ATOM     23  C   UNL A   1      37.675  19.677  24.819  1.00  0.00     0.023 C 
BRANCH  23  24
ATOM     24  C   UNL A   1      38.811  20.191  25.693  1.00  0.00     0.116 C 
BRANCH  24  25
ATOM     25  N   UNL A   1      39.950  19.288  25.722  1.00  0.00    -0.352 N 
ATOM     26  C   UNL A   1      41.252  19.548  26.065  1.00  0.00     0.251 C 
ATOM     27  H   UNL A   1      39.760  18.359  25.458  1.00  0.00     0.163 HD
ATOM     28  O   UNL A   1      42.115  18.688  25.891  1.00  0.00    -0.269 OA
BRANCH  26  29
ATOM     29  C   UNL A   1      41.625  20.867  26.616  1.00  0.00     0.039 A 
ATOM     30  C   UNL A   1      42.065  21.861  25.737  1.00  0.00     0.014 A 
ATOM     31  C   UNL A   1      41.555  21.125  27.988  1.00  0.00     0.014 A 
ATOM     32  C   UNL A   1      42.389  23.125  26.230  1.00  0.00     0.010 A 
ATOM     33  C   UNL A   1      41.799  22.408  28.466  1.00  0.00     0.010 A 
ATOM     34  C   UNL A   1      42.233  23.418  27.595  1.00  0.00    -0.014 A 
BRANCH  34  35
ATOM     35  C   UNL A   1      42.543  24.769  28.127  1.00  0.00     0.031 A 
ATOM     36  C   UNL A   1      43.952  25.126  28.516  1.00  0.00     0.074 A 
ATOM     37  C   UNL A   1      41.550  25.663  28.300  1.00  0.00     0.049 A 
ATOM     38  N   UNL A   1      44.415  26.249  29.004  1.00  0.00    -0.248 NA
ATOM     39  C   UNL A   1      44.971  24.075  28.362  1.00  0.00     0.031 C 
ATOM     40  C   UNL A   1      40.135  25.428  27.997  1.00  0.00     0.029 A 
ATOM     41  N   UNL A   1      41.581  26.952  28.767  1.00  0.00    -0.354 N 
ATOM     42  C   UNL A   1      45.769  26.033  29.230  1.00  0.00     0.074 A 
ATOM     43  C   UNL A   1      46.041  24.656  28.880  1.00  0.00     0.031 C 
ATOM     44  C   UNL A   1      39.443  26.551  28.247  1.00  0.00     0.029 A 
ATOM     45  C   UNL A   1      40.352  27.568  28.764  1.00  0.00     0.049 A 
ATOM     46  H   UNL A   1      42.404  27.394  29.077  1.00  0.00     0.167 HD
ATOM     47  C   UNL A   1      46.708  26.906  29.667  1.00  0.00     0.031 A 
ATOM     48  C   UNL A   1      40.001  28.814  29.131  1.00  0.00     0.031 A 
ATOM     49  C   UNL A   1      46.440  28.277  30.008  1.00  0.00     0.049 A 
ATOM     50  C   UNL A   1      41.059  29.758  29.633  1.00  0.00     0.074 A 
ATOM     51  C   UNL A   1      47.331  29.258  30.403  1.00  0.00     0.029 A 
ATOM     52  N   UNL A   1      45.181  28.859  30.000  1.00  0.00    -0.354 N 
ATOM     53  N   UNL A   1      42.348  29.563  29.763  1.00  0.00    -0.248 NA
ATOM     54  C   UNL A   1      40.609  31.102  30.022  1.00  0.00     0.031 C 
ATOM     55  C   UNL A   1      46.605  30.419  30.691  1.00  0.00     0.029 A 
ATOM     56  C   UNL A   1      45.268  30.179  30.411  1.00  0.00     0.049 A 
ATOM     57  H   UNL A   1      44.349  28.402  29.741  1.00  0.00     0.167 HD
ATOM     58  C   UNL A   1      42.869  30.769  30.216  1.00  0.00     0.074 A 
ATOM     59  C   UNL A   1      41.757  31.691  30.322  1.00  0.00     0.031 C 
ATOM     60  C   UNL A   1      44.154  31.085  30.514  1.00  0.00     0.031 A 
BRANCH  47  61
ATOM     61  C   UNL A   1      48.114  26.389  29.817  1.00  0.00    -0.014 A 
ATOM     62  C   UNL A   1      49.035  26.458  28.759  1.00  0.00     0.009 A 
ATOM     63  C   UNL A   1      48.529  25.845  31.042  1.00  0.00     0.009 A 
ATOM     64  C   UNL A   1      50.327  25.947  28.910  1.00  0.00     0.001 A 
ATOM     65  C   UNL A   1      49.832  25.367  31.201  1.00  0.00     0.001 A 
ATOM     66  C   UNL A   1      50.726  25.408  30.132  1.00  0.00     0.000 A 
ENDBRANCH  47  61
BRANCH  48  67
ATOM     67  C   UNL A   1      38.587  29.258  29.009  1.00  0.00    -0.014 A 
ATOM     68  C   UNL A   1      37.737  29.233  30.127  1.00  0.00     0.009 A 
ATOM     69  C   UNL A   1      38.075  29.696  27.778  1.00  0.00     0.009 A 
ATOM     70  C   UNL A   1      36.398  29.609  30.007  1.00  0.00     0.001 A 
ATOM     71  C   UNL A   1      36.742  30.100  27.668  1.00  0.00     0.001 A 
ATOM     72  C   UNL A   1      35.902  30.046  28.780  1.00  0.00     0.000 A 
ENDBRANCH  48  67
BRANCH  60  73
ATOM     73  C   UNL A   1      44.431  32.501  30.939  1.00  0.00    -0.014 A 
ATOM     74  C   UNL A   1      44.735  33.502  30.003  1.00  0.00     0.009 A 
ATOM     75  C   UNL A   1      44.360  32.840  32.299  1.00  0.00     0.009 A 
ATOM     76  C   UNL A   1      45.003  34.805  30.427  1.00  0.00     0.001 A 
ATOM     77  C   UNL A   1      44.595  34.151  32.717  1.00  0.00     0.001 A 
ATOM     78  C   UNL A   1      44.928  35.129  31.782  1.00  0.00     0.000 A 
ENDBRANCH  60  73
ENDBRANCH  34  35
ENDBRANCH  26  29
ENDBRANCH  24  25
ENDBRANCH  23  24
ENDBRANCH   1  23
TORSDOF 14
ENDMDL
MODEL 2
REMARK VINA RESULT:     -11.1      1.186      6.180
REMARK SMILES C[C@@H](C(=O)NCCCCNC(=O)c1ccc(-c2c3nc(c(-c4ccccc4)c4ccc([nH]4)c(-c4ccccc4)c4nc(c(-c5ccccc5)c5ccc2[nH]5)C=C4)C=C3)cc1)c1ccc(O[C@H]2CCCC2=O)cc1F
REMARK SMILES IDX 7 1 6 2 5 3 3 4 4 5 2 7 1 8 61 9 62 10 73 11 63 12 72 13
REMARK SMILES IDX 74 14 64 15 65 16 66 17 67 18 70 19 68 20 69 21 71 22 8 23
REMARK SMILES IDX 9 24 10 25 11 26 12 28 13 29 14 30 60 31 15 32 59 33 16 34
REMARK SMILES IDX 17 35 18 36 53 37 19 38 58 39 52 40 54 41 20 42 57 43 51 44
REMARK SMILES IDX 50 45 21 47 43 48 28 49 42 50 29 51 32 52 41 53 55 54 30 55
REMARK SMILES IDX 31 56 40 58 56 59 33 60 22 61 23 62 27 63 24 64 26 65 25 66
REMARK SMILES IDX 44 67 45 68 49 69 46 70 48 71 47 72 34 73 35 74 39 75 36 76
REMARK SMILES IDX 38 77 37 78
REMARK H PARENT 5 6 10 27 54 46 32 57
REMARK Flexibility Score: inf
ROOT
ATOM      1  C   UNL A   1      36.379  19.166  24.990  1.00  0.00     0.023 C 
ENDROOT
BRANCH   1   2
ATOM      2  C   UNL A   1      35.132  19.987  24.661  1.00  0.00     0.116 C 
BRANCH   2   3
ATOM      3  N   UNL A   1      34.675  20.713  25.826  1.00  0.00    -0.356 N 
ATOM      4  C   UNL A   1      34.998  21.966  26.258  1.00  0.00     0.227 C 
ATOM      5  O   UNL A   1      34.587  22.283  27.378  1.00  0.00    -0.274 OA
ATOM      6  H   UNL A   1      34.033  20.229  26.394  1.00  0.00     0.163 HD
BRANCH   4   7
ATOM      7  C   UNL A   1      35.807  22.912  25.358  1.00  0.00     0.108 C 
ATOM      8  C   UNL A   1      37.005  23.535  26.081  1.00  0.00     0.023 C 
BRANCH   7   9
ATOM      9  C   UNL A   1      34.924  23.998  24.765  1.00  0.00     0.000 A 
ATOM     10  C   UNL A   1      34.632  25.174  25.469  1.00  0.00     0.011 A 
ATOM     11  C   UNL A   1      34.336  23.825  23.510  1.00  0.00     0.130 A 
ATOM     12  C   UNL A   1      33.793  26.140  24.912  1.00  0.00     0.047 A 
ATOM     13  C   UNL A   1      33.497  24.790  22.950  1.00  0.00     0.086 A 
ATOM     14  F   UNL A   1      34.575  22.706  22.809  1.00  0.00    -0.207 F 
ATOM     15  C   UNL A   1      33.229  25.962  23.647  1.00  0.00     0.123 A 
BRANCH  15  16
ATOM     16  O   UNL A   1      32.436  26.995  23.250  1.00  0.00    -0.483 OA
BRANCH  16  17
ATOM     17  C   UNL A   1      31.193  27.254  23.853  1.00  0.00     0.239 C 
ATOM     18  C   UNL A   1      30.677  28.683  23.640  1.00  0.00     0.054 C 
ATOM     19  C   UNL A   1      29.962  26.381  23.642  1.00  0.00     0.173 C 
ATOM     20  C   UNL A   1      29.236  28.570  23.145  1.00  0.00     0.012 C 
ATOM     21  C   UNL A   1      28.710  27.211  23.583  1.00  0.00     0.080 C 
ATOM     22  O   UNL A   1      29.965  25.159  23.581  1.00  0.00    -0.296 OA
ENDBRANCH  16  17
ENDBRANCH  15  16
ENDBRANCH   7   9
ENDBRANCH   4   7
ENDBRANCH   2   3
ENDBRANCH   1   2
BRANCH   1  23
ATOM     23  C   UNL A   1      37.702  19.828  24.592  1.00  0.00     0.023 C 
BRANCH  23  24
ATOM     24  C   UNL A   1      38.635  20.154  25.751  1.00  0.00     0.116 C 
BRANCH  24  25
ATOM     25  N   UNL A   1      39.795  19.278  25.801  1.00  0.00    -0.352 N 
ATOM     26  C   UNL A   1      41.097  19.583  26.107  1.00  0.00     0.251 C 
ATOM     27  H   UNL A   1      39.622  18.334  25.583  1.00  0.00     0.163 HD
ATOM     28  O   UNL A   1      41.976  18.735  25.956  1.00  0.00    -0.269 OA
BRANCH  26  29
ATOM     29  C   UNL A   1      41.449  20.934  26.589  1.00  0.00     0.039 A 
ATOM     30  C   UNL A   1      41.314  21.217  27.951  1.00  0.00     0.014 A 
ATOM     31  C   UNL A   1      41.901  21.922  25.710  1.00  0.00     0.014 A 
ATOM     32  C   UNL A   1      41.674  22.475  28.435  1.00  0.00     0.010 A 
ATOM     33  C   UNL A   1      42.336  23.146  26.205  1.00  0.00     0.010 A 
ATOM     34  C   UNL A   1      42.214  23.441  27.571  1.00  0.00    -0.014 A 
BRANCH  34  35
ATOM     35  C   UNL A   1      42.632  24.772  28.079  1.00  0.00     0.031 A 
ATOM     36  C   UNL A   1      41.610  25.853  28.303  1.00  0.00     0.074 A 
ATOM     37  C   UNL A   1      43.937  25.023  28.300  1.00  0.00     0.049 A 
ATOM     38  N   UNL A   1      41.783  27.078  28.735  1.00  0.00    -0.248 NA
ATOM     39  C   UNL A   1      40.212  25.526  27.976  1.00  0.00     0.031 C 
ATOM     40  C   UNL A   1      45.032  24.073  28.085  1.00  0.00     0.029 A 
ATOM     41  N   UNL A   1      44.563  26.154  28.759  1.00  0.00    -0.354 N 
ATOM     42  C   UNL A   1      40.525  27.667  28.713  1.00  0.00     0.074 A 
ATOM     43  C   UNL A   1      39.608  26.687  28.173  1.00  0.00     0.031 C 
ATOM     44  C   UNL A   1      46.188  24.647  28.453  1.00  0.00     0.029 A 
ATOM     45  C   UNL A   1      45.924  26.014  28.890  1.00  0.00     0.049 A 
ATOM     46  H   UNL A   1      44.084  26.986  28.974  1.00  0.00     0.167 HD
ATOM     47  C   UNL A   1      40.158  28.904  29.126  1.00  0.00     0.031 A 
ATOM     48  C   UNL A   1      46.853  26.889  29.318  1.00  0.00     0.031 A 
ATOM     49  C   UNL A   1      41.068  29.877  29.670  1.00  0.00     0.049 A 
ATOM     50  C   UNL A   1      46.424  28.263  29.751  1.00  0.00     0.074 A 
ATOM     51  C   UNL A   1      40.787  31.135  30.172  1.00  0.00     0.029 A 
ATOM     52  N   UNL A   1      42.439  29.699  29.776  1.00  0.00    -0.354 N 
ATOM     53  N   UNL A   1      45.219  28.777  29.802  1.00  0.00    -0.248 NA
ATOM     54  C   UNL A   1      47.487  29.172  30.204  1.00  0.00     0.031 C 
ATOM     55  C   UNL A   1      41.996  31.743  30.527  1.00  0.00     0.029 A 
ATOM     56  C   UNL A   1      43.022  30.838  30.309  1.00  0.00     0.049 A 
ATOM     57  H   UNL A   1      42.927  28.886  29.511  1.00  0.00     0.167 HD
ATOM     58  C   UNL A   1      45.374  30.056  30.322  1.00  0.00     0.074 A 
ATOM     59  C   UNL A   1      46.788  30.231  30.586  1.00  0.00     0.031 C 
ATOM     60  C   UNL A   1      44.430  30.999  30.564  1.00  0.00     0.031 A 
BRANCH  47  61
ATOM     61  C   UNL A   1      38.707  29.277  28.984  1.00  0.00    -0.014 A 
ATOM     62  C   UNL A   1      38.196  29.783  27.778  1.00  0.00     0.009 A 
ATOM     63  C   UNL A   1      37.833  29.100  30.069  1.00  0.00     0.009 A 
ATOM     64  C   UNL A   1      36.851  30.149  27.676  1.00  0.00     0.001 A 
ATOM     65  C   UNL A   1      36.482  29.434  29.953  1.00  0.00     0.001 A 
ATOM     66  C   UNL A   1      35.995  29.969  28.761  1.00  0.00     0.000 A 
ENDBRANCH  47  61
BRANCH  48  67
ATOM     67  C   UNL A   1      48.282  26.485  29.391  1.00  0.00    -0.014 A 
ATOM     68  C   UNL A   1      48.786  25.866  30.547  1.00  0.00     0.009 A 
ATOM     69  C   UNL A   1      49.152  26.724  28.317  1.00  0.00     0.009 A 
ATOM     70  C   UNL A   1      50.137  25.524  30.636  1.00  0.00     0.001 A 
ATOM     71  C   UNL A   1      50.497  26.352  28.397  1.00  0.00     0.001 A 
ATOM     72  C   UNL A   1      50.990  25.762  29.560  1.00  0.00     0.000 A 
ENDBRANCH  48  67
BRANCH  60  73
ATOM     73  C   UNL A   1      44.892  32.288  31.187  1.00  0.00    -0.014 A 
ATOM     74  C   UNL A   1      45.276  33.387  30.402  1.00  0.00     0.009 A 
ATOM     75  C   UNL A   1      44.917  32.410  32.585  1.00  0.00     0.009 A 
ATOM     76  C   UNL A   1      45.715  34.566  31.007  1.00  0.00     0.001 A 
ATOM     77  C   UNL A   1      45.324  33.602  33.187  1.00  0.00     0.001 A 
ATOM     78  C   UNL A   1      45.734  34.674  32.397  1.00  0.00     0.000 A 
ENDBRANCH  60  73
ENDBRANCH  34  35
ENDBRANCH  26  29
ENDBRANCH  24  25
ENDBRANCH  23  24
ENDBRANCH   1  23
TORSDOF 14
ENDMDL
MODEL 3
REMARK VINA RESULT:     -11.1      1.153      1.865
REMARK SMILES C[C@@H](C(=O)NCCCCNC(=O)c1ccc(-c2c3nc(c(-c4ccccc4)c4ccc([nH]4)c(-c4ccccc4)c4nc(c(-c5ccccc5)c5ccc2[nH]5)C=C4)C=C3)cc1)c1ccc(O[C@H]2CCCC2=O)cc1F
REMARK SMILES IDX 7 1 6 2 5 3 3 4 4 5 2 7 1 8 61 9 62 10 73 11 63 12 72 13
REMARK SMILES IDX 74 14 64 15 65 16 66 17 67 18 70 19 68 20 69 21 71 22 8 23
REMARK SMILES IDX 9 24 10 25 11 26 12 28 13 29 14 30 60 31 15 32 59 33 16 34
REMARK SMILES IDX 17 35 18 36 53 37 19 38 58 39 52 40 54 41 20 42 57 43 51 44
REMARK SMILES IDX 50 45 21 47 43 48 28 49 42 50 29 51 32 52 41 53 55 54 30 55
REMARK SMILES IDX 31 56 40 58 56 59 33 60 22 61 23 62 27 63 24 64 26 65 25 66
REMARK SMILES IDX 44 67 45 68 49 69 46 70 48 71 47 72 34 73 35 74 39 75 36 76
REMARK SMILES IDX 38 77 37 78
REMARK H PARENT 5 6 10 27 54 46 32 57
REMARK Flexibility Score: inf
ROOT
ATOM      1  C   UNL A   1      36.568  19.203  25.041  1.00  0.00     0.023 C 
ENDROOT
BRANCH   1   2
ATOM      2  C   UNL A   1      35.325  20.031  24.710  1.00  0.00     0.116 C 
BRANCH   2   3
ATOM      3  N   UNL A   1      34.914  20.816  25.854  1.00  0.00    -0.356 N 
ATOM      4  C   UNL A   1      35.180  22.117  26.163  1.00  0.00     0.227 C 
ATOM      5  O   UNL A   1      34.842  22.495  27.287  1.00  0.00    -0.274 OA
ATOM      6  H   UNL A   1      34.359  20.337  26.510  1.00  0.00     0.163 HD
BRANCH   4   7
ATOM      7  C   UNL A   1      35.842  23.040  25.127  1.00  0.00     0.108 C 
ATOM      8  C   UNL A   1      37.153  23.650  25.632  1.00  0.00     0.023 C 
BRANCH   7   9
ATOM      9  C   UNL A   1      34.889  24.136  24.676  1.00  0.00     0.000 A 
ATOM     10  C   UNL A   1      34.553  25.208  25.513  1.00  0.00     0.011 A 
ATOM     11  C   UNL A   1      34.280  24.071  23.421  1.00  0.00     0.130 A 
ATOM     12  C   UNL A   1      33.650  26.182  25.085  1.00  0.00     0.047 A 
ATOM     13  C   UNL A   1      33.378  25.045  22.989  1.00  0.00     0.086 A 
ATOM     14  F   UNL A   1      34.560  23.052  22.594  1.00  0.00    -0.207 F 
ATOM     15  C   UNL A   1      33.065  26.115  23.818  1.00  0.00     0.123 A 
BRANCH  15  16
ATOM     16  O   UNL A   1      32.211  27.141  23.554  1.00  0.00    -0.483 OA
BRANCH  16  17
ATOM     17  C   UNL A   1      30.913  26.920  23.061  1.00  0.00     0.239 C 
ATOM     18  C   UNL A   1      30.052  26.006  23.944  1.00  0.00     0.054 C 
ATOM     19  C   UNL A   1      29.966  28.046  22.662  1.00  0.00     0.173 C 
ATOM     20  C   UNL A   1      28.720  26.721  24.163  1.00  0.00     0.012 C 
ATOM     21  C   UNL A   1      28.546  27.718  23.028  1.00  0.00     0.080 C 
ATOM     22  O   UNL A   1      30.293  29.066  22.070  1.00  0.00    -0.296 OA
ENDBRANCH  16  17
ENDBRANCH  15  16
ENDBRANCH   7   9
ENDBRANCH   4   7
ENDBRANCH   2   3
ENDBRANCH   1   2
BRANCH   1  23
ATOM     23  C   UNL A   1      37.890  19.829  24.587  1.00  0.00     0.023 C 
BRANCH  23  24
ATOM     24  C   UNL A   1      38.868  20.154  25.708  1.00  0.00     0.116 C 
BRANCH  24  25
ATOM     25  N   UNL A   1      40.024  19.271  25.719  1.00  0.00    -0.352 N 
ATOM     26  C   UNL A   1      41.325  19.551  26.049  1.00  0.00     0.251 C 
ATOM     27  H   UNL A   1      39.847  18.340  25.449  1.00  0.00     0.163 HD
ATOM     28  O   UNL A   1      42.201  18.709  25.859  1.00  0.00    -0.269 OA
BRANCH  26  29
ATOM     29  C   UNL A   1      41.680  20.873  26.605  1.00  0.00     0.039 A 
ATOM     30  C   UNL A   1      42.137  21.867  25.736  1.00  0.00     0.014 A 
ATOM     31  C   UNL A   1      41.577  21.133  27.975  1.00  0.00     0.014 A 
ATOM     32  C   UNL A   1      42.445  23.133  26.233  1.00  0.00     0.010 A 
ATOM     33  C   UNL A   1      41.805  22.418  28.456  1.00  0.00     0.010 A 
ATOM     34  C   UNL A   1      42.256  23.428  27.594  1.00  0.00    -0.014 A 
BRANCH  34  35
ATOM     35  C   UNL A   1      42.548  24.781  28.130  1.00  0.00     0.031 A 
ATOM     36  C   UNL A   1      43.951  25.152  28.528  1.00  0.00     0.074 A 
ATOM     37  C   UNL A   1      41.545  25.664  28.298  1.00  0.00     0.049 A 
ATOM     38  N   UNL A   1      44.400  26.279  29.020  1.00  0.00    -0.248 NA
ATOM     39  C   UNL A   1      44.982  24.112  28.378  1.00  0.00     0.031 C 
ATOM     40  C   UNL A   1      40.135  25.416  27.987  1.00  0.00     0.029 A 
ATOM     41  N   UNL A   1      41.560  26.953  28.768  1.00  0.00    -0.354 N 
ATOM     42  C   UNL A   1      45.755  26.077  29.254  1.00  0.00     0.074 A 
ATOM     43  C   UNL A   1      46.043  24.704  28.904  1.00  0.00     0.031 C 
ATOM     44  C   UNL A   1      39.429  26.531  28.235  1.00  0.00     0.029 A 
ATOM     45  C   UNL A   1      40.325  27.556  28.759  1.00  0.00     0.049 A 
ATOM     46  H   UNL A   1      42.377  27.402  29.083  1.00  0.00     0.167 HD
ATOM     47  C   UNL A   1      46.682  26.958  29.698  1.00  0.00     0.031 A 
ATOM     48  C   UNL A   1      39.959  28.798  29.126  1.00  0.00     0.031 A 
ATOM     49  C   UNL A   1      46.397  28.326  30.040  1.00  0.00     0.049 A 
ATOM     50  C   UNL A   1      41.003  29.752  29.636  1.00  0.00     0.074 A 
ATOM     51  C   UNL A   1      47.276  29.316  30.442  1.00  0.00     0.029 A 
ATOM     52  N   UNL A   1      45.132  28.895  30.025  1.00  0.00    -0.354 N 
ATOM     53  N   UNL A   1      42.294  29.570  29.773  1.00  0.00    -0.248 NA
ATOM     54  C   UNL A   1      40.537  31.090  30.024  1.00  0.00     0.031 C 
ATOM     55  C   UNL A   1      46.536  30.468  30.728  1.00  0.00     0.029 A 
ATOM     56  C   UNL A   1      45.204  30.215  30.440  1.00  0.00     0.049 A 
ATOM     57  H   UNL A   1      44.307  28.430  29.761  1.00  0.00     0.167 HD
ATOM     58  C   UNL A   1      42.800  30.780  30.232  1.00  0.00     0.074 A 
ATOM     59  C   UNL A   1      41.678  31.691  30.333  1.00  0.00     0.031 C 
ATOM     60  C   UNL A   1      44.079  31.109  30.538  1.00  0.00     0.031 A 
BRANCH  47  61
ATOM     61  C   UNL A   1      48.092  26.456  29.856  1.00  0.00    -0.014 A 
ATOM     62  C   UNL A   1      48.519  25.831  31.039  1.00  0.00     0.009 A 
ATOM     63  C   UNL A   1      49.003  26.593  28.796  1.00  0.00     0.009 A 
ATOM     64  C   UNL A   1      49.840  25.397  31.175  1.00  0.00     0.001 A 
ATOM     65  C   UNL A   1      50.313  26.126  28.922  1.00  0.00     0.001 A 
ATOM     66  C   UNL A   1      50.734  25.540  30.115  1.00  0.00     0.000 A 
ENDBRANCH  47  61
BRANCH  48  67
ATOM     67  C   UNL A   1      38.541  29.227  28.997  1.00  0.00    -0.014 A 
ATOM     68  C   UNL A   1      38.072  29.770  27.790  1.00  0.00     0.009 A 
ATOM     69  C   UNL A   1      37.653  29.109  30.077  1.00  0.00     0.009 A 
ATOM     70  C   UNL A   1      36.752  30.214  27.678  1.00  0.00     0.001 A 
ATOM     71  C   UNL A   1      36.325  29.525  29.952  1.00  0.00     0.001 A 
ATOM     72  C   UNL A   1      35.879  30.087  28.756  1.00  0.00     0.000 A 
ENDBRANCH  48  67
BRANCH  60  73
ATOM     73  C   UNL A   1      44.339  32.527  30.967  1.00  0.00    -0.014 A 
ATOM     74  C   UNL A   1      44.319  32.901  32.319  1.00  0.00     0.009 A 
ATOM     75  C   UNL A   1      44.635  33.499  29.998  1.00  0.00     0.009 A 
ATOM     76  C   UNL A   1      44.549  34.228  32.688  1.00  0.00     0.001 A 
ATOM     77  C   UNL A   1      44.899  34.817  30.372  1.00  0.00     0.001 A 
ATOM     78  C   UNL A   1      44.843  35.183  31.716  1.00  0.00     0.000 A 
ENDBRANCH  60  73
ENDBRANCH  34  35
ENDBRANCH  26  29
ENDBRANCH  24  25
ENDBRANCH  23  24
ENDBRANCH   1  23
TORSDOF 14
ENDMDL
