MODEL 1
REMARK VINA RESULT:     -11.3      0.000      0.000
REMARK SMILES O=C(NCCCCNC(=O)[C@]1(NC(=O)c2nc(C3CC3)n[nH]2)CCSC1)c1ccc(-c2c3nc(c(-c4ccccc4)c4ccc([nH]4)c(-c4ccccc4)c4nc(c(-c5ccccc5)c5ccc2[nH]5)C=C4)C=C3)cc1
REMARK SMILES IDX 6 1 5 2 4 3 3 4 1 5 2 6 27 8 28 9 74 10 29 11 73 12 30 13
REMARK SMILES IDX 31 14 32 15 67 16 33 17 72 18 66 19 68 20 34 21 71 22 65 23
REMARK SMILES IDX 64 24 35 26 57 27 42 28 56 29 43 30 46 31 55 32 69 33 44 34
REMARK SMILES IDX 45 35 54 37 70 38 47 39 36 40 37 41 41 42 38 43 40 44 39 45
REMARK SMILES IDX 58 46 59 47 63 48 60 49 62 50 61 51 48 52 49 53 53 54 50 55
REMARK SMILES IDX 52 56 51 57 7 58 8 59 9 60 10 62 11 63 23 64 26 65 24 66
REMARK SMILES IDX 25 67 12 68 13 69 14 71 15 72 16 73 22 74 17 75 21 76 18 78
REMARK SMILES IDX 19 79 20 80
REMARK H PARENT 3 7 68 25 46 36 8 61 12 70 22 77
REMARK Flexibility Score: inf
ROOT
ATOM      1  C   UNL A   1      36.791  20.095  25.001  1.00  0.00     0.023 C 
ENDROOT
BRANCH   1   2
ATOM      2  C   UNL A   1      38.175  19.488  24.762  1.00  0.00     0.023 C 
BRANCH   2   3
ATOM      3  C   UNL A   1      39.218  19.938  25.771  1.00  0.00     0.116 C 
BRANCH   3   4
ATOM      4  N   UNL A   1      40.342  19.019  25.842  1.00  0.00    -0.352 N 
ATOM      5  O   UNL A   1      42.533  18.483  25.993  1.00  0.00    -0.269 OA
ATOM      6  C   UNL A   1      41.655  19.314  26.127  1.00  0.00     0.251 C 
ATOM      7  H   UNL A   1      40.139  18.072  25.667  1.00  0.00     0.163 HD
BRANCH   6   8
ATOM      8  C   UNL A   1      41.969  20.682  26.584  1.00  0.00     0.039 A 
ATOM      9  C   UNL A   1      41.826  21.010  27.934  1.00  0.00     0.014 A 
ATOM     10  C   UNL A   1      42.363  21.640  25.650  1.00  0.00     0.014 A 
ATOM     11  C   UNL A   1      41.970  22.328  28.336  1.00  0.00     0.010 A 
ATOM     12  C   UNL A   1      42.594  22.950  26.072  1.00  0.00     0.010 A 
ATOM     13  C   UNL A   1      42.389  23.304  27.416  1.00  0.00    -0.014 A 
BRANCH  13  14
ATOM     14  C   UNL A   1      42.729  24.654  27.916  1.00  0.00     0.031 A 
ATOM     15  C   UNL A   1      41.671  25.684  28.180  1.00  0.00     0.074 A 
ATOM     16  C   UNL A   1      44.028  24.927  28.143  1.00  0.00     0.049 A 
ATOM     17  N   UNL A   1      41.816  26.908  28.623  1.00  0.00    -0.248 NA
ATOM     18  C   UNL A   1      40.276  25.303  27.910  1.00  0.00     0.031 C 
ATOM     19  C   UNL A   1      45.139  23.996  27.910  1.00  0.00     0.029 A 
ATOM     20  N   UNL A   1      44.637  26.049  28.637  1.00  0.00    -0.354 N 
ATOM     21  C   UNL A   1      40.540  27.451  28.664  1.00  0.00     0.074 A 
ATOM     22  C   UNL A   1      39.630  26.429  28.189  1.00  0.00     0.031 C 
ATOM     23  C   UNL A   1      46.283  24.567  28.306  1.00  0.00     0.029 A 
ATOM     24  C   UNL A   1      46.001  25.925  28.748  1.00  0.00     0.049 A 
ATOM     25  H   UNL A   1      44.146  26.865  28.887  1.00  0.00     0.167 HD
ATOM     26  C   UNL A   1      40.168  28.691  29.060  1.00  0.00     0.031 A 
ATOM     27  C   UNL A   1      46.929  26.817  29.136  1.00  0.00     0.031 A 
ATOM     28  C   UNL A   1      41.083  29.698  29.534  1.00  0.00     0.049 A 
ATOM     29  C   UNL A   1      46.483  28.190  29.539  1.00  0.00     0.074 A 
ATOM     30  C   UNL A   1      40.797  30.971  29.998  1.00  0.00     0.029 A 
ATOM     31  N   UNL A   1      42.460  29.548  29.598  1.00  0.00    -0.354 N 
ATOM     32  N   UNL A   1      45.267  28.673  29.611  1.00  0.00    -0.248 NA
ATOM     33  C   UNL A   1      47.539  29.141  29.907  1.00  0.00     0.031 C 
ATOM     34  C   UNL A   1      42.006  31.610  30.291  1.00  0.00     0.029 A 
ATOM     35  C   UNL A   1      43.040  30.717  30.063  1.00  0.00     0.049 A 
ATOM     36  H   UNL A   1      42.952  28.732  29.351  1.00  0.00     0.167 HD
ATOM     37  C   UNL A   1      45.409  29.982  30.044  1.00  0.00     0.074 A 
ATOM     38  C   UNL A   1      46.827  30.206  30.246  1.00  0.00     0.031 C 
ATOM     39  C   UNL A   1      44.453  30.920  30.249  1.00  0.00     0.031 A 
BRANCH  26  40
ATOM     40  C   UNL A   1      38.711  29.054  28.975  1.00  0.00    -0.014 A 
ATOM     41  C   UNL A   1      37.857  28.911  30.079  1.00  0.00     0.009 A 
ATOM     42  C   UNL A   1      38.208  29.628  27.797  1.00  0.00     0.009 A 
ATOM     43  C   UNL A   1      36.525  29.325  29.999  1.00  0.00     0.001 A 
ATOM     44  C   UNL A   1      36.882  30.061  27.727  1.00  0.00     0.001 A 
ATOM     45  C   UNL A   1      36.041  29.906  28.827  1.00  0.00     0.000 A 
ENDBRANCH  26  40
BRANCH  27  46
ATOM     46  C   UNL A   1      48.367  26.447  29.122  1.00  0.00    -0.014 A 
ATOM     47  C   UNL A   1      48.987  25.934  30.269  1.00  0.00     0.009 A 
ATOM     48  C   UNL A   1      49.127  26.607  27.951  1.00  0.00     0.009 A 
ATOM     49  C   UNL A   1      50.347  25.615  30.253  1.00  0.00     0.001 A 
ATOM     50  C   UNL A   1      50.477  26.256  27.928  1.00  0.00     0.001 A 
ATOM     51  C   UNL A   1      51.089  25.772  29.081  1.00  0.00     0.000 A 
ENDBRANCH  27  46
BRANCH  39  52
ATOM     52  C   UNL A   1      44.918  32.261  30.735  1.00  0.00    -0.014 A 
ATOM     53  C   UNL A   1      45.232  33.290  29.833  1.00  0.00     0.009 A 
ATOM     54  C   UNL A   1      45.028  32.502  32.113  1.00  0.00     0.009 A 
ATOM     55  C   UNL A   1      45.686  34.523  30.302  1.00  0.00     0.001 A 
ATOM     56  C   UNL A   1      45.452  33.746  32.579  1.00  0.00     0.001 A 
ATOM     57  C   UNL A   1      45.792  34.751  31.675  1.00  0.00     0.000 A 
ENDBRANCH  39  52
ENDBRANCH  13  14
ENDBRANCH   6   8
ENDBRANCH   3   4
ENDBRANCH   2   3
ENDBRANCH   1   2
BRANCH   1  58
ATOM     58  C   UNL A   1      36.843  21.530  25.519  1.00  0.00     0.116 C 
BRANCH  58  59
ATOM     59  N   UNL A   1      36.833  22.430  24.389  1.00  0.00    -0.354 N 
ATOM     60  C   UNL A   1      35.774  22.904  23.673  1.00  0.00     0.246 C 
ATOM     61  H   UNL A   1      37.717  22.747  24.095  1.00  0.00     0.163 HD
ATOM     62  O   UNL A   1      35.980  23.110  22.475  1.00  0.00    -0.272 OA
BRANCH  60  63
ATOM     63  C   UNL A   1      34.356  23.007  24.305  1.00  0.00     0.129 C 
ATOM     64  C   UNL A   1      33.487  23.886  23.367  1.00  0.00     0.050 C 
ATOM     65  C   UNL A   1      34.389  23.773  25.641  1.00  0.00     0.108 C 
ATOM     66  C   UNL A   1      33.972  25.320  23.487  1.00  0.00     0.072 C 
ATOM     67  S   UNL A   1      34.165  25.550  25.268  1.00  0.00    -0.159 SA
BRANCH  63  68
ATOM     68  N   UNL A   1      33.673  21.695  24.475  1.00  0.00    -0.334 N 
ATOM     69  C   UNL A   1      32.387  21.371  24.851  1.00  0.00     0.289 C 
ATOM     70  H   UNL A   1      34.244  20.916  24.283  1.00  0.00     0.165 HD
ATOM     71  O   UNL A   1      32.063  20.187  24.737  1.00  0.00    -0.266 OA
BRANCH  69  72
ATOM     72  C   UNL A   1      31.545  22.319  25.534  1.00  0.00     0.214 A 
ATOM     73  N   UNL A   1      30.827  23.310  25.041  1.00  0.00    -0.207 NA
ATOM     74  N   UNL A   1      31.482  22.373  26.896  1.00  0.00    -0.255 N 
ATOM     75  C   UNL A   1      30.509  24.049  26.160  1.00  0.00     0.154 A 
ATOM     76  N   UNL A   1      30.933  23.522  27.316  1.00  0.00    -0.158 NA
ATOM     77  H   UNL A   1      31.799  21.659  27.495  1.00  0.00     0.192 HD
BRANCH  75  78
ATOM     78  C   UNL A   1      29.843  25.416  26.129  1.00  0.00     0.060 C 
ATOM     79  C   UNL A   1      30.707  26.653  25.986  1.00  0.00     0.012 C 
ATOM     80  C   UNL A   1      29.836  26.227  24.854  1.00  0.00     0.012 C 
ENDBRANCH  75  78
ENDBRANCH  69  72
ENDBRANCH  63  68
ENDBRANCH  60  63
ENDBRANCH  58  59
ENDBRANCH   1  58
TORSDOF 14
ENDMDL
MODEL 2
REMARK VINA RESULT:     -11.2      0.423      5.958
REMARK SMILES O=C(NCCCCNC(=O)[C@]1(NC(=O)c2nc(C3CC3)n[nH]2)CCSC1)c1ccc(-c2c3nc(c(-c4ccccc4)c4ccc([nH]4)c(-c4ccccc4)c4nc(c(-c5ccccc5)c5ccc2[nH]5)C=C4)C=C3)cc1
REMARK SMILES IDX 6 1 5 2 4 3 3 4 1 5 2 6 27 8 28 9 74 10 29 11 73 12 30 13
REMARK SMILES IDX 31 14 32 15 67 16 33 17 72 18 66 19 68 20 34 21 71 22 65 23
REMARK SMILES IDX 64 24 35 26 57 27 42 28 56 29 43 30 46 31 55 32 69 33 44 34
REMARK SMILES IDX 45 35 54 37 70 38 47 39 36 40 37 41 41 42 38 43 40 44 39 45
REMARK SMILES IDX 58 46 59 47 63 48 60 49 62 50 61 51 48 52 49 53 53 54 50 55
REMARK SMILES IDX 52 56 51 57 7 58 8 59 9 60 10 62 11 63 23 64 26 65 24 66
REMARK SMILES IDX 25 67 12 68 13 69 14 71 15 72 16 73 22 74 17 75 21 76 18 78
REMARK SMILES IDX 19 79 20 80
REMARK H PARENT 3 7 68 25 46 36 8 61 12 70 22 77
REMARK Flexibility Score: inf
ROOT
ATOM      1  C   UNL A   1      36.702  20.310  25.170  1.00  0.00     0.023 C 
ENDROOT
BRANCH   1   2
ATOM      2  C   UNL A   1      38.026  19.585  24.921  1.00  0.00     0.023 C 
BRANCH   2   3
ATOM      3  C   UNL A   1      39.185  20.138  25.734  1.00  0.00     0.116 C 
BRANCH   3   4
ATOM      4  N   UNL A   1      40.307  19.215  25.786  1.00  0.00    -0.352 N 
ATOM      5  O   UNL A   1      42.495  18.671  25.940  1.00  0.00    -0.269 OA
ATOM      6  C   UNL A   1      41.617  19.498  26.093  1.00  0.00     0.251 C 
ATOM      7  H   UNL A   1      40.104  18.275  25.577  1.00  0.00     0.163 HD
BRANCH   6   8
ATOM      8  C   UNL A   1      41.928  20.850  26.598  1.00  0.00     0.039 A 
ATOM      9  C   UNL A   1      41.809  21.123  27.963  1.00  0.00     0.014 A 
ATOM     10  C   UNL A   1      42.296  21.849  25.695  1.00  0.00     0.014 A 
ATOM     11  C   UNL A   1      41.950  22.425  28.414  1.00  0.00     0.010 A 
ATOM     12  C   UNL A   1      42.524  23.142  26.165  1.00  0.00     0.010 A 
ATOM     13  C   UNL A   1      42.343  23.441  27.525  1.00  0.00    -0.014 A 
BRANCH  13  14
ATOM     14  C   UNL A   1      42.681  24.773  28.073  1.00  0.00     0.031 A 
ATOM     15  C   UNL A   1      44.087  25.135  28.448  1.00  0.00     0.074 A 
ATOM     16  C   UNL A   1      41.680  25.664  28.210  1.00  0.00     0.049 A 
ATOM     17  N   UNL A   1      44.536  26.264  28.937  1.00  0.00    -0.248 NA
ATOM     18  C   UNL A   1      45.122  24.106  28.262  1.00  0.00     0.031 C 
ATOM     19  C   UNL A   1      40.273  25.407  27.882  1.00  0.00     0.029 A 
ATOM     20  N   UNL A   1      41.687  26.963  28.640  1.00  0.00    -0.354 N 
ATOM     21  C   UNL A   1      45.897  26.077  29.137  1.00  0.00     0.074 A 
ATOM     22  C   UNL A   1      46.202  24.721  28.730  1.00  0.00     0.031 C 
ATOM     23  C   UNL A   1      39.564  26.528  28.075  1.00  0.00     0.029 A 
ATOM     24  C   UNL A   1      40.447  27.554  28.609  1.00  0.00     0.049 A 
ATOM     25  H   UNL A   1      42.501  27.429  28.940  1.00  0.00     0.167 HD
ATOM     26  C   UNL A   1      46.803  26.959  29.620  1.00  0.00     0.031 A 
ATOM     27  C   UNL A   1      40.056  28.780  28.997  1.00  0.00     0.031 A 
ATOM     28  C   UNL A   1      46.487  28.308  30.018  1.00  0.00     0.049 A 
ATOM     29  C   UNL A   1      41.081  29.720  29.555  1.00  0.00     0.074 A 
ATOM     30  C   UNL A   1      47.345  29.292  30.480  1.00  0.00     0.029 A 
ATOM     31  N   UNL A   1      45.215  28.858  30.007  1.00  0.00    -0.354 N 
ATOM     32  N   UNL A   1      42.371  29.540  29.699  1.00  0.00    -0.248 NA
ATOM     33  C   UNL A   1      40.594  31.028  30.009  1.00  0.00     0.031 C 
ATOM     34  C   UNL A   1      46.583  30.420  30.801  1.00  0.00     0.029 A 
ATOM     35  C   UNL A   1      45.259  30.158  30.486  1.00  0.00     0.049 A 
ATOM     36  H   UNL A   1      44.401  28.395  29.704  1.00  0.00     0.167 HD
ATOM     37  C   UNL A   1      42.854  30.717  30.250  1.00  0.00     0.074 A 
ATOM     38  C   UNL A   1      41.722  31.612  30.386  1.00  0.00     0.031 C 
ATOM     39  C   UNL A   1      44.120  31.027  30.619  1.00  0.00     0.031 A 
BRANCH  26  40
ATOM     40  C   UNL A   1      48.225  26.498  29.778  1.00  0.00    -0.014 A 
ATOM     41  C   UNL A   1      48.655  25.839  30.940  1.00  0.00     0.009 A 
ATOM     42  C   UNL A   1      49.124  26.649  28.710  1.00  0.00     0.009 A 
ATOM     43  C   UNL A   1      49.962  25.353  31.033  1.00  0.00     0.001 A 
ATOM     44  C   UNL A   1      50.423  26.143  28.798  1.00  0.00     0.001 A 
ATOM     45  C   UNL A   1      50.842  25.498  29.960  1.00  0.00     0.000 A 
ENDBRANCH  26  40
BRANCH  27  46
ATOM     46  C   UNL A   1      38.625  29.167  28.906  1.00  0.00    -0.014 A 
ATOM     47  C   UNL A   1      37.771  29.026  30.008  1.00  0.00     0.009 A 
ATOM     48  C   UNL A   1      38.107  29.682  27.705  1.00  0.00     0.009 A 
ATOM     49  C   UNL A   1      36.420  29.366  29.903  1.00  0.00     0.001 A 
ATOM     50  C   UNL A   1      36.765  30.054  27.614  1.00  0.00     0.001 A 
ATOM     51  C   UNL A   1      35.920  29.884  28.708  1.00  0.00     0.000 A 
ENDBRANCH  27  46
BRANCH  39  52
ATOM     52  C   UNL A   1      44.339  32.400  31.183  1.00  0.00    -0.014 A 
ATOM     53  C   UNL A   1      44.284  32.632  32.567  1.00  0.00     0.009 A 
ATOM     54  C   UNL A   1      44.620  33.471  30.321  1.00  0.00     0.009 A 
ATOM     55  C   UNL A   1      44.467  33.920  33.073  1.00  0.00     0.001 A 
ATOM     56  C   UNL A   1      44.832  34.751  30.832  1.00  0.00     0.001 A 
ATOM     57  C   UNL A   1      44.745  34.977  32.205  1.00  0.00     0.000 A 
ENDBRANCH  39  52
ENDBRANCH  13  14
ENDBRANCH   6   8
ENDBRANCH   3   4
ENDBRANCH   2   3
ENDBRANCH   1   2
BRANCH   1  58
ATOM     58  C   UNL A   1      36.882  21.777  25.557  1.00  0.00     0.116 C 
BRANCH  58  59
ATOM     59  N   UNL A   1      36.817  22.582  24.360  1.00  0.00    -0.354 N 
ATOM     60  C   UNL A   1      35.729  22.950  23.625  1.00  0.00     0.246 C 
ATOM     61  H   UNL A   1      37.682  22.913  24.027  1.00  0.00     0.163 HD
ATOM     62  O   UNL A   1      35.911  23.070  22.412  1.00  0.00    -0.272 OA
BRANCH  60  63
ATOM     63  C   UNL A   1      34.316  23.042  24.270  1.00  0.00     0.129 C 
ATOM     64  C   UNL A   1      33.419  23.873  23.317  1.00  0.00     0.050 C 
ATOM     65  C   UNL A   1      34.347  23.847  25.583  1.00  0.00     0.108 C 
ATOM     66  C   UNL A   1      33.873  25.320  23.390  1.00  0.00     0.072 C 
ATOM     67  S   UNL A   1      34.079  25.607  25.160  1.00  0.00    -0.159 SA
BRANCH  63  68
ATOM     68  N   UNL A   1      33.664  21.721  24.486  1.00  0.00    -0.334 N 
ATOM     69  C   UNL A   1      32.390  21.380  24.886  1.00  0.00     0.289 C 
ATOM     70  H   UNL A   1      34.250  20.949  24.310  1.00  0.00     0.165 HD
ATOM     71  O   UNL A   1      32.091  20.187  24.810  1.00  0.00    -0.266 OA
BRANCH  69  72
ATOM     72  C   UNL A   1      31.534  22.329  25.550  1.00  0.00     0.214 A 
ATOM     73  N   UNL A   1      30.816  23.312  25.040  1.00  0.00    -0.207 NA
ATOM     74  N   UNL A   1      31.455  22.395  26.911  1.00  0.00    -0.255 N 
ATOM     75  C   UNL A   1      30.481  24.059  26.149  1.00  0.00     0.154 A 
ATOM     76  N   UNL A   1      30.895  23.545  27.314  1.00  0.00    -0.158 NA
ATOM     77  H   UNL A   1      31.769  21.688  27.520  1.00  0.00     0.192 HD
BRANCH  75  78
ATOM     78  C   UNL A   1      29.808  25.421  26.098  1.00  0.00     0.060 C 
ATOM     79  C   UNL A   1      30.655  26.652  25.850  1.00  0.00     0.012 C 
ATOM     80  C   UNL A   1      29.722  26.175  24.791  1.00  0.00     0.012 C 
ENDBRANCH  75  78
ENDBRANCH  69  72
ENDBRANCH  63  68
ENDBRANCH  60  63
ENDBRANCH  58  59
ENDBRANCH   1  58
TORSDOF 14
ENDMDL
MODEL 3
REMARK VINA RESULT:     -11.0      2.628      7.410
REMARK SMILES O=C(NCCCCNC(=O)[C@]1(NC(=O)c2nc(C3CC3)n[nH]2)CCSC1)c1ccc(-c2c3nc(c(-c4ccccc4)c4ccc([nH]4)c(-c4ccccc4)c4nc(c(-c5ccccc5)c5ccc2[nH]5)C=C4)C=C3)cc1
REMARK SMILES IDX 6 1 5 2 4 3 3 4 1 5 2 6 27 8 28 9 74 10 29 11 73 12 30 13
REMARK SMILES IDX 31 14 32 15 67 16 33 17 72 18 66 19 68 20 34 21 71 22 65 23
REMARK SMILES IDX 64 24 35 26 57 27 42 28 56 29 43 30 46 31 55 32 69 33 44 34
REMARK SMILES IDX 45 35 54 37 70 38 47 39 36 40 37 41 41 42 38 43 40 44 39 45
REMARK SMILES IDX 58 46 59 47 63 48 60 49 62 50 61 51 48 52 49 53 53 54 50 55
REMARK SMILES IDX 52 56 51 57 7 58 8 59 9 60 10 62 11 63 23 64 26 65 24 66
REMARK SMILES IDX 25 67 12 68 13 69 14 71 15 72 16 73 22 74 17 75 21 76 18 78
REMARK SMILES IDX 19 79 20 80
REMARK H PARENT 3 7 68 25 46 36 8 61 12 70 22 77
REMARK Flexibility Score: inf
ROOT
ATOM      1  C   UNL A   1      32.375  26.969  26.021  1.00  0.00     0.023 C 
ENDROOT
BRANCH   1   2
ATOM      2  C   UNL A   1      33.250  28.219  25.922  1.00  0.00     0.023 C 
BRANCH   2   3
ATOM      3  C   UNL A   1      33.937  28.586  27.226  1.00  0.00     0.116 C 
BRANCH   3   4
ATOM      4  N   UNL A   1      33.703  29.972  27.598  1.00  0.00    -0.352 N 
ATOM      5  O   UNL A   1      34.173  31.903  28.674  1.00  0.00    -0.269 OA
ATOM      6  C   UNL A   1      34.549  30.817  28.276  1.00  0.00     0.251 C 
ATOM      7  H   UNL A   1      32.834  30.351  27.331  1.00  0.00     0.163 HD
BRANCH   6   8
ATOM      8  C   UNL A   1      35.929  30.355  28.525  1.00  0.00     0.039 A 
ATOM      9  C   UNL A   1      36.889  30.471  27.516  1.00  0.00     0.014 A 
ATOM     10  C   UNL A   1      36.243  29.768  29.750  1.00  0.00     0.014 A 
ATOM     11  C   UNL A   1      38.138  29.899  27.693  1.00  0.00     0.010 A 
ATOM     12  C   UNL A   1      37.530  29.270  29.959  1.00  0.00     0.010 A 
ATOM     13  C   UNL A   1      38.482  29.324  28.928  1.00  0.00    -0.014 A 
BRANCH  13  14
ATOM     14  C   UNL A   1      39.883  28.905  29.152  1.00  0.00     0.031 A 
ATOM     15  C   UNL A   1      40.882  29.816  29.801  1.00  0.00     0.074 A 
ATOM     16  C   UNL A   1      40.233  27.663  28.766  1.00  0.00     0.049 A 
ATOM     17  N   UNL A   1      42.144  29.587  30.067  1.00  0.00    -0.248 NA
ATOM     18  C   UNL A   1      40.417  31.154  30.199  1.00  0.00     0.031 C 
ATOM     19  C   UNL A   1      39.337  26.699  28.116  1.00  0.00     0.029 A 
ATOM     20  N   UNL A   1      41.419  26.989  28.877  1.00  0.00    -0.354 N 
ATOM     21  C   UNL A   1      42.630  30.754  30.639  1.00  0.00     0.074 A 
ATOM     22  C   UNL A   1      41.531  31.698  30.673  1.00  0.00     0.031 C 
ATOM     23  C   UNL A   1      39.991  25.544  27.932  1.00  0.00     0.029 A 
ATOM     24  C   UNL A   1      41.367  25.709  28.379  1.00  0.00     0.049 A 
ATOM     25  H   UNL A   1      42.229  27.381  29.274  1.00  0.00     0.167 HD
ATOM     26  C   UNL A   1      43.880  31.010  31.091  1.00  0.00     0.031 A 
ATOM     27  C   UNL A   1      42.329  24.777  28.267  1.00  0.00     0.031 A 
ATOM     28  C   UNL A   1      44.964  30.060  31.055  1.00  0.00     0.049 A 
ATOM     29  C   UNL A   1      43.709  25.106  28.750  1.00  0.00     0.074 A 
ATOM     30  C   UNL A   1      46.256  30.212  31.528  1.00  0.00     0.029 A 
ATOM     31  N   UNL A   1      44.882  28.788  30.512  1.00  0.00    -0.354 N 
ATOM     32  N   UNL A   1      44.140  26.201  29.327  1.00  0.00    -0.248 NA
ATOM     33  C   UNL A   1      44.734  24.073  28.560  1.00  0.00     0.031 C 
ATOM     34  C   UNL A   1      46.972  29.050  31.220  1.00  0.00     0.029 A 
ATOM     35  C   UNL A   1      46.111  28.155  30.607  1.00  0.00     0.049 A 
ATOM     36  H   UNL A   1      44.072  28.392  30.117  1.00  0.00     0.167 HD
ATOM     37  C   UNL A   1      45.486  25.985  29.581  1.00  0.00     0.074 A 
ATOM     38  C   UNL A   1      45.790  24.645  29.121  1.00  0.00     0.031 C 
ATOM     39  C   UNL A   1      46.392  26.824  30.137  1.00  0.00     0.031 A 
BRANCH  26  40
ATOM     40  C   UNL A   1      44.168  32.379  31.641  1.00  0.00    -0.014 A 
ATOM     41  C   UNL A   1      44.551  33.438  30.803  1.00  0.00     0.009 A 
ATOM     42  C   UNL A   1      43.965  32.633  33.007  1.00  0.00     0.009 A 
ATOM     43  C   UNL A   1      44.740  34.719  31.327  1.00  0.00     0.001 A 
ATOM     44  C   UNL A   1      44.133  33.920  33.523  1.00  0.00     0.001 A 
ATOM     45  C   UNL A   1      44.524  34.961  32.684  1.00  0.00     0.000 A 
ENDBRANCH  26  40
BRANCH  27  46
ATOM     46  C   UNL A   1      42.025  23.467  27.637  1.00  0.00    -0.014 A 
ATOM     47  C   UNL A   1      42.223  23.266  26.265  1.00  0.00     0.009 A 
ATOM     48  C   UNL A   1      41.532  22.406  28.416  1.00  0.00     0.009 A 
ATOM     49  C   UNL A   1      41.907  22.039  25.678  1.00  0.00     0.001 A 
ATOM     50  C   UNL A   1      41.250  21.170  27.833  1.00  0.00     0.001 A 
ATOM     51  C   UNL A   1      41.426  20.991  26.464  1.00  0.00     0.000 A 
ENDBRANCH  27  46
BRANCH  39  52
ATOM     52  C   UNL A   1      47.789  26.298  30.293  1.00  0.00    -0.014 A 
ATOM     53  C   UNL A   1      48.225  25.750  31.510  1.00  0.00     0.009 A 
ATOM     54  C   UNL A   1      48.674  26.338  29.205  1.00  0.00     0.009 A 
ATOM     55  C   UNL A   1      49.534  25.287  31.645  1.00  0.00     0.001 A 
ATOM     56  C   UNL A   1      49.973  25.846  29.335  1.00  0.00     0.001 A 
ATOM     57  C   UNL A   1      50.405  25.332  30.556  1.00  0.00     0.000 A 
ENDBRANCH  39  52
ENDBRANCH  13  14
ENDBRANCH   6   8
ENDBRANCH   3   4
ENDBRANCH   2   3
ENDBRANCH   1   2
BRANCH   1  58
ATOM     58  C   UNL A   1      32.894  25.801  25.185  1.00  0.00     0.116 C 
BRANCH  58  59
ATOM     59  N   UNL A   1      31.785  24.935  24.861  1.00  0.00    -0.354 N 
ATOM     60  C   UNL A   1      31.576  24.181  23.744  1.00  0.00     0.246 C 
ATOM     61  H   UNL A   1      31.078  24.882  25.543  1.00  0.00     0.163 HD
ATOM     62  O   UNL A   1      30.402  24.040  23.397  1.00  0.00    -0.272 OA
BRANCH  60  63
ATOM     63  C   UNL A   1      32.768  23.680  22.877  1.00  0.00     0.129 C 
ATOM     64  C   UNL A   1      32.701  22.131  22.840  1.00  0.00     0.050 C 
ATOM     65  C   UNL A   1      34.120  24.000  23.541  1.00  0.00     0.108 C 
ATOM     66  C   UNL A   1      33.093  21.612  24.212  1.00  0.00     0.072 C 
ATOM     67  S   UNL A   1      34.548  22.595  24.633  1.00  0.00    -0.159 SA
BRANCH  63  68
ATOM     68  N   UNL A   1      32.747  24.179  21.475  1.00  0.00    -0.334 N 
ATOM     69  C   UNL A   1      32.771  25.455  20.954  1.00  0.00     0.289 C 
ATOM     70  H   UNL A   1      32.709  23.468  20.794  1.00  0.00     0.165 HD
ATOM     71  O   UNL A   1      32.915  25.547  19.733  1.00  0.00    -0.266 OA
BRANCH  69  72
ATOM     72  C   UNL A   1      32.436  26.600  21.761  1.00  0.00     0.214 A 
ATOM     73  N   UNL A   1      31.260  26.990  22.216  1.00  0.00    -0.207 NA
ATOM     74  N   UNL A   1      33.361  27.554  22.073  1.00  0.00    -0.255 N 
ATOM     75  C   UNL A   1      31.501  28.283  22.628  1.00  0.00     0.154 A 
ATOM     76  N   UNL A   1      32.776  28.677  22.515  1.00  0.00    -0.158 NA
ATOM     77  H   UNL A   1      34.334  27.433  21.986  1.00  0.00     0.192 HD
BRANCH  75  78
ATOM     78  C   UNL A   1      30.423  29.262  23.065  1.00  0.00     0.060 C 
ATOM     79  C   UNL A   1      29.649  30.025  22.009  1.00  0.00     0.012 C 
ATOM     80  C   UNL A   1      28.968  28.958  22.794  1.00  0.00     0.012 C 
ENDBRANCH  75  78
ENDBRANCH  69  72
ENDBRANCH  63  68
ENDBRANCH  60  63
ENDBRANCH  58  59
ENDBRANCH   1  58
TORSDOF 14
ENDMDL
