MODEL 1
REMARK VINA RESULT:     -11.5      0.000      0.000
REMARK SMILES CSc1ccc([C@H](C)[N@H+]2CC[C@@H](C(=O)NCCCCNC(=O)c3ccc(-c4c5nc(c(-c6ccccc6)c6ccc([nH]6)c(-c6ccccc6)c6nc(c(-c7ccccc7)c7ccc4[nH]7)C=C6)C=C5)cc3)[C@H]2C)cc1
REMARK SMILES IDX 17 1 16 2 15 3 13 4 14 5 12 7 9 8 10 9 71 10 11 12 72 13
REMARK SMILES IDX 7 14 8 15 6 16 3 17 4 18 74 19 5 20 73 21 2 22 1 23 18 24
REMARK SMILES IDX 19 25 20 26 21 27 22 29 23 30 24 31 70 32 25 33 69 34 26 35
REMARK SMILES IDX 27 36 28 37 63 38 29 39 68 40 62 41 64 42 30 43 67 44 61 45
REMARK SMILES IDX 60 46 31 48 53 49 38 50 52 51 39 52 42 53 51 54 65 55 40 56
REMARK SMILES IDX 41 57 50 59 66 60 43 61 32 62 33 63 37 64 34 65 36 66 35 67
REMARK SMILES IDX 54 68 55 69 59 70 56 71 58 72 57 73 44 74 45 75 49 76 46 77
REMARK SMILES IDX 48 78 47 79
REMARK H PARENT 15 6 9 11 20 28 64 47 42 58
REMARK Flexibility Score: inf
ROOT
ATOM      1  C   UNL A   1      36.671  19.662  25.021  1.00  0.00     0.023 C 
ENDROOT
BRANCH   1   2
ATOM      2  C   UNL A   1      35.327  20.384  24.913  1.00  0.00     0.116 C 
BRANCH   2   3
ATOM      3  N   UNL A   1      34.218  19.476  25.095  1.00  0.00    -0.356 N 
ATOM      4  C   UNL A   1      32.885  19.716  25.207  1.00  0.00     0.229 C 
ATOM      5  O   UNL A   1      32.166  18.736  25.430  1.00  0.00    -0.275 OA
ATOM      6  H   UNL A   1      34.469  18.525  25.145  1.00  0.00     0.163 HD
BRANCH   4   7
ATOM      7  C   UNL A   1      32.253  21.097  25.052  1.00  0.00     0.142 C 
ATOM      8  N   UNL A   1      32.947  23.334  25.377  1.00  0.00    -0.326 N 
ATOM      9  C   UNL A   1      32.541  23.259  23.993  1.00  0.00     0.264 C 
ATOM     10  C   UNL A   1      32.490  22.175  26.131  1.00  0.00     0.194 C 
ATOM     11  H   UNL A   1      32.797  24.126  26.001  1.00  0.00     0.348 HD
ATOM     12  C   UNL A   1      32.525  21.767  23.702  1.00  0.00     0.081 C 
ATOM     13  C   UNL A   1      33.277  21.770  27.369  1.00  0.00     0.076 C 
BRANCH   8  14
ATOM     14  C   UNL A   1      33.852  24.363  25.858  1.00  0.00     0.212 C 
ATOM     15  C   UNL A   1      35.233  24.226  25.199  1.00  0.00     0.081 C 
BRANCH  14  16
ATOM     16  C   UNL A   1      33.272  25.775  25.719  1.00  0.00     0.009 A 
ATOM     17  C   UNL A   1      32.214  28.408  25.596  1.00  0.00     0.007 A 
ATOM     18  C   UNL A   1      31.730  27.488  26.528  1.00  0.00     0.015 A 
ATOM     19  C   UNL A   1      33.223  27.999  24.720  1.00  0.00     0.015 A 
ATOM     20  C   UNL A   1      32.249  26.186  26.587  1.00  0.00     0.011 A 
ATOM     21  C   UNL A   1      33.737  26.701  24.773  1.00  0.00     0.011 A 
BRANCH  17  22
ATOM     22  S   UNL A   1      31.674  30.107  25.471  1.00  0.00    -0.130 SA
ATOM     23  C   UNL A   1      32.370  30.853  26.965  1.00  0.00     0.091 C 
ENDBRANCH  17  22
ENDBRANCH  14  16
ENDBRANCH   8  14
ENDBRANCH   4   7
ENDBRANCH   2   3
ENDBRANCH   1   2
BRANCH   1  24
ATOM     24  C   UNL A   1      37.889  20.503  24.668  1.00  0.00     0.023 C 
BRANCH  24  25
ATOM     25  C   UNL A   1      38.927  20.619  25.773  1.00  0.00     0.116 C 
BRANCH  25  26
ATOM     26  N   UNL A   1      39.908  19.540  25.771  1.00  0.00    -0.352 N 
ATOM     27  C   UNL A   1      41.239  19.583  26.118  1.00  0.00     0.251 C 
ATOM     28  H   UNL A   1      39.571  18.661  25.484  1.00  0.00     0.163 HD
ATOM     29  O   UNL A   1      41.958  18.603  25.974  1.00  0.00    -0.269 OA
BRANCH  27  30
ATOM     30  C   UNL A   1      41.799  20.851  26.627  1.00  0.00     0.039 A 
ATOM     31  C   UNL A   1      42.283  21.792  25.718  1.00  0.00     0.014 A 
ATOM     32  C   UNL A   1      41.757  21.136  27.994  1.00  0.00     0.014 A 
ATOM     33  C   UNL A   1      42.636  23.064  26.171  1.00  0.00     0.010 A 
ATOM     34  C   UNL A   1      42.017  22.428  28.428  1.00  0.00     0.010 A 
ATOM     35  C   UNL A   1      42.455  23.406  27.522  1.00  0.00    -0.014 A 
BRANCH  35  36
ATOM     36  C   UNL A   1      42.719  24.778  28.019  1.00  0.00     0.031 A 
ATOM     37  C   UNL A   1      44.113  25.169  28.424  1.00  0.00     0.074 A 
ATOM     38  C   UNL A   1      41.698  25.642  28.187  1.00  0.00     0.049 A 
ATOM     39  N   UNL A   1      44.533  26.277  28.978  1.00  0.00    -0.248 NA
ATOM     40  C   UNL A   1      45.170  24.165  28.210  1.00  0.00     0.031 C 
ATOM     41  C   UNL A   1      40.291  25.371  27.879  1.00  0.00     0.029 A 
ATOM     42  N   UNL A   1      41.689  26.927  28.668  1.00  0.00    -0.354 N 
ATOM     43  C   UNL A   1      45.890  26.092  29.204  1.00  0.00     0.074 A 
ATOM     44  C   UNL A   1      46.214  24.749  28.778  1.00  0.00     0.031 C 
ATOM     45  C   UNL A   1      39.564  26.468  28.144  1.00  0.00     0.029 A 
ATOM     46  C   UNL A   1      40.442  27.503  28.678  1.00  0.00     0.049 A 
ATOM     47  H   UNL A   1      42.500  27.392  28.978  1.00  0.00     0.167 HD
ATOM     48  C   UNL A   1      46.795  26.968  29.698  1.00  0.00     0.031 A 
ATOM     49  C   UNL A   1      40.051  28.730  29.073  1.00  0.00     0.031 A 
ATOM     50  C   UNL A   1      46.482  28.314  30.093  1.00  0.00     0.049 A 
ATOM     51  C   UNL A   1      41.076  29.689  29.608  1.00  0.00     0.074 A 
ATOM     52  C   UNL A   1      47.338  29.300  30.552  1.00  0.00     0.029 A 
ATOM     53  N   UNL A   1      45.210  28.866  30.066  1.00  0.00    -0.354 N 
ATOM     54  N   UNL A   1      42.365  29.516  29.767  1.00  0.00    -0.248 NA
ATOM     55  C   UNL A   1      40.591  31.018  30.010  1.00  0.00     0.031 C 
ATOM     56  C   UNL A   1      46.577  30.440  30.834  1.00  0.00     0.029 A 
ATOM     57  C   UNL A   1      45.256  30.175  30.509  1.00  0.00     0.049 A 
ATOM     58  H   UNL A   1      44.396  28.395  29.774  1.00  0.00     0.167 HD
ATOM     59  C   UNL A   1      42.850  30.721  30.262  1.00  0.00     0.074 A 
ATOM     60  C   UNL A   1      41.718  31.618  30.364  1.00  0.00     0.031 C 
ATOM     61  C   UNL A   1      44.120  31.053  30.599  1.00  0.00     0.031 A 
BRANCH  48  62
ATOM     62  C   UNL A   1      48.212  26.490  29.831  1.00  0.00    -0.014 A 
ATOM     63  C   UNL A   1      48.653  25.847  31.000  1.00  0.00     0.009 A 
ATOM     64  C   UNL A   1      49.115  26.671  28.774  1.00  0.00     0.009 A 
ATOM     65  C   UNL A   1      49.980  25.434  31.122  1.00  0.00     0.001 A 
ATOM     66  C   UNL A   1      50.435  26.230  28.888  1.00  0.00     0.001 A 
ATOM     67  C   UNL A   1      50.869  25.622  30.064  1.00  0.00     0.000 A 
ENDBRANCH  48  62
BRANCH  49  68
ATOM     68  C   UNL A   1      38.627  29.135  28.949  1.00  0.00    -0.014 A 
ATOM     69  C   UNL A   1      38.150  29.667  27.741  1.00  0.00     0.009 A 
ATOM     70  C   UNL A   1      37.742  28.998  30.028  1.00  0.00     0.009 A 
ATOM     71  C   UNL A   1      36.819  30.079  27.625  1.00  0.00     0.001 A 
ATOM     72  C   UNL A   1      36.407  29.388  29.902  1.00  0.00     0.001 A 
ATOM     73  C   UNL A   1      35.949  29.935  28.704  1.00  0.00     0.000 A 
ENDBRANCH  49  68
BRANCH  61  74
ATOM     74  C   UNL A   1      44.356  32.456  31.075  1.00  0.00    -0.014 A 
ATOM     75  C   UNL A   1      44.528  33.512  30.169  1.00  0.00     0.009 A 
ATOM     76  C   UNL A   1      44.359  32.729  32.452  1.00  0.00     0.009 A 
ATOM     77  C   UNL A   1      44.726  34.814  30.633  1.00  0.00     0.001 A 
ATOM     78  C   UNL A   1      44.532  34.034  32.913  1.00  0.00     0.001 A 
ATOM     79  C   UNL A   1      44.723  35.074  32.004  1.00  0.00     0.000 A 
ENDBRANCH  61  74
ENDBRANCH  35  36
ENDBRANCH  27  30
ENDBRANCH  25  26
ENDBRANCH  24  25
ENDBRANCH   1  24
TORSDOF 14
ENDMDL
MODEL 2
REMARK VINA RESULT:     -11.5      1.851      2.408
REMARK SMILES CSc1ccc([C@H](C)[N@H+]2CC[C@@H](C(=O)NCCCCNC(=O)c3ccc(-c4c5nc(c(-c6ccccc6)c6ccc([nH]6)c(-c6ccccc6)c6nc(c(-c7ccccc7)c7ccc4[nH]7)C=C6)C=C5)cc3)[C@H]2C)cc1
REMARK SMILES IDX 17 1 16 2 15 3 13 4 14 5 12 7 9 8 10 9 71 10 11 12 72 13
REMARK SMILES IDX 7 14 8 15 6 16 3 17 4 18 74 19 5 20 73 21 2 22 1 23 18 24
REMARK SMILES IDX 19 25 20 26 21 27 22 29 23 30 24 31 70 32 25 33 69 34 26 35
REMARK SMILES IDX 27 36 28 37 63 38 29 39 68 40 62 41 64 42 30 43 67 44 61 45
REMARK SMILES IDX 60 46 31 48 53 49 38 50 52 51 39 52 42 53 51 54 65 55 40 56
REMARK SMILES IDX 41 57 50 59 66 60 43 61 32 62 33 63 37 64 34 65 36 66 35 67
REMARK SMILES IDX 54 68 55 69 59 70 56 71 58 72 57 73 44 74 45 75 49 76 46 77
REMARK SMILES IDX 48 78 47 79
REMARK H PARENT 15 6 9 11 20 28 64 47 42 58
REMARK Flexibility Score: inf
ROOT
ATOM      1  C   UNL A   1      36.817  21.168  24.831  1.00  0.00     0.023 C 
ENDROOT
BRANCH   1   2
ATOM      2  C   UNL A   1      35.366  20.854  25.197  1.00  0.00     0.116 C 
BRANCH   2   3
ATOM      3  N   UNL A   1      34.989  21.465  26.452  1.00  0.00    -0.356 N 
ATOM      4  C   UNL A   1      34.390  22.656  26.713  1.00  0.00     0.229 C 
ATOM      5  O   UNL A   1      34.252  22.953  27.905  1.00  0.00    -0.275 OA
ATOM      6  H   UNL A   1      35.201  20.928  27.250  1.00  0.00     0.163 HD
BRANCH   4   7
ATOM      7  C   UNL A   1      33.874  23.604  25.633  1.00  0.00     0.142 C 
ATOM      8  N   UNL A   1      32.578  25.581  25.580  1.00  0.00    -0.326 N 
ATOM      9  C   UNL A   1      33.829  25.928  24.945  1.00  0.00     0.264 C 
ATOM     10  C   UNL A   1      32.428  24.138  25.708  1.00  0.00     0.194 C 
ATOM     11  H   UNL A   1      31.656  25.915  25.302  1.00  0.00     0.348 HD
ATOM     12  C   UNL A   1      34.772  24.817  25.376  1.00  0.00     0.081 C 
ATOM     13  C   UNL A   1      31.538  23.607  26.823  1.00  0.00     0.076 C 
BRANCH   8  14
ATOM     14  C   UNL A   1      31.705  26.586  26.160  1.00  0.00     0.212 C 
ATOM     15  C   UNL A   1      32.454  27.410  27.219  1.00  0.00     0.081 C 
BRANCH  14  16
ATOM     16  C   UNL A   1      31.026  27.464  25.104  1.00  0.00     0.009 A 
ATOM     17  C   UNL A   1      29.891  29.139  23.111  1.00  0.00     0.007 A 
ATOM     18  C   UNL A   1      30.798  29.651  24.041  1.00  0.00     0.015 A 
ATOM     19  C   UNL A   1      29.548  27.787  23.191  1.00  0.00     0.015 A 
ATOM     20  C   UNL A   1      31.356  28.825  25.028  1.00  0.00     0.011 A 
ATOM     21  C   UNL A   1      30.098  26.965  24.178  1.00  0.00     0.011 A 
BRANCH  17  22
ATOM     22  S   UNL A   1      29.167  30.079  21.775  1.00  0.00    -0.130 SA
ATOM     23  C   UNL A   1      28.020  31.177  22.641  1.00  0.00     0.091 C 
ENDBRANCH  17  22
ENDBRANCH  14  16
ENDBRANCH   8  14
ENDBRANCH   4   7
ENDBRANCH   2   3
ENDBRANCH   1   2
BRANCH   1  24
ATOM     24  C   UNL A   1      37.786  20.002  24.964  1.00  0.00     0.023 C 
BRANCH  24  25
ATOM     25  C   UNL A   1      39.049  20.308  25.751  1.00  0.00     0.116 C 
BRANCH  25  26
ATOM     26  N   UNL A   1      39.986  19.193  25.814  1.00  0.00    -0.352 N 
ATOM     27  C   UNL A   1      41.337  19.213  26.078  1.00  0.00     0.251 C 
ATOM     28  H   UNL A   1      39.598  18.303  25.646  1.00  0.00     0.163 HD
ATOM     29  O   UNL A   1      42.007  18.192  26.003  1.00  0.00    -0.269 OA
BRANCH  27  30
ATOM     30  C   UNL A   1      41.975  20.502  26.411  1.00  0.00     0.039 A 
ATOM     31  C   UNL A   1      42.424  21.323  25.376  1.00  0.00     0.014 A 
ATOM     32  C   UNL A   1      42.041  20.929  27.739  1.00  0.00     0.014 A 
ATOM     33  C   UNL A   1      42.853  22.619  25.667  1.00  0.00     0.010 A 
ATOM     34  C   UNL A   1      42.375  22.247  28.015  1.00  0.00     0.010 A 
ATOM     35  C   UNL A   1      42.782  23.107  26.983  1.00  0.00    -0.014 A 
BRANCH  35  36
ATOM     36  C   UNL A   1      43.128  24.510  27.313  1.00  0.00     0.031 A 
ATOM     37  C   UNL A   1      44.564  24.953  27.273  1.00  0.00     0.074 A 
ATOM     38  C   UNL A   1      42.168  25.361  27.728  1.00  0.00     0.049 A 
ATOM     39  N   UNL A   1      45.085  26.100  27.625  1.00  0.00    -0.248 NA
ATOM     40  C   UNL A   1      45.549  23.961  26.811  1.00  0.00     0.031 C 
ATOM     41  C   UNL A   1      40.744  25.044  27.857  1.00  0.00     0.029 A 
ATOM     42  N   UNL A   1      42.252  26.672  28.126  1.00  0.00    -0.354 N 
ATOM     43  C   UNL A   1      46.456  25.956  27.454  1.00  0.00     0.074 A 
ATOM     44  C   UNL A   1      46.691  24.598  27.019  1.00  0.00     0.031 C 
ATOM     45  C   UNL A   1      40.084  26.139  28.268  1.00  0.00     0.029 A 
ATOM     46  C   UNL A   1      41.041  27.221  28.471  1.00  0.00     0.049 A 
ATOM     47  H   UNL A   1      43.100  27.170  28.163  1.00  0.00     0.167 HD
ATOM     48  C   UNL A   1      47.432  26.879  27.619  1.00  0.00     0.031 A 
ATOM     49  C   UNL A   1      40.737  28.460  28.902  1.00  0.00     0.031 A 
ATOM     50  C   UNL A   1      47.197  28.239  28.020  1.00  0.00     0.049 A 
ATOM     51  C   UNL A   1      41.836  29.471  29.066  1.00  0.00     0.074 A 
ATOM     52  C   UNL A   1      48.113  29.267  28.160  1.00  0.00     0.029 A 
ATOM     53  N   UNL A   1      45.954  28.761  28.338  1.00  0.00    -0.354 N 
ATOM     54  N   UNL A   1      43.122  29.334  28.850  1.00  0.00    -0.248 NA
ATOM     55  C   UNL A   1      41.440  30.810  29.525  1.00  0.00     0.031 C 
ATOM     56  C   UNL A   1      47.425  30.405  28.594  1.00  0.00     0.029 A 
ATOM     57  C   UNL A   1      46.078  30.095  28.683  1.00  0.00     0.049 A 
ATOM     58  H   UNL A   1      45.108  28.257  28.319  1.00  0.00     0.167 HD
ATOM     59  C   UNL A   1      43.685  30.575  29.121  1.00  0.00     0.074 A 
ATOM     60  C   UNL A   1      42.599  31.453  29.504  1.00  0.00     0.031 C 
ATOM     61  C   UNL A   1      44.985  30.952  29.056  1.00  0.00     0.031 A 
BRANCH  48  62
ATOM     62  C   UNL A   1      48.844  26.438  27.356  1.00  0.00    -0.014 A 
ATOM     63  C   UNL A   1      49.385  26.476  26.060  1.00  0.00     0.009 A 
ATOM     64  C   UNL A   1      49.647  25.992  28.415  1.00  0.00     0.009 A 
ATOM     65  C   UNL A   1      50.688  26.036  25.826  1.00  0.00     0.001 A 
ATOM     66  C   UNL A   1      50.960  25.580  28.181  1.00  0.00     0.001 A 
ATOM     67  C   UNL A   1      51.476  25.593  26.887  1.00  0.00     0.000 A 
ENDBRANCH  48  62
BRANCH  49  68
ATOM     68  C   UNL A   1      39.324  28.829  29.178  1.00  0.00    -0.014 A 
ATOM     69  C   UNL A   1      38.526  29.374  28.160  1.00  0.00     0.009 A 
ATOM     70  C   UNL A   1      38.767  28.643  30.452  1.00  0.00     0.009 A 
ATOM     71  C   UNL A   1      37.206  29.750  28.419  1.00  0.00     0.001 A 
ATOM     72  C   UNL A   1      37.440  28.998  30.702  1.00  0.00     0.001 A 
ATOM     73  C   UNL A   1      36.663  29.558  29.688  1.00  0.00     0.000 A 
ENDBRANCH  49  68
BRANCH  61  74
ATOM     74  C   UNL A   1      45.298  32.385  29.373  1.00  0.00    -0.014 A 
ATOM     75  C   UNL A   1      45.258  33.375  28.379  1.00  0.00     0.009 A 
ATOM     76  C   UNL A   1      45.589  32.755  30.695  1.00  0.00     0.009 A 
ATOM     77  C   UNL A   1      45.532  34.706  28.699  1.00  0.00     0.001 A 
ATOM     78  C   UNL A   1      45.838  34.090  31.017  1.00  0.00     0.001 A 
ATOM     79  C   UNL A   1      45.817  35.063  30.017  1.00  0.00     0.000 A 
ENDBRANCH  61  74
ENDBRANCH  35  36
ENDBRANCH  27  30
ENDBRANCH  25  26
ENDBRANCH  24  25
ENDBRANCH   1  24
TORSDOF 14
ENDMDL
MODEL 3
REMARK VINA RESULT:     -11.4      4.143      9.065
REMARK SMILES CSc1ccc([C@H](C)[N@H+]2CC[C@@H](C(=O)NCCCCNC(=O)c3ccc(-c4c5nc(c(-c6ccccc6)c6ccc([nH]6)c(-c6ccccc6)c6nc(c(-c7ccccc7)c7ccc4[nH]7)C=C6)C=C5)cc3)[C@H]2C)cc1
REMARK SMILES IDX 17 1 16 2 15 3 13 4 14 5 12 7 9 8 10 9 71 10 11 12 72 13
REMARK SMILES IDX 7 14 8 15 6 16 3 17 4 18 74 19 5 20 73 21 2 22 1 23 18 24
REMARK SMILES IDX 19 25 20 26 21 27 22 29 23 30 24 31 70 32 25 33 69 34 26 35
REMARK SMILES IDX 27 36 28 37 63 38 29 39 68 40 62 41 64 42 30 43 67 44 61 45
REMARK SMILES IDX 60 46 31 48 53 49 38 50 52 51 39 52 42 53 51 54 65 55 40 56
REMARK SMILES IDX 41 57 50 59 66 60 43 61 32 62 33 63 37 64 34 65 36 66 35 67
REMARK SMILES IDX 54 68 55 69 59 70 56 71 58 72 57 73 44 74 45 75 49 76 46 77
REMARK SMILES IDX 48 78 47 79
REMARK H PARENT 15 6 9 11 20 28 64 47 42 58
REMARK Flexibility Score: inf
ROOT
ATOM      1  C   UNL A   1      31.319  30.963  25.815  1.00  0.00     0.023 C 
ENDROOT
BRANCH   1   2
ATOM      2  C   UNL A   1      31.282  29.673  24.995  1.00  0.00     0.116 C 
BRANCH   2   3
ATOM      3  N   UNL A   1      30.671  29.881  23.701  1.00  0.00    -0.356 N 
ATOM      4  C   UNL A   1      30.584  29.063  22.620  1.00  0.00     0.229 C 
ATOM      5  O   UNL A   1      30.056  29.540  21.610  1.00  0.00    -0.275 OA
ATOM      6  H   UNL A   1      30.245  30.762  23.585  1.00  0.00     0.163 HD
BRANCH   4   7
ATOM      7  C   UNL A   1      31.074  27.617  22.606  1.00  0.00     0.142 C 
ATOM      8  N   UNL A   1      32.759  26.379  23.709  1.00  0.00    -0.326 N 
ATOM      9  C   UNL A   1      31.522  25.702  24.023  1.00  0.00     0.264 C 
ATOM     10  C   UNL A   1      32.588  27.320  22.611  1.00  0.00     0.194 C 
ATOM     11  H   UNL A   1      33.656  25.929  23.530  1.00  0.00     0.348 HD
ATOM     12  C   UNL A   1      30.454  26.730  23.689  1.00  0.00     0.081 C 
ATOM     13  C   UNL A   1      33.539  28.506  22.530  1.00  0.00     0.076 C 
BRANCH   8  14
ATOM     14  C   UNL A   1      33.945  26.235  24.535  1.00  0.00     0.212 C 
ATOM     15  C   UNL A   1      33.748  26.925  25.894  1.00  0.00     0.081 C 
BRANCH  14  16
ATOM     16  C   UNL A   1      34.399  24.779  24.675  1.00  0.00     0.009 A 
ATOM     17  C   UNL A   1      35.121  22.051  25.001  1.00  0.00     0.007 A 
ATOM     18  C   UNL A   1      34.664  22.802  26.086  1.00  0.00     0.015 A 
ATOM     19  C   UNL A   1      35.224  22.676  23.755  1.00  0.00     0.015 A 
ATOM     20  C   UNL A   1      34.311  24.150  25.927  1.00  0.00     0.011 A 
ATOM     21  C   UNL A   1      34.879  24.021  23.597  1.00  0.00     0.011 A 
BRANCH  17  22
ATOM     22  S   UNL A   1      35.538  20.315  25.071  1.00  0.00    -0.130 SA
ATOM     23  C   UNL A   1      33.960  19.514  24.692  1.00  0.00     0.091 C 
ENDBRANCH  17  22
ENDBRANCH  14  16
ENDBRANCH   8  14
ENDBRANCH   4   7
ENDBRANCH   2   3
ENDBRANCH   1   2
BRANCH   1  24
ATOM     24  C   UNL A   1      32.100  30.880  27.118  1.00  0.00     0.023 C 
BRANCH  24  25
ATOM     25  C   UNL A   1      33.201  31.917  27.271  1.00  0.00     0.116 C 
BRANCH  25  26
ATOM     26  N   UNL A   1      32.713  33.239  27.645  1.00  0.00    -0.352 N 
ATOM     27  C   UNL A   1      33.262  34.147  28.522  1.00  0.00     0.251 C 
ATOM     28  H   UNL A   1      31.876  33.522  27.209  1.00  0.00     0.163 HD
ATOM     29  O   UNL A   1      32.678  35.185  28.800  1.00  0.00    -0.269 OA
BRANCH  27  30
ATOM     30  C   UNL A   1      34.555  33.824  29.159  1.00  0.00     0.039 A 
ATOM     31  C   UNL A   1      34.568  32.996  30.282  1.00  0.00     0.014 A 
ATOM     32  C   UNL A   1      35.748  34.267  28.586  1.00  0.00     0.014 A 
ATOM     33  C   UNL A   1      35.788  32.532  30.776  1.00  0.00     0.010 A 
ATOM     34  C   UNL A   1      36.952  33.729  29.018  1.00  0.00     0.010 A 
ATOM     35  C   UNL A   1      36.986  32.854  30.114  1.00  0.00    -0.014 A 
BRANCH  35  36
ATOM     36  C   UNL A   1      38.289  32.294  30.546  1.00  0.00     0.031 A 
ATOM     37  C   UNL A   1      38.780  31.004  29.951  1.00  0.00     0.074 A 
ATOM     38  C   UNL A   1      38.987  32.895  31.530  1.00  0.00     0.049 A 
ATOM     39  N   UNL A   1      39.835  30.297  30.266  1.00  0.00    -0.248 NA
ATOM     40  C   UNL A   1      37.955  30.412  28.883  1.00  0.00     0.031 C 
ATOM     41  C   UNL A   1      38.598  34.124  32.226  1.00  0.00     0.029 A 
ATOM     42  N   UNL A   1      40.175  32.543  32.122  1.00  0.00    -0.354 N 
ATOM     43  C   UNL A   1      39.783  29.168  29.458  1.00  0.00     0.074 A 
ATOM     44  C   UNL A   1      38.569  29.256  28.679  1.00  0.00     0.031 C 
ATOM     45  C   UNL A   1      39.546  34.443  33.121  1.00  0.00     0.029 A 
ATOM     46  C   UNL A   1      40.587  33.422  33.094  1.00  0.00     0.049 A 
ATOM     47  H   UNL A   1      40.682  31.737  31.873  1.00  0.00     0.167 HD
ATOM     48  C   UNL A   1      40.678  28.159  29.354  1.00  0.00     0.031 A 
ATOM     49  C   UNL A   1      41.684  33.405  33.875  1.00  0.00     0.031 A 
ATOM     50  C   UNL A   1      41.901  28.085  30.105  1.00  0.00     0.049 A 
ATOM     51  C   UNL A   1      42.669  32.280  33.733  1.00  0.00     0.074 A 
ATOM     52  C   UNL A   1      42.903  27.133  30.030  1.00  0.00     0.029 A 
ATOM     53  N   UNL A   1      42.292  29.007  31.063  1.00  0.00    -0.354 N 
ATOM     54  N   UNL A   1      42.631  31.246  32.928  1.00  0.00    -0.248 NA
ATOM     55  C   UNL A   1      43.853  32.324  34.603  1.00  0.00     0.031 C 
ATOM     56  C   UNL A   1      43.887  27.463  30.969  1.00  0.00     0.029 A 
ATOM     57  C   UNL A   1      43.516  28.642  31.595  1.00  0.00     0.049 A 
ATOM     58  H   UNL A   1      41.776  29.803  31.325  1.00  0.00     0.167 HD
ATOM     59  C   UNL A   1      43.797  30.532  33.175  1.00  0.00     0.074 A 
ATOM     60  C   UNL A   1      44.526  31.258  34.195  1.00  0.00     0.031 C 
ATOM     61  C   UNL A   1      44.226  29.379  32.606  1.00  0.00     0.031 A 
BRANCH  48  62
ATOM     62  C   UNL A   1      40.360  27.057  28.384  1.00  0.00    -0.014 A 
ATOM     63  C   UNL A   1      40.859  27.082  27.071  1.00  0.00     0.009 A 
ATOM     64  C   UNL A   1      39.565  25.975  28.789  1.00  0.00     0.009 A 
ATOM     65  C   UNL A   1      40.532  26.066  26.172  1.00  0.00     0.001 A 
ATOM     66  C   UNL A   1      39.263  24.946  27.895  1.00  0.00     0.001 A 
ATOM     67  C   UNL A   1      39.738  24.998  26.585  1.00  0.00     0.000 A 
ENDBRANCH  48  62
BRANCH  49  68
ATOM     68  C   UNL A   1      41.928  34.507  34.841  1.00  0.00    -0.014 A 
ATOM     69  C   UNL A   1      42.623  35.657  34.437  1.00  0.00     0.009 A 
ATOM     70  C   UNL A   1      41.476  34.417  36.166  1.00  0.00     0.009 A 
ATOM     71  C   UNL A   1      42.883  36.685  35.347  1.00  0.00     0.001 A 
ATOM     72  C   UNL A   1      41.716  35.456  37.068  1.00  0.00     0.001 A 
ATOM     73  C   UNL A   1      42.426  36.585  36.660  1.00  0.00     0.000 A 
ENDBRANCH  49  68
BRANCH  61  74
ATOM     74  C   UNL A   1      45.560  28.853  33.048  1.00  0.00    -0.014 A 
ATOM     75  C   UNL A   1      45.666  27.941  34.109  1.00  0.00     0.009 A 
ATOM     76  C   UNL A   1      46.720  29.240  32.361  1.00  0.00     0.009 A 
ATOM     77  C   UNL A   1      46.915  27.447  34.491  1.00  0.00     0.001 A 
ATOM     78  C   UNL A   1      47.964  28.726  32.729  1.00  0.00     0.001 A 
ATOM     79  C   UNL A   1      48.061  27.836  33.798  1.00  0.00     0.000 A 
ENDBRANCH  61  74
ENDBRANCH  35  36
ENDBRANCH  27  30
ENDBRANCH  25  26
ENDBRANCH  24  25
ENDBRANCH   1  24
TORSDOF 14
ENDMDL
