MODEL 1
REMARK VINA RESULT:     -10.3      0.000      0.000
REMARK SMILES CC(C)(O)CCOc1ccc(C(=O)NCCCCNC(=O)c2ccc(-c3c4nc(c(-c5ccccc5)c5ccc([nH]5)c(-c5ccccc5)c5nc(c(-c6ccccc6)c6ccc3[nH]6)C=C5)C=C4)cc2)cc1
REMARK SMILES IDX 15 1 14 2 12 3 13 4 11 6 8 7 9 8 71 9 10 10 70 11 7 12 6 13
REMARK SMILES IDX 5 14 2 15 1 16 3 17 4 18 16 20 17 21 18 22 19 23 20 24 21 26
REMARK SMILES IDX 22 27 23 28 69 29 24 30 68 31 25 32 26 33 27 34 62 35 28 36
REMARK SMILES IDX 67 37 61 38 63 39 29 40 66 41 60 42 59 43 30 45 52 46 37 47
REMARK SMILES IDX 51 48 38 49 41 50 50 51 64 52 39 53 40 54 49 56 65 57 42 58
REMARK SMILES IDX 31 59 32 60 36 61 33 62 35 63 34 64 53 65 54 66 58 67 55 68
REMARK SMILES IDX 57 69 56 70 43 71 44 72 48 73 45 74 47 75 46 76
REMARK H PARENT 14 5 4 19 19 25 63 44 41 55
REMARK Flexibility Score: inf
ROOT
ATOM      1  C   UNL A   1      35.298  21.021  25.745  1.00  0.00     0.116 C 
ENDROOT
BRANCH   1   2
ATOM      2  N   UNL A   1      34.306  19.976  25.535  1.00  0.00    -0.352 N 
ATOM      3  C   UNL A   1      32.993  20.071  25.127  1.00  0.00     0.251 C 
ATOM      4  O   UNL A   1      32.282  19.071  25.121  1.00  0.00    -0.269 OA
ATOM      5  H   UNL A   1      34.622  19.061  25.712  1.00  0.00     0.163 HD
BRANCH   3   6
ATOM      6  C   UNL A   1      32.418  21.381  24.748  1.00  0.00     0.040 A 
ATOM      7  C   UNL A   1      30.985  23.600  23.848  1.00  0.00     0.119 A 
ATOM      8  C   UNL A   1      31.898  22.964  23.001  1.00  0.00     0.047 A 
ATOM      9  C   UNL A   1      30.956  23.250  25.197  1.00  0.00     0.047 A 
ATOM     10  C   UNL A   1      32.619  21.854  23.448  1.00  0.00     0.017 A 
ATOM     11  C   UNL A   1      31.659  22.129  25.647  1.00  0.00     0.017 A 
BRANCH   7  12
ATOM     12  O   UNL A   1      30.125  24.459  23.224  1.00  0.00    -0.493 OA
BRANCH  12  13
ATOM     13  C   UNL A   1      29.865  25.736  23.813  1.00  0.00     0.232 C 
BRANCH  13  14
ATOM     14  C   UNL A   1      31.090  26.664  23.971  1.00  0.00     0.076 C 
BRANCH  14  15
ATOM     15  C   UNL A   1      31.026  28.084  23.362  1.00  0.00     0.062 C 
ATOM     16  C   UNL A   1      31.505  29.161  24.342  1.00  0.00     0.042 C 
ATOM     17  C   UNL A   1      29.588  28.437  22.954  1.00  0.00     0.042 C 
BRANCH  15  18
ATOM     18  O   UNL A   1      31.793  28.125  22.159  1.00  0.00    -0.390 OA
ATOM     19  H   UNL A   1      31.794  29.028  21.807  1.00  0.00     0.211 HD
ENDBRANCH  15  18
ENDBRANCH  14  15
ENDBRANCH  13  14
ENDBRANCH  12  13
ENDBRANCH   7  12
ENDBRANCH   3   6
ENDBRANCH   1   2
BRANCH   1  20
ATOM     20  C   UNL A   1      36.371  21.062  24.654  1.00  0.00     0.023 C 
BRANCH  20  21
ATOM     21  C   UNL A   1      37.494  20.032  24.787  1.00  0.00     0.023 C 
BRANCH  21  22
ATOM     22  C   UNL A   1      38.688  20.454  25.639  1.00  0.00     0.116 C 
BRANCH  22  23
ATOM     23  N   UNL A   1      39.767  19.477  25.660  1.00  0.00    -0.352 N 
ATOM     24  C   UNL A   1      41.076  19.631  26.054  1.00  0.00     0.251 C 
ATOM     25  H   UNL A   1      39.524  18.576  25.346  1.00  0.00     0.163 HD
ATOM     26  O   UNL A   1      41.868  18.702  25.911  1.00  0.00    -0.269 OA
BRANCH  24  27
ATOM     27  C   UNL A   1      41.547  20.918  26.613  1.00  0.00     0.039 A 
ATOM     28  C   UNL A   1      42.062  21.883  25.740  1.00  0.00     0.014 A 
ATOM     29  C   UNL A   1      41.485  21.184  27.982  1.00  0.00     0.014 A 
ATOM     30  C   UNL A   1      42.443  23.135  26.230  1.00  0.00     0.010 A 
ATOM     31  C   UNL A   1      41.795  22.458  28.460  1.00  0.00     0.010 A 
ATOM     32  C   UNL A   1      42.276  23.448  27.589  1.00  0.00    -0.014 A 
BRANCH  32  33
ATOM     33  C   UNL A   1      42.589  24.804  28.111  1.00  0.00     0.031 A 
ATOM     34  C   UNL A   1      43.993  25.160  28.518  1.00  0.00     0.074 A 
ATOM     35  C   UNL A   1      41.598  25.703  28.274  1.00  0.00     0.049 A 
ATOM     36  N   UNL A   1      44.448  26.280  29.026  1.00  0.00    -0.248 NA
ATOM     37  C   UNL A   1      45.017  24.115  28.359  1.00  0.00     0.031 C 
ATOM     38  C   UNL A   1      40.185  25.474  27.963  1.00  0.00     0.029 A 
ATOM     39  N   UNL A   1      41.627  26.991  28.747  1.00  0.00    -0.354 N 
ATOM     40  C   UNL A   1      45.800  26.067  29.260  1.00  0.00     0.074 A 
ATOM     41  C   UNL A   1      46.083  24.698  28.889  1.00  0.00     0.031 C 
ATOM     42  C   UNL A   1      39.490  26.593  28.225  1.00  0.00     0.029 A 
ATOM     43  C   UNL A   1      40.397  27.605  28.756  1.00  0.00     0.049 A 
ATOM     44  H   UNL A   1      42.452  27.434  29.053  1.00  0.00     0.167 HD
ATOM     45  C   UNL A   1      46.731  26.936  29.723  1.00  0.00     0.031 A 
ATOM     46  C   UNL A   1      40.039  28.842  29.148  1.00  0.00     0.031 A 
ATOM     47  C   UNL A   1      46.457  28.302  30.086  1.00  0.00     0.049 A 
ATOM     48  C   UNL A   1      41.089  29.788  29.660  1.00  0.00     0.074 A 
ATOM     49  C   UNL A   1      47.344  29.275  30.513  1.00  0.00     0.029 A 
ATOM     50  N   UNL A   1      45.202  28.886  30.068  1.00  0.00    -0.354 N 
ATOM     51  N   UNL A   1      42.378  29.592  29.805  1.00  0.00    -0.248 NA
ATOM     52  C   UNL A   1      40.636  31.131  30.047  1.00  0.00     0.031 C 
ATOM     53  C   UNL A   1      46.617  30.434  30.800  1.00  0.00     0.029 A 
ATOM     54  C   UNL A   1      45.286  30.201  30.496  1.00  0.00     0.049 A 
ATOM     55  H   UNL A   1      44.371  28.434  29.792  1.00  0.00     0.167 HD
ATOM     56  C   UNL A   1      42.893  30.796  30.270  1.00  0.00     0.074 A 
ATOM     57  C   UNL A   1      41.781  31.719  30.364  1.00  0.00     0.031 C 
ATOM     58  C   UNL A   1      44.172  31.109  30.587  1.00  0.00     0.031 A 
BRANCH  45  59
ATOM     59  C   UNL A   1      48.140  26.428  29.867  1.00  0.00    -0.014 A 
ATOM     60  C   UNL A   1      49.075  26.571  28.829  1.00  0.00     0.009 A 
ATOM     61  C   UNL A   1      48.548  25.828  31.069  1.00  0.00     0.009 A 
ATOM     62  C   UNL A   1      50.377  26.087  28.977  1.00  0.00     0.001 A 
ATOM     63  C   UNL A   1      49.859  25.372  31.225  1.00  0.00     0.001 A 
ATOM     64  C   UNL A   1      50.768  25.493  30.175  1.00  0.00     0.000 A 
ENDBRANCH  45  59
BRANCH  46  65
ATOM     65  C   UNL A   1      38.619  29.274  29.047  1.00  0.00    -0.014 A 
ATOM     66  C   UNL A   1      37.755  29.140  30.144  1.00  0.00     0.009 A 
ATOM     67  C   UNL A   1      38.118  29.807  27.850  1.00  0.00     0.009 A 
ATOM     68  C   UNL A   1      36.410  29.503  30.035  1.00  0.00     0.001 A 
ATOM     69  C   UNL A   1      36.780  30.197  27.753  1.00  0.00     0.001 A 
ATOM     70  C   UNL A   1      35.925  30.035  28.842  1.00  0.00     0.000 A 
ENDBRANCH  46  65
BRANCH  58  71
ATOM     71  C   UNL A   1      44.444  32.522  31.027  1.00  0.00    -0.014 A 
ATOM     72  C   UNL A   1      44.404  32.889  32.381  1.00  0.00     0.009 A 
ATOM     73  C   UNL A   1      44.768  33.494  30.068  1.00  0.00     0.009 A 
ATOM     74  C   UNL A   1      44.643  34.211  32.761  1.00  0.00     0.001 A 
ATOM     75  C   UNL A   1      45.037  34.808  30.454  1.00  0.00     0.001 A 
ATOM     76  C   UNL A   1      44.962  35.168  31.798  1.00  0.00     0.000 A 
ENDBRANCH  58  71
ENDBRANCH  32  33
ENDBRANCH  24  27
ENDBRANCH  22  23
ENDBRANCH  21  22
ENDBRANCH  20  21
ENDBRANCH   1  20
TORSDOF 16
ENDMDL
MODEL 2
REMARK VINA RESULT:     -10.0      2.364      3.749
REMARK SMILES CC(C)(O)CCOc1ccc(C(=O)NCCCCNC(=O)c2ccc(-c3c4nc(c(-c5ccccc5)c5ccc([nH]5)c(-c5ccccc5)c5nc(c(-c6ccccc6)c6ccc3[nH]6)C=C5)C=C4)cc2)cc1
REMARK SMILES IDX 15 1 14 2 12 3 13 4 11 6 8 7 9 8 71 9 10 10 70 11 7 12 6 13
REMARK SMILES IDX 5 14 2 15 1 16 3 17 4 18 16 20 17 21 18 22 19 23 20 24 21 26
REMARK SMILES IDX 22 27 23 28 69 29 24 30 68 31 25 32 26 33 27 34 62 35 28 36
REMARK SMILES IDX 67 37 61 38 63 39 29 40 66 41 60 42 59 43 30 45 52 46 37 47
REMARK SMILES IDX 51 48 38 49 41 50 50 51 64 52 39 53 40 54 49 56 65 57 42 58
REMARK SMILES IDX 31 59 32 60 36 61 33 62 35 63 34 64 53 65 54 66 58 67 55 68
REMARK SMILES IDX 57 69 56 70 43 71 44 72 48 73 45 74 47 75 46 76
REMARK H PARENT 14 5 4 19 19 25 63 44 41 55
REMARK Flexibility Score: inf
ROOT
ATOM      1  C   UNL A   1      33.636  23.008  25.689  1.00  0.00     0.116 C 
ENDROOT
BRANCH   1   2
ATOM      2  N   UNL A   1      32.563  22.745  26.637  1.00  0.00    -0.352 N 
ATOM      3  C   UNL A   1      31.277  23.240  26.678  1.00  0.00     0.251 C 
ATOM      4  O   UNL A   1      30.554  22.981  27.636  1.00  0.00    -0.269 OA
ATOM      5  H   UNL A   1      32.791  22.118  27.360  1.00  0.00     0.163 HD
BRANCH   3   6
ATOM      6  C   UNL A   1      30.779  24.127  25.604  1.00  0.00     0.040 A 
ATOM      7  C   UNL A   1      30.262  26.000  23.601  1.00  0.00     0.119 A 
ATOM      8  C   UNL A   1      30.029  26.324  24.942  1.00  0.00     0.047 A 
ATOM      9  C   UNL A   1      30.548  24.679  23.265  1.00  0.00     0.047 A 
ATOM     10  C   UNL A   1      30.285  25.388  25.947  1.00  0.00     0.017 A 
ATOM     11  C   UNL A   1      30.824  23.743  24.264  1.00  0.00     0.017 A 
BRANCH   7  12
ATOM     12  O   UNL A   1      30.276  27.067  22.748  1.00  0.00    -0.493 OA
BRANCH  12  13
ATOM     13  C   UNL A   1      31.525  27.682  22.421  1.00  0.00     0.232 C 
BRANCH  13  14
ATOM     14  C   UNL A   1      32.180  28.510  23.548  1.00  0.00     0.076 C 
BRANCH  14  15
ATOM     15  C   UNL A   1      33.519  28.018  24.146  1.00  0.00     0.062 C 
ATOM     16  C   UNL A   1      33.781  26.537  23.851  1.00  0.00     0.042 C 
ATOM     17  C   UNL A   1      33.532  28.196  25.672  1.00  0.00     0.042 C 
BRANCH  15  18
ATOM     18  O   UNL A   1      34.589  28.824  23.652  1.00  0.00    -0.390 OA
ATOM     19  H   UNL A   1      35.150  29.103  24.391  1.00  0.00     0.211 HD
ENDBRANCH  15  18
ENDBRANCH  14  15
ENDBRANCH  13  14
ENDBRANCH  12  13
ENDBRANCH   7  12
ENDBRANCH   3   6
ENDBRANCH   1   2
BRANCH   1  20
ATOM     20  C   UNL A   1      35.020  22.643  26.229  1.00  0.00     0.023 C 
BRANCH  20  21
ATOM     21  C   UNL A   1      36.091  23.729  26.104  1.00  0.00     0.023 C 
BRANCH  21  22
ATOM     22  C   UNL A   1      37.127  23.520  25.002  1.00  0.00     0.116 C 
BRANCH  22  23
ATOM     23  N   UNL A   1      38.201  22.611  25.373  1.00  0.00    -0.352 N 
ATOM     24  C   UNL A   1      39.328  22.852  26.124  1.00  0.00     0.251 C 
ATOM     25  H   UNL A   1      38.107  21.690  25.038  1.00  0.00     0.163 HD
ATOM     26  O   UNL A   1      40.174  21.970  26.254  1.00  0.00    -0.269 OA
BRANCH  24  27
ATOM     27  C   UNL A   1      39.549  24.178  26.746  1.00  0.00     0.039 A 
ATOM     28  C   UNL A   1      39.107  24.389  28.056  1.00  0.00     0.014 A 
ATOM     29  C   UNL A   1      40.186  25.210  26.053  1.00  0.00     0.014 A 
ATOM     30  C   UNL A   1      39.370  25.605  28.693  1.00  0.00     0.010 A 
ATOM     31  C   UNL A   1      40.513  26.394  26.713  1.00  0.00     0.010 A 
ATOM     32  C   UNL A   1      40.110  26.605  28.041  1.00  0.00    -0.014 A 
BRANCH  32  33
ATOM     33  C   UNL A   1      40.479  27.867  28.735  1.00  0.00     0.031 A 
ATOM     34  C   UNL A   1      41.842  28.028  29.352  1.00  0.00     0.074 A 
ATOM     35  C   UNL A   1      39.566  28.850  28.863  1.00  0.00     0.049 A 
ATOM     36  N   UNL A   1      42.329  29.041  30.026  1.00  0.00    -0.248 NA
ATOM     37  C   UNL A   1      42.772  26.895  29.217  1.00  0.00     0.031 C 
ATOM     38  C   UNL A   1      38.194  28.806  28.354  1.00  0.00     0.029 A 
ATOM     39  N   UNL A   1      39.656  30.080  29.467  1.00  0.00    -0.354 N 
ATOM     40  C   UNL A   1      43.610  28.661  30.406  1.00  0.00     0.074 A 
ATOM     41  C   UNL A   1      43.807  27.308  29.934  1.00  0.00     0.031 C 
ATOM     42  C   UNL A   1      37.582  29.967  28.640  1.00  0.00     0.029 A 
ATOM     43  C   UNL A   1      38.501  30.821  29.383  1.00  0.00     0.049 A 
ATOM     44  H   UNL A   1      40.470  30.401  29.918  1.00  0.00     0.167 HD
ATOM     45  C   UNL A   1      44.549  29.378  31.071  1.00  0.00     0.031 A 
ATOM     46  C   UNL A   1      38.214  32.051  29.852  1.00  0.00     0.031 A 
ATOM     47  C   UNL A   1      44.361  30.727  31.535  1.00  0.00     0.049 A 
ATOM     48  C   UNL A   1      39.272  32.825  30.588  1.00  0.00     0.074 A 
ATOM     49  C   UNL A   1      45.272  31.555  32.169  1.00  0.00     0.029 A 
ATOM     50  N   UNL A   1      43.183  31.445  31.418  1.00  0.00    -0.354 N 
ATOM     51  N   UNL A   1      40.503  32.477  30.874  1.00  0.00    -0.248 NA
ATOM     52  C   UNL A   1      38.902  34.170  31.051  1.00  0.00     0.031 C 
ATOM     53  C   UNL A   1      44.627  32.757  32.480  1.00  0.00     0.029 A 
ATOM     54  C   UNL A   1      43.335  32.699  31.987  1.00  0.00     0.049 A 
ATOM     55  H   UNL A   1      42.358  31.113  30.995  1.00  0.00     0.167 HD
ATOM     56  C   UNL A   1      41.064  33.571  31.522  1.00  0.00     0.074 A 
ATOM     57  C   UNL A   1      40.044  34.598  31.569  1.00  0.00     0.031 C 
ATOM     58  C   UNL A   1      42.312  33.713  32.030  1.00  0.00     0.031 A 
BRANCH  45  59
ATOM     59  C   UNL A   1      45.868  28.708  31.339  1.00  0.00    -0.014 A 
ATOM     60  C   UNL A   1      46.089  27.982  32.521  1.00  0.00     0.009 A 
ATOM     61  C   UNL A   1      46.894  28.775  30.383  1.00  0.00     0.009 A 
ATOM     62  C   UNL A   1      47.324  27.372  32.758  1.00  0.00     0.001 A 
ATOM     63  C   UNL A   1      48.117  28.138  30.609  1.00  0.00     0.001 A 
ATOM     64  C   UNL A   1      48.334  27.447  31.800  1.00  0.00     0.000 A 
ENDBRANCH  45  59
BRANCH  46  65
ATOM     65  C   UNL A   1      36.871  32.643  29.617  1.00  0.00    -0.014 A 
ATOM     66  C   UNL A   1      35.865  32.534  30.590  1.00  0.00     0.009 A 
ATOM     67  C   UNL A   1      36.582  33.306  28.414  1.00  0.00     0.009 A 
ATOM     68  C   UNL A   1      34.588  33.050  30.350  1.00  0.00     0.001 A 
ATOM     69  C   UNL A   1      35.314  33.848  28.190  1.00  0.00     0.001 A 
ATOM     70  C   UNL A   1      34.316  33.710  29.153  1.00  0.00     0.000 A 
ENDBRANCH  46  65
BRANCH  58  71
ATOM     71  C   UNL A   1      42.657  35.042  32.643  1.00  0.00    -0.014 A 
ATOM     72  C   UNL A   1      43.355  36.023  31.922  1.00  0.00     0.009 A 
ATOM     73  C   UNL A   1      42.255  35.322  33.958  1.00  0.00     0.009 A 
ATOM     74  C   UNL A   1      43.679  37.242  32.521  1.00  0.00     0.001 A 
ATOM     75  C   UNL A   1      42.553  36.553  34.544  1.00  0.00     0.001 A 
ATOM     76  C   UNL A   1      43.276  37.508  33.829  1.00  0.00     0.000 A 
ENDBRANCH  58  71
ENDBRANCH  32  33
ENDBRANCH  24  27
ENDBRANCH  22  23
ENDBRANCH  21  22
ENDBRANCH  20  21
ENDBRANCH   1  20
TORSDOF 16
ENDMDL
MODEL 3
REMARK VINA RESULT:     -10.0      2.458      4.924
REMARK SMILES CC(C)(O)CCOc1ccc(C(=O)NCCCCNC(=O)c2ccc(-c3c4nc(c(-c5ccccc5)c5ccc([nH]5)c(-c5ccccc5)c5nc(c(-c6ccccc6)c6ccc3[nH]6)C=C5)C=C4)cc2)cc1
REMARK SMILES IDX 15 1 14 2 12 3 13 4 11 6 8 7 9 8 71 9 10 10 70 11 7 12 6 13
REMARK SMILES IDX 5 14 2 15 1 16 3 17 4 18 16 20 17 21 18 22 19 23 20 24 21 26
REMARK SMILES IDX 22 27 23 28 69 29 24 30 68 31 25 32 26 33 27 34 62 35 28 36
REMARK SMILES IDX 67 37 61 38 63 39 29 40 66 41 60 42 59 43 30 45 52 46 37 47
REMARK SMILES IDX 51 48 38 49 41 50 50 51 64 52 39 53 40 54 49 56 65 57 42 58
REMARK SMILES IDX 31 59 32 60 36 61 33 62 35 63 34 64 53 65 54 66 58 67 55 68
REMARK SMILES IDX 57 69 56 70 43 71 44 72 48 73 45 74 47 75 46 76
REMARK H PARENT 14 5 4 19 19 25 63 44 41 55
REMARK Flexibility Score: inf
ROOT
ATOM      1  C   UNL A   1      33.729  25.144  26.098  1.00  0.00     0.116 C 
ENDROOT
BRANCH   1   2
ATOM      2  N   UNL A   1      32.562  25.670  25.403  1.00  0.00    -0.352 N 
ATOM      3  C   UNL A   1      31.647  25.027  24.598  1.00  0.00     0.251 C 
ATOM      4  O   UNL A   1      30.791  25.679  24.007  1.00  0.00    -0.269 OA
ATOM      5  H   UNL A   1      32.404  26.633  25.528  1.00  0.00     0.163 HD
BRANCH   3   6
ATOM      6  C   UNL A   1      31.722  23.564  24.396  1.00  0.00     0.040 A 
ATOM      7  C   UNL A   1      32.326  20.860  24.055  1.00  0.00     0.119 A 
ATOM      8  C   UNL A   1      32.317  21.721  22.954  1.00  0.00     0.047 A 
ATOM      9  C   UNL A   1      31.828  21.317  25.274  1.00  0.00     0.047 A 
ATOM     10  C   UNL A   1      32.013  23.075  23.119  1.00  0.00     0.017 A 
ATOM     11  C   UNL A   1      31.541  22.673  25.453  1.00  0.00     0.017 A 
BRANCH   7  12
ATOM     12  O   UNL A   1      32.928  19.654  23.836  1.00  0.00    -0.493 OA
BRANCH  12  13
ATOM     13  C   UNL A   1      33.549  18.974  24.931  1.00  0.00     0.232 C 
BRANCH  13  14
ATOM     14  C   UNL A   1      33.006  17.561  25.237  1.00  0.00     0.076 C 
BRANCH  14  15
ATOM     15  C   UNL A   1      33.716  16.341  24.604  1.00  0.00     0.062 C 
ATOM     16  C   UNL A   1      35.036  16.006  25.306  1.00  0.00     0.042 C 
ATOM     17  C   UNL A   1      34.032  16.604  23.124  1.00  0.00     0.042 C 
BRANCH  15  18
ATOM     18  O   UNL A   1      32.839  15.216  24.620  1.00  0.00    -0.390 OA
ATOM     19  H   UNL A   1      32.930  14.724  23.789  1.00  0.00     0.211 HD
ENDBRANCH  15  18
ENDBRANCH  14  15
ENDBRANCH  13  14
ENDBRANCH  12  13
ENDBRANCH   7  12
ENDBRANCH   3   6
ENDBRANCH   1   2
BRANCH   1  20
ATOM     20  C   UNL A   1      34.897  24.829  25.160  1.00  0.00     0.023 C 
BRANCH  20  21
ATOM     21  C   UNL A   1      35.812  23.683  25.599  1.00  0.00     0.023 C 
BRANCH  21  22
ATOM     22  C   UNL A   1      37.088  23.499  24.782  1.00  0.00     0.116 C 
BRANCH  22  23
ATOM     23  N   UNL A   1      38.009  22.524  25.347  1.00  0.00    -0.352 N 
ATOM     24  C   UNL A   1      39.058  22.717  26.216  1.00  0.00     0.251 C 
ATOM     25  H   UNL A   1      37.860  21.593  25.067  1.00  0.00     0.163 HD
ATOM     26  O   UNL A   1      39.786  21.772  26.512  1.00  0.00    -0.269 OA
BRANCH  24  27
ATOM     27  C   UNL A   1      39.341  24.062  26.768  1.00  0.00     0.039 A 
ATOM     28  C   UNL A   1      38.878  24.375  28.050  1.00  0.00     0.014 A 
ATOM     29  C   UNL A   1      40.056  25.013  26.037  1.00  0.00     0.014 A 
ATOM     30  C   UNL A   1      39.196  25.608  28.625  1.00  0.00     0.010 A 
ATOM     31  C   UNL A   1      40.436  26.213  26.639  1.00  0.00     0.010 A 
ATOM     32  C   UNL A   1      40.012  26.524  27.940  1.00  0.00    -0.014 A 
BRANCH  32  33
ATOM     33  C   UNL A   1      40.436  27.800  28.572  1.00  0.00     0.031 A 
ATOM     34  C   UNL A   1      41.840  27.967  29.088  1.00  0.00     0.074 A 
ATOM     35  C   UNL A   1      39.542  28.795  28.736  1.00  0.00     0.049 A 
ATOM     36  N   UNL A   1      42.380  28.993  29.699  1.00  0.00    -0.248 NA
ATOM     37  C   UNL A   1      42.750  26.822  28.920  1.00  0.00     0.031 C 
ATOM     38  C   UNL A   1      38.137  28.749  28.325  1.00  0.00     0.029 A 
ATOM     39  N   UNL A   1      39.682  30.040  29.298  1.00  0.00    -0.354 N 
ATOM     40  C   UNL A   1      43.682  28.612  30.000  1.00  0.00     0.074 A 
ATOM     41  C   UNL A   1      43.836  27.245  29.552  1.00  0.00     0.031 C 
ATOM     42  C   UNL A   1      37.554  29.923  28.621  1.00  0.00     0.029 A 
ATOM     43  C   UNL A   1      38.529  30.789  29.274  1.00  0.00     0.049 A 
ATOM     44  H   UNL A   1      40.527  30.365  29.683  1.00  0.00     0.167 HD
ATOM     45  C   UNL A   1      44.669  29.338  30.578  1.00  0.00     0.031 A 
ATOM     46  C   UNL A   1      38.284  32.033  29.728  1.00  0.00     0.031 A 
ATOM     47  C   UNL A   1      44.524  30.701  31.017  1.00  0.00     0.049 A 
ATOM     48  C   UNL A   1      39.395  32.817  30.368  1.00  0.00     0.074 A 
ATOM     49  C   UNL A   1      45.482  31.537  31.564  1.00  0.00     0.029 A 
ATOM     50  N   UNL A   1      43.345  31.426  30.963  1.00  0.00    -0.354 N 
ATOM     51  N   UNL A   1      40.641  32.466  30.577  1.00  0.00    -0.248 NA
ATOM     52  C   UNL A   1      39.068  34.178  30.818  1.00  0.00     0.031 C 
ATOM     53  C   UNL A   1      44.869  32.753  31.885  1.00  0.00     0.029 A 
ATOM     54  C   UNL A   1      43.545  32.693  31.484  1.00  0.00     0.049 A 
ATOM     55  H   UNL A   1      42.490  31.090  30.606  1.00  0.00     0.167 HD
ATOM     56  C   UNL A   1      41.253  33.572  31.154  1.00  0.00     0.074 A 
ATOM     57  C   UNL A   1      40.246  34.609  31.244  1.00  0.00     0.031 C 
ATOM     58  C   UNL A   1      42.534  33.716  31.571  1.00  0.00     0.031 A 
BRANCH  45  59
ATOM     59  C   UNL A   1      45.999  28.664  30.772  1.00  0.00    -0.014 A 
ATOM     60  C   UNL A   1      46.247  27.850  31.889  1.00  0.00     0.009 A 
ATOM     61  C   UNL A   1      47.010  28.818  29.809  1.00  0.00     0.009 A 
ATOM     62  C   UNL A   1      47.491  27.237  32.059  1.00  0.00     0.001 A 
ATOM     63  C   UNL A   1      48.242  28.179  29.966  1.00  0.00     0.001 A 
ATOM     64  C   UNL A   1      48.485  27.399  31.095  1.00  0.00     0.000 A 
ENDBRANCH  45  59
BRANCH  46  65
ATOM     65  C   UNL A   1      36.931  32.630  29.571  1.00  0.00    -0.014 A 
ATOM     66  C   UNL A   1      35.975  32.506  30.591  1.00  0.00     0.009 A 
ATOM     67  C   UNL A   1      36.584  33.313  28.395  1.00  0.00     0.009 A 
ATOM     68  C   UNL A   1      34.689  33.028  30.424  1.00  0.00     0.001 A 
ATOM     69  C   UNL A   1      35.307  33.860  28.244  1.00  0.00     0.001 A 
ATOM     70  C   UNL A   1      34.358  33.707  29.254  1.00  0.00     0.000 A 
ENDBRANCH  46  65
BRANCH  58  71
ATOM     71  C   UNL A   1      42.930  35.058  32.122  1.00  0.00    -0.014 A 
ATOM     72  C   UNL A   1      42.721  35.387  33.471  1.00  0.00     0.009 A 
ATOM     73  C   UNL A   1      43.544  35.999  31.281  1.00  0.00     0.009 A 
ATOM     74  C   UNL A   1      43.081  36.647  33.954  1.00  0.00     0.001 A 
ATOM     75  C   UNL A   1      43.932  37.246  31.774  1.00  0.00     0.001 A 
ATOM     76  C   UNL A   1      43.689  37.573  33.107  1.00  0.00     0.000 A 
ENDBRANCH  58  71
ENDBRANCH  32  33
ENDBRANCH  24  27
ENDBRANCH  22  23
ENDBRANCH  21  22
ENDBRANCH  20  21
ENDBRANCH   1  20
TORSDOF 16
ENDMDL
