MODEL 1
REMARK VINA RESULT:     -12.4      0.000      0.000
REMARK SMILES O=C(NCCCCNC(=O)c1c(/C=C2/SC(=S)N=C2O)cnc2ccccc12)c1ccc(-c2c3nc(c(-c4ccccc4)c4ccc([nH]4)c(-c4ccccc4)c4nc(c(-c5ccccc5)c5ccc2[nH]5)C=C4)C=C3)cc1
REMARK SMILES IDX 5 1 4 2 3 3 1 4 2 5 29 7 30 8 76 9 31 10 75 11 32 12 33 13
REMARK SMILES IDX 34 14 69 15 35 16 74 17 68 18 70 19 36 20 73 21 67 22 66 23
REMARK SMILES IDX 37 25 59 26 44 27 58 28 45 29 48 30 57 31 71 32 46 33 47 34
REMARK SMILES IDX 56 36 72 37 49 38 38 39 39 40 43 41 40 42 42 43 41 44 60 45
REMARK SMILES IDX 61 46 65 47 62 48 64 49 63 50 50 51 51 52 55 53 52 54 54 55
REMARK SMILES IDX 53 56 6 57 7 58 8 59 9 60 10 62 11 63 12 64 28 65 21 66
REMARK SMILES IDX 23 67 27 68 22 69 24 70 26 71 25 72 13 73 14 74 15 75 19 76
REMARK SMILES IDX 16 77 18 78 17 79 20 80
REMARK H PARENT 3 6 70 24 48 35 8 61 20 81
REMARK Flexibility Score: inf
ROOT
ATOM      1  C   UNL A   1      31.341  31.936  26.916  1.00  0.00     0.023 C 
ENDROOT
BRANCH   1   2
ATOM      2  C   UNL A   1      32.600  32.773  27.115  1.00  0.00     0.116 C 
BRANCH   2   3
ATOM      3  N   UNL A   1      32.329  34.113  27.605  1.00  0.00    -0.352 N 
ATOM      4  O   UNL A   1      32.530  35.933  28.915  1.00  0.00    -0.269 OA
ATOM      5  C   UNL A   1      32.990  34.853  28.554  1.00  0.00     0.251 C 
ATOM      6  H   UNL A   1      31.553  34.558  27.194  1.00  0.00     0.163 HD
BRANCH   5   7
ATOM      7  C   UNL A   1      34.232  34.341  29.167  1.00  0.00     0.039 A 
ATOM      8  C   UNL A   1      35.483  34.609  28.605  1.00  0.00     0.014 A 
ATOM      9  C   UNL A   1      34.135  33.586  30.337  1.00  0.00     0.014 A 
ATOM     10  C   UNL A   1      36.623  34.008  29.132  1.00  0.00     0.010 A 
ATOM     11  C   UNL A   1      35.288  33.049  30.911  1.00  0.00     0.010 A 
ATOM     12  C   UNL A   1      36.537  33.230  30.295  1.00  0.00    -0.014 A 
BRANCH  12  13
ATOM     13  C   UNL A   1      37.757  32.639  30.896  1.00  0.00     0.031 A 
ATOM     14  C   UNL A   1      38.414  31.440  30.277  1.00  0.00     0.074 A 
ATOM     15  C   UNL A   1      38.246  33.162  32.036  1.00  0.00     0.049 A 
ATOM     16  N   UNL A   1      39.419  30.728  30.720  1.00  0.00    -0.248 NA
ATOM     17  C   UNL A   1      37.862  30.971  28.996  1.00  0.00     0.031 C 
ATOM     18  C   UNL A   1      37.700  34.331  32.730  1.00  0.00     0.029 A 
ATOM     19  N   UNL A   1      39.302  32.771  32.818  1.00  0.00    -0.354 N 
ATOM     20  C   UNL A   1      39.603  29.712  29.790  1.00  0.00     0.074 A 
ATOM     21  C   UNL A   1      38.590  29.887  28.770  1.00  0.00     0.031 C 
ATOM     22  C   UNL A   1      38.428  34.564  33.831  1.00  0.00     0.029 A 
ATOM     23  C   UNL A   1      39.445  33.526  33.955  1.00  0.00     0.049 A 
ATOM     24  H   UNL A   1      39.897  32.021  32.587  1.00  0.00     0.167 HD
ATOM     25  C   UNL A   1      40.530  28.724  29.790  1.00  0.00     0.031 A 
ATOM     26  C   UNL A   1      40.274  33.382  35.005  1.00  0.00     0.031 A 
ATOM     27  C   UNL A   1      41.526  28.549  30.816  1.00  0.00     0.049 A 
ATOM     28  C   UNL A   1      41.258  32.249  35.012  1.00  0.00     0.074 A 
ATOM     29  C   UNL A   1      42.533  27.602  30.887  1.00  0.00     0.029 A 
ATOM     30  N   UNL A   1      41.632  29.334  31.954  1.00  0.00    -0.354 N 
ATOM     31  N   UNL A   1      41.444  31.315  34.111  1.00  0.00    -0.248 NA
ATOM     32  C   UNL A   1      42.147  32.150  36.178  1.00  0.00     0.031 C 
ATOM     33  C   UNL A   1      43.206  27.773  32.102  1.00  0.00     0.029 A 
ATOM     34  C   UNL A   1      42.666  28.871  32.753  1.00  0.00     0.049 A 
ATOM     35  H   UNL A   1      41.057  30.104  32.165  1.00  0.00     0.167 HD
ATOM     36  C   UNL A   1      42.490  30.536  34.584  1.00  0.00     0.074 A 
ATOM     37  C   UNL A   1      42.899  31.108  35.851  1.00  0.00     0.031 C 
ATOM     38  C   UNL A   1      43.064  29.450  34.011  1.00  0.00     0.031 A 
BRANCH  25  39
ATOM     39  C   UNL A   1      40.471  27.722  28.667  1.00  0.00    -0.014 A 
ATOM     40  C   UNL A   1      41.171  27.918  27.467  1.00  0.00     0.009 A 
ATOM     41  C   UNL A   1      39.710  26.552  28.823  1.00  0.00     0.009 A 
ATOM     42  C   UNL A   1      41.067  26.990  26.426  1.00  0.00     0.001 A 
ATOM     43  C   UNL A   1      39.634  25.611  27.794  1.00  0.00     0.001 A 
ATOM     44  C   UNL A   1      40.300  25.838  26.591  1.00  0.00     0.000 A 
ENDBRANCH  25  39
BRANCH  26  45
ATOM     45  C   UNL A   1      40.178  34.336  36.138  1.00  0.00    -0.014 A 
ATOM     46  C   UNL A   1      40.903  35.535  36.127  1.00  0.00     0.009 A 
ATOM     47  C   UNL A   1      39.308  34.076  37.210  1.00  0.00     0.009 A 
ATOM     48  C   UNL A   1      40.766  36.451  37.173  1.00  0.00     0.001 A 
ATOM     49  C   UNL A   1      39.151  35.006  38.238  1.00  0.00     0.001 A 
ATOM     50  C   UNL A   1      39.884  36.192  38.221  1.00  0.00     0.000 A 
ENDBRANCH  26  45
BRANCH  38  51
ATOM     51  C   UNL A   1      44.233  28.827  34.722  1.00  0.00    -0.014 A 
ATOM     52  C   UNL A   1      44.064  27.768  35.626  1.00  0.00     0.009 A 
ATOM     53  C   UNL A   1      45.534  29.262  34.417  1.00  0.00     0.009 A 
ATOM     54  C   UNL A   1      45.176  27.168  36.223  1.00  0.00     0.001 A 
ATOM     55  C   UNL A   1      46.642  28.643  34.995  1.00  0.00     0.001 A 
ATOM     56  C   UNL A   1      46.462  27.600  35.901  1.00  0.00     0.000 A 
ENDBRANCH  38  51
ENDBRANCH  12  13
ENDBRANCH   5   7
ENDBRANCH   2   3
ENDBRANCH   1   2
BRANCH   1  57
ATOM     57  C   UNL A   1      31.336  31.015  25.699  1.00  0.00     0.023 C 
BRANCH  57  58
ATOM     58  C   UNL A   1      31.965  29.643  25.898  1.00  0.00     0.116 C 
BRANCH  58  59
ATOM     59  N   UNL A   1      32.759  29.177  24.773  1.00  0.00    -0.352 N 
ATOM     60  C   UNL A   1      32.270  28.613  23.629  1.00  0.00     0.252 C 
ATOM     61  H   UNL A   1      33.735  29.278  24.841  1.00  0.00     0.163 HD
ATOM     62  O   UNL A   1      32.897  28.597  22.573  1.00  0.00    -0.269 OA
BRANCH  60  63
ATOM     63  C   UNL A   1      30.967  27.970  23.633  1.00  0.00     0.058 A 
ATOM     64  C   UNL A   1      30.828  26.704  24.210  1.00  0.00     0.007 A 
ATOM     65  C   UNL A   1      29.880  28.703  23.078  1.00  0.00     0.014 A 
ATOM     66  C   UNL A   1      29.512  26.243  24.217  1.00  0.00     0.120 A 
ATOM     67  C   UNL A   1      28.609  28.127  23.206  1.00  0.00     0.071 A 
ATOM     68  C   UNL A   1      29.997  29.975  22.456  1.00  0.00     0.011 A 
ATOM     69  N   UNL A   1      28.430  26.916  23.753  1.00  0.00    -0.256 NA
ATOM     70  C   UNL A   1      27.501  28.849  22.779  1.00  0.00     0.029 A 
ATOM     71  C   UNL A   1      28.874  30.676  22.027  1.00  0.00     0.001 A 
ATOM     72  C   UNL A   1      27.619  30.115  22.201  1.00  0.00     0.002 A 
BRANCH  64  73
ATOM     73  C   UNL A   1      31.807  25.920  25.007  1.00  0.00     0.031 C 
ATOM     74  C   UNL A   1      31.863  24.888  25.873  1.00  0.00     0.077 C 
ATOM     75  S   UNL A   1      33.484  24.260  26.227  1.00  0.00    -0.053 SA
ATOM     76  C   UNL A   1      30.985  23.959  26.627  1.00  0.00     0.227 C 
ATOM     77  C   UNL A   1      32.802  22.757  26.862  1.00  0.00     0.168 C 
ATOM     78  N   UNL A   1      31.459  22.859  27.115  1.00  0.00    -0.194 NA
ATOM     79  S   UNL A   1      33.737  21.389  27.077  1.00  0.00    -0.050 S 
BRANCH  76  80
ATOM     80  O   UNL A   1      29.731  24.268  26.929  1.00  0.00    -0.492 OA
ATOM     81  H   UNL A   1      29.023  23.835  26.493  1.00  0.00     0.295 HD
ENDBRANCH  76  80
ENDBRANCH  64  73
ENDBRANCH  60  63
ENDBRANCH  58  59
ENDBRANCH  57  58
ENDBRANCH   1  57
TORSDOF 13
ENDMDL
MODEL 2
REMARK VINA RESULT:     -12.3      5.411     10.034
REMARK SMILES O=C(NCCCCNC(=O)c1c(/C=C2/SC(=S)N=C2O)cnc2ccccc12)c1ccc(-c2c3nc(c(-c4ccccc4)c4ccc([nH]4)c(-c4ccccc4)c4nc(c(-c5ccccc5)c5ccc2[nH]5)C=C4)C=C3)cc1
REMARK SMILES IDX 5 1 4 2 3 3 1 4 2 5 29 7 30 8 76 9 31 10 75 11 32 12 33 13
REMARK SMILES IDX 34 14 69 15 35 16 74 17 68 18 70 19 36 20 73 21 67 22 66 23
REMARK SMILES IDX 37 25 59 26 44 27 58 28 45 29 48 30 57 31 71 32 46 33 47 34
REMARK SMILES IDX 56 36 72 37 49 38 38 39 39 40 43 41 40 42 42 43 41 44 60 45
REMARK SMILES IDX 61 46 65 47 62 48 64 49 63 50 50 51 51 52 55 53 52 54 54 55
REMARK SMILES IDX 53 56 6 57 7 58 8 59 9 60 10 62 11 63 12 64 28 65 21 66
REMARK SMILES IDX 23 67 27 68 22 69 24 70 26 71 25 72 13 73 14 74 15 75 19 76
REMARK SMILES IDX 16 77 18 78 17 79 20 80
REMARK H PARENT 3 6 70 24 48 35 8 61 20 81
REMARK Flexibility Score: inf
ROOT
ATOM      1  C   UNL A   1      37.734  19.931  24.723  1.00  0.00     0.023 C 
ENDROOT
BRANCH   1   2
ATOM      2  C   UNL A   1      38.825  20.211  25.751  1.00  0.00     0.116 C 
BRANCH   2   3
ATOM      3  N   UNL A   1      39.884  19.217  25.751  1.00  0.00    -0.352 N 
ATOM      4  O   UNL A   1      41.984  18.411  25.840  1.00  0.00    -0.269 OA
ATOM      5  C   UNL A   1      41.225  19.361  26.008  1.00  0.00     0.251 C 
ATOM      6  H   UNL A   1      39.597  18.301  25.533  1.00  0.00     0.163 HD
BRANCH   5   7
ATOM      7  C   UNL A   1      41.763  20.663  26.450  1.00  0.00     0.039 A 
ATOM      8  C   UNL A   1      41.945  20.950  27.806  1.00  0.00     0.014 A 
ATOM      9  C   UNL A   1      42.105  21.608  25.481  1.00  0.00     0.014 A 
ATOM     10  C   UNL A   1      42.333  22.228  28.198  1.00  0.00     0.010 A 
ATOM     11  C   UNL A   1      42.570  22.863  25.872  1.00  0.00     0.010 A 
ATOM     12  C   UNL A   1      42.658  23.194  27.234  1.00  0.00    -0.014 A 
BRANCH  12  13
ATOM     13  C   UNL A   1      43.132  24.537  27.645  1.00  0.00     0.031 A 
ATOM     14  C   UNL A   1      42.158  25.599  28.065  1.00  0.00     0.074 A 
ATOM     15  C   UNL A   1      44.449  24.811  27.595  1.00  0.00     0.049 A 
ATOM     16  N   UNL A   1      42.381  26.857  28.354  1.00  0.00    -0.248 NA
ATOM     17  C   UNL A   1      40.745  25.201  28.162  1.00  0.00     0.031 C 
ATOM     18  C   UNL A   1      45.494  23.861  27.211  1.00  0.00     0.029 A 
ATOM     19  N   UNL A   1      45.130  25.973  27.853  1.00  0.00    -0.354 N 
ATOM     20  C   UNL A   1      41.138  27.406  28.639  1.00  0.00     0.074 A 
ATOM     21  C   UNL A   1      40.162  26.351  28.466  1.00  0.00     0.031 C 
ATOM     22  C   UNL A   1      46.685  24.476  27.263  1.00  0.00     0.029 A 
ATOM     23  C   UNL A   1      46.479  25.875  27.618  1.00  0.00     0.049 A 
ATOM     24  H   UNL A   1      44.695  26.796  28.174  1.00  0.00     0.167 HD
ATOM     25  C   UNL A   1      40.838  28.675  29.008  1.00  0.00     0.031 A 
ATOM     26  C   UNL A   1      47.443  26.813  27.645  1.00  0.00     0.031 A 
ATOM     27  C   UNL A   1      41.814  29.723  29.166  1.00  0.00     0.049 A 
ATOM     28  C   UNL A   1      47.084  28.225  28.003  1.00  0.00     0.074 A 
ATOM     29  C   UNL A   1      41.617  31.031  29.572  1.00  0.00     0.029 A 
ATOM     30  N   UNL A   1      43.171  29.582  28.912  1.00  0.00    -0.354 N 
ATOM     31  N   UNL A   1      45.910  28.724  28.304  1.00  0.00    -0.248 NA
ATOM     32  C   UNL A   1      48.181  29.201  28.030  1.00  0.00     0.031 C 
ATOM     33  C   UNL A   1      42.844  31.700  29.501  1.00  0.00     0.029 A 
ATOM     34  C   UNL A   1      43.818  30.790  29.119  1.00  0.00     0.049 A 
ATOM     35  H   UNL A   1      43.609  28.749  28.625  1.00  0.00     0.167 HD
ATOM     36  C   UNL A   1      46.129  30.065  28.584  1.00  0.00     0.074 A 
ATOM     37  C   UNL A   1      47.550  30.301  28.421  1.00  0.00     0.031 C 
ATOM     38  C   UNL A   1      45.232  31.012  28.954  1.00  0.00     0.031 A 
BRANCH  25  39
ATOM     39  C   UNL A   1      39.385  29.010  29.214  1.00  0.00    -0.014 A 
ATOM     40  C   UNL A   1      38.766  28.869  30.467  1.00  0.00     0.009 A 
ATOM     41  C   UNL A   1      38.625  29.489  28.134  1.00  0.00     0.009 A 
ATOM     42  C   UNL A   1      37.406  29.150  30.619  1.00  0.00     0.001 A 
ATOM     43  C   UNL A   1      37.274  29.800  28.298  1.00  0.00     0.001 A 
ATOM     44  C   UNL A   1      36.661  29.617  29.537  1.00  0.00     0.000 A 
ENDBRANCH  25  39
BRANCH  26  45
ATOM     45  C   UNL A   1      48.835  26.428  27.297  1.00  0.00    -0.014 A 
ATOM     46  C   UNL A   1      49.724  25.989  28.287  1.00  0.00     0.009 A 
ATOM     47  C   UNL A   1      49.259  26.442  25.958  1.00  0.00     0.009 A 
ATOM     48  C   UNL A   1      51.015  25.578  27.943  1.00  0.00     0.001 A 
ATOM     49  C   UNL A   1      50.538  26.004  25.614  1.00  0.00     0.001 A 
ATOM     50  C   UNL A   1      51.417  25.576  26.608  1.00  0.00     0.000 A 
ENDBRANCH  26  45
BRANCH  38  51
ATOM     51  C   UNL A   1      45.759  32.386  29.257  1.00  0.00    -0.014 A 
ATOM     52  C   UNL A   1      45.808  33.386  28.275  1.00  0.00     0.009 A 
ATOM     53  C   UNL A   1      46.139  32.702  30.572  1.00  0.00     0.009 A 
ATOM     54  C   UNL A   1      46.245  34.673  28.602  1.00  0.00     0.001 A 
ATOM     55  C   UNL A   1      46.548  33.995  30.901  1.00  0.00     0.001 A 
ATOM     56  C   UNL A   1      46.604  34.978  29.915  1.00  0.00     0.000 A 
ENDBRANCH  38  51
ENDBRANCH  12  13
ENDBRANCH   5   7
ENDBRANCH   2   3
ENDBRANCH   1   2
BRANCH   1  57
ATOM     57  C   UNL A   1      36.375  20.569  24.999  1.00  0.00     0.023 C 
BRANCH  57  58
ATOM     58  C   UNL A   1      36.355  22.089  25.075  1.00  0.00     0.116 C 
BRANCH  58  59
ATOM     59  N   UNL A   1      35.638  22.624  26.220  1.00  0.00    -0.352 N 
ATOM     60  C   UNL A   1      34.296  22.878  26.277  1.00  0.00     0.252 C 
ATOM     61  H   UNL A   1      36.165  22.821  27.026  1.00  0.00     0.163 HD
ATOM     62  O   UNL A   1      33.675  22.946  27.334  1.00  0.00    -0.269 OA
BRANCH  60  63
ATOM     63  C   UNL A   1      33.547  23.109  25.053  1.00  0.00     0.058 A 
ATOM     64  C   UNL A   1      32.878  22.042  24.446  1.00  0.00     0.007 A 
ATOM     65  C   UNL A   1      33.503  24.445  24.561  1.00  0.00     0.014 A 
ATOM     66  C   UNL A   1      32.136  22.421  23.328  1.00  0.00     0.120 A 
ATOM     67  C   UNL A   1      32.672  24.675  23.457  1.00  0.00     0.071 A 
ATOM     68  C   UNL A   1      34.199  25.541  25.138  1.00  0.00     0.011 A 
ATOM     69  N   UNL A   1      32.012  23.682  22.845  1.00  0.00    -0.256 NA
ATOM     70  C   UNL A   1      32.508  25.979  23.004  1.00  0.00     0.029 A 
ATOM     71  C   UNL A   1      34.027  26.837  24.662  1.00  0.00     0.001 A 
ATOM     72  C   UNL A   1      33.167  27.058  23.597  1.00  0.00     0.002 A 
BRANCH  64  73
ATOM     73  C   UNL A   1      32.657  20.661  24.948  1.00  0.00     0.031 C 
ATOM     74  C   UNL A   1      32.561  19.390  24.508  1.00  0.00     0.077 C 
ATOM     75  S   UNL A   1      32.581  18.132  25.758  1.00  0.00    -0.053 SA
ATOM     76  C   UNL A   1      32.531  18.599  23.253  1.00  0.00     0.227 C 
ATOM     77  C   UNL A   1      32.977  16.895  24.557  1.00  0.00     0.168 C 
ATOM     78  N   UNL A   1      32.764  17.326  23.274  1.00  0.00    -0.194 NA
ATOM     79  S   UNL A   1      33.571  15.398  25.001  1.00  0.00    -0.050 S 
BRANCH  76  80
ATOM     80  O   UNL A   1      32.153  19.129  22.097  1.00  0.00    -0.492 OA
ATOM     81  H   UNL A   1      32.789  19.298  21.429  1.00  0.00     0.295 HD
ENDBRANCH  76  80
ENDBRANCH  64  73
ENDBRANCH  60  63
ENDBRANCH  58  59
ENDBRANCH  57  58
ENDBRANCH   1  57
TORSDOF 13
ENDMDL
MODEL 3
REMARK VINA RESULT:     -12.2      5.232     10.389
REMARK SMILES O=C(NCCCCNC(=O)c1c(/C=C2/SC(=S)N=C2O)cnc2ccccc12)c1ccc(-c2c3nc(c(-c4ccccc4)c4ccc([nH]4)c(-c4ccccc4)c4nc(c(-c5ccccc5)c5ccc2[nH]5)C=C4)C=C3)cc1
REMARK SMILES IDX 5 1 4 2 3 3 1 4 2 5 29 7 30 8 76 9 31 10 75 11 32 12 33 13
REMARK SMILES IDX 34 14 69 15 35 16 74 17 68 18 70 19 36 20 73 21 67 22 66 23
REMARK SMILES IDX 37 25 59 26 44 27 58 28 45 29 48 30 57 31 71 32 46 33 47 34
REMARK SMILES IDX 56 36 72 37 49 38 38 39 39 40 43 41 40 42 42 43 41 44 60 45
REMARK SMILES IDX 61 46 65 47 62 48 64 49 63 50 50 51 51 52 55 53 52 54 54 55
REMARK SMILES IDX 53 56 6 57 7 58 8 59 9 60 10 62 11 63 12 64 28 65 21 66
REMARK SMILES IDX 23 67 27 68 22 69 24 70 26 71 25 72 13 73 14 74 15 75 19 76
REMARK SMILES IDX 16 77 18 78 17 79 20 80
REMARK H PARENT 3 6 70 24 48 35 8 61 20 81
REMARK Flexibility Score: inf
ROOT
ATOM      1  C   UNL A   1      38.172  19.922  24.693  1.00  0.00     0.023 C 
ENDROOT
BRANCH   1   2
ATOM      2  C   UNL A   1      39.136  20.072  25.865  1.00  0.00     0.116 C 
BRANCH   2   3
ATOM      3  N   UNL A   1      40.226  19.113  25.839  1.00  0.00    -0.352 N 
ATOM      4  O   UNL A   1      42.352  18.372  25.896  1.00  0.00    -0.269 OA
ATOM      5  C   UNL A   1      41.565  19.296  26.084  1.00  0.00     0.251 C 
ATOM      6  H   UNL A   1      39.966  18.191  25.612  1.00  0.00     0.163 HD
BRANCH   5   7
ATOM      7  C   UNL A   1      42.066  20.608  26.540  1.00  0.00     0.039 A 
ATOM      8  C   UNL A   1      42.181  20.909  27.900  1.00  0.00     0.014 A 
ATOM      9  C   UNL A   1      42.440  21.549  25.578  1.00  0.00     0.014 A 
ATOM     10  C   UNL A   1      42.535  22.195  28.298  1.00  0.00     0.010 A 
ATOM     11  C   UNL A   1      42.872  22.813  25.980  1.00  0.00     0.010 A 
ATOM     12  C   UNL A   1      42.893  23.156  27.342  1.00  0.00    -0.014 A 
BRANCH  12  13
ATOM     13  C   UNL A   1      43.331  24.509  27.762  1.00  0.00     0.031 A 
ATOM     14  C   UNL A   1      42.327  25.553  28.157  1.00  0.00     0.074 A 
ATOM     15  C   UNL A   1      44.644  24.808  27.743  1.00  0.00     0.049 A 
ATOM     16  N   UNL A   1      42.519  26.814  28.449  1.00  0.00    -0.248 NA
ATOM     17  C   UNL A   1      40.920  25.127  28.220  1.00  0.00     0.031 C 
ATOM     18  C   UNL A   1      45.716  23.877  27.385  1.00  0.00     0.029 A 
ATOM     19  N   UNL A   1      45.296  25.983  28.016  1.00  0.00    -0.354 N 
ATOM     20  C   UNL A   1      41.259  27.340  28.703  1.00  0.00     0.074 A 
ATOM     21  C   UNL A   1      40.308  26.266  28.508  1.00  0.00     0.031 C 
ATOM     22  C   UNL A   1      46.893  24.515  27.465  1.00  0.00     0.029 A 
ATOM     23  C   UNL A   1      46.652  25.911  27.813  1.00  0.00     0.049 A 
ATOM     24  H   UNL A   1      44.837  26.797  28.324  1.00  0.00     0.167 HD
ATOM     25  C   UNL A   1      40.927  28.603  29.063  1.00  0.00     0.031 A 
ATOM     26  C   UNL A   1      47.597  26.867  27.862  1.00  0.00     0.031 A 
ATOM     27  C   UNL A   1      41.878  29.670  29.243  1.00  0.00     0.049 A 
ATOM     28  C   UNL A   1      47.203  28.272  28.210  1.00  0.00     0.074 A 
ATOM     29  C   UNL A   1      41.646  30.974  29.642  1.00  0.00     0.029 A 
ATOM     30  N   UNL A   1      43.243  29.555  29.022  1.00  0.00    -0.354 N 
ATOM     31  N   UNL A   1      46.012  28.749  28.481  1.00  0.00    -0.248 NA
ATOM     32  C   UNL A   1      48.280  29.269  28.261  1.00  0.00     0.031 C 
ATOM     33  C   UNL A   1      42.861  31.666  29.600  1.00  0.00     0.029 A 
ATOM     34  C   UNL A   1      43.861  30.775  29.243  1.00  0.00     0.049 A 
ATOM     35  H   UNL A   1      43.704  28.730  28.746  1.00  0.00     0.167 HD
ATOM     36  C   UNL A   1      46.199  30.094  28.765  1.00  0.00     0.074 A 
ATOM     37  C   UNL A   1      47.618  30.357  28.636  1.00  0.00     0.031 C 
ATOM     38  C   UNL A   1      45.275  31.024  29.112  1.00  0.00     0.031 A 
BRANCH  25  39
ATOM     39  C   UNL A   1      39.463  28.911  29.234  1.00  0.00    -0.014 A 
ATOM     40  C   UNL A   1      38.678  29.378  28.168  1.00  0.00     0.009 A 
ATOM     41  C   UNL A   1      38.856  28.715  30.486  1.00  0.00     0.009 A 
ATOM     42  C   UNL A   1      37.330  29.693  28.366  1.00  0.00     0.001 A 
ATOM     43  C   UNL A   1      37.502  28.999  30.672  1.00  0.00     0.001 A 
ATOM     44  C   UNL A   1      36.743  29.502  29.616  1.00  0.00     0.000 A 
ENDBRANCH  25  39
BRANCH  26  45
ATOM     45  C   UNL A   1      49.004  26.508  27.548  1.00  0.00    -0.014 A 
ATOM     46  C   UNL A   1      49.879  26.093  28.561  1.00  0.00     0.009 A 
ATOM     47  C   UNL A   1      49.457  26.522  26.219  1.00  0.00     0.009 A 
ATOM     48  C   UNL A   1      51.185  25.707  28.249  1.00  0.00     0.001 A 
ATOM     49  C   UNL A   1      50.753  26.108  25.907  1.00  0.00     0.001 A 
ATOM     50  C   UNL A   1      51.617  25.705  26.924  1.00  0.00     0.000 A 
ENDBRANCH  26  45
BRANCH  38  51
ATOM     51  C   UNL A   1      45.768  32.408  29.425  1.00  0.00    -0.014 A 
ATOM     52  C   UNL A   1      45.821  33.408  28.443  1.00  0.00     0.009 A 
ATOM     53  C   UNL A   1      46.111  32.732  30.748  1.00  0.00     0.009 A 
ATOM     54  C   UNL A   1      46.225  34.704  28.779  1.00  0.00     0.001 A 
ATOM     55  C   UNL A   1      46.487  34.033  31.085  1.00  0.00     0.001 A 
ATOM     56  C   UNL A   1      46.548  35.016  30.100  1.00  0.00     0.000 A 
ENDBRANCH  38  51
ENDBRANCH  12  13
ENDBRANCH   5   7
ENDBRANCH   2   3
ENDBRANCH   1   2
BRANCH   1  57
ATOM     57  C   UNL A   1      36.692  20.115  25.015  1.00  0.00     0.023 C 
BRANCH  57  58
ATOM     58  C   UNL A   1      36.247  21.547  25.272  1.00  0.00     0.116 C 
BRANCH  58  59
ATOM     59  N   UNL A   1      35.369  21.706  26.419  1.00  0.00    -0.352 N 
ATOM     60  C   UNL A   1      34.026  21.457  26.440  1.00  0.00     0.252 C 
ATOM     61  H   UNL A   1      35.778  22.022  27.256  1.00  0.00     0.163 HD
ATOM     62  O   UNL A   1      33.407  21.222  27.474  1.00  0.00    -0.269 OA
BRANCH  60  63
ATOM     63  C   UNL A   1      33.261  21.489  25.204  1.00  0.00     0.058 A 
ATOM     64  C   UNL A   1      32.838  22.719  24.691  1.00  0.00     0.007 A 
ATOM     65  C   UNL A   1      33.021  20.244  24.556  1.00  0.00     0.014 A 
ATOM     66  C   UNL A   1      32.186  22.610  23.463  1.00  0.00     0.120 A 
ATOM     67  C   UNL A   1      32.396  20.304  23.303  1.00  0.00     0.071 A 
ATOM     68  C   UNL A   1      33.408  18.978  25.070  1.00  0.00     0.011 A 
ATOM     69  N   UNL A   1      31.977  21.461  22.773  1.00  0.00    -0.256 NA
ATOM     70  C   UNL A   1      32.236  19.128  22.579  1.00  0.00     0.029 A 
ATOM     71  C   UNL A   1      33.229  17.812  24.332  1.00  0.00     0.001 A 
ATOM     72  C   UNL A   1      32.652  17.890  23.074  1.00  0.00     0.002 A 
BRANCH  64  73
ATOM     73  C   UNL A   1      33.191  24.094  25.131  1.00  0.00     0.031 C 
ATOM     74  C   UNL A   1      33.432  25.323  24.631  1.00  0.00     0.077 C 
ATOM     75  S   UNL A   1      33.511  26.640  25.817  1.00  0.00    -0.053 SA
ATOM     76  C   UNL A   1      33.580  26.040  23.341  1.00  0.00     0.227 C 
ATOM     77  C   UNL A   1      33.281  27.847  24.544  1.00  0.00     0.168 C 
ATOM     78  N   UNL A   1      33.481  27.330  23.292  1.00  0.00    -0.194 NA
ATOM     79  S   UNL A   1      32.837  29.419  24.894  1.00  0.00    -0.050 S 
BRANCH  76  80
ATOM     80  O   UNL A   1      33.930  25.414  22.225  1.00  0.00    -0.492 OA
ATOM     81  H   UNL A   1      33.788  25.822  21.394  1.00  0.00     0.295 HD
ENDBRANCH  76  80
ENDBRANCH  64  73
ENDBRANCH  60  63
ENDBRANCH  58  59
ENDBRANCH  57  58
ENDBRANCH   1  57
TORSDOF 13
ENDMDL
