MODEL 1
REMARK VINA RESULT:     -10.7      0.000      0.000
REMARK SMILES C[C@]([NH2+]Cc1noc(C2CC2)n1)(C(=O)NCCCCNC(=O)c1ccc(-c2c3nc(c(-c4ccccc4)c4ccc([nH]4)c(-c4ccccc4)c4nc(c(-c5ccccc5)c5ccc2[nH]5)C=C4)C=C3)cc1)C(F)(F)F
REMARK SMILES IDX 16 1 15 2 13 3 14 4 2 6 1 7 71 8 72 9 73 10 74 11 3 12 4 15
REMARK SMILES IDX 5 16 6 17 12 18 7 19 8 20 9 21 10 22 11 23 17 24 18 25 19 26
REMARK SMILES IDX 20 27 21 28 22 30 23 31 24 32 70 33 25 34 69 35 26 36 27 37
REMARK SMILES IDX 28 38 63 39 29 40 68 41 62 42 64 43 30 44 67 45 61 46 60 47
REMARK SMILES IDX 31 49 53 50 38 51 52 52 39 53 42 54 51 55 65 56 40 57 41 58
REMARK SMILES IDX 50 60 66 61 43 62 32 63 33 64 37 65 34 66 36 67 35 68 54 69
REMARK SMILES IDX 55 70 59 71 56 72 58 73 57 74 44 75 45 76 49 77 46 78 48 79
REMARK SMILES IDX 47 80
REMARK H PARENT 15 5 3 13 3 14 20 29 64 48 42 59
REMARK Flexibility Score: inf
ROOT
ATOM      1  C   UNL A   1      36.365  21.482  25.475  1.00  0.00     0.116 C 
ENDROOT
BRANCH   1   2
ATOM      2  N   UNL A   1      35.403  21.790  26.514  1.00  0.00    -0.350 N 
ATOM      3  C   UNL A   1      34.331  22.624  26.616  1.00  0.00     0.290 C 
ATOM      4  O   UNL A   1      33.943  22.770  27.781  1.00  0.00    -0.267 OA
ATOM      5  H   UNL A   1      35.561  21.277  27.340  1.00  0.00     0.163 HD
BRANCH   3   6
ATOM      6  C   UNL A   1      33.650  23.370  25.432  1.00  0.00     0.268 C 
ATOM      7  C   UNL A   1      32.198  23.788  25.715  1.00  0.00     0.101 C 
BRANCH   6   8
ATOM      8  C   UNL A   1      34.455  24.717  25.335  1.00  0.00     0.453 C 
ATOM      9  F   UNL A   1      35.762  24.569  25.658  1.00  0.00    -0.164 F 
ATOM     10  F   UNL A   1      34.435  25.199  24.062  1.00  0.00    -0.164 F 
ATOM     11  F   UNL A   1      33.927  25.689  26.116  1.00  0.00    -0.164 F 
ENDBRANCH   6   8
BRANCH   6  12
ATOM     12  N   UNL A   1      33.775  22.632  24.125  1.00  0.00    -0.320 N 
ATOM     13  H   UNL A   1      34.547  21.974  24.219  1.00  0.00     0.347 HD
ATOM     14  H   UNL A   1      33.905  23.365  23.427  1.00  0.00     0.347 HD
BRANCH  12  15
ATOM     15  C   UNL A   1      32.618  21.884  23.663  1.00  0.00     0.344 C 
BRANCH  15  16
ATOM     16  C   UNL A   1      32.531  20.483  24.183  1.00  0.00     0.226 A 
ATOM     17  N   UNL A   1      32.048  20.129  25.381  1.00  0.00    -0.056 NA
ATOM     18  N   UNL A   1      32.963  19.436  23.404  1.00  0.00    -0.190 NA
ATOM     19  O   UNL A   1      32.204  18.739  25.387  1.00  0.00    -0.339 OA
ATOM     20  C   UNL A   1      32.750  18.397  24.180  1.00  0.00     0.229 A 
BRANCH  20  21
ATOM     21  C   UNL A   1      33.065  16.961  23.787  1.00  0.00     0.079 C 
ATOM     22  C   UNL A   1      34.403  16.671  23.133  1.00  0.00     0.014 C 
ATOM     23  C   UNL A   1      34.161  16.223  24.533  1.00  0.00     0.014 C 
ENDBRANCH  20  21
ENDBRANCH  15  16
ENDBRANCH  12  15
ENDBRANCH   6  12
ENDBRANCH   3   6
ENDBRANCH   1   2
BRANCH   1  24
ATOM     24  C   UNL A   1      36.202  20.034  25.000  1.00  0.00     0.023 C 
BRANCH  24  25
ATOM     25  C   UNL A   1      37.484  19.208  24.994  1.00  0.00     0.023 C 
BRANCH  25  26
ATOM     26  C   UNL A   1      38.701  19.909  25.575  1.00  0.00     0.116 C 
BRANCH  26  27
ATOM     27  N   UNL A   1      39.858  19.038  25.726  1.00  0.00    -0.352 N 
ATOM     28  C   UNL A   1      41.114  19.358  26.183  1.00  0.00     0.251 C 
ATOM     29  H   UNL A   1      39.723  18.098  25.467  1.00  0.00     0.163 HD
ATOM     30  O   UNL A   1      42.017  18.526  26.168  1.00  0.00    -0.269 OA
BRANCH  28  31
ATOM     31  C   UNL A   1      41.375  20.732  26.650  1.00  0.00     0.039 A 
ATOM     32  C   UNL A   1      41.670  20.942  27.999  1.00  0.00     0.014 A 
ATOM     33  C   UNL A   1      41.401  21.793  25.742  1.00  0.00     0.014 A 
ATOM     34  C   UNL A   1      42.070  22.209  28.423  1.00  0.00     0.010 A 
ATOM     35  C   UNL A   1      41.880  23.031  26.149  1.00  0.00     0.010 A 
ATOM     36  C   UNL A   1      42.220  23.250  27.493  1.00  0.00    -0.014 A 
BRANCH  36  37
ATOM     37  C   UNL A   1      42.726  24.583  27.900  1.00  0.00     0.031 A 
ATOM     38  C   UNL A   1      41.755  25.675  28.255  1.00  0.00     0.074 A 
ATOM     39  C   UNL A   1      44.049  24.835  27.872  1.00  0.00     0.049 A 
ATOM     40  N   UNL A   1      41.994  26.926  28.550  1.00  0.00    -0.248 NA
ATOM     41  C   UNL A   1      40.326  25.320  28.243  1.00  0.00     0.031 C 
ATOM     42  C   UNL A   1      45.090  23.875  27.494  1.00  0.00     0.029 A 
ATOM     43  N   UNL A   1      44.743  25.982  28.159  1.00  0.00    -0.354 N 
ATOM     44  C   UNL A   1      40.748  27.511  28.734  1.00  0.00     0.074 A 
ATOM     45  C   UNL A   1      39.756  26.493  28.469  1.00  0.00     0.031 C 
ATOM     46  C   UNL A   1      46.291  24.468  27.599  1.00  0.00     0.029 A 
ATOM     47  C   UNL A   1      46.103  25.853  28.016  1.00  0.00     0.049 A 
ATOM     48  H   UNL A   1      44.308  26.819  28.442  1.00  0.00     0.167 HD
ATOM     49  C   UNL A   1      40.454  28.777  29.113  1.00  0.00     0.031 A 
ATOM     50  C   UNL A   1      47.088  26.752  28.197  1.00  0.00     0.031 A 
ATOM     51  C   UNL A   1      41.439  29.783  29.402  1.00  0.00     0.049 A 
ATOM     52  C   UNL A   1      46.738  28.146  28.638  1.00  0.00     0.074 A 
ATOM     53  C   UNL A   1      41.243  31.077  29.851  1.00  0.00     0.029 A 
ATOM     54  N   UNL A   1      42.806  29.602  29.276  1.00  0.00    -0.354 N 
ATOM     55  N   UNL A   1      45.556  28.666  28.868  1.00  0.00    -0.248 NA
ATOM     56  C   UNL A   1      47.858  29.072  28.854  1.00  0.00     0.031 C 
ATOM     57  C   UNL A   1      42.495  31.691  29.964  1.00  0.00     0.029 A 
ATOM     58  C   UNL A   1      43.469  30.765  29.627  1.00  0.00     0.049 A 
ATOM     59  H   UNL A   1      43.242  28.770  28.982  1.00  0.00     0.167 HD
ATOM     60  C   UNL A   1      45.792  29.970  29.279  1.00  0.00     0.074 A 
ATOM     61  C   UNL A   1      47.229  30.158  29.281  1.00  0.00     0.031 C 
ATOM     62  C   UNL A   1      44.899  30.929  29.624  1.00  0.00     0.031 A 
BRANCH  49  63
ATOM     63  C   UNL A   1      39.000  29.135  29.236  1.00  0.00    -0.014 A 
ATOM     64  C   UNL A   1      38.326  29.017  30.463  1.00  0.00     0.009 A 
ATOM     65  C   UNL A   1      38.299  29.612  28.118  1.00  0.00     0.009 A 
ATOM     66  C   UNL A   1      36.969  29.329  30.557  1.00  0.00     0.001 A 
ATOM     67  C   UNL A   1      36.948  29.949  28.222  1.00  0.00     0.001 A 
ATOM     68  C   UNL A   1      36.283  29.799  29.438  1.00  0.00     0.000 A 
ENDBRANCH  49  63
BRANCH  50  69
ATOM     69  C   UNL A   1      48.504  26.357  27.989  1.00  0.00    -0.014 A 
ATOM     70  C   UNL A   1      49.094  26.469  26.721  1.00  0.00     0.009 A 
ATOM     71  C   UNL A   1      49.273  25.864  29.055  1.00  0.00     0.009 A 
ATOM     72  C   UNL A   1      50.417  26.072  26.517  1.00  0.00     0.001 A 
ATOM     73  C   UNL A   1      50.604  25.491  28.853  1.00  0.00     0.001 A 
ATOM     74  C   UNL A   1      51.171  25.587  27.583  1.00  0.00     0.000 A 
ENDBRANCH  50  69
BRANCH  62  75
ATOM     75  C   UNL A   1      45.451  32.255  30.063  1.00  0.00    -0.014 A 
ATOM     76  C   UNL A   1      45.743  32.509  31.412  1.00  0.00     0.009 A 
ATOM     77  C   UNL A   1      45.722  33.244  29.106  1.00  0.00     0.009 A 
ATOM     78  C   UNL A   1      46.271  33.742  31.797  1.00  0.00     0.001 A 
ATOM     79  C   UNL A   1      46.273  34.467  29.491  1.00  0.00     0.001 A 
ATOM     80  C   UNL A   1      46.539  34.717  30.836  1.00  0.00     0.000 A 
ENDBRANCH  62  75
ENDBRANCH  36  37
ENDBRANCH  28  31
ENDBRANCH  26  27
ENDBRANCH  25  26
ENDBRANCH  24  25
ENDBRANCH   1  24
TORSDOF 16
ENDMDL
MODEL 2
REMARK VINA RESULT:     -10.0      3.137      7.773
REMARK SMILES C[C@]([NH2+]Cc1noc(C2CC2)n1)(C(=O)NCCCCNC(=O)c1ccc(-c2c3nc(c(-c4ccccc4)c4ccc([nH]4)c(-c4ccccc4)c4nc(c(-c5ccccc5)c5ccc2[nH]5)C=C4)C=C3)cc1)C(F)(F)F
REMARK SMILES IDX 16 1 15 2 13 3 14 4 2 6 1 7 71 8 72 9 73 10 74 11 3 12 4 15
REMARK SMILES IDX 5 16 6 17 12 18 7 19 8 20 9 21 10 22 11 23 17 24 18 25 19 26
REMARK SMILES IDX 20 27 21 28 22 30 23 31 24 32 70 33 25 34 69 35 26 36 27 37
REMARK SMILES IDX 28 38 63 39 29 40 68 41 62 42 64 43 30 44 67 45 61 46 60 47
REMARK SMILES IDX 31 49 53 50 38 51 52 52 39 53 42 54 51 55 65 56 40 57 41 58
REMARK SMILES IDX 50 60 66 61 43 62 32 63 33 64 37 65 34 66 36 67 35 68 54 69
REMARK SMILES IDX 55 70 59 71 56 72 58 73 57 74 44 75 45 76 49 77 46 78 48 79
REMARK SMILES IDX 47 80
REMARK H PARENT 15 5 3 13 3 14 20 29 64 48 42 59
REMARK Flexibility Score: inf
ROOT
ATOM      1  C   UNL A   1      33.804  26.534  25.265  1.00  0.00     0.116 C 
ENDROOT
BRANCH   1   2
ATOM      2  N   UNL A   1      34.070  25.797  24.045  1.00  0.00    -0.350 N 
ATOM      3  C   UNL A   1      33.753  24.556  23.583  1.00  0.00     0.290 C 
ATOM      4  O   UNL A   1      34.410  24.230  22.587  1.00  0.00    -0.267 OA
ATOM      5  H   UNL A   1      34.606  26.314  23.401  1.00  0.00     0.163 HD
BRANCH   3   6
ATOM      6  C   UNL A   1      32.711  23.592  24.221  1.00  0.00     0.268 C 
ATOM      7  C   UNL A   1      32.338  22.400  23.325  1.00  0.00     0.101 C 
BRANCH   6   8
ATOM      8  C   UNL A   1      33.488  22.964  25.436  1.00  0.00     0.453 C 
ATOM      9  F   UNL A   1      33.266  23.627  26.596  1.00  0.00    -0.164 F 
ATOM     10  F   UNL A   1      33.086  21.682  25.653  1.00  0.00    -0.164 F 
ATOM     11  F   UNL A   1      34.824  22.911  25.220  1.00  0.00    -0.164 F 
ENDBRANCH   6   8
BRANCH   6  12
ATOM     12  N   UNL A   1      31.492  24.306  24.739  1.00  0.00    -0.320 N 
ATOM     13  H   UNL A   1      31.793  25.221  25.073  1.00  0.00     0.347 HD
ATOM     14  H   UNL A   1      31.111  23.683  25.451  1.00  0.00     0.347 HD
BRANCH  12  15
ATOM     15  C   UNL A   1      30.394  24.521  23.811  1.00  0.00     0.344 C 
BRANCH  15  16
ATOM     16  C   UNL A   1      30.309  25.907  23.252  1.00  0.00     0.226 A 
ATOM     17  N   UNL A   1      31.181  26.452  22.394  1.00  0.00    -0.056 NA
ATOM     18  N   UNL A   1      29.266  26.726  23.611  1.00  0.00    -0.190 NA
ATOM     19  O   UNL A   1      30.673  27.740  22.203  1.00  0.00    -0.339 OA
ATOM     20  C   UNL A   1      29.533  27.833  22.954  1.00  0.00     0.229 A 
BRANCH  20  21
ATOM     21  C   UNL A   1      28.671  29.085  23.007  1.00  0.00     0.079 C 
ATOM     22  C   UNL A   1      29.357  30.424  23.204  1.00  0.00     0.014 C 
ATOM     23  C   UNL A   1      28.772  30.090  21.875  1.00  0.00     0.014 C 
ENDBRANCH  20  21
ENDBRANCH  15  16
ENDBRANCH  12  15
ENDBRANCH   6  12
ENDBRANCH   3   6
ENDBRANCH   1   2
BRANCH   1  24
ATOM     24  C   UNL A   1      33.122  27.869  24.951  1.00  0.00     0.023 C 
BRANCH  24  25
ATOM     25  C   UNL A   1      33.714  29.080  25.664  1.00  0.00     0.023 C 
BRANCH  25  26
ATOM     26  C   UNL A   1      33.630  29.036  27.181  1.00  0.00     0.116 C 
BRANCH  26  27
ATOM     27  N   UNL A   1      33.645  30.353  27.804  1.00  0.00    -0.352 N 
ATOM     28  C   UNL A   1      34.666  30.960  28.494  1.00  0.00     0.251 C 
ATOM     29  H   UNL A   1      32.815  30.875  27.719  1.00  0.00     0.163 HD
ATOM     30  O   UNL A   1      34.494  32.045  29.042  1.00  0.00    -0.269 OA
BRANCH  28  31
ATOM     31  C   UNL A   1      35.963  30.265  28.607  1.00  0.00     0.039 A 
ATOM     32  C   UNL A   1      36.853  30.318  27.532  1.00  0.00     0.014 A 
ATOM     33  C   UNL A   1      36.321  29.631  29.799  1.00  0.00     0.014 A 
ATOM     34  C   UNL A   1      38.139  29.800  27.682  1.00  0.00     0.010 A 
ATOM     35  C   UNL A   1      37.628  29.193  29.974  1.00  0.00     0.010 A 
ATOM     36  C   UNL A   1      38.549  29.275  28.918  1.00  0.00    -0.014 A 
BRANCH  36  37
ATOM     37  C   UNL A   1      39.935  28.796  29.133  1.00  0.00     0.031 A 
ATOM     38  C   UNL A   1      40.964  29.723  29.719  1.00  0.00     0.074 A 
ATOM     39  C   UNL A   1      40.288  27.562  28.727  1.00  0.00     0.049 A 
ATOM     40  N   UNL A   1      42.243  29.524  29.905  1.00  0.00    -0.248 NA
ATOM     41  C   UNL A   1      40.497  31.061  30.119  1.00  0.00     0.031 C 
ATOM     42  C   UNL A   1      39.396  26.585  28.095  1.00  0.00     0.029 A 
ATOM     43  N   UNL A   1      41.499  26.920  28.779  1.00  0.00    -0.354 N 
ATOM     44  C   UNL A   1      42.736  30.717  30.417  1.00  0.00     0.074 A 
ATOM     45  C   UNL A   1      41.632  31.648  30.466  1.00  0.00     0.031 C 
ATOM     46  C   UNL A   1      40.086  25.460  27.843  1.00  0.00     0.029 A 
ATOM     47  C   UNL A   1      41.470  25.647  28.262  1.00  0.00     0.049 A 
ATOM     48  H   UNL A   1      42.312  27.331  29.152  1.00  0.00     0.167 HD
ATOM     49  C   UNL A   1      43.992  31.005  30.831  1.00  0.00     0.031 A 
ATOM     50  C   UNL A   1      42.452  24.735  28.137  1.00  0.00     0.031 A 
ATOM     51  C   UNL A   1      45.085  30.072  30.807  1.00  0.00     0.049 A 
ATOM     52  C   UNL A   1      43.834  25.071  28.623  1.00  0.00     0.074 A 
ATOM     53  C   UNL A   1      46.380  30.249  31.260  1.00  0.00     0.029 A 
ATOM     54  N   UNL A   1      45.006  28.783  30.306  1.00  0.00    -0.354 N 
ATOM     55  N   UNL A   1      44.270  26.183  29.163  1.00  0.00    -0.248 NA
ATOM     56  C   UNL A   1      44.854  24.022  28.492  1.00  0.00     0.031 C 
ATOM     57  C   UNL A   1      47.096  29.075  31.001  1.00  0.00     0.029 A 
ATOM     58  C   UNL A   1      46.233  28.155  30.427  1.00  0.00     0.049 A 
ATOM     59  H   UNL A   1      44.197  28.374  29.921  1.00  0.00     0.167 HD
ATOM     60  C   UNL A   1      45.607  25.960  29.459  1.00  0.00     0.074 A 
ATOM     61  C   UNL A   1      45.907  24.601  29.052  1.00  0.00     0.031 C 
ATOM     62  C   UNL A   1      46.509  26.803  30.018  1.00  0.00     0.031 A 
BRANCH  49  63
ATOM     63  C   UNL A   1      44.241  32.393  31.350  1.00  0.00    -0.014 A 
ATOM     64  C   UNL A   1      44.085  32.696  32.712  1.00  0.00     0.009 A 
ATOM     65  C   UNL A   1      44.651  33.406  30.470  1.00  0.00     0.009 A 
ATOM     66  C   UNL A   1      44.295  33.996  33.176  1.00  0.00     0.001 A 
ATOM     67  C   UNL A   1      44.887  34.699  30.941  1.00  0.00     0.001 A 
ATOM     68  C   UNL A   1      44.700  34.994  32.291  1.00  0.00     0.000 A 
ENDBRANCH  49  63
BRANCH  50  69
ATOM     69  C   UNL A   1      42.159  23.403  27.548  1.00  0.00    -0.014 A 
ATOM     70  C   UNL A   1      42.487  23.130  26.211  1.00  0.00     0.009 A 
ATOM     71  C   UNL A   1      41.549  22.400  28.317  1.00  0.00     0.009 A 
ATOM     72  C   UNL A   1      42.188  21.888  25.648  1.00  0.00     0.001 A 
ATOM     73  C   UNL A   1      41.274  21.150  27.758  1.00  0.00     0.001 A 
ATOM     74  C   UNL A   1      41.585  20.898  26.422  1.00  0.00     0.000 A 
ENDBRANCH  50  69
BRANCH  62  75
ATOM     75  C   UNL A   1      47.893  26.270  30.250  1.00  0.00    -0.014 A 
ATOM     76  C   UNL A   1      48.862  26.299  29.236  1.00  0.00     0.009 A 
ATOM     77  C   UNL A   1      48.241  25.772  31.515  1.00  0.00     0.009 A 
ATOM     78  C   UNL A   1      50.148  25.813  29.477  1.00  0.00     0.001 A 
ATOM     79  C   UNL A   1      49.535  25.309  31.760  1.00  0.00     0.001 A 
ATOM     80  C   UNL A   1      50.483  25.323  30.740  1.00  0.00     0.000 A 
ENDBRANCH  62  75
ENDBRANCH  36  37
ENDBRANCH  28  31
ENDBRANCH  26  27
ENDBRANCH  25  26
ENDBRANCH  24  25
ENDBRANCH   1  24
TORSDOF 16
ENDMDL
MODEL 3
REMARK VINA RESULT:     -10.0      2.894      7.781
REMARK SMILES C[C@]([NH2+]Cc1noc(C2CC2)n1)(C(=O)NCCCCNC(=O)c1ccc(-c2c3nc(c(-c4ccccc4)c4ccc([nH]4)c(-c4ccccc4)c4nc(c(-c5ccccc5)c5ccc2[nH]5)C=C4)C=C3)cc1)C(F)(F)F
REMARK SMILES IDX 16 1 15 2 13 3 14 4 2 6 1 7 71 8 72 9 73 10 74 11 3 12 4 15
REMARK SMILES IDX 5 16 6 17 12 18 7 19 8 20 9 21 10 22 11 23 17 24 18 25 19 26
REMARK SMILES IDX 20 27 21 28 22 30 23 31 24 32 70 33 25 34 69 35 26 36 27 37
REMARK SMILES IDX 28 38 63 39 29 40 68 41 62 42 64 43 30 44 67 45 61 46 60 47
REMARK SMILES IDX 31 49 53 50 38 51 52 52 39 53 42 54 51 55 65 56 40 57 41 58
REMARK SMILES IDX 50 60 66 61 43 62 32 63 33 64 37 65 34 66 36 67 35 68 54 69
REMARK SMILES IDX 55 70 59 71 56 72 58 73 57 74 44 75 45 76 49 77 46 78 48 79
REMARK SMILES IDX 47 80
REMARK H PARENT 15 5 3 13 3 14 20 29 64 48 42 59
REMARK Flexibility Score: inf
ROOT
ATOM      1  C   UNL A   1      33.874  26.146  25.465  1.00  0.00     0.116 C 
ENDROOT
BRANCH   1   2
ATOM      2  N   UNL A   1      34.329  25.386  24.317  1.00  0.00    -0.350 N 
ATOM      3  C   UNL A   1      34.192  24.096  23.902  1.00  0.00     0.290 C 
ATOM      4  O   UNL A   1      34.969  23.800  22.987  1.00  0.00    -0.267 OA
ATOM      5  H   UNL A   1      34.862  25.929  23.691  1.00  0.00     0.163 HD
BRANCH   3   6
ATOM      6  C   UNL A   1      33.208  23.052  24.505  1.00  0.00     0.268 C 
ATOM      7  C   UNL A   1      32.945  21.847  23.589  1.00  0.00     0.101 C 
BRANCH   6   8
ATOM      8  C   UNL A   1      33.998  22.470  25.734  1.00  0.00     0.453 C 
ATOM      9  F   UNL A   1      35.173  23.110  25.950  1.00  0.00    -0.164 F 
ATOM     10  F   UNL A   1      33.278  22.612  26.880  1.00  0.00    -0.164 F 
ATOM     11  F   UNL A   1      34.248  21.146  25.604  1.00  0.00    -0.164 F 
ENDBRANCH   6   8
BRANCH   6  12
ATOM     12  N   UNL A   1      31.927  23.671  24.998  1.00  0.00    -0.320 N 
ATOM     13  H   UNL A   1      32.153  24.600  25.349  1.00  0.00     0.347 HD
ATOM     14  H   UNL A   1      31.574  23.013  25.693  1.00  0.00     0.347 HD
BRANCH  12  15
ATOM     15  C   UNL A   1      30.841  23.817  24.043  1.00  0.00     0.344 C 
BRANCH  15  16
ATOM     16  C   UNL A   1      30.795  25.141  23.347  1.00  0.00     0.226 A 
ATOM     17  N   UNL A   1      31.548  25.493  22.297  1.00  0.00    -0.056 NA
ATOM     18  N   UNL A   1      29.919  26.110  23.778  1.00  0.00    -0.190 NA
ATOM     19  O   UNL A   1      31.144  26.807  22.044  1.00  0.00    -0.339 OA
ATOM     20  C   UNL A   1      30.172  27.106  22.959  1.00  0.00     0.229 A 
BRANCH  20  21
ATOM     21  C   UNL A   1      29.461  28.451  23.008  1.00  0.00     0.079 C 
ATOM     22  C   UNL A   1      30.180  29.623  23.651  1.00  0.00     0.014 C 
ATOM     23  C   UNL A   1      30.003  29.595  22.172  1.00  0.00     0.014 C 
ENDBRANCH  20  21
ENDBRANCH  15  16
ENDBRANCH  12  15
ENDBRANCH   6  12
ENDBRANCH   3   6
ENDBRANCH   1   2
BRANCH   1  24
ATOM     24  C   UNL A   1      33.198  27.447  25.018  1.00  0.00     0.023 C 
BRANCH  24  25
ATOM     25  C   UNL A   1      33.731  28.713  25.681  1.00  0.00     0.023 C 
BRANCH  25  26
ATOM     26  C   UNL A   1      33.655  28.723  27.199  1.00  0.00     0.116 C 
BRANCH  26  27
ATOM     27  N   UNL A   1      33.619  30.061  27.772  1.00  0.00    -0.352 N 
ATOM     28  C   UNL A   1      34.624  30.742  28.415  1.00  0.00     0.251 C 
ATOM     29  H   UNL A   1      32.763  30.540  27.687  1.00  0.00     0.163 HD
ATOM     30  O   UNL A   1      34.411  31.838  28.926  1.00  0.00    -0.269 OA
BRANCH  28  31
ATOM     31  C   UNL A   1      35.955  30.115  28.524  1.00  0.00     0.039 A 
ATOM     32  C   UNL A   1      36.819  30.169  27.428  1.00  0.00     0.014 A 
ATOM     33  C   UNL A   1      36.369  29.544  29.730  1.00  0.00     0.014 A 
ATOM     34  C   UNL A   1      38.131  29.720  27.568  1.00  0.00     0.010 A 
ATOM     35  C   UNL A   1      37.698  29.176  29.891  1.00  0.00     0.010 A 
ATOM     36  C   UNL A   1      38.592  29.261  28.813  1.00  0.00    -0.014 A 
BRANCH  36  37
ATOM     37  C   UNL A   1      40.004  28.858  29.014  1.00  0.00     0.031 A 
ATOM     38  C   UNL A   1      40.452  27.479  28.616  1.00  0.00     0.074 A 
ATOM     39  C   UNL A   1      40.860  29.699  29.625  1.00  0.00     0.049 A 
ATOM     40  N   UNL A   1      41.616  26.909  28.788  1.00  0.00    -0.248 NA
ATOM     41  C   UNL A   1      39.448  26.618  27.970  1.00  0.00     0.031 C 
ATOM     42  C   UNL A   1      40.534  31.045  30.106  1.00  0.00     0.029 A 
ATOM     43  N   UNL A   1      42.182  29.540  29.955  1.00  0.00    -0.354 N 
ATOM     44  C   UNL A   1      41.477  25.618  28.296  1.00  0.00     0.074 A 
ATOM     45  C   UNL A   1      40.104  25.473  27.866  1.00  0.00     0.031 C 
ATOM     46  C   UNL A   1      41.635  31.596  30.646  1.00  0.00     0.029 A 
ATOM     47  C   UNL A   1      42.729  30.634  30.579  1.00  0.00     0.049 A 
ATOM     48  H   UNL A   1      42.691  28.720  29.762  1.00  0.00     0.167 HD
ATOM     49  C   UNL A   1      42.412  24.646  28.190  1.00  0.00     0.031 A 
ATOM     50  C   UNL A   1      43.974  30.838  31.049  1.00  0.00     0.031 A 
ATOM     51  C   UNL A   1      43.784  24.798  28.594  1.00  0.00     0.049 A 
ATOM     52  C   UNL A   1      45.001  29.751  30.901  1.00  0.00     0.074 A 
ATOM     53  C   UNL A   1      44.823  23.893  28.473  1.00  0.00     0.029 A 
ATOM     54  N   UNL A   1      44.305  25.933  29.192  1.00  0.00    -0.354 N 
ATOM     55  N   UNL A   1      44.869  28.557  30.376  1.00  0.00    -0.248 NA
ATOM     56  C   UNL A   1      46.351  30.045  31.401  1.00  0.00     0.031 C 
ATOM     57  C   UNL A   1      45.969  24.470  29.030  1.00  0.00     0.029 A 
ATOM     58  C   UNL A   1      45.651  25.749  29.457  1.00  0.00     0.049 A 
ATOM     59  H   UNL A   1      43.795  26.749  29.397  1.00  0.00     0.167 HD
ATOM     60  C   UNL A   1      46.123  27.967  30.460  1.00  0.00     0.074 A 
ATOM     61  C   UNL A   1      47.006  28.940  31.072  1.00  0.00     0.031 C 
ATOM     62  C   UNL A   1      46.510  26.730  30.065  1.00  0.00     0.031 A 
BRANCH  49  63
ATOM     63  C   UNL A   1      41.974  23.333  27.609  1.00  0.00    -0.014 A 
ATOM     64  C   UNL A   1      41.991  23.112  26.221  1.00  0.00     0.009 A 
ATOM     65  C   UNL A   1      41.552  22.297  28.457  1.00  0.00     0.009 A 
ATOM     66  C   UNL A   1      41.556  21.895  25.693  1.00  0.00     0.001 A 
ATOM     67  C   UNL A   1      41.143  21.071  27.927  1.00  0.00     0.001 A 
ATOM     68  C   UNL A   1      41.137  20.875  26.547  1.00  0.00     0.000 A 
ENDBRANCH  49  63
BRANCH  50  69
ATOM     69  C   UNL A   1      44.328  32.134  31.681  1.00  0.00    -0.014 A 
ATOM     70  C   UNL A   1      44.780  33.206  30.896  1.00  0.00     0.009 A 
ATOM     71  C   UNL A   1      44.221  32.307  33.069  1.00  0.00     0.009 A 
ATOM     72  C   UNL A   1      45.140  34.417  31.490  1.00  0.00     0.001 A 
ATOM     73  C   UNL A   1      44.558  33.527  33.658  1.00  0.00     0.001 A 
ATOM     74  C   UNL A   1      45.026  34.578  32.870  1.00  0.00     0.000 A 
ENDBRANCH  50  69
BRANCH  62  75
ATOM     75  C   UNL A   1      47.956  26.372  30.254  1.00  0.00    -0.014 A 
ATOM     76  C   UNL A   1      48.420  25.841  31.467  1.00  0.00     0.009 A 
ATOM     77  C   UNL A   1      48.855  26.531  29.189  1.00  0.00     0.009 A 
ATOM     78  C   UNL A   1      49.765  25.500  31.617  1.00  0.00     0.001 A 
ATOM     79  C   UNL A   1      50.195  26.166  29.334  1.00  0.00     0.001 A 
ATOM     80  C   UNL A   1      50.649  25.659  30.549  1.00  0.00     0.000 A 
ENDBRANCH  62  75
ENDBRANCH  36  37
ENDBRANCH  28  31
ENDBRANCH  26  27
ENDBRANCH  25  26
ENDBRANCH  24  25
ENDBRANCH   1  24
TORSDOF 16
ENDMDL
