MODEL 1
REMARK VINA RESULT:     -11.3      0.000      0.000
REMARK SMILES O=C(NCCCCNC(=O)c1ccccc1SCc1ccccc1F)c1ccc(-c2c3nc(c(-c4ccccc4)c4ccc([nH]4)c(-c4ccccc4)c4nc(c(-c5ccccc5)c5ccc2[nH]5)C=C4)C=C3)cc1
REMARK SMILES IDX 6 1 5 2 4 3 3 4 1 5 2 6 26 8 27 9 73 10 28 11 72 12 29 13
REMARK SMILES IDX 30 14 31 15 66 16 32 17 71 18 65 19 67 20 33 21 70 22 64 23
REMARK SMILES IDX 63 24 34 26 56 27 41 28 55 29 42 30 45 31 54 32 68 33 43 34
REMARK SMILES IDX 44 35 53 37 69 38 46 39 35 40 36 41 40 42 37 43 39 44 38 45
REMARK SMILES IDX 57 46 58 47 62 48 59 49 61 50 60 51 47 52 48 53 52 54 49 55
REMARK SMILES IDX 51 56 50 57 7 58 8 59 9 60 10 62 11 63 12 64 16 65 13 66
REMARK SMILES IDX 15 67 14 68 17 69 18 70 19 71 20 72 24 73 21 74 23 75 25 76
REMARK SMILES IDX 22 77
REMARK H PARENT 3 7 67 25 45 36 8 61
REMARK Flexibility Score: inf
ROOT
ATOM      1  C   UNL A   1      31.524  30.518  25.898  1.00  0.00     0.023 C 
ENDROOT
BRANCH   1   2
ATOM      2  C   UNL A   1      31.466  31.896  26.591  1.00  0.00     0.023 C 
BRANCH   2   3
ATOM      3  C   UNL A   1      32.742  32.432  27.254  1.00  0.00     0.116 C 
BRANCH   3   4
ATOM      4  N   UNL A   1      32.589  33.823  27.665  1.00  0.00    -0.352 N 
ATOM      5  O   UNL A   1      32.657  35.619  28.989  1.00  0.00    -0.269 OA
ATOM      6  C   UNL A   1      33.192  34.560  28.657  1.00  0.00     0.251 C 
ATOM      7  H   UNL A   1      31.933  34.327  27.133  1.00  0.00     0.163 HD
BRANCH   6   8
ATOM      8  C   UNL A   1      34.464  34.173  29.335  1.00  0.00     0.039 A 
ATOM      9  C   UNL A   1      34.496  33.456  30.532  1.00  0.00     0.014 A 
ATOM     10  C   UNL A   1      35.671  34.365  28.639  1.00  0.00     0.014 A 
ATOM     11  C   UNL A   1      35.716  32.976  31.042  1.00  0.00     0.010 A 
ATOM     12  C   UNL A   1      36.883  33.841  29.123  1.00  0.00     0.010 A 
ATOM     13  C   UNL A   1      36.921  33.133  30.331  1.00  0.00    -0.014 A 
BRANCH  13  14
ATOM     14  C   UNL A   1      38.175  32.454  30.795  1.00  0.00     0.031 A 
ATOM     15  C   UNL A   1      38.660  31.165  30.180  1.00  0.00     0.074 A 
ATOM     16  C   UNL A   1      38.886  33.000  31.804  1.00  0.00     0.049 A 
ATOM     17  N   UNL A   1      39.740  30.472  30.457  1.00  0.00    -0.248 NA
ATOM     18  C   UNL A   1      37.827  30.574  29.124  1.00  0.00     0.031 C 
ATOM     19  C   UNL A   1      38.524  34.223  32.523  1.00  0.00     0.029 A 
ATOM     20  N   UNL A   1      40.065  32.607  32.396  1.00  0.00    -0.354 N 
ATOM     21  C   UNL A   1      39.714  29.363  29.617  1.00  0.00     0.074 A 
ATOM     22  C   UNL A   1      38.494  29.461  28.842  1.00  0.00     0.031 C 
ATOM     23  C   UNL A   1      39.480  34.507  33.421  1.00  0.00     0.029 A 
ATOM     24  C   UNL A   1      40.495  33.459  33.388  1.00  0.00     0.049 A 
ATOM     25  H   UNL A   1      40.554  31.795  32.135  1.00  0.00     0.167 HD
ATOM     26  C   UNL A   1      40.621  28.362  29.494  1.00  0.00     0.031 A 
ATOM     27  C   UNL A   1      41.573  33.406  34.195  1.00  0.00     0.031 A 
ATOM     28  C   UNL A   1      41.831  28.247  30.272  1.00  0.00     0.049 A 
ATOM     29  C   UNL A   1      42.542  32.263  34.064  1.00  0.00     0.074 A 
ATOM     30  C   UNL A   1      42.824  27.284  30.186  1.00  0.00     0.029 A 
ATOM     31  N   UNL A   1      42.209  29.114  31.285  1.00  0.00    -0.354 N 
ATOM     32  N   UNL A   1      42.527  31.261  33.220  1.00  0.00    -0.248 NA
ATOM     33  C   UNL A   1      43.677  32.248  34.998  1.00  0.00     0.031 C 
ATOM     34  C   UNL A   1      43.770  27.533  31.186  1.00  0.00     0.029 A 
ATOM     35  C   UNL A   1      43.403  28.690  31.852  1.00  0.00     0.049 A 
ATOM     36  H   UNL A   1      41.705  29.913  31.563  1.00  0.00     0.167 HD
ATOM     37  C   UNL A   1      43.659  30.510  33.507  1.00  0.00     0.074 A 
ATOM     38  C   UNL A   1      44.352  31.185  34.584  1.00  0.00     0.031 C 
ATOM     39  C   UNL A   1      44.084  29.359  32.929  1.00  0.00     0.031 A 
BRANCH  26  40
ATOM     40  C   UNL A   1      40.338  27.279  28.485  1.00  0.00    -0.014 A 
ATOM     41  C   UNL A   1      40.872  27.333  27.187  1.00  0.00     0.009 A 
ATOM     42  C   UNL A   1      39.585  26.153  28.857  1.00  0.00     0.009 A 
ATOM     43  C   UNL A   1      40.630  26.301  26.276  1.00  0.00     0.001 A 
ATOM     44  C   UNL A   1      39.368  25.110  27.954  1.00  0.00     0.001 A 
ATOM     45  C   UNL A   1      39.883  25.188  26.662  1.00  0.00     0.000 A 
ENDBRANCH  26  40
BRANCH  27  46
ATOM     46  C   UNL A   1      41.793  34.464  35.219  1.00  0.00    -0.014 A 
ATOM     47  C   UNL A   1      42.553  35.606  34.921  1.00  0.00     0.009 A 
ATOM     48  C   UNL A   1      41.255  34.329  36.508  1.00  0.00     0.009 A 
ATOM     49  C   UNL A   1      42.790  36.575  35.900  1.00  0.00     0.001 A 
ATOM     50  C   UNL A   1      41.462  35.315  37.474  1.00  0.00     0.001 A 
ATOM     51  C   UNL A   1      42.239  36.432  37.172  1.00  0.00     0.000 A 
ENDBRANCH  27  46
BRANCH  39  52
ATOM     52  C   UNL A   1      45.377  28.776  33.431  1.00  0.00    -0.014 A 
ATOM     53  C   UNL A   1      46.615  29.180  32.905  1.00  0.00     0.009 A 
ATOM     54  C   UNL A   1      45.357  27.821  34.459  1.00  0.00     0.009 A 
ATOM     55  C   UNL A   1      47.801  28.609  33.371  1.00  0.00     0.001 A 
ATOM     56  C   UNL A   1      46.547  27.275  34.944  1.00  0.00     0.001 A 
ATOM     57  C   UNL A   1      47.767  27.661  34.392  1.00  0.00     0.000 A 
ENDBRANCH  39  52
ENDBRANCH  13  14
ENDBRANCH   6   8
ENDBRANCH   3   4
ENDBRANCH   2   3
ENDBRANCH   1   2
BRANCH   1  58
ATOM     58  C   UNL A   1      32.893  29.830  25.811  1.00  0.00     0.116 C 
BRANCH  58  59
ATOM     59  N   UNL A   1      33.328  29.633  24.419  1.00  0.00    -0.352 N 
ATOM     60  C   UNL A   1      33.464  28.497  23.648  1.00  0.00     0.252 C 
ATOM     61  H   UNL A   1      33.565  30.466  23.952  1.00  0.00     0.163 HD
ATOM     62  O   UNL A   1      34.138  28.473  22.613  1.00  0.00    -0.269 OA
BRANCH  60  63
ATOM     63  C   UNL A   1      32.876  27.246  24.068  1.00  0.00     0.053 A 
ATOM     64  C   UNL A   1      33.674  26.552  25.003  1.00  0.00     0.015 A 
ATOM     65  C   UNL A   1      31.530  26.991  23.845  1.00  0.00     0.020 A 
ATOM     66  C   UNL A   1      33.068  25.801  25.987  1.00  0.00     0.001 A 
ATOM     67  C   UNL A   1      30.924  26.272  24.902  1.00  0.00     0.016 A 
ATOM     68  C   UNL A   1      31.680  25.731  25.982  1.00  0.00     0.001 A 
BRANCH  65  69
ATOM     69  S   UNL A   1      30.530  27.750  22.496  1.00  0.00    -0.120 SA
BRANCH  69  70
ATOM     70  C   UNL A   1      29.292  29.041  23.121  1.00  0.00     0.113 C 
BRANCH  70  71
ATOM     71  C   UNL A   1      28.892  30.349  22.393  1.00  0.00    -0.002 A 
ATOM     72  C   UNL A   1      28.319  30.405  21.113  1.00  0.00     0.007 A 
ATOM     73  C   UNL A   1      28.811  31.576  23.071  1.00  0.00     0.127 A 
ATOM     74  C   UNL A   1      27.931  31.588  20.452  1.00  0.00     0.001 A 
ATOM     75  C   UNL A   1      28.316  32.760  22.476  1.00  0.00     0.039 A 
ATOM     76  F   UNL A   1      29.131  31.638  24.371  1.00  0.00    -0.207 F 
ATOM     77  C   UNL A   1      27.924  32.781  21.142  1.00  0.00     0.003 A 
ENDBRANCH  70  71
ENDBRANCH  69  70
ENDBRANCH  65  69
ENDBRANCH  60  63
ENDBRANCH  58  59
ENDBRANCH   1  58
TORSDOF 14
ENDMDL
MODEL 2
REMARK VINA RESULT:     -11.3      0.594      6.078
REMARK SMILES O=C(NCCCCNC(=O)c1ccccc1SCc1ccccc1F)c1ccc(-c2c3nc(c(-c4ccccc4)c4ccc([nH]4)c(-c4ccccc4)c4nc(c(-c5ccccc5)c5ccc2[nH]5)C=C4)C=C3)cc1
REMARK SMILES IDX 6 1 5 2 4 3 3 4 1 5 2 6 26 8 27 9 73 10 28 11 72 12 29 13
REMARK SMILES IDX 30 14 31 15 66 16 32 17 71 18 65 19 67 20 33 21 70 22 64 23
REMARK SMILES IDX 63 24 34 26 56 27 41 28 55 29 42 30 45 31 54 32 68 33 43 34
REMARK SMILES IDX 44 35 53 37 69 38 46 39 35 40 36 41 40 42 37 43 39 44 38 45
REMARK SMILES IDX 57 46 58 47 62 48 59 49 61 50 60 51 47 52 48 53 52 54 49 55
REMARK SMILES IDX 51 56 50 57 7 58 8 59 9 60 10 62 11 63 12 64 16 65 13 66
REMARK SMILES IDX 15 67 14 68 17 69 18 70 19 71 20 72 24 73 21 74 23 75 25 76
REMARK SMILES IDX 22 77
REMARK H PARENT 3 7 67 25 45 36 8 61
REMARK Flexibility Score: inf
ROOT
ATOM      1  C   UNL A   1      31.486  30.546  25.835  1.00  0.00     0.023 C 
ENDROOT
BRANCH   1   2
ATOM      2  C   UNL A   1      31.421  31.915  26.543  1.00  0.00     0.023 C 
BRANCH   2   3
ATOM      3  C   UNL A   1      32.682  32.431  27.250  1.00  0.00     0.116 C 
BRANCH   3   4
ATOM      4  N   UNL A   1      32.544  33.828  27.642  1.00  0.00    -0.352 N 
ATOM      5  O   UNL A   1      32.637  35.643  28.939  1.00  0.00    -0.269 OA
ATOM      6  C   UNL A   1      33.161  34.575  28.618  1.00  0.00     0.251 C 
ATOM      7  H   UNL A   1      31.886  34.330  27.109  1.00  0.00     0.163 HD
BRANCH   6   8
ATOM      8  C   UNL A   1      34.436  34.188  29.289  1.00  0.00     0.039 A 
ATOM      9  C   UNL A   1      34.474  33.484  30.494  1.00  0.00     0.014 A 
ATOM     10  C   UNL A   1      35.639  34.366  28.582  1.00  0.00     0.014 A 
ATOM     11  C   UNL A   1      35.696  33.002  30.998  1.00  0.00     0.010 A 
ATOM     12  C   UNL A   1      36.851  33.840  29.061  1.00  0.00     0.010 A 
ATOM     13  C   UNL A   1      36.896  33.145  30.277  1.00  0.00    -0.014 A 
BRANCH  13  14
ATOM     14  C   UNL A   1      38.149  32.464  30.737  1.00  0.00     0.031 A 
ATOM     15  C   UNL A   1      38.998  33.023  31.853  1.00  0.00     0.074 A 
ATOM     16  C   UNL A   1      38.545  31.327  30.128  1.00  0.00     0.049 A 
ATOM     17  N   UNL A   1      40.096  32.534  32.380  1.00  0.00    -0.248 NA
ATOM     18  C   UNL A   1      38.563  34.293  32.451  1.00  0.00     0.031 C 
ATOM     19  C   UNL A   1      37.850  30.685  29.011  1.00  0.00     0.029 A 
ATOM     20  N   UNL A   1      39.619  30.499  30.366  1.00  0.00    -0.354 N 
ATOM     21  C   UNL A   1      40.487  33.435  33.365  1.00  0.00     0.074 A 
ATOM     22  C   UNL A   1      39.524  34.518  33.339  1.00  0.00     0.031 C 
ATOM     23  C   UNL A   1      38.483  29.546  28.692  1.00  0.00     0.029 A 
ATOM     24  C   UNL A   1      39.663  29.400  29.539  1.00  0.00     0.049 A 
ATOM     25  H   UNL A   1      40.293  30.677  31.061  1.00  0.00     0.167 HD
ATOM     26  C   UNL A   1      41.542  33.369  34.216  1.00  0.00     0.031 A 
ATOM     27  C   UNL A   1      40.552  28.391  29.453  1.00  0.00     0.031 A 
ATOM     28  C   UNL A   1      42.515  32.304  34.238  1.00  0.00     0.049 A 
ATOM     29  C   UNL A   1      41.734  28.362  30.382  1.00  0.00     0.074 A 
ATOM     30  C   UNL A   1      43.594  32.140  35.092  1.00  0.00     0.029 A 
ATOM     31  N   UNL A   1      42.537  31.229  33.364  1.00  0.00    -0.354 N 
ATOM     32  N   UNL A   1      42.047  29.195  31.345  1.00  0.00    -0.248 NA
ATOM     33  C   UNL A   1      42.683  27.253  30.212  1.00  0.00     0.031 C 
ATOM     34  C   UNL A   1      44.302  31.000  34.696  1.00  0.00     0.029 A 
ATOM     35  C   UNL A   1      43.628  30.416  33.638  1.00  0.00     0.049 A 
ATOM     36  H   UNL A   1      41.877  31.066  32.652  1.00  0.00     0.167 HD
ATOM     37  C   UNL A   1      43.215  28.697  31.908  1.00  0.00     0.074 A 
ATOM     38  C   UNL A   1      43.541  27.479  31.197  1.00  0.00     0.031 C 
ATOM     39  C   UNL A   1      43.954  29.210  32.923  1.00  0.00     0.031 A 
BRANCH  26  40
ATOM     40  C   UNL A   1      41.723  34.498  35.198  1.00  0.00    -0.014 A 
ATOM     41  C   UNL A   1      41.134  34.458  36.472  1.00  0.00     0.009 A 
ATOM     42  C   UNL A   1      42.552  35.584  34.872  1.00  0.00     0.009 A 
ATOM     43  C   UNL A   1      41.343  35.496  37.384  1.00  0.00     0.001 A 
ATOM     44  C   UNL A   1      42.783  36.607  35.795  1.00  0.00     0.001 A 
ATOM     45  C   UNL A   1      42.172  36.567  37.047  1.00  0.00     0.000 A 
ENDBRANCH  26  40
BRANCH  27  46
ATOM     46  C   UNL A   1      40.371  27.321  28.434  1.00  0.00    -0.014 A 
ATOM     47  C   UNL A   1      39.620  26.171  28.723  1.00  0.00     0.009 A 
ATOM     48  C   UNL A   1      40.966  27.438  27.168  1.00  0.00     0.009 A 
ATOM     49  C   UNL A   1      39.490  25.152  27.775  1.00  0.00     0.001 A 
ATOM     50  C   UNL A   1      40.805  26.435  26.210  1.00  0.00     0.001 A 
ATOM     51  C   UNL A   1      40.076  25.288  26.518  1.00  0.00     0.000 A 
ENDBRANCH  27  46
BRANCH  39  52
ATOM     52  C   UNL A   1      45.171  28.433  33.346  1.00  0.00    -0.014 A 
ATOM     53  C   UNL A   1      45.091  27.416  34.311  1.00  0.00     0.009 A 
ATOM     54  C   UNL A   1      46.413  28.710  32.756  1.00  0.00     0.009 A 
ATOM     55  C   UNL A   1      46.237  26.722  34.704  1.00  0.00     0.001 A 
ATOM     56  C   UNL A   1      47.552  27.994  33.129  1.00  0.00     0.001 A 
ATOM     57  C   UNL A   1      47.465  27.009  34.111  1.00  0.00     0.000 A 
ENDBRANCH  39  52
ENDBRANCH  13  14
ENDBRANCH   6   8
ENDBRANCH   3   4
ENDBRANCH   2   3
ENDBRANCH   1   2
BRANCH   1  58
ATOM     58  C   UNL A   1      32.858  29.864  25.743  1.00  0.00     0.116 C 
BRANCH  58  59
ATOM     59  N   UNL A   1      33.258  29.607  24.350  1.00  0.00    -0.352 N 
ATOM     60  C   UNL A   1      33.319  28.446  23.608  1.00  0.00     0.252 C 
ATOM     61  H   UNL A   1      33.533  30.413  23.856  1.00  0.00     0.163 HD
ATOM     62  O   UNL A   1      33.973  28.357  22.564  1.00  0.00    -0.269 OA
BRANCH  60  63
ATOM     63  C   UNL A   1      32.671  27.240  24.071  1.00  0.00     0.053 A 
ATOM     64  C   UNL A   1      33.434  26.543  25.033  1.00  0.00     0.015 A 
ATOM     65  C   UNL A   1      31.315  27.043  23.854  1.00  0.00     0.020 A 
ATOM     66  C   UNL A   1      32.791  25.858  26.041  1.00  0.00     0.001 A 
ATOM     67  C   UNL A   1      30.674  26.392  24.935  1.00  0.00     0.016 A 
ATOM     68  C   UNL A   1      31.402  25.855  26.036  1.00  0.00     0.001 A 
BRANCH  65  69
ATOM     69  S   UNL A   1      30.353  27.800  22.476  1.00  0.00    -0.120 SA
BRANCH  69  70
ATOM     70  C   UNL A   1      28.854  28.795  23.072  1.00  0.00     0.113 C 
BRANCH  70  71
ATOM     71  C   UNL A   1      28.600  30.302  22.817  1.00  0.00    -0.002 A 
ATOM     72  C   UNL A   1      29.049  31.338  23.652  1.00  0.00     0.007 A 
ATOM     73  C   UNL A   1      28.140  30.773  21.577  1.00  0.00     0.127 A 
ATOM     74  C   UNL A   1      28.844  32.712  23.415  1.00  0.00     0.001 A 
ATOM     75  C   UNL A   1      28.032  32.148  21.262  1.00  0.00     0.039 A 
ATOM     76  F   UNL A   1      27.864  29.902  20.597  1.00  0.00    -0.207 F 
ATOM     77  C   UNL A   1      28.333  33.125  22.203  1.00  0.00     0.003 A 
ENDBRANCH  70  71
ENDBRANCH  69  70
ENDBRANCH  65  69
ENDBRANCH  60  63
ENDBRANCH  58  59
ENDBRANCH   1  58
TORSDOF 14
ENDMDL
MODEL 3
REMARK VINA RESULT:     -11.3      4.080      8.546
REMARK SMILES O=C(NCCCCNC(=O)c1ccccc1SCc1ccccc1F)c1ccc(-c2c3nc(c(-c4ccccc4)c4ccc([nH]4)c(-c4ccccc4)c4nc(c(-c5ccccc5)c5ccc2[nH]5)C=C4)C=C3)cc1
REMARK SMILES IDX 6 1 5 2 4 3 3 4 1 5 2 6 26 8 27 9 73 10 28 11 72 12 29 13
REMARK SMILES IDX 30 14 31 15 66 16 32 17 71 18 65 19 67 20 33 21 70 22 64 23
REMARK SMILES IDX 63 24 34 26 56 27 41 28 55 29 42 30 45 31 54 32 68 33 43 34
REMARK SMILES IDX 44 35 53 37 69 38 46 39 35 40 36 41 40 42 37 43 39 44 38 45
REMARK SMILES IDX 57 46 58 47 62 48 59 49 61 50 60 51 47 52 48 53 52 54 49 55
REMARK SMILES IDX 51 56 50 57 7 58 8 59 9 60 10 62 11 63 12 64 16 65 13 66
REMARK SMILES IDX 15 67 14 68 17 69 18 70 19 71 20 72 24 73 21 74 23 75 25 76
REMARK SMILES IDX 22 77
REMARK H PARENT 3 7 67 25 45 36 8 61
REMARK Flexibility Score: inf
ROOT
ATOM      1  C   UNL A   1      33.562  27.116  26.325  1.00  0.00     0.023 C 
ENDROOT
BRANCH   1   2
ATOM      2  C   UNL A   1      32.919  28.454  26.746  1.00  0.00     0.023 C 
BRANCH   2   3
ATOM      3  C   UNL A   1      33.436  29.746  26.099  1.00  0.00     0.116 C 
BRANCH   3   4
ATOM      4  N   UNL A   1      33.591  30.813  27.081  1.00  0.00    -0.352 N 
ATOM      5  O   UNL A   1      34.194  31.820  28.980  1.00  0.00    -0.269 OA
ATOM      6  C   UNL A   1      34.479  30.989  28.116  1.00  0.00     0.251 C 
ATOM      7  H   UNL A   1      32.938  31.543  26.984  1.00  0.00     0.163 HD
BRANCH   6   8
ATOM      8  C   UNL A   1      35.774  30.259  28.243  1.00  0.00     0.039 A 
ATOM      9  C   UNL A   1      36.752  30.274  27.248  1.00  0.00     0.014 A 
ATOM     10  C   UNL A   1      36.101  29.701  29.492  1.00  0.00     0.014 A 
ATOM     11  C   UNL A   1      38.018  29.707  27.485  1.00  0.00     0.010 A 
ATOM     12  C   UNL A   1      37.382  29.181  29.746  1.00  0.00     0.010 A 
ATOM     13  C   UNL A   1      38.363  29.181  28.745  1.00  0.00    -0.014 A 
BRANCH  13  14
ATOM     14  C   UNL A   1      39.770  28.755  29.035  1.00  0.00     0.031 A 
ATOM     15  C   UNL A   1      40.754  29.665  29.726  1.00  0.00     0.074 A 
ATOM     16  C   UNL A   1      40.179  27.526  28.653  1.00  0.00     0.049 A 
ATOM     17  N   UNL A   1      41.999  29.428  30.068  1.00  0.00    -0.248 NA
ATOM     18  C   UNL A   1      40.286  31.014  30.073  1.00  0.00     0.031 C 
ATOM     19  C   UNL A   1      39.354  26.547  27.943  1.00  0.00     0.029 A 
ATOM     20  N   UNL A   1      41.385  26.883  28.816  1.00  0.00    -0.354 N 
ATOM     21  C   UNL A   1      42.465  30.595  30.665  1.00  0.00     0.074 A 
ATOM     22  C   UNL A   1      41.377  31.551  30.608  1.00  0.00     0.031 C 
ATOM     23  C   UNL A   1      40.056  25.416  27.774  1.00  0.00     0.029 A 
ATOM     24  C   UNL A   1      41.401  25.603  28.309  1.00  0.00     0.049 A 
ATOM     25  H   UNL A   1      42.162  27.298  29.253  1.00  0.00     0.167 HD
ATOM     26  C   UNL A   1      43.679  30.850  31.215  1.00  0.00     0.031 A 
ATOM     27  C   UNL A   1      42.383  24.682  28.261  1.00  0.00     0.031 A 
ATOM     28  C   UNL A   1      44.774  29.911  31.262  1.00  0.00     0.049 A 
ATOM     29  C   UNL A   1      43.731  25.004  28.843  1.00  0.00     0.074 A 
ATOM     30  C   UNL A   1      46.026  30.075  31.832  1.00  0.00     0.029 A 
ATOM     31  N   UNL A   1      44.756  28.641  30.709  1.00  0.00    -0.354 N 
ATOM     32  N   UNL A   1      44.127  26.093  29.456  1.00  0.00    -0.248 NA
ATOM     33  C   UNL A   1      44.767  23.968  28.727  1.00  0.00     0.031 C 
ATOM     34  C   UNL A   1      46.784  28.928  31.573  1.00  0.00     0.029 A 
ATOM     35  C   UNL A   1      45.983  28.023  30.898  1.00  0.00     0.049 A 
ATOM     36  H   UNL A   1      43.985  28.236  30.249  1.00  0.00     0.167 HD
ATOM     37  C   UNL A   1      45.449  25.864  29.816  1.00  0.00     0.074 A 
ATOM     38  C   UNL A   1      45.779  24.524  29.378  1.00  0.00     0.031 C 
ATOM     39  C   UNL A   1      46.312  26.694  30.452  1.00  0.00     0.031 A 
BRANCH  26  40
ATOM     40  C   UNL A   1      43.910  32.218  31.803  1.00  0.00    -0.014 A 
ATOM     41  C   UNL A   1      44.389  33.279  31.018  1.00  0.00     0.009 A 
ATOM     42  C   UNL A   1      43.576  32.470  33.145  1.00  0.00     0.009 A 
ATOM     43  C   UNL A   1      44.562  34.551  31.571  1.00  0.00     0.001 A 
ATOM     44  C   UNL A   1      43.722  33.749  33.687  1.00  0.00     0.001 A 
ATOM     45  C   UNL A   1      44.222  34.786  32.903  1.00  0.00     0.000 A 
ENDBRANCH  26  40
BRANCH  27  46
ATOM     46  C   UNL A   1      42.136  23.360  27.623  1.00  0.00    -0.014 A 
ATOM     47  C   UNL A   1      41.453  22.345  28.311  1.00  0.00     0.009 A 
ATOM     48  C   UNL A   1      42.600  23.100  26.324  1.00  0.00     0.009 A 
ATOM     49  C   UNL A   1      41.262  21.092  27.720  1.00  0.00     0.001 A 
ATOM     50  C   UNL A   1      42.377  21.861  25.722  1.00  0.00     0.001 A 
ATOM     51  C   UNL A   1      41.718  20.854  26.425  1.00  0.00     0.000 A 
ENDBRANCH  27  46
BRANCH  39  52
ATOM     52  C   UNL A   1      47.689  26.161  30.741  1.00  0.00    -0.014 A 
ATOM     53  C   UNL A   1      48.688  26.142  29.754  1.00  0.00     0.009 A 
ATOM     54  C   UNL A   1      47.998  25.691  32.026  1.00  0.00     0.009 A 
ATOM     55  C   UNL A   1      49.953  25.623  30.038  1.00  0.00     0.001 A 
ATOM     56  C   UNL A   1      49.273  25.202  32.316  1.00  0.00     0.001 A 
ATOM     57  C   UNL A   1      50.246  25.158  31.319  1.00  0.00     0.000 A 
ENDBRANCH  39  52
ENDBRANCH  13  14
ENDBRANCH   6   8
ENDBRANCH   3   4
ENDBRANCH   2   3
ENDBRANCH   1   2
BRANCH   1  58
ATOM     58  C   UNL A   1      32.617  25.986  25.891  1.00  0.00     0.116 C 
BRANCH  58  59
ATOM     59  N   UNL A   1      32.878  24.734  26.618  1.00  0.00    -0.352 N 
ATOM     60  C   UNL A   1      33.678  23.649  26.329  1.00  0.00     0.252 C 
ATOM     61  H   UNL A   1      32.390  24.657  27.471  1.00  0.00     0.163 HD
ATOM     62  O   UNL A   1      33.539  22.554  26.882  1.00  0.00    -0.269 OA
BRANCH  60  63
ATOM     63  C   UNL A   1      34.681  23.728  25.292  1.00  0.00     0.053 A 
ATOM     64  C   UNL A   1      35.927  24.188  25.770  1.00  0.00     0.015 A 
ATOM     65  C   UNL A   1      34.500  23.066  24.085  1.00  0.00     0.020 A 
ATOM     66  C   UNL A   1      37.089  23.705  25.208  1.00  0.00     0.001 A 
ATOM     67  C   UNL A   1      35.703  22.529  23.568  1.00  0.00     0.016 A 
ATOM     68  C   UNL A   1      36.971  22.805  24.155  1.00  0.00     0.001 A 
BRANCH  65  69
ATOM     69  S   UNL A   1      32.861  22.637  23.360  1.00  0.00    -0.120 SA
BRANCH  69  70
ATOM     70  C   UNL A   1      32.141  21.025  24.048  1.00  0.00     0.113 C 
BRANCH  70  71
ATOM     71  C   UNL A   1      32.763  19.613  23.901  1.00  0.00    -0.002 A 
ATOM     72  C   UNL A   1      32.421  18.692  22.899  1.00  0.00     0.007 A 
ATOM     73  C   UNL A   1      33.927  19.245  24.595  1.00  0.00     0.127 A 
ATOM     74  C   UNL A   1      32.998  17.415  22.745  1.00  0.00     0.001 A 
ATOM     75  C   UNL A   1      34.602  18.020  24.381  1.00  0.00     0.039 A 
ATOM     76  F   UNL A   1      34.496  20.111  25.444  1.00  0.00    -0.207 F 
ATOM     77  C   UNL A   1      34.106  17.075  23.491  1.00  0.00     0.003 A 
ENDBRANCH  70  71
ENDBRANCH  69  70
ENDBRANCH  65  69
ENDBRANCH  60  63
ENDBRANCH  58  59
ENDBRANCH   1  58
TORSDOF 14
ENDMDL
