MODEL 1
REMARK VINA RESULT:     -12.3      0.000      0.000
REMARK SMILES Cn1cc(S(=O)(=O)N2CCC(C(=O)NCCCCNC(=O)c3ccc(-c4c5nc(c(-c6ccccc6)c6ccc([nH]6)c(-c6ccccc6)c6nc(c(-c7ccccc7)c7ccc4[nH]7)C=C6)C=C5)cc3)CC2)cc1C(=O)N1CCCCC1
REMARK SMILES IDX 16 1 15 2 14 3 12 4 13 5 11 7 8 8 9 9 71 10 10 11 70 12 5 13
REMARK SMILES IDX 6 14 7 15 4 16 1 17 2 18 3 19 73 20 72 21 74 22 75 23 76 24
REMARK SMILES IDX 77 25 81 26 78 27 80 28 79 29 17 30 18 31 19 32 20 33 21 35
REMARK SMILES IDX 22 36 23 37 69 38 24 39 68 40 25 41 26 42 27 43 62 44 28 45
REMARK SMILES IDX 67 46 61 47 63 48 29 49 66 50 60 51 59 52 30 54 52 55 37 56
REMARK SMILES IDX 51 57 38 58 41 59 50 60 64 61 39 62 40 63 49 65 65 66 42 67
REMARK SMILES IDX 31 68 32 69 36 70 33 71 35 72 34 73 53 74 54 75 58 76 55 77
REMARK SMILES IDX 57 78 56 79 43 80 44 81 48 82 45 83 47 84 46 85
REMARK H PARENT 14 6 19 34 63 53 41 64
REMARK Flexibility Score: inf
ROOT
ATOM      1  C   UNL A   1      37.327  21.150  24.602  1.00  0.00     0.023 C 
ENDROOT
BRANCH   1   2
ATOM      2  C   UNL A   1      35.918  21.185  25.186  1.00  0.00     0.116 C 
BRANCH   2   3
ATOM      3  N   UNL A   1      35.226  19.921  25.005  1.00  0.00    -0.356 N 
ATOM      4  C   UNL A   1      33.938  19.566  25.247  1.00  0.00     0.223 C 
ATOM      5  O   UNL A   1      33.611  18.399  25.016  1.00  0.00    -0.275 OA
ATOM      6  H   UNL A   1      35.789  19.197  24.645  1.00  0.00     0.163 HD
BRANCH   4   7
ATOM      7  C   UNL A   1      32.910  20.562  25.759  1.00  0.00     0.081 C 
ATOM      8  N   UNL A   1      31.891  23.241  25.963  1.00  0.00    -0.198 NA
ATOM      9  C   UNL A   1      32.503  22.623  27.165  1.00  0.00     0.103 C 
ATOM     10  C   UNL A   1      31.184  22.286  25.082  1.00  0.00     0.103 C 
ATOM     11  C   UNL A   1      33.508  21.561  26.752  1.00  0.00     0.030 C 
ATOM     12  C   UNL A   1      32.140  21.206  24.603  1.00  0.00     0.030 C 
BRANCH   8  13
ATOM     13  S   UNL A   1      31.080  24.720  26.236  1.00  0.00     0.244 S 
ATOM     14  O   UNL A   1      31.916  25.570  27.055  1.00  0.00    -0.207 OA
ATOM     15  O   UNL A   1      29.711  24.422  26.597  1.00  0.00    -0.207 OA
BRANCH  13  16
ATOM     16  C   UNL A   1      30.925  25.599  24.750  1.00  0.00     0.101 A 
ATOM     17  C   UNL A   1      31.711  26.089  21.263  1.00  0.00     0.150 C 
ATOM     18  N   UNL A   1      31.203  26.180  22.615  1.00  0.00    -0.345 N 
ATOM     19  C   UNL A   1      31.277  25.131  23.502  1.00  0.00     0.107 A 
ATOM     20  C   UNL A   1      30.757  27.316  23.265  1.00  0.00     0.108 A 
ATOM     21  C   UNL A   1      30.522  26.940  24.580  1.00  0.00     0.055 A 
BRANCH  20  22
ATOM     22  C   UNL A   1      30.753  28.694  22.800  1.00  0.00     0.270 C 
ATOM     23  O   UNL A   1      31.812  29.319  22.729  1.00  0.00    -0.267 OA
ATOM     24  N   UNL A   1      29.559  29.276  22.398  1.00  0.00    -0.337 N 
ATOM     25  C   UNL A   1      29.615  30.369  21.432  1.00  0.00     0.120 C 
ATOM     26  C   UNL A   1      28.245  28.963  22.956  1.00  0.00     0.120 C 
ATOM     27  C   UNL A   1      28.963  31.635  21.970  1.00  0.00     0.022 C 
ATOM     28  C   UNL A   1      27.560  30.221  23.494  1.00  0.00     0.022 C 
ATOM     29  C   UNL A   1      27.546  31.341  22.455  1.00  0.00     0.004 C 
ENDBRANCH  20  22
ENDBRANCH  13  16
ENDBRANCH   8  13
ENDBRANCH   4   7
ENDBRANCH   2   3
ENDBRANCH   1   2
BRANCH   1  30
ATOM     30  C   UNL A   1      38.149  19.924  24.994  1.00  0.00     0.023 C 
BRANCH  30  31
ATOM     31  C   UNL A   1      39.285  20.191  25.974  1.00  0.00     0.116 C 
BRANCH  31  32
ATOM     32  N   UNL A   1      40.345  19.196  25.916  1.00  0.00    -0.352 N 
ATOM     33  C   UNL A   1      41.688  19.364  26.146  1.00  0.00     0.251 C 
ATOM     34  H   UNL A   1      40.061  18.284  25.681  1.00  0.00     0.163 HD
ATOM     35  O   UNL A   1      42.474  18.438  25.971  1.00  0.00    -0.269 OA
BRANCH  33  36
ATOM     36  C   UNL A   1      42.185  20.688  26.567  1.00  0.00     0.039 A 
ATOM     37  C   UNL A   1      42.552  21.609  25.583  1.00  0.00     0.014 A 
ATOM     38  C   UNL A   1      42.241  21.031  27.921  1.00  0.00     0.014 A 
ATOM     39  C   UNL A   1      42.909  22.905  25.956  1.00  0.00     0.010 A 
ATOM     40  C   UNL A   1      42.536  22.340  28.285  1.00  0.00     0.010 A 
ATOM     41  C   UNL A   1      42.867  23.289  27.305  1.00  0.00    -0.014 A 
BRANCH  41  42
ATOM     42  C   UNL A   1      43.158  24.682  27.715  1.00  0.00     0.031 A 
ATOM     43  C   UNL A   1      44.578  25.128  27.907  1.00  0.00     0.074 A 
ATOM     44  C   UNL A   1      42.142  25.522  27.989  1.00  0.00     0.049 A 
ATOM     45  N   UNL A   1      45.030  26.281  28.333  1.00  0.00    -0.248 NA
ATOM     46  C   UNL A   1      45.628  24.141  27.608  1.00  0.00     0.031 C 
ATOM     47  C   UNL A   1      40.718  25.195  27.885  1.00  0.00     0.029 A 
ATOM     48  N   UNL A   1      42.153  26.823  28.421  1.00  0.00    -0.354 N 
ATOM     49  C   UNL A   1      46.411  26.148  28.377  1.00  0.00     0.074 A 
ATOM     50  C   UNL A   1      46.722  24.795  27.969  1.00  0.00     0.031 C 
ATOM     51  C   UNL A   1      39.995  26.276  28.221  1.00  0.00     0.029 A 
ATOM     52  C   UNL A   1      40.901  27.357  28.592  1.00  0.00     0.049 A 
ATOM     53  H   UNL A   1      42.983  27.326  28.592  1.00  0.00     0.167 HD
ATOM     54  C   UNL A   1      47.341  27.074  28.712  1.00  0.00     0.031 A 
ATOM     55  C   UNL A   1      40.524  28.581  29.002  1.00  0.00     0.031 A 
ATOM     56  C   UNL A   1      47.037  28.426  29.094  1.00  0.00     0.049 A 
ATOM     57  C   UNL A   1      41.573  29.597  29.352  1.00  0.00     0.074 A 
ATOM     58  C   UNL A   1      47.912  29.457  29.387  1.00  0.00     0.029 A 
ATOM     59  N   UNL A   1      45.755  28.934  29.233  1.00  0.00    -0.354 N 
ATOM     60  N   UNL A   1      42.877  29.476  29.331  1.00  0.00    -0.248 NA
ATOM     61  C   UNL A   1      41.096  30.922  29.772  1.00  0.00     0.031 C 
ATOM     62  C   UNL A   1      47.157  30.584  29.733  1.00  0.00     0.029 A 
ATOM     63  C   UNL A   1      45.814  30.261  29.623  1.00  0.00     0.049 A 
ATOM     64  H   UNL A   1      44.926  28.427  29.078  1.00  0.00     0.167 HD
ATOM     65  C   UNL A   1      43.379  30.712  29.715  1.00  0.00     0.074 A 
ATOM     66  C   UNL A   1      42.237  31.572  29.953  1.00  0.00     0.031 C 
ATOM     67  C   UNL A   1      44.669  31.100  29.857  1.00  0.00     0.031 A 
BRANCH  54  68
ATOM     68  C   UNL A   1      48.777  26.641  28.684  1.00  0.00    -0.014 A 
ATOM     69  C   UNL A   1      49.392  26.094  29.822  1.00  0.00     0.009 A 
ATOM     70  C   UNL A   1      49.522  26.771  27.503  1.00  0.00     0.009 A 
ATOM     71  C   UNL A   1      50.738  25.724  29.787  1.00  0.00     0.001 A 
ATOM     72  C   UNL A   1      50.861  26.378  27.464  1.00  0.00     0.001 A 
ATOM     73  C   UNL A   1      51.470  25.864  28.609  1.00  0.00     0.000 A 
ENDBRANCH  54  68
BRANCH  55  74
ATOM     74  C   UNL A   1      39.082  28.924  29.079  1.00  0.00    -0.014 A 
ATOM     75  C   UNL A   1      38.388  28.779  30.290  1.00  0.00     0.009 A 
ATOM     76  C   UNL A   1      38.399  29.404  27.953  1.00  0.00     0.009 A 
ATOM     77  C   UNL A   1      37.030  29.092  30.365  1.00  0.00     0.001 A 
ATOM     78  C   UNL A   1      37.045  29.734  28.038  1.00  0.00     0.001 A 
ATOM     79  C   UNL A   1      36.359  29.573  29.241  1.00  0.00     0.000 A 
ENDBRANCH  55  74
BRANCH  67  80
ATOM     80  C   UNL A   1      44.911  32.522  30.262  1.00  0.00    -0.014 A 
ATOM     81  C   UNL A   1      44.918  33.554  29.311  1.00  0.00     0.009 A 
ATOM     82  C   UNL A   1      45.098  32.838  31.616  1.00  0.00     0.009 A 
ATOM     83  C   UNL A   1      45.132  34.875  29.709  1.00  0.00     0.001 A 
ATOM     84  C   UNL A   1      45.292  34.162  32.012  1.00  0.00     0.001 A 
ATOM     85  C   UNL A   1      45.316  35.179  31.058  1.00  0.00     0.000 A 
ENDBRANCH  67  80
ENDBRANCH  41  42
ENDBRANCH  33  36
ENDBRANCH  31  32
ENDBRANCH  30  31
ENDBRANCH   1  30
TORSDOF 14
ENDMDL
MODEL 2
REMARK VINA RESULT:     -12.2      0.994      5.760
REMARK SMILES Cn1cc(S(=O)(=O)N2CCC(C(=O)NCCCCNC(=O)c3ccc(-c4c5nc(c(-c6ccccc6)c6ccc([nH]6)c(-c6ccccc6)c6nc(c(-c7ccccc7)c7ccc4[nH]7)C=C6)C=C5)cc3)CC2)cc1C(=O)N1CCCCC1
REMARK SMILES IDX 16 1 15 2 14 3 12 4 13 5 11 7 8 8 9 9 71 10 10 11 70 12 5 13
REMARK SMILES IDX 6 14 7 15 4 16 1 17 2 18 3 19 73 20 72 21 74 22 75 23 76 24
REMARK SMILES IDX 77 25 81 26 78 27 80 28 79 29 17 30 18 31 19 32 20 33 21 35
REMARK SMILES IDX 22 36 23 37 69 38 24 39 68 40 25 41 26 42 27 43 62 44 28 45
REMARK SMILES IDX 67 46 61 47 63 48 29 49 66 50 60 51 59 52 30 54 52 55 37 56
REMARK SMILES IDX 51 57 38 58 41 59 50 60 64 61 39 62 40 63 49 65 65 66 42 67
REMARK SMILES IDX 31 68 32 69 36 70 33 71 35 72 34 73 53 74 54 75 58 76 55 77
REMARK SMILES IDX 57 78 56 79 43 80 44 81 48 82 45 83 47 84 46 85
REMARK H PARENT 14 6 19 34 63 53 41 64
REMARK Flexibility Score: inf
ROOT
ATOM      1  C   UNL A   1      37.287  21.237  24.620  1.00  0.00     0.023 C 
ENDROOT
BRANCH   1   2
ATOM      2  C   UNL A   1      35.914  21.255  25.285  1.00  0.00     0.116 C 
BRANCH   2   3
ATOM      3  N   UNL A   1      35.204  20.003  25.092  1.00  0.00    -0.356 N 
ATOM      4  C   UNL A   1      33.910  19.665  25.331  1.00  0.00     0.223 C 
ATOM      5  O   UNL A   1      33.566  18.505  25.089  1.00  0.00    -0.275 OA
ATOM      6  H   UNL A   1      35.755  19.274  24.726  1.00  0.00     0.163 HD
BRANCH   4   7
ATOM      7  C   UNL A   1      32.897  20.671  25.852  1.00  0.00     0.081 C 
ATOM      8  N   UNL A   1      31.866  23.349  26.006  1.00  0.00    -0.198 NA
ATOM      9  C   UNL A   1      32.534  22.778  27.201  1.00  0.00     0.103 C 
ATOM     10  C   UNL A   1      31.129  22.358  25.190  1.00  0.00     0.103 C 
ATOM     11  C   UNL A   1      33.528  21.709  26.783  1.00  0.00     0.030 C 
ATOM     12  C   UNL A   1      32.072  21.269  24.709  1.00  0.00     0.030 C 
BRANCH   8  13
ATOM     13  S   UNL A   1      31.055  24.831  26.261  1.00  0.00     0.244 S 
ATOM     14  O   UNL A   1      31.890  25.689  27.074  1.00  0.00    -0.207 OA
ATOM     15  O   UNL A   1      29.685  24.537  26.624  1.00  0.00    -0.207 OA
BRANCH  13  16
ATOM     16  C   UNL A   1      30.903  25.694  24.766  1.00  0.00     0.101 A 
ATOM     17  C   UNL A   1      31.704  26.154  21.279  1.00  0.00     0.150 C 
ATOM     18  N   UNL A   1      31.189  26.256  22.627  1.00  0.00    -0.345 N 
ATOM     19  C   UNL A   1      31.264  25.216  23.525  1.00  0.00     0.107 A 
ATOM     20  C   UNL A   1      30.734  27.396  23.263  1.00  0.00     0.108 A 
ATOM     21  C   UNL A   1      30.494  27.032  24.581  1.00  0.00     0.055 A 
BRANCH  20  22
ATOM     22  C   UNL A   1      30.725  28.769  22.785  1.00  0.00     0.270 C 
ATOM     23  O   UNL A   1      31.783  29.396  22.704  1.00  0.00    -0.267 OA
ATOM     24  N   UNL A   1      29.529  29.345  22.381  1.00  0.00    -0.337 N 
ATOM     25  C   UNL A   1      29.579  30.428  21.404  1.00  0.00     0.120 C 
ATOM     26  C   UNL A   1      28.218  29.034  22.946  1.00  0.00     0.120 C 
ATOM     27  C   UNL A   1      28.926  31.698  21.931  1.00  0.00     0.022 C 
ATOM     28  C   UNL A   1      27.531  30.296  23.474  1.00  0.00     0.022 C 
ATOM     29  C   UNL A   1      27.511  31.406  22.424  1.00  0.00     0.004 C 
ENDBRANCH  20  22
ENDBRANCH  13  16
ENDBRANCH   8  13
ENDBRANCH   4   7
ENDBRANCH   2   3
ENDBRANCH   1   2
BRANCH   1  30
ATOM     30  C   UNL A   1      38.138  20.012  24.947  1.00  0.00     0.023 C 
BRANCH  30  31
ATOM     31  C   UNL A   1      39.369  20.289  25.802  1.00  0.00     0.116 C 
BRANCH  31  32
ATOM     32  N   UNL A   1      40.289  19.163  25.872  1.00  0.00    -0.352 N 
ATOM     33  C   UNL A   1      41.631  19.173  26.160  1.00  0.00     0.251 C 
ATOM     34  H   UNL A   1      39.896  18.280  25.689  1.00  0.00     0.163 HD
ATOM     35  O   UNL A   1      42.293  18.142  26.094  1.00  0.00    -0.269 OA
BRANCH  33  36
ATOM     36  C   UNL A   1      42.282  20.450  26.509  1.00  0.00     0.039 A 
ATOM     37  C   UNL A   1      42.856  21.210  25.487  1.00  0.00     0.014 A 
ATOM     38  C   UNL A   1      42.281  20.913  27.828  1.00  0.00     0.014 A 
ATOM     39  C   UNL A   1      43.368  22.474  25.778  1.00  0.00     0.010 A 
ATOM     40  C   UNL A   1      42.736  22.198  28.103  1.00  0.00     0.010 A 
ATOM     41  C   UNL A   1      43.278  22.991  27.080  1.00  0.00    -0.014 A 
BRANCH  41  42
ATOM     42  C   UNL A   1      43.737  24.364  27.394  1.00  0.00     0.031 A 
ATOM     43  C   UNL A   1      42.750  25.403  27.838  1.00  0.00     0.074 A 
ATOM     44  C   UNL A   1      45.028  24.693  27.205  1.00  0.00     0.049 A 
ATOM     45  N   UNL A   1      42.945  26.674  28.086  1.00  0.00    -0.248 NA
ATOM     46  C   UNL A   1      41.354  24.964  27.998  1.00  0.00     0.031 C 
ATOM     47  C   UNL A   1      46.077  23.786  26.733  1.00  0.00     0.029 A 
ATOM     48  N   UNL A   1      45.677  25.889  27.377  1.00  0.00    -0.354 N 
ATOM     49  C   UNL A   1      41.697  27.190  28.405  1.00  0.00     0.074 A 
ATOM     50  C   UNL A   1      40.746  26.106  28.286  1.00  0.00     0.031 C 
ATOM     51  C   UNL A   1      47.241  24.453  26.678  1.00  0.00     0.029 A 
ATOM     52  C   UNL A   1      47.015  25.837  27.079  1.00  0.00     0.049 A 
ATOM     53  H   UNL A   1      45.224  26.708  27.687  1.00  0.00     0.167 HD
ATOM     54  C   UNL A   1      41.371  28.449  28.779  1.00  0.00     0.031 A 
ATOM     55  C   UNL A   1      47.955  26.799  27.123  1.00  0.00     0.031 A 
ATOM     56  C   UNL A   1      42.317  29.522  28.923  1.00  0.00     0.049 A 
ATOM     57  C   UNL A   1      47.575  28.184  27.558  1.00  0.00     0.074 A 
ATOM     58  C   UNL A   1      42.095  30.816  29.361  1.00  0.00     0.029 A 
ATOM     59  N   UNL A   1      43.669  29.422  28.632  1.00  0.00    -0.354 N 
ATOM     60  N   UNL A   1      46.400  28.642  27.914  1.00  0.00    -0.248 NA
ATOM     61  C   UNL A   1      48.652  29.182  27.605  1.00  0.00     0.031 C 
ATOM     62  C   UNL A   1      43.310  31.509  29.306  1.00  0.00     0.029 A 
ATOM     63  C   UNL A   1      44.292  30.636  28.866  1.00  0.00     0.049 A 
ATOM     64  H   UNL A   1      44.118  28.609  28.307  1.00  0.00     0.167 HD
ATOM     65  C   UNL A   1      46.599  29.975  28.248  1.00  0.00     0.074 A 
ATOM     66  C   UNL A   1      48.009  30.248  28.060  1.00  0.00     0.031 C 
ATOM     67  C   UNL A   1      45.695  30.890  28.672  1.00  0.00     0.031 A 
BRANCH  54  68
ATOM     68  C   UNL A   1      39.923  28.728  29.052  1.00  0.00    -0.014 A 
ATOM     69  C   UNL A   1      39.361  28.478  30.314  1.00  0.00     0.009 A 
ATOM     70  C   UNL A   1      39.110  29.256  28.037  1.00  0.00     0.009 A 
ATOM     71  C   UNL A   1      38.004  28.714  30.542  1.00  0.00     0.001 A 
ATOM     72  C   UNL A   1      37.759  29.514  28.275  1.00  0.00     0.001 A 
ATOM     73  C   UNL A   1      37.205  29.234  29.524  1.00  0.00     0.000 A 
ENDBRANCH  54  68
BRANCH  55  74
ATOM     74  C   UNL A   1      49.360  26.475  26.769  1.00  0.00    -0.014 A 
ATOM     75  C   UNL A   1      49.825  26.691  25.462  1.00  0.00     0.009 A 
ATOM     76  C   UNL A   1      50.241  25.961  27.732  1.00  0.00     0.009 A 
ATOM     77  C   UNL A   1      51.142  26.380  25.123  1.00  0.00     0.001 A 
ATOM     78  C   UNL A   1      51.564  25.670  27.392  1.00  0.00     0.001 A 
ATOM     79  C   UNL A   1      52.012  25.874  26.088  1.00  0.00     0.000 A 
ENDBRANCH  55  74
BRANCH  67  80
ATOM     80  C   UNL A   1      46.211  32.261  28.988  1.00  0.00    -0.014 A 
ATOM     81  C   UNL A   1      46.667  32.584  30.274  1.00  0.00     0.009 A 
ATOM     82  C   UNL A   1      46.276  33.230  27.975  1.00  0.00     0.009 A 
ATOM     83  C   UNL A   1      47.156  33.863  30.547  1.00  0.00     0.001 A 
ATOM     84  C   UNL A   1      46.784  34.501  28.246  1.00  0.00     0.001 A 
ATOM     85  C   UNL A   1      47.217  34.819  29.533  1.00  0.00     0.000 A 
ENDBRANCH  67  80
ENDBRANCH  41  42
ENDBRANCH  33  36
ENDBRANCH  31  32
ENDBRANCH  30  31
ENDBRANCH   1  30
TORSDOF 14
ENDMDL
MODEL 3
REMARK VINA RESULT:     -12.1      5.385     10.803
REMARK SMILES Cn1cc(S(=O)(=O)N2CCC(C(=O)NCCCCNC(=O)c3ccc(-c4c5nc(c(-c6ccccc6)c6ccc([nH]6)c(-c6ccccc6)c6nc(c(-c7ccccc7)c7ccc4[nH]7)C=C6)C=C5)cc3)CC2)cc1C(=O)N1CCCCC1
REMARK SMILES IDX 16 1 15 2 14 3 12 4 13 5 11 7 8 8 9 9 71 10 10 11 70 12 5 13
REMARK SMILES IDX 6 14 7 15 4 16 1 17 2 18 3 19 73 20 72 21 74 22 75 23 76 24
REMARK SMILES IDX 77 25 81 26 78 27 80 28 79 29 17 30 18 31 19 32 20 33 21 35
REMARK SMILES IDX 22 36 23 37 69 38 24 39 68 40 25 41 26 42 27 43 62 44 28 45
REMARK SMILES IDX 67 46 61 47 63 48 29 49 66 50 60 51 59 52 30 54 52 55 37 56
REMARK SMILES IDX 51 57 38 58 41 59 50 60 64 61 39 62 40 63 49 65 65 66 42 67
REMARK SMILES IDX 31 68 32 69 36 70 33 71 35 72 34 73 53 74 54 75 58 76 55 77
REMARK SMILES IDX 57 78 56 79 43 80 44 81 48 82 45 83 47 84 46 85
REMARK H PARENT 14 6 19 34 63 53 41 64
REMARK Flexibility Score: inf
ROOT
ATOM      1  C   UNL A   1      34.106  33.433  28.996  1.00  0.00     0.023 C 
ENDROOT
BRANCH   1   2
ATOM      2  C   UNL A   1      33.625  32.139  28.346  1.00  0.00     0.116 C 
BRANCH   2   3
ATOM      3  N   UNL A   1      34.699  31.171  28.212  1.00  0.00    -0.356 N 
ATOM      4  C   UNL A   1      34.746  29.973  27.573  1.00  0.00     0.223 C 
ATOM      5  O   UNL A   1      35.797  29.331  27.632  1.00  0.00    -0.275 OA
ATOM      6  H   UNL A   1      35.537  31.426  28.662  1.00  0.00     0.163 HD
BRANCH   4   7
ATOM      7  C   UNL A   1      33.563  29.433  26.784  1.00  0.00     0.081 C 
ATOM      8  N   UNL A   1      32.100  27.247  25.630  1.00  0.00    -0.198 NA
ATOM      9  C   UNL A   1      32.811  28.180  24.722  1.00  0.00     0.103 C 
ATOM     10  C   UNL A   1      31.565  27.880  26.855  1.00  0.00     0.103 C 
ATOM     11  C   UNL A   1      33.983  28.822  25.446  1.00  0.00     0.030 C 
ATOM     12  C   UNL A   1      32.691  28.520  27.650  1.00  0.00     0.030 C 
BRANCH   8  13
ATOM     13  S   UNL A   1      31.047  26.142  24.861  1.00  0.00     0.244 S 
ATOM     14  O   UNL A   1      30.561  26.734  23.633  1.00  0.00    -0.207 OA
ATOM     15  O   UNL A   1      30.144  25.611  25.860  1.00  0.00    -0.207 OA
BRANCH  13  16
ATOM     16  C   UNL A   1      31.929  24.748  24.329  1.00  0.00     0.101 A 
ATOM     17  C   UNL A   1      32.122  21.598  22.582  1.00  0.00     0.150 C 
ATOM     18  N   UNL A   1      32.381  22.796  23.350  1.00  0.00    -0.345 N 
ATOM     19  C   UNL A   1      31.530  23.878  23.338  1.00  0.00     0.107 A 
ATOM     20  C   UNL A   1      33.361  22.979  24.308  1.00  0.00     0.108 A 
ATOM     21  C   UNL A   1      33.120  24.222  24.875  1.00  0.00     0.055 A 
BRANCH  20  22
ATOM     22  C   UNL A   1      34.314  22.016  24.837  1.00  0.00     0.270 C 
ATOM     23  O   UNL A   1      33.908  20.988  25.380  1.00  0.00    -0.267 OA
ATOM     24  N   UNL A   1      35.675  22.246  24.684  1.00  0.00    -0.337 N 
ATOM     25  C   UNL A   1      36.571  21.094  24.667  1.00  0.00     0.120 C 
ATOM     26  C   UNL A   1      36.303  23.564  24.655  1.00  0.00     0.120 C 
ATOM     27  C   UNL A   1      37.633  21.187  25.753  1.00  0.00     0.022 C 
ATOM     28  C   UNL A   1      37.385  23.683  25.731  1.00  0.00     0.022 C 
ATOM     29  C   UNL A   1      38.373  22.519  25.664  1.00  0.00     0.004 C 
ENDBRANCH  20  22
ENDBRANCH  13  16
ENDBRANCH   8  13
ENDBRANCH   4   7
ENDBRANCH   2   3
ENDBRANCH   1   2
BRANCH   1  30
ATOM     30  C   UNL A   1      33.281  34.668  28.642  1.00  0.00     0.023 C 
BRANCH  30  31
ATOM     31  C   UNL A   1      33.597  35.914  29.461  1.00  0.00     0.116 C 
BRANCH  31  32
ATOM     32  N   UNL A   1      32.614  36.188  30.499  1.00  0.00    -0.352 N 
ATOM     33  C   UNL A   1      32.643  35.820  31.821  1.00  0.00     0.251 C 
ATOM     34  H   UNL A   1      31.827  36.704  30.215  1.00  0.00     0.163 HD
ATOM     35  O   UNL A   1      31.689  36.054  32.557  1.00  0.00    -0.269 OA
BRANCH  33  36
ATOM     36  C   UNL A   1      33.821  35.100  32.341  1.00  0.00     0.039 A 
ATOM     37  C   UNL A   1      33.660  33.785  32.784  1.00  0.00     0.014 A 
ATOM     38  C   UNL A   1      35.081  35.704  32.346  1.00  0.00     0.014 A 
ATOM     39  C   UNL A   1      34.780  33.047  33.165  1.00  0.00     0.010 A 
ATOM     40  C   UNL A   1      36.203  34.947  32.667  1.00  0.00     0.010 A 
ATOM     41  C   UNL A   1      36.062  33.611  33.074  1.00  0.00    -0.014 A 
BRANCH  41  42
ATOM     42  C   UNL A   1      37.273  32.819  33.392  1.00  0.00     0.031 A 
ATOM     43  C   UNL A   1      38.023  33.072  34.666  1.00  0.00     0.074 A 
ATOM     44  C   UNL A   1      37.738  31.927  32.497  1.00  0.00     0.049 A 
ATOM     45  N   UNL A   1      39.142  32.536  35.085  1.00  0.00    -0.248 NA
ATOM     46  C   UNL A   1      37.458  34.080  35.578  1.00  0.00     0.031 C 
ATOM     47  C   UNL A   1      37.124  31.622  31.202  1.00  0.00     0.029 A 
ATOM     48  N   UNL A   1      38.844  31.119  32.539  1.00  0.00    -0.354 N 
ATOM     49  C   UNL A   1      39.427  33.159  36.292  1.00  0.00     0.074 A 
ATOM     50  C   UNL A   1      38.385  34.136  36.522  1.00  0.00     0.031 C 
ATOM     51  C   UNL A   1      37.850  30.676  30.585  1.00  0.00     0.029 A 
ATOM     52  C   UNL A   1      38.993  30.332  31.424  1.00  0.00     0.049 A 
ATOM     53  H   UNL A   1      39.472  31.103  33.298  1.00  0.00     0.167 HD
ATOM     54  C   UNL A   1      40.455  32.928  37.142  1.00  0.00     0.031 A 
ATOM     55  C   UNL A   1      39.945  29.433  31.113  1.00  0.00     0.031 A 
ATOM     56  C   UNL A   1      41.477  31.940  36.927  1.00  0.00     0.049 A 
ATOM     57  C   UNL A   1      41.066  29.181  32.079  1.00  0.00     0.074 A 
ATOM     58  C   UNL A   1      42.523  31.585  37.762  1.00  0.00     0.029 A 
ATOM     59  N   UNL A   1      41.580  31.148  35.795  1.00  0.00    -0.354 N 
ATOM     60  N   UNL A   1      41.289  29.735  33.245  1.00  0.00    -0.248 NA
ATOM     61  C   UNL A   1      42.060  28.173  31.688  1.00  0.00     0.031 C 
ATOM     62  C   UNL A   1      43.277  30.596  37.119  1.00  0.00     0.029 A 
ATOM     63  C   UNL A   1      42.680  30.314  35.901  1.00  0.00     0.049 A 
ATOM     64  H   UNL A   1      40.962  31.174  35.029  1.00  0.00     0.167 HD
ATOM     65  C   UNL A   1      42.437  29.130  33.737  1.00  0.00     0.074 A 
ATOM     66  C   UNL A   1      42.857  28.159  32.748  1.00  0.00     0.031 C 
ATOM     67  C   UNL A   1      43.084  29.357  34.906  1.00  0.00     0.031 A 
BRANCH  54  68
ATOM     68  C   UNL A   1      40.520  33.771  38.380  1.00  0.00    -0.014 A 
ATOM     69  C   UNL A   1      41.158  35.022  38.374  1.00  0.00     0.009 A 
ATOM     70  C   UNL A   1      39.927  33.315  39.568  1.00  0.00     0.009 A 
ATOM     71  C   UNL A   1      41.235  35.781  39.543  1.00  0.00     0.001 A 
ATOM     72  C   UNL A   1      39.985  34.087  40.729  1.00  0.00     0.001 A 
ATOM     73  C   UNL A   1      40.647  35.315  40.718  1.00  0.00     0.000 A 
ENDBRANCH  54  68
BRANCH  55  74
ATOM     74  C   UNL A   1      39.863  28.683  29.835  1.00  0.00    -0.014 A 
ATOM     75  C   UNL A   1      39.358  27.374  29.818  1.00  0.00     0.009 A 
ATOM     76  C   UNL A   1      40.278  29.271  28.631  1.00  0.00     0.009 A 
ATOM     77  C   UNL A   1      39.287  26.661  28.620  1.00  0.00     0.001 A 
ATOM     78  C   UNL A   1      40.186  28.562  27.432  1.00  0.00     0.001 A 
ATOM     79  C   UNL A   1      39.697  27.256  27.427  1.00  0.00     0.000 A 
ENDBRANCH  55  74
BRANCH  67  80
ATOM     80  C   UNL A   1      44.297  28.522  35.186  1.00  0.00    -0.014 A 
ATOM     81  C   UNL A   1      45.575  28.952  34.802  1.00  0.00     0.009 A 
ATOM     82  C   UNL A   1      44.162  27.307  35.875  1.00  0.00     0.009 A 
ATOM     83  C   UNL A   1      46.696  28.167  35.082  1.00  0.00     0.001 A 
ATOM     84  C   UNL A   1      45.285  26.535  36.172  1.00  0.00     0.001 A 
ATOM     85  C   UNL A   1      46.550  26.962  35.769  1.00  0.00     0.000 A 
ENDBRANCH  67  80
ENDBRANCH  41  42
ENDBRANCH  33  36
ENDBRANCH  31  32
ENDBRANCH  30  31
ENDBRANCH   1  30
TORSDOF 14
ENDMDL
