MODEL 1
REMARK VINA RESULT:     -12.6      0.000      0.000
REMARK SMILES C[C@@H](C(=O)NCCCCNC(=O)c1ccc(-c2c3nc(c(-c4ccccc4)c4ccc([nH]4)c(-c4ccccc4)c4nc(c(-c5ccccc5)c5ccc2[nH]5)C=C4)C=C3)cc1)c1ccc2c3cc(Cl)ccc3n(C(=O)c3cocn3)c2c1
REMARK SMILES IDX 7 1 6 2 5 3 3 4 4 5 2 7 1 8 61 9 62 10 81 11 63 12 80 13
REMARK SMILES IDX 64 14 72 15 65 16 71 17 66 18 70 19 67 20 69 21 68 22 73 23
REMARK SMILES IDX 74 24 75 25 76 26 79 27 77 28 78 29 8 30 9 31 10 32 11 33
REMARK SMILES IDX 12 35 13 36 14 37 60 38 15 39 59 40 16 41 17 42 18 43 53 44
REMARK SMILES IDX 19 45 58 46 52 47 54 48 20 49 57 50 51 51 50 52 21 54 43 55
REMARK SMILES IDX 28 56 42 57 29 58 32 59 41 60 55 61 30 62 31 63 40 65 56 66
REMARK SMILES IDX 33 67 22 68 23 69 27 70 24 71 26 72 25 73 44 74 45 75 49 76
REMARK SMILES IDX 46 77 48 78 47 79 34 80 35 81 39 82 36 83 38 84 37 85
REMARK H PARENT 5 6 10 34 54 53 32 64
REMARK Flexibility Score: inf
ROOT
ATOM      1  C   UNL A   1      31.796  29.380  27.243  1.00  0.00     0.023 C 
ENDROOT
BRANCH   1   2
ATOM      2  C   UNL A   1      31.758  28.280  26.181  1.00  0.00     0.116 C 
BRANCH   2   3
ATOM      3  N   UNL A   1      30.990  27.144  26.641  1.00  0.00    -0.356 N 
ATOM      4  C   UNL A   1      30.681  25.981  25.998  1.00  0.00     0.227 C 
ATOM      5  O   UNL A   1      29.902  25.223  26.580  1.00  0.00    -0.274 OA
ATOM      6  H   UNL A   1      30.635  27.223  27.556  1.00  0.00     0.163 HD
BRANCH   4   7
ATOM      7  C   UNL A   1      31.331  25.654  24.642  1.00  0.00     0.105 C 
ATOM      8  C   UNL A   1      30.382  24.888  23.707  1.00  0.00     0.023 C 
BRANCH   7   9
ATOM      9  C   UNL A   1      32.630  24.872  24.825  1.00  0.00    -0.034 A 
ATOM     10  C   UNL A   1      33.810  25.515  25.205  1.00  0.00     0.005 A 
ATOM     11  C   UNL A   1      32.639  23.483  24.625  1.00  0.00     0.032 A 
ATOM     12  C   UNL A   1      34.993  24.787  25.393  1.00  0.00     0.011 A 
ATOM     13  C   UNL A   1      33.844  22.770  24.739  1.00  0.00     0.058 A 
ATOM     14  C   UNL A   1      35.010  23.394  25.163  1.00  0.00     0.008 A 
ATOM     15  N   UNL A   1      34.112  21.418  24.510  1.00  0.00    -0.274 N 
ATOM     16  C   UNL A   1      36.011  22.388  25.261  1.00  0.00     0.009 A 
ATOM     17  C   UNL A   1      35.459  21.178  24.813  1.00  0.00     0.057 A 
ATOM     18  C   UNL A   1      37.365  22.431  25.659  1.00  0.00     0.031 A 
ATOM     19  C   UNL A   1      36.270  20.036  24.661  1.00  0.00     0.029 A 
ATOM     20  C   UNL A   1      38.146  21.281  25.560  1.00  0.00     0.041 A 
ATOM     21  C   UNL A   1      37.612  20.105  25.054  1.00  0.00     0.023 A 
ATOM     22  Cl  UNL A   1      39.799  21.336  26.038  1.00  0.00    -0.084 Cl
BRANCH  15  23
ATOM     23  C   UNL A   1      33.155  20.510  23.978  1.00  0.00     0.284 C 
ATOM     24  O   UNL A   1      32.420  20.966  23.102  1.00  0.00    -0.266 OA
BRANCH  23  25
ATOM     25  C   UNL A   1      32.969  19.133  24.423  1.00  0.00     0.167 A 
ATOM     26  C   UNL A   1      33.254  17.956  23.766  1.00  0.00     0.231 A 
ATOM     27  N   UNL A   1      32.567  18.825  25.717  1.00  0.00    -0.211 NA
ATOM     28  O   UNL A   1      33.021  16.917  24.618  1.00  0.00    -0.451 OA
ATOM     29  C   UNL A   1      32.628  17.517  25.772  1.00  0.00     0.308 A 
ENDBRANCH  23  25
ENDBRANCH  15  23
ENDBRANCH   7   9
ENDBRANCH   4   7
ENDBRANCH   2   3
ENDBRANCH   1   2
BRANCH   1  30
ATOM     30  C   UNL A   1      31.847  30.804  26.683  1.00  0.00     0.023 C 
BRANCH  30  31
ATOM     31  C   UNL A   1      32.952  31.686  27.255  1.00  0.00     0.116 C 
BRANCH  31  32
ATOM     32  N   UNL A   1      32.520  33.055  27.490  1.00  0.00    -0.352 N 
ATOM     33  C   UNL A   1      33.116  34.029  28.257  1.00  0.00     0.251 C 
ATOM     34  H   UNL A   1      31.688  33.322  27.037  1.00  0.00     0.163 HD
ATOM     35  O   UNL A   1      32.562  35.101  28.446  1.00  0.00    -0.269 OA
BRANCH  33  36
ATOM     36  C   UNL A   1      34.422  33.742  28.886  1.00  0.00     0.039 A 
ATOM     37  C   UNL A   1      34.446  33.047  30.097  1.00  0.00     0.014 A 
ATOM     38  C   UNL A   1      35.611  34.106  28.250  1.00  0.00     0.014 A 
ATOM     39  C   UNL A   1      35.669  32.632  30.628  1.00  0.00     0.010 A 
ATOM     40  C   UNL A   1      36.824  33.643  28.749  1.00  0.00     0.010 A 
ATOM     41  C   UNL A   1      36.861  32.884  29.930  1.00  0.00    -0.014 A 
BRANCH  41  42
ATOM     42  C   UNL A   1      38.155  32.313  30.377  1.00  0.00     0.031 A 
ATOM     43  C   UNL A   1      38.661  31.028  29.788  1.00  0.00     0.074 A 
ATOM     44  C   UNL A   1      38.817  32.899  31.395  1.00  0.00     0.049 A 
ATOM     45  N   UNL A   1      39.698  30.313  30.142  1.00  0.00    -0.248 NA
ATOM     46  C   UNL A   1      37.887  30.458  28.673  1.00  0.00     0.031 C 
ATOM     47  C   UNL A   1      38.406  34.126  32.082  1.00  0.00     0.029 A 
ATOM     48  N   UNL A   1      39.963  32.523  32.050  1.00  0.00    -0.354 N 
ATOM     49  C   UNL A   1      39.687  29.198  29.314  1.00  0.00     0.074 A 
ATOM     50  C   UNL A   1      38.526  29.317  28.457  1.00  0.00     0.031 C 
ATOM     51  C   UNL A   1      39.285  34.401  33.058  1.00  0.00     0.029 A 
ATOM     52  C   UNL A   1      40.296  33.349  33.097  1.00  0.00     0.049 A 
ATOM     53  H   UNL A   1      40.497  31.737  31.793  1.00  0.00     0.167 HD
ATOM     54  C   UNL A   1      40.568  28.173  29.268  1.00  0.00     0.031 A 
ATOM     55  C   UNL A   1      41.286  33.258  34.005  1.00  0.00     0.031 A 
ATOM     56  C   UNL A   1      41.734  28.069  30.104  1.00  0.00     0.049 A 
ATOM     57  C   UNL A   1      42.240  32.098  33.937  1.00  0.00     0.074 A 
ATOM     58  C   UNL A   1      42.739  27.116  30.062  1.00  0.00     0.029 A 
ATOM     59  N   UNL A   1      42.047  28.936  31.137  1.00  0.00    -0.354 N 
ATOM     60  N   UNL A   1      42.271  31.104  33.084  1.00  0.00    -0.248 NA
ATOM     61  C   UNL A   1      43.297  32.050  34.958  1.00  0.00     0.031 C 
ATOM     62  C   UNL A   1      43.629  27.376  31.108  1.00  0.00     0.029 A 
ATOM     63  C   UNL A   1      43.206  28.518  31.768  1.00  0.00     0.049 A 
ATOM     64  H   UNL A   1      41.523  29.732  31.385  1.00  0.00     0.167 HD
ATOM     65  C   UNL A   1      43.358  30.323  33.455  1.00  0.00     0.074 A 
ATOM     66  C   UNL A   1      43.973  30.969  34.595  1.00  0.00     0.031 C 
ATOM     67  C   UNL A   1      43.804  29.170  32.902  1.00  0.00     0.031 A 
BRANCH  54  68
ATOM     68  C   UNL A   1      40.309  27.067  28.287  1.00  0.00    -0.014 A 
ATOM     69  C   UNL A   1      40.868  27.088  27.001  1.00  0.00     0.009 A 
ATOM     70  C   UNL A   1      39.555  25.951  28.685  1.00  0.00     0.009 A 
ATOM     71  C   UNL A   1      40.660  26.021  26.124  1.00  0.00     0.001 A 
ATOM     72  C   UNL A   1      39.368  24.877  27.814  1.00  0.00     0.001 A 
ATOM     73  C   UNL A   1      39.916  24.915  26.533  1.00  0.00     0.000 A 
ENDBRANCH  54  68
BRANCH  55  74
ATOM     74  C   UNL A   1      41.415  34.276  35.079  1.00  0.00    -0.014 A 
ATOM     75  C   UNL A   1      40.709  34.138  36.283  1.00  0.00     0.009 A 
ATOM     76  C   UNL A   1      42.224  35.409  34.892  1.00  0.00     0.009 A 
ATOM     77  C   UNL A   1      40.786  35.129  37.265  1.00  0.00     0.001 A 
ATOM     78  C   UNL A   1      42.321  36.383  35.888  1.00  0.00     0.001 A 
ATOM     79  C   UNL A   1      41.592  36.248  37.068  1.00  0.00     0.000 A 
ENDBRANCH  55  74
BRANCH  67  80
ATOM     80  C   UNL A   1      45.024  28.541  33.510  1.00  0.00    -0.014 A 
ATOM     81  C   UNL A   1      44.917  27.425  34.354  1.00  0.00     0.009 A 
ATOM     82  C   UNL A   1      46.297  29.040  33.193  1.00  0.00     0.009 A 
ATOM     83  C   UNL A   1      46.063  26.835  34.888  1.00  0.00     0.001 A 
ATOM     84  C   UNL A   1      47.442  28.431  33.708  1.00  0.00     0.001 A 
ATOM     85  C   UNL A   1      47.324  27.334  34.561  1.00  0.00     0.000 A 
ENDBRANCH  67  80
ENDBRANCH  41  42
ENDBRANCH  33  36
ENDBRANCH  31  32
ENDBRANCH  30  31
ENDBRANCH   1  30
TORSDOF 14
ENDMDL
MODEL 2
REMARK VINA RESULT:     -12.4      0.769      5.760
REMARK SMILES C[C@@H](C(=O)NCCCCNC(=O)c1ccc(-c2c3nc(c(-c4ccccc4)c4ccc([nH]4)c(-c4ccccc4)c4nc(c(-c5ccccc5)c5ccc2[nH]5)C=C4)C=C3)cc1)c1ccc2c3cc(Cl)ccc3n(C(=O)c3cocn3)c2c1
REMARK SMILES IDX 7 1 6 2 5 3 3 4 4 5 2 7 1 8 61 9 62 10 81 11 63 12 80 13
REMARK SMILES IDX 64 14 72 15 65 16 71 17 66 18 70 19 67 20 69 21 68 22 73 23
REMARK SMILES IDX 74 24 75 25 76 26 79 27 77 28 78 29 8 30 9 31 10 32 11 33
REMARK SMILES IDX 12 35 13 36 14 37 60 38 15 39 59 40 16 41 17 42 18 43 53 44
REMARK SMILES IDX 19 45 58 46 52 47 54 48 20 49 57 50 51 51 50 52 21 54 43 55
REMARK SMILES IDX 28 56 42 57 29 58 32 59 41 60 55 61 30 62 31 63 40 65 56 66
REMARK SMILES IDX 33 67 22 68 23 69 27 70 24 71 26 72 25 73 44 74 45 75 49 76
REMARK SMILES IDX 46 77 48 78 47 79 34 80 35 81 39 82 36 83 38 84 37 85
REMARK H PARENT 5 6 10 34 54 53 32 64
REMARK Flexibility Score: inf
ROOT
ATOM      1  C   UNL A   1      32.444  29.763  25.419  1.00  0.00     0.023 C 
ENDROOT
BRANCH   1   2
ATOM      2  C   UNL A   1      31.430  28.805  24.792  1.00  0.00     0.116 C 
BRANCH   2   3
ATOM      3  N   UNL A   1      31.013  27.798  25.744  1.00  0.00    -0.356 N 
ATOM      4  C   UNL A   1      30.874  26.450  25.584  1.00  0.00     0.227 C 
ATOM      5  O   UNL A   1      30.382  25.834  26.532  1.00  0.00    -0.274 OA
ATOM      6  H   UNL A   1      30.796  28.137  26.643  1.00  0.00     0.163 HD
BRANCH   4   7
ATOM      7  C   UNL A   1      31.362  25.773  24.291  1.00  0.00     0.105 C 
ATOM      8  C   UNL A   1      30.281  24.888  23.650  1.00  0.00     0.023 C 
BRANCH   7   9
ATOM      9  C   UNL A   1      32.629  24.957  24.538  1.00  0.00    -0.034 A 
ATOM     10  C   UNL A   1      33.822  25.577  24.914  1.00  0.00     0.005 A 
ATOM     11  C   UNL A   1      32.595  23.561  24.401  1.00  0.00     0.032 A 
ATOM     12  C   UNL A   1      34.975  24.820  25.161  1.00  0.00     0.011 A 
ATOM     13  C   UNL A   1      33.771  22.814  24.574  1.00  0.00     0.058 A 
ATOM     14  C   UNL A   1      34.949  23.417  24.994  1.00  0.00     0.008 A 
ATOM     15  N   UNL A   1      33.997  21.444  24.411  1.00  0.00    -0.274 N 
ATOM     16  C   UNL A   1      35.913  22.384  25.160  1.00  0.00     0.009 A 
ATOM     17  C   UNL A   1      35.329  21.175  24.755  1.00  0.00     0.057 A 
ATOM     18  C   UNL A   1      37.259  22.400  25.585  1.00  0.00     0.031 A 
ATOM     19  C   UNL A   1      36.103  20.000  24.673  1.00  0.00     0.029 A 
ATOM     20  C   UNL A   1      38.002  21.221  25.556  1.00  0.00     0.041 A 
ATOM     21  C   UNL A   1      37.439  20.042  25.092  1.00  0.00     0.023 A 
ATOM     22  Cl  UNL A   1      39.645  21.243  26.067  1.00  0.00    -0.084 Cl
BRANCH  15  23
ATOM     23  C   UNL A   1      33.021  20.546  23.901  1.00  0.00     0.284 C 
ATOM     24  O   UNL A   1      32.256  21.015  23.058  1.00  0.00    -0.266 OA
BRANCH  23  25
ATOM     25  C   UNL A   1      32.848  19.163  24.332  1.00  0.00     0.167 A 
ATOM     26  C   UNL A   1      33.049  17.996  23.627  1.00  0.00     0.231 A 
ATOM     27  N   UNL A   1      32.558  18.833  25.650  1.00  0.00    -0.211 NA
ATOM     28  O   UNL A   1      32.873  16.942  24.475  1.00  0.00    -0.451 OA
ATOM     29  C   UNL A   1      32.597  17.523  25.672  1.00  0.00     0.308 A 
ENDBRANCH  23  25
ENDBRANCH  15  23
ENDBRANCH   7   9
ENDBRANCH   4   7
ENDBRANCH   2   3
ENDBRANCH   1   2
BRANCH   1  30
ATOM     30  C   UNL A   1      31.834  30.815  26.350  1.00  0.00     0.023 C 
BRANCH  30  31
ATOM     31  C   UNL A   1      32.834  31.560  27.227  1.00  0.00     0.116 C 
BRANCH  31  32
ATOM     32  N   UNL A   1      32.459  32.946  27.462  1.00  0.00    -0.352 N 
ATOM     33  C   UNL A   1      33.104  33.900  28.214  1.00  0.00     0.251 C 
ATOM     34  H   UNL A   1      31.629  33.242  27.022  1.00  0.00     0.163 HD
ATOM     35  O   UNL A   1      32.594  34.994  28.406  1.00  0.00    -0.269 OA
BRANCH  33  36
ATOM     36  C   UNL A   1      34.408  33.567  28.822  1.00  0.00     0.039 A 
ATOM     37  C   UNL A   1      34.428  32.986  30.092  1.00  0.00     0.014 A 
ATOM     38  C   UNL A   1      35.595  33.773  28.114  1.00  0.00     0.014 A 
ATOM     39  C   UNL A   1      35.636  32.523  30.618  1.00  0.00     0.010 A 
ATOM     40  C   UNL A   1      36.787  33.261  28.614  1.00  0.00     0.010 A 
ATOM     41  C   UNL A   1      36.814  32.613  29.859  1.00  0.00    -0.014 A 
BRANCH  41  42
ATOM     42  C   UNL A   1      38.078  31.981  30.314  1.00  0.00     0.031 A 
ATOM     43  C   UNL A   1      39.008  32.721  31.232  1.00  0.00     0.074 A 
ATOM     44  C   UNL A   1      38.435  30.784  29.807  1.00  0.00     0.049 A 
ATOM     45  N   UNL A   1      40.208  32.387  31.630  1.00  0.00    -0.248 NA
ATOM     46  C   UNL A   1      38.539  34.017  31.749  1.00  0.00     0.031 C 
ATOM     47  C   UNL A   1      37.639  29.984  28.872  1.00  0.00     0.029 A 
ATOM     48  N   UNL A   1      39.576  30.042  29.987  1.00  0.00    -0.354 N 
ATOM     49  C   UNL A   1      40.649  33.440  32.421  1.00  0.00     0.074 A 
ATOM     50  C   UNL A   1      39.598  34.435  32.427  1.00  0.00     0.031 C 
ATOM     51  C   UNL A   1      38.315  28.867  28.562  1.00  0.00     0.029 A 
ATOM     52  C   UNL A   1      39.607  28.890  29.238  1.00  0.00     0.049 A 
ATOM     53  H   UNL A   1      40.303  30.311  30.594  1.00  0.00     0.167 HD
ATOM     54  C   UNL A   1      41.820  33.560  33.087  1.00  0.00     0.031 A 
ATOM     55  C   UNL A   1      40.577  27.968  29.090  1.00  0.00     0.031 A 
ATOM     56  C   UNL A   1      42.853  32.559  33.100  1.00  0.00     0.049 A 
ATOM     57  C   UNL A   1      41.873  28.138  29.832  1.00  0.00     0.074 A 
ATOM     58  C   UNL A   1      44.032  32.551  33.826  1.00  0.00     0.029 A 
ATOM     59  N   UNL A   1      42.837  31.398  32.347  1.00  0.00    -0.354 N 
ATOM     60  N   UNL A   1      42.234  29.093  30.654  1.00  0.00    -0.248 NA
ATOM     61  C   UNL A   1      42.896  27.102  29.625  1.00  0.00     0.031 C 
ATOM     62  C   UNL A   1      44.755  31.410  33.468  1.00  0.00     0.029 A 
ATOM     63  C   UNL A   1      44.004  30.685  32.558  1.00  0.00     0.049 A 
ATOM     64  H   UNL A   1      42.104  31.120  31.751  1.00  0.00     0.167 HD
ATOM     65  C   UNL A   1      43.516  28.765  31.074  1.00  0.00     0.074 A 
ATOM     66  C   UNL A   1      43.862  27.513  30.435  1.00  0.00     0.031 C 
ATOM     67  C   UNL A   1      44.335  29.442  31.913  1.00  0.00     0.031 A 
BRANCH  54  68
ATOM     68  C   UNL A   1      42.063  34.826  33.858  1.00  0.00    -0.014 A 
ATOM     69  C   UNL A   1      41.689  34.941  35.205  1.00  0.00     0.009 A 
ATOM     70  C   UNL A   1      42.743  35.890  33.245  1.00  0.00     0.009 A 
ATOM     71  C   UNL A   1      41.975  36.108  35.918  1.00  0.00     0.001 A 
ATOM     72  C   UNL A   1      43.047  37.045  33.967  1.00  0.00     0.001 A 
ATOM     73  C   UNL A   1      42.659  37.155  35.301  1.00  0.00     0.000 A 
ENDBRANCH  54  68
BRANCH  55  74
ATOM     74  C   UNL A   1      40.379  26.811  28.179  1.00  0.00    -0.014 A 
ATOM     75  C   UNL A   1      40.848  26.852  26.858  1.00  0.00     0.009 A 
ATOM     76  C   UNL A   1      39.691  25.668  28.620  1.00  0.00     0.009 A 
ATOM     77  C   UNL A   1      40.605  25.787  25.987  1.00  0.00     0.001 A 
ATOM     78  C   UNL A   1      39.476  24.593  27.755  1.00  0.00     0.001 A 
ATOM     79  C   UNL A   1      39.922  24.658  26.437  1.00  0.00     0.000 A 
ENDBRANCH  55  74
BRANCH  67  80
ATOM     80  C   UNL A   1      45.678  28.837  32.202  1.00  0.00    -0.014 A 
ATOM     81  C   UNL A   1      46.817  29.227  31.480  1.00  0.00     0.009 A 
ATOM     82  C   UNL A   1      45.815  27.905  33.242  1.00  0.00     0.009 A 
ATOM     83  C   UNL A   1      48.063  28.677  31.780  1.00  0.00     0.001 A 
ATOM     84  C   UNL A   1      47.067  27.376  33.556  1.00  0.00     0.001 A 
ATOM     85  C   UNL A   1      48.188  27.756  32.821  1.00  0.00     0.000 A 
ENDBRANCH  67  80
ENDBRANCH  41  42
ENDBRANCH  33  36
ENDBRANCH  31  32
ENDBRANCH  30  31
ENDBRANCH   1  30
TORSDOF 14
ENDMDL
MODEL 3
REMARK VINA RESULT:     -11.9      3.022      7.111
REMARK SMILES C[C@@H](C(=O)NCCCCNC(=O)c1ccc(-c2c3nc(c(-c4ccccc4)c4ccc([nH]4)c(-c4ccccc4)c4nc(c(-c5ccccc5)c5ccc2[nH]5)C=C4)C=C3)cc1)c1ccc2c3cc(Cl)ccc3n(C(=O)c3cocn3)c2c1
REMARK SMILES IDX 7 1 6 2 5 3 3 4 4 5 2 7 1 8 61 9 62 10 81 11 63 12 80 13
REMARK SMILES IDX 64 14 72 15 65 16 71 17 66 18 70 19 67 20 69 21 68 22 73 23
REMARK SMILES IDX 74 24 75 25 76 26 79 27 77 28 78 29 8 30 9 31 10 32 11 33
REMARK SMILES IDX 12 35 13 36 14 37 60 38 15 39 59 40 16 41 17 42 18 43 53 44
REMARK SMILES IDX 19 45 58 46 52 47 54 48 20 49 57 50 51 51 50 52 21 54 43 55
REMARK SMILES IDX 28 56 42 57 29 58 32 59 41 60 55 61 30 62 31 63 40 65 56 66
REMARK SMILES IDX 33 67 22 68 23 69 27 70 24 71 26 72 25 73 44 74 45 75 49 76
REMARK SMILES IDX 46 77 48 78 47 79 34 80 35 81 39 82 36 83 38 84 37 85
REMARK H PARENT 5 6 10 34 54 53 32 64
REMARK Flexibility Score: inf
ROOT
ATOM      1  C   UNL A   1      31.749  27.879  27.303  1.00  0.00     0.023 C 
ENDROOT
BRANCH   1   2
ATOM      2  C   UNL A   1      31.556  26.597  26.493  1.00  0.00     0.116 C 
BRANCH   2   3
ATOM      3  N   UNL A   1      30.501  26.756  25.516  1.00  0.00    -0.356 N 
ATOM      4  C   UNL A   1      30.547  26.648  24.156  1.00  0.00     0.227 C 
ATOM      5  O   UNL A   1      29.520  26.955  23.548  1.00  0.00    -0.274 OA
ATOM      6  H   UNL A   1      29.617  26.977  25.888  1.00  0.00     0.163 HD
BRANCH   4   7
ATOM      7  C   UNL A   1      31.819  26.122  23.468  1.00  0.00     0.105 C 
ATOM      8  C   UNL A   1      31.805  26.363  21.950  1.00  0.00     0.023 C 
BRANCH   7   9
ATOM      9  C   UNL A   1      32.034  24.639  23.760  1.00  0.00    -0.034 A 
ATOM     10  C   UNL A   1      30.967  23.816  24.127  1.00  0.00     0.005 A 
ATOM     11  C   UNL A   1      33.318  24.086  23.646  1.00  0.00     0.032 A 
ATOM     12  C   UNL A   1      31.167  22.450  24.372  1.00  0.00     0.011 A 
ATOM     13  C   UNL A   1      33.528  22.735  23.967  1.00  0.00     0.058 A 
ATOM     14  C   UNL A   1      32.465  21.900  24.285  1.00  0.00     0.008 A 
ATOM     15  N   UNL A   1      34.713  21.995  24.008  1.00  0.00    -0.274 N 
ATOM     16  C   UNL A   1      32.998  20.593  24.464  1.00  0.00     0.009 A 
ATOM     17  C   UNL A   1      34.393  20.670  24.334  1.00  0.00     0.057 A 
ATOM     18  C   UNL A   1      32.395  19.355  24.771  1.00  0.00     0.031 A 
ATOM     19  C   UNL A   1      35.199  19.548  24.608  1.00  0.00     0.029 A 
ATOM     20  C   UNL A   1      33.196  18.235  24.984  1.00  0.00     0.041 A 
ATOM     21  C   UNL A   1      34.579  18.331  24.920  1.00  0.00     0.023 A 
ATOM     22  Cl  UNL A   1      32.460  16.727  25.367  1.00  0.00    -0.084 Cl
BRANCH  15  23
ATOM     23  C   UNL A   1      36.000  22.570  23.821  1.00  0.00     0.284 C 
ATOM     24  O   UNL A   1      36.273  22.899  22.667  1.00  0.00    -0.266 OA
BRANCH  23  25
ATOM     25  C   UNL A   1      36.998  22.747  24.870  1.00  0.00     0.167 A 
ATOM     26  C   UNL A   1      37.999  21.891  25.278  1.00  0.00     0.231 A 
ATOM     27  N   UNL A   1      37.146  23.949  25.552  1.00  0.00    -0.211 NA
ATOM     28  O   UNL A   1      38.759  22.529  26.214  1.00  0.00    -0.451 OA
ATOM     29  C   UNL A   1      38.197  23.762  26.312  1.00  0.00     0.308 A 
ENDBRANCH  23  25
ENDBRANCH  15  23
ENDBRANCH   7   9
ENDBRANCH   4   7
ENDBRANCH   2   3
ENDBRANCH   1   2
BRANCH   1  30
ATOM     30  C   UNL A   1      32.569  28.962  26.595  1.00  0.00     0.023 C 
BRANCH  30  31
ATOM     31  C   UNL A   1      33.926  29.259  27.220  1.00  0.00     0.116 C 
BRANCH  31  32
ATOM     32  N   UNL A   1      33.956  30.525  27.937  1.00  0.00    -0.352 N 
ATOM     33  C   UNL A   1      34.947  31.039  28.740  1.00  0.00     0.251 C 
ATOM     34  H   UNL A   1      33.157  31.091  27.833  1.00  0.00     0.163 HD
ATOM     35  O   UNL A   1      34.768  32.073  29.368  1.00  0.00    -0.269 OA
BRANCH  33  36
ATOM     36  C   UNL A   1      36.219  30.300  28.866  1.00  0.00     0.039 A 
ATOM     37  C   UNL A   1      37.128  30.342  27.806  1.00  0.00     0.014 A 
ATOM     38  C   UNL A   1      36.532  29.623  30.048  1.00  0.00     0.014 A 
ATOM     39  C   UNL A   1      38.396  29.780  27.966  1.00  0.00     0.010 A 
ATOM     40  C   UNL A   1      37.815  29.115  30.225  1.00  0.00     0.010 A 
ATOM     41  C   UNL A   1      38.764  29.209  29.195  1.00  0.00    -0.014 A 
BRANCH  41  42
ATOM     42  C   UNL A   1      40.153  28.757  29.453  1.00  0.00     0.031 A 
ATOM     43  C   UNL A   1      41.159  29.699  30.048  1.00  0.00     0.074 A 
ATOM     44  C   UNL A   1      40.533  27.529  29.046  1.00  0.00     0.049 A 
ATOM     45  N   UNL A   1      42.443  29.527  30.225  1.00  0.00    -0.248 NA
ATOM     46  C   UNL A   1      40.662  31.017  30.477  1.00  0.00     0.031 C 
ATOM     47  C   UNL A   1      39.661  26.535  28.413  1.00  0.00     0.029 A 
ATOM     48  N   UNL A   1      41.761  26.917  29.078  1.00  0.00    -0.354 N 
ATOM     49  C   UNL A   1      42.913  30.720  30.759  1.00  0.00     0.074 A 
ATOM     50  C   UNL A   1      41.782  31.618  30.854  1.00  0.00     0.031 C 
ATOM     51  C   UNL A   1      40.381  25.441  28.119  1.00  0.00     0.029 A 
ATOM     52  C   UNL A   1      41.771  25.670  28.499  1.00  0.00     0.049 A 
ATOM     53  H   UNL A   1      42.560  27.332  29.477  1.00  0.00     0.167 HD
ATOM     54  C   UNL A   1      44.172  31.034  31.142  1.00  0.00     0.031 A 
ATOM     55  C   UNL A   1      42.788  24.817  28.273  1.00  0.00     0.031 A 
ATOM     56  C   UNL A   1      45.291  30.132  31.070  1.00  0.00     0.049 A 
ATOM     57  C   UNL A   1      44.178  25.201  28.696  1.00  0.00     0.074 A 
ATOM     58  C   UNL A   1      46.583  30.329  31.526  1.00  0.00     0.029 A 
ATOM     59  N   UNL A   1      45.255  28.873  30.497  1.00  0.00    -0.354 N 
ATOM     60  N   UNL A   1      44.587  26.296  29.289  1.00  0.00    -0.248 NA
ATOM     61  C   UNL A   1      45.247  24.231  28.418  1.00  0.00     0.031 C 
ATOM     62  C   UNL A   1      47.343  29.209  31.178  1.00  0.00     0.029 A 
ATOM     63  C   UNL A   1      46.511  28.296  30.550  1.00  0.00     0.049 A 
ATOM     64  H   UNL A   1      44.454  28.450  30.111  1.00  0.00     0.167 HD
ATOM     65  C   UNL A   1      45.954  26.139  29.471  1.00  0.00     0.074 A 
ATOM     66  C   UNL A   1      46.302  24.836  28.944  1.00  0.00     0.031 C 
ATOM     67  C   UNL A   1      46.843  27.000  30.021  1.00  0.00     0.031 A 
BRANCH  54  68
ATOM     68  C   UNL A   1      44.422  32.417  31.670  1.00  0.00    -0.014 A 
ATOM     69  C   UNL A   1      44.828  33.458  30.821  1.00  0.00     0.009 A 
ATOM     70  C   UNL A   1      44.174  32.698  33.023  1.00  0.00     0.009 A 
ATOM     71  C   UNL A   1      45.000  34.750  31.323  1.00  0.00     0.001 A 
ATOM     72  C   UNL A   1      44.324  33.995  33.516  1.00  0.00     0.001 A 
ATOM     73  C   UNL A   1      44.742  35.019  32.667  1.00  0.00     0.000 A 
ENDBRANCH  54  68
BRANCH  55  74
ATOM     74  C   UNL A   1      42.542  23.522  27.586  1.00  0.00    -0.014 A 
ATOM     75  C   UNL A   1      42.670  23.417  26.193  1.00  0.00     0.009 A 
ATOM     76  C   UNL A   1      42.147  22.392  28.319  1.00  0.00     0.009 A 
ATOM     77  C   UNL A   1      42.379  22.214  25.545  1.00  0.00     0.001 A 
ATOM     78  C   UNL A   1      41.885  21.183  27.671  1.00  0.00     0.001 A 
ATOM     79  C   UNL A   1      41.989  21.098  26.284  1.00  0.00     0.000 A 
ENDBRANCH  55  74
BRANCH  67  80
ATOM     80  C   UNL A   1      48.275  26.555  30.098  1.00  0.00    -0.014 A 
ATOM     81  C   UNL A   1      48.737  25.793  31.183  1.00  0.00     0.009 A 
ATOM     82  C   UNL A   1      49.157  26.858  29.050  1.00  0.00     0.009 A 
ATOM     83  C   UNL A   1      50.064  25.363  31.225  1.00  0.00     0.001 A 
ATOM     84  C   UNL A   1      50.475  26.404  29.083  1.00  0.00     0.001 A 
ATOM     85  C   UNL A   1      50.930  25.664  30.173  1.00  0.00     0.000 A 
ENDBRANCH  67  80
ENDBRANCH  41  42
ENDBRANCH  33  36
ENDBRANCH  31  32
ENDBRANCH  30  31
ENDBRANCH   1  30
TORSDOF 14
ENDMDL
