MODEL 1
REMARK VINA RESULT:     -11.3      0.000      0.000
REMARK SMILES Nc1nn(-c2ccc(Cl)cc2)nc1C(=O)NCCCCNC(=O)c1ccc(-c2c3nc(c(-c4ccccc4)c4ccc([nH]4)c(-c4ccccc4)c4nc(c(-c5ccccc5)c5ccc2[nH]5)C=C4)C=C3)cc1
REMARK SMILES IDX 19 1 18 2 17 3 16 4 14 5 15 6 13 8 2 9 3 10 4 11 12 12 1 13
REMARK SMILES IDX 5 16 6 17 11 18 7 19 10 20 8 21 9 22 20 23 21 24 22 25 23 27
REMARK SMILES IDX 24 28 25 29 71 30 26 31 70 32 27 33 28 34 29 35 64 36 30 37
REMARK SMILES IDX 69 38 63 39 65 40 31 41 68 42 62 43 61 44 32 46 54 47 39 48
REMARK SMILES IDX 53 49 40 50 43 51 52 52 66 53 41 54 42 55 51 57 67 58 44 59
REMARK SMILES IDX 33 60 34 61 38 62 35 63 37 64 36 65 55 66 56 67 60 68 57 69
REMARK SMILES IDX 59 70 58 71 45 72 46 73 50 74 47 75 49 76 48 77
REMARK H PARENT 16 7 1 14 1 15 21 26 65 45 43 56
REMARK Flexibility Score: inf
ROOT
ATOM      1  C   UNL A   1      39.270  20.849  25.500  1.00  0.00     0.023 C 
ENDROOT
BRANCH   1   2
ATOM      2  C   UNL A   1      39.096  22.190  26.218  1.00  0.00     0.023 C 
BRANCH   2   3
ATOM      3  C   UNL A   1      37.839  23.009  25.925  1.00  0.00     0.116 C 
BRANCH   3   4
ATOM      4  N   UNL A   1      37.566  23.228  24.522  1.00  0.00    -0.351 N 
ATOM      5  C   UNL A   1      36.510  22.842  23.721  1.00  0.00     0.275 C 
ATOM      6  O   UNL A   1      36.614  23.178  22.537  1.00  0.00    -0.267 OA
ATOM      7  H   UNL A   1      38.259  23.747  24.054  1.00  0.00     0.163 HD
BRANCH   5   8
ATOM      8  C   UNL A   1      35.339  22.083  24.199  1.00  0.00     0.194 A 
ATOM      9  C   UNL A   1      33.945  22.376  24.310  1.00  0.00     0.179 A 
ATOM     10  N   UNL A   1      33.274  21.286  24.659  1.00  0.00    -0.130 NA
ATOM     11  N   UNL A   1      34.241  20.351  24.727  1.00  0.00    -0.149 N 
ATOM     12  N   UNL A   1      35.508  20.792  24.583  1.00  0.00    -0.141 NA
BRANCH   9  13
ATOM     13  N   UNL A   1      33.266  23.506  24.083  1.00  0.00    -0.380 N 
ATOM     14  H   UNL A   1      32.896  24.018  24.839  1.00  0.00     0.158 HD
ATOM     15  H   UNL A   1      33.136  23.826  23.161  1.00  0.00     0.158 HD
ENDBRANCH   9  13
BRANCH  11  16
ATOM     16  C   UNL A   1      33.923  18.980  24.897  1.00  0.00     0.086 A 
ATOM     17  C   UNL A   1      32.762  18.599  25.581  1.00  0.00     0.032 A 
ATOM     18  C   UNL A   1      34.789  18.002  24.381  1.00  0.00     0.032 A 
ATOM     19  C   UNL A   1      32.453  17.240  25.713  1.00  0.00     0.023 A 
ATOM     20  C   UNL A   1      34.500  16.647  24.562  1.00  0.00     0.023 A 
ATOM     21  C   UNL A   1      33.327  16.273  25.214  1.00  0.00     0.041 A 
ATOM     22  Cl  UNL A   1      32.955  14.603  25.402  1.00  0.00    -0.084 Cl
ENDBRANCH  11  16
ENDBRANCH   5   8
ENDBRANCH   3   4
ENDBRANCH   2   3
ENDBRANCH   1   2
BRANCH   1  23
ATOM     23  C   UNL A   1      39.810  19.712  26.354  1.00  0.00     0.116 C 
BRANCH  23  24
ATOM     24  N   UNL A   1      41.022  19.095  25.824  1.00  0.00    -0.352 N 
ATOM     25  C   UNL A   1      42.256  19.696  25.634  1.00  0.00     0.251 C 
ATOM     26  H   UNL A   1      40.955  18.146  25.572  1.00  0.00     0.163 HD
ATOM     27  O   UNL A   1      43.088  19.211  24.888  1.00  0.00    -0.269 OA
BRANCH  25  28
ATOM     28  C   UNL A   1      42.544  20.954  26.354  1.00  0.00     0.039 A 
ATOM     29  C   UNL A   1      42.847  22.126  25.657  1.00  0.00     0.014 A 
ATOM     30  C   UNL A   1      42.465  20.954  27.745  1.00  0.00     0.014 A 
ATOM     31  C   UNL A   1      42.973  23.317  26.370  1.00  0.00     0.010 A 
ATOM     32  C   UNL A   1      42.465  22.145  28.433  1.00  0.00     0.010 A 
ATOM     33  C   UNL A   1      42.748  23.327  27.757  1.00  0.00    -0.014 A 
BRANCH  33  34
ATOM     34  C   UNL A   1      42.667  24.596  28.475  1.00  0.00     0.031 A 
ATOM     35  C   UNL A   1      41.445  25.398  28.188  1.00  0.00     0.074 A 
ATOM     36  C   UNL A   1      43.496  24.954  29.480  1.00  0.00     0.049 A 
ATOM     37  N   UNL A   1      41.385  26.540  27.589  1.00  0.00    -0.248 NA
ATOM     38  C   UNL A   1      40.128  24.815  28.492  1.00  0.00     0.031 C 
ATOM     39  C   UNL A   1      44.551  24.158  30.114  1.00  0.00     0.029 A 
ATOM     40  N   UNL A   1      43.478  26.084  30.240  1.00  0.00    -0.354 N 
ATOM     41  C   UNL A   1      40.047  26.922  27.610  1.00  0.00     0.074 A 
ATOM     42  C   UNL A   1      39.306  25.757  28.024  1.00  0.00     0.031 C 
ATOM     43  C   UNL A   1      44.883  24.716  31.301  1.00  0.00     0.029 A 
ATOM     44  C   UNL A   1      44.188  25.984  31.431  1.00  0.00     0.049 A 
ATOM     45  H   UNL A   1      43.002  26.902  29.969  1.00  0.00     0.167 HD
ATOM     46  C   UNL A   1      39.686  28.232  27.518  1.00  0.00     0.031 A 
ATOM     47  C   UNL A   1      44.174  26.858  32.467  1.00  0.00     0.031 A 
ATOM     48  C   UNL A   1      40.782  29.054  27.065  1.00  0.00     0.049 A 
ATOM     49  C   UNL A   1      43.667  28.153  31.955  1.00  0.00     0.074 A 
ATOM     50  C   UNL A   1      41.613  29.043  25.960  1.00  0.00     0.029 A 
ATOM     51  N   UNL A   1      41.426  29.823  28.008  1.00  0.00    -0.354 N 
ATOM     52  N   UNL A   1      44.337  28.907  31.132  1.00  0.00    -0.248 NA
ATOM     53  C   UNL A   1      42.233  28.390  31.992  1.00  0.00     0.031 C 
ATOM     54  C   UNL A   1      42.906  29.351  26.477  1.00  0.00     0.029 A 
ATOM     55  C   UNL A   1      42.770  29.624  27.840  1.00  0.00     0.049 A 
ATOM     56  H   UNL A   1      41.000  30.406  28.677  1.00  0.00     0.167 HD
ATOM     57  C   UNL A   1      43.390  29.359  30.226  1.00  0.00     0.074 A 
ATOM     58  C   UNL A   1      42.099  29.098  30.866  1.00  0.00     0.031 C 
ATOM     59  C   UNL A   1      43.722  29.628  28.928  1.00  0.00     0.031 A 
BRANCH  46  60
ATOM     60  C   UNL A   1      38.504  28.832  28.246  1.00  0.00    -0.014 A 
ATOM     61  C   UNL A   1      37.738  29.812  27.586  1.00  0.00     0.009 A 
ATOM     62  C   UNL A   1      38.303  28.705  29.633  1.00  0.00     0.009 A 
ATOM     63  C   UNL A   1      36.907  30.689  28.293  1.00  0.00     0.001 A 
ATOM     64  C   UNL A   1      37.439  29.548  30.336  1.00  0.00     0.001 A 
ATOM     65  C   UNL A   1      36.768  30.565  29.671  1.00  0.00     0.000 A 
ENDBRANCH  46  60
BRANCH  47  66
ATOM     66  C   UNL A   1      44.357  26.598  33.913  1.00  0.00    -0.014 A 
ATOM     67  C   UNL A   1      45.143  27.450  34.705  1.00  0.00     0.009 A 
ATOM     68  C   UNL A   1      43.544  25.659  34.576  1.00  0.00     0.009 A 
ATOM     69  C   UNL A   1      45.086  27.392  36.104  1.00  0.00     0.001 A 
ATOM     70  C   UNL A   1      43.492  25.597  35.973  1.00  0.00     0.001 A 
ATOM     71  C   UNL A   1      44.250  26.476  36.737  1.00  0.00     0.000 A 
ENDBRANCH  47  66
BRANCH  59  72
ATOM     72  C   UNL A   1      45.181  29.680  28.546  1.00  0.00    -0.014 A 
ATOM     73  C   UNL A   1      45.951  28.541  28.251  1.00  0.00     0.009 A 
ATOM     74  C   UNL A   1      45.760  30.941  28.335  1.00  0.00     0.009 A 
ATOM     75  C   UNL A   1      47.271  28.665  27.802  1.00  0.00     0.001 A 
ATOM     76  C   UNL A   1      47.067  31.065  27.861  1.00  0.00     0.001 A 
ATOM     77  C   UNL A   1      47.826  29.927  27.604  1.00  0.00     0.000 A 
ENDBRANCH  59  72
ENDBRANCH  33  34
ENDBRANCH  25  28
ENDBRANCH  23  24
ENDBRANCH   1  23
TORSDOF 13
ENDMDL
MODEL 2
REMARK VINA RESULT:     -11.0      5.515     10.091
REMARK SMILES Nc1nn(-c2ccc(Cl)cc2)nc1C(=O)NCCCCNC(=O)c1ccc(-c2c3nc(c(-c4ccccc4)c4ccc([nH]4)c(-c4ccccc4)c4nc(c(-c5ccccc5)c5ccc2[nH]5)C=C4)C=C3)cc1
REMARK SMILES IDX 19 1 18 2 17 3 16 4 14 5 15 6 13 8 2 9 3 10 4 11 12 12 1 13
REMARK SMILES IDX 5 16 6 17 11 18 7 19 10 20 8 21 9 22 20 23 21 24 22 25 23 27
REMARK SMILES IDX 24 28 25 29 71 30 26 31 70 32 27 33 28 34 29 35 64 36 30 37
REMARK SMILES IDX 69 38 63 39 65 40 31 41 68 42 62 43 61 44 32 46 54 47 39 48
REMARK SMILES IDX 53 49 40 50 43 51 52 52 66 53 41 54 42 55 51 57 67 58 44 59
REMARK SMILES IDX 33 60 34 61 38 62 35 63 37 64 36 65 55 66 56 67 60 68 57 69
REMARK SMILES IDX 59 70 58 71 45 72 46 73 50 74 47 75 49 76 48 77
REMARK H PARENT 16 7 1 14 1 15 21 26 65 45 43 56
REMARK Flexibility Score: inf
ROOT
ATOM      1  C   UNL A   1      32.939  31.999  27.771  1.00  0.00     0.023 C 
ENDROOT
BRANCH   1   2
ATOM      2  C   UNL A   1      34.232  31.194  27.618  1.00  0.00     0.023 C 
BRANCH   2   3
ATOM      3  C   UNL A   1      34.131  29.750  27.129  1.00  0.00     0.116 C 
BRANCH   3   4
ATOM      4  N   UNL A   1      33.113  28.955  27.778  1.00  0.00    -0.351 N 
ATOM      5  C   UNL A   1      31.969  28.354  27.293  1.00  0.00     0.275 C 
ATOM      6  O   UNL A   1      31.297  27.765  28.146  1.00  0.00    -0.267 OA
ATOM      7  H   UNL A   1      33.264  28.817  28.741  1.00  0.00     0.163 HD
BRANCH   5   8
ATOM      8  C   UNL A   1      31.545  28.393  25.881  1.00  0.00     0.194 A 
ATOM      9  C   UNL A   1      31.358  27.397  24.874  1.00  0.00     0.179 A 
ATOM     10  N   UNL A   1      30.805  27.936  23.794  1.00  0.00    -0.130 NA
ATOM     11  N   UNL A   1      30.637  29.221  24.157  1.00  0.00    -0.149 N 
ATOM     12  N   UNL A   1      31.168  29.581  25.343  1.00  0.00    -0.141 NA
BRANCH   9  13
ATOM     13  N   UNL A   1      31.604  26.082  24.884  1.00  0.00    -0.380 N 
ATOM     14  H   UNL A   1      30.882  25.445  24.680  1.00  0.00     0.158 HD
ATOM     15  H   UNL A   1      32.508  25.751  25.095  1.00  0.00     0.158 HD
ENDBRANCH   9  13
BRANCH  11  16
ATOM     16  C   UNL A   1      29.899  30.120  23.345  1.00  0.00     0.086 A 
ATOM     17  C   UNL A   1      29.381  31.304  23.883  1.00  0.00     0.032 A 
ATOM     18  C   UNL A   1      29.683  29.807  21.992  1.00  0.00     0.032 A 
ATOM     19  C   UNL A   1      28.680  32.189  23.056  1.00  0.00     0.023 A 
ATOM     20  C   UNL A   1      28.939  30.671  21.186  1.00  0.00     0.023 A 
ATOM     21  C   UNL A   1      28.454  31.865  21.718  1.00  0.00     0.041 A 
ATOM     22  Cl  UNL A   1      27.569  32.946  20.711  1.00  0.00    -0.084 Cl
ENDBRANCH  11  16
ENDBRANCH   5   8
ENDBRANCH   3   4
ENDBRANCH   2   3
ENDBRANCH   1   2
BRANCH   1  23
ATOM     23  C   UNL A   1      32.989  33.429  27.254  1.00  0.00     0.116 C 
BRANCH  23  24
ATOM     24  N   UNL A   1      32.565  34.428  28.229  1.00  0.00    -0.352 N 
ATOM     25  C   UNL A   1      33.125  34.681  29.471  1.00  0.00     0.251 C 
ATOM     26  H   UNL A   1      31.793  34.985  27.976  1.00  0.00     0.163 HD
ATOM     27  O   UNL A   1      32.508  35.282  30.332  1.00  0.00    -0.269 OA
BRANCH  25  28
ATOM     28  C   UNL A   1      34.495  34.194  29.737  1.00  0.00     0.039 A 
ATOM     29  C   UNL A   1      34.749  33.309  30.786  1.00  0.00     0.014 A 
ATOM     30  C   UNL A   1      35.520  34.608  28.889  1.00  0.00     0.014 A 
ATOM     31  C   UNL A   1      36.028  32.769  30.913  1.00  0.00     0.010 A 
ATOM     32  C   UNL A   1      36.744  33.982  28.938  1.00  0.00     0.010 A 
ATOM     33  C   UNL A   1      37.015  33.083  29.964  1.00  0.00    -0.014 A 
BRANCH  33  34
ATOM     34  C   UNL A   1      38.285  32.362  29.963  1.00  0.00     0.031 A 
ATOM     35  C   UNL A   1      38.213  30.974  29.428  1.00  0.00     0.074 A 
ATOM     36  C   UNL A   1      39.483  32.934  30.215  1.00  0.00     0.049 A 
ATOM     37  N   UNL A   1      38.397  29.876  30.082  1.00  0.00    -0.248 NA
ATOM     38  C   UNL A   1      37.771  30.773  28.039  1.00  0.00     0.031 C 
ATOM     39  C   UNL A   1      39.784  34.351  30.442  1.00  0.00     0.029 A 
ATOM     40  N   UNL A   1      40.721  32.366  30.195  1.00  0.00    -0.354 N 
ATOM     41  C   UNL A   1      38.289  28.846  29.154  1.00  0.00     0.074 A 
ATOM     42  C   UNL A   1      37.744  29.440  27.959  1.00  0.00     0.031 C 
ATOM     43  C   UNL A   1      41.110  34.560  30.278  1.00  0.00     0.029 A 
ATOM     44  C   UNL A   1      41.767  33.277  30.101  1.00  0.00     0.049 A 
ATOM     45  H   UNL A   1      40.863  31.393  30.243  1.00  0.00     0.167 HD
ATOM     46  C   UNL A   1      38.885  27.639  29.367  1.00  0.00     0.031 A 
ATOM     47  C   UNL A   1      43.071  33.002  29.853  1.00  0.00     0.031 A 
ATOM     48  C   UNL A   1      39.293  27.485  30.743  1.00  0.00     0.049 A 
ATOM     49  C   UNL A   1      43.295  31.571  30.165  1.00  0.00     0.074 A 
ATOM     50  C   UNL A   1      38.646  27.558  31.962  1.00  0.00     0.029 A 
ATOM     51  N   UNL A   1      40.633  27.625  31.022  1.00  0.00    -0.354 N 
ATOM     52  N   UNL A   1      43.268  31.091  31.374  1.00  0.00    -0.248 NA
ATOM     53  C   UNL A   1      43.091  30.599  29.102  1.00  0.00     0.031 C 
ATOM     54  C   UNL A   1      39.557  28.249  32.814  1.00  0.00     0.029 A 
ATOM     55  C   UNL A   1      40.734  28.470  32.096  1.00  0.00     0.049 A 
ATOM     56  H   UNL A   1      41.379  27.198  30.542  1.00  0.00     0.167 HD
ATOM     57  C   UNL A   1      42.585  29.889  31.255  1.00  0.00     0.074 A 
ATOM     58  C   UNL A   1      42.596  29.588  29.823  1.00  0.00     0.031 C 
ATOM     59  C   UNL A   1      41.823  29.403  32.279  1.00  0.00     0.031 A 
BRANCH  46  60
ATOM     60  C   UNL A   1      39.491  26.794  28.269  1.00  0.00    -0.014 A 
ATOM     61  C   UNL A   1      39.379  25.394  28.363  1.00  0.00     0.009 A 
ATOM     62  C   UNL A   1      40.414  27.291  27.331  1.00  0.00     0.009 A 
ATOM     63  C   UNL A   1      40.226  24.543  27.642  1.00  0.00     0.001 A 
ATOM     64  C   UNL A   1      41.230  26.444  26.576  1.00  0.00     0.001 A 
ATOM     65  C   UNL A   1      41.161  25.070  26.758  1.00  0.00     0.000 A 
ENDBRANCH  46  60
BRANCH  47  66
ATOM     66  C   UNL A   1      44.085  33.827  29.159  1.00  0.00    -0.014 A 
ATOM     67  C   UNL A   1      44.040  34.004  27.766  1.00  0.00     0.009 A 
ATOM     68  C   UNL A   1      44.949  34.661  29.893  1.00  0.00     0.009 A 
ATOM     69  C   UNL A   1      44.798  35.004  27.141  1.00  0.00     0.001 A 
ATOM     70  C   UNL A   1      45.711  35.654  29.268  1.00  0.00     0.001 A 
ATOM     71  C   UNL A   1      45.621  35.838  27.893  1.00  0.00     0.000 A 
ENDBRANCH  47  66
BRANCH  59  72
ATOM     72  C   UNL A   1      41.933  30.049  33.639  1.00  0.00    -0.014 A 
ATOM     73  C   UNL A   1      41.223  31.203  34.014  1.00  0.00     0.009 A 
ATOM     74  C   UNL A   1      42.673  29.380  34.625  1.00  0.00     0.009 A 
ATOM     75  C   UNL A   1      41.290  31.692  35.324  1.00  0.00     0.001 A 
ATOM     76  C   UNL A   1      42.719  29.851  35.938  1.00  0.00     0.001 A 
ATOM     77  C   UNL A   1      42.035  31.013  36.285  1.00  0.00     0.000 A 
ENDBRANCH  59  72
ENDBRANCH  33  34
ENDBRANCH  25  28
ENDBRANCH  23  24
ENDBRANCH   1  23
TORSDOF 13
ENDMDL
MODEL 3
REMARK VINA RESULT:     -10.9      1.613      5.373
REMARK SMILES Nc1nn(-c2ccc(Cl)cc2)nc1C(=O)NCCCCNC(=O)c1ccc(-c2c3nc(c(-c4ccccc4)c4ccc([nH]4)c(-c4ccccc4)c4nc(c(-c5ccccc5)c5ccc2[nH]5)C=C4)C=C3)cc1
REMARK SMILES IDX 19 1 18 2 17 3 16 4 14 5 15 6 13 8 2 9 3 10 4 11 12 12 1 13
REMARK SMILES IDX 5 16 6 17 11 18 7 19 10 20 8 21 9 22 20 23 21 24 22 25 23 27
REMARK SMILES IDX 24 28 25 29 71 30 26 31 70 32 27 33 28 34 29 35 64 36 30 37
REMARK SMILES IDX 69 38 63 39 65 40 31 41 68 42 62 43 61 44 32 46 54 47 39 48
REMARK SMILES IDX 53 49 40 50 43 51 52 52 66 53 41 54 42 55 51 57 67 58 44 59
REMARK SMILES IDX 33 60 34 61 38 62 35 63 37 64 36 65 55 66 56 67 60 68 57 69
REMARK SMILES IDX 59 70 58 71 45 72 46 73 50 74 47 75 49 76 48 77
REMARK H PARENT 16 7 1 14 1 15 21 26 65 45 43 56
REMARK Flexibility Score: inf
ROOT
ATOM      1  C   UNL A   1      40.783  19.914  26.197  1.00  0.00     0.023 C 
ENDROOT
BRANCH   1   2
ATOM      2  C   UNL A   1      40.076  21.263  26.351  1.00  0.00     0.023 C 
BRANCH   2   3
ATOM      3  C   UNL A   1      38.654  21.400  25.810  1.00  0.00     0.116 C 
BRANCH   3   4
ATOM      4  N   UNL A   1      38.016  22.669  26.078  1.00  0.00    -0.351 N 
ATOM      5  C   UNL A   1      36.733  23.120  25.843  1.00  0.00     0.275 C 
ATOM      6  O   UNL A   1      36.532  24.292  26.176  1.00  0.00    -0.267 OA
ATOM      7  H   UNL A   1      38.605  23.332  26.506  1.00  0.00     0.163 HD
BRANCH   5   8
ATOM      8  C   UNL A   1      35.663  22.303  25.240  1.00  0.00     0.194 A 
ATOM      9  C   UNL A   1      34.863  22.429  24.063  1.00  0.00     0.179 A 
ATOM     10  N   UNL A   1      34.140  21.332  23.881  1.00  0.00    -0.130 NA
ATOM     11  N   UNL A   1      34.520  20.552  24.910  1.00  0.00    -0.149 N 
ATOM     12  N   UNL A   1      35.335  21.122  25.822  1.00  0.00    -0.141 NA
BRANCH   9  13
ATOM     13  N   UNL A   1      34.781  23.413  23.159  1.00  0.00    -0.380 N 
ATOM     14  H   UNL A   1      33.951  23.937  23.077  1.00  0.00     0.158 HD
ATOM     15  H   UNL A   1      35.549  23.612  22.577  1.00  0.00     0.158 HD
ENDBRANCH   9  13
BRANCH  11  16
ATOM     16  C   UNL A   1      34.113  19.195  24.990  1.00  0.00     0.086 A 
ATOM     17  C   UNL A   1      34.929  18.177  24.480  1.00  0.00     0.032 A 
ATOM     18  C   UNL A   1      32.877  18.880  25.577  1.00  0.00     0.032 A 
ATOM     19  C   UNL A   1      34.519  16.843  24.594  1.00  0.00     0.023 A 
ATOM     20  C   UNL A   1      32.452  17.551  25.640  1.00  0.00     0.023 A 
ATOM     21  C   UNL A   1      33.282  16.538  25.162  1.00  0.00     0.041 A 
ATOM     22  Cl  UNL A   1      32.772  14.898  25.277  1.00  0.00    -0.084 Cl
ENDBRANCH  11  16
ENDBRANCH   5   8
ENDBRANCH   3   4
ENDBRANCH   2   3
ENDBRANCH   1   2
BRANCH   1  23
ATOM     23  C   UNL A   1      42.153  19.811  26.851  1.00  0.00     0.116 C 
BRANCH  23  24
ATOM     24  N   UNL A   1      43.236  19.518  25.919  1.00  0.00    -0.352 N 
ATOM     25  C   UNL A   1      43.968  20.426  25.169  1.00  0.00     0.251 C 
ATOM     26  H   UNL A   1      43.473  18.569  25.808  1.00  0.00     0.163 HD
ATOM     27  O   UNL A   1      44.601  20.073  24.191  1.00  0.00    -0.269 OA
BRANCH  25  28
ATOM     28  C   UNL A   1      43.959  21.846  25.580  1.00  0.00     0.039 A 
ATOM     29  C   UNL A   1      43.095  22.761  24.975  1.00  0.00     0.014 A 
ATOM     30  C   UNL A   1      44.805  22.241  26.614  1.00  0.00     0.014 A 
ATOM     31  C   UNL A   1      43.021  24.054  25.489  1.00  0.00     0.010 A 
ATOM     32  C   UNL A   1      44.641  23.476  27.199  1.00  0.00     0.010 A 
ATOM     33  C   UNL A   1      43.774  24.398  26.624  1.00  0.00    -0.014 A 
BRANCH  33  34
ATOM     34  C   UNL A   1      43.545  25.675  27.294  1.00  0.00     0.031 A 
ATOM     35  C   UNL A   1      44.489  26.761  26.907  1.00  0.00     0.074 A 
ATOM     36  C   UNL A   1      42.457  25.954  28.045  1.00  0.00     0.049 A 
ATOM     37  N   UNL A   1      45.374  27.327  27.656  1.00  0.00    -0.248 NA
ATOM     38  C   UNL A   1      44.541  27.184  25.498  1.00  0.00     0.031 C 
ATOM     39  C   UNL A   1      41.271  25.122  28.271  1.00  0.00     0.029 A 
ATOM     40  N   UNL A   1      42.128  27.119  28.670  1.00  0.00    -0.354 N 
ATOM     41  C   UNL A   1      45.968  28.317  26.879  1.00  0.00     0.074 A 
ATOM     42  C   UNL A   1      45.536  28.074  25.525  1.00  0.00     0.031 C 
ATOM     43  C   UNL A   1      40.268  25.891  28.751  1.00  0.00     0.029 A 
ATOM     44  C   UNL A   1      40.785  27.221  29.017  1.00  0.00     0.049 A 
ATOM     45  H   UNL A   1      42.784  27.827  28.860  1.00  0.00     0.167 HD
ATOM     46  C   UNL A   1      46.568  29.398  27.451  1.00  0.00     0.031 A 
ATOM     47  C   UNL A   1      40.136  28.329  29.452  1.00  0.00     0.031 A 
ATOM     48  C   UNL A   1      46.800  29.191  28.860  1.00  0.00     0.049 A 
ATOM     49  C   UNL A   1      41.157  29.282  29.950  1.00  0.00     0.074 A 
ATOM     50  C   UNL A   1      47.459  28.233  29.606  1.00  0.00     0.029 A 
ATOM     51  N   UNL A   1      45.957  29.833  29.739  1.00  0.00    -0.354 N 
ATOM     52  N   UNL A   1      41.852  29.082  31.031  1.00  0.00    -0.248 NA
ATOM     53  C   UNL A   1      41.728  30.228  29.004  1.00  0.00     0.031 C 
ATOM     54  C   UNL A   1      46.613  28.006  30.732  1.00  0.00     0.029 A 
ATOM     55  C   UNL A   1      45.545  28.901  30.654  1.00  0.00     0.049 A 
ATOM     56  H   UNL A   1      45.698  30.783  29.714  1.00  0.00     0.167 HD
ATOM     57  C   UNL A   1      43.137  29.487  30.696  1.00  0.00     0.074 A 
ATOM     58  C   UNL A   1      42.977  30.281  29.477  1.00  0.00     0.031 C 
ATOM     59  C   UNL A   1      44.234  28.902  31.263  1.00  0.00     0.031 A 
BRANCH  46  60
ATOM     60  C   UNL A   1      46.545  30.787  26.855  1.00  0.00    -0.014 A 
ATOM     61  C   UNL A   1      47.727  31.551  26.891  1.00  0.00     0.009 A 
ATOM     62  C   UNL A   1      45.358  31.478  26.547  1.00  0.00     0.009 A 
ATOM     63  C   UNL A   1      47.702  32.944  26.742  1.00  0.00     0.001 A 
ATOM     64  C   UNL A   1      45.336  32.861  26.353  1.00  0.00     0.001 A 
ATOM     65  C   UNL A   1      46.503  33.599  26.486  1.00  0.00     0.000 A 
ENDBRANCH  46  60
BRANCH  47  66
ATOM     66  C   UNL A   1      38.719  28.715  29.268  1.00  0.00    -0.014 A 
ATOM     67  C   UNL A   1      37.869  28.887  30.372  1.00  0.00     0.009 A 
ATOM     68  C   UNL A   1      38.263  29.175  28.018  1.00  0.00     0.009 A 
ATOM     69  C   UNL A   1      36.631  29.531  30.237  1.00  0.00     0.001 A 
ATOM     70  C   UNL A   1      37.024  29.811  27.882  1.00  0.00     0.001 A 
ATOM     71  C   UNL A   1      36.216  30.006  28.996  1.00  0.00     0.000 A 
ENDBRANCH  47  66
BRANCH  59  72
ATOM     72  C   UNL A   1      44.042  27.989  32.449  1.00  0.00    -0.014 A 
ATOM     73  C   UNL A   1      43.904  26.594  32.345  1.00  0.00     0.009 A 
ATOM     74  C   UNL A   1      44.151  28.547  33.732  1.00  0.00     0.009 A 
ATOM     75  C   UNL A   1      43.832  25.792  33.491  1.00  0.00     0.001 A 
ATOM     76  C   UNL A   1      44.108  27.747  34.874  1.00  0.00     0.001 A 
ATOM     77  C   UNL A   1      43.939  26.370  34.754  1.00  0.00     0.000 A 
ENDBRANCH  59  72
ENDBRANCH  33  34
ENDBRANCH  25  28
ENDBRANCH  23  24
ENDBRANCH   1  23
TORSDOF 13
ENDMDL
