MODEL 1
REMARK VINA RESULT:     -11.7      0.000      0.000
REMARK SMILES C[C@@H]1C[C@H](C)C[C@H]([N@H+]2[C@@H](C(=O)NCCCCNC(=O)c3ccc(-c4c5nc(c(-c6ccccc6)c6ccc([nH]6)c(-c6ccccc6)c6nc(c(-c7ccccc7)c7ccc4[nH]7)C=C6)C=C5)cc3)CC[C@@H]3CCCC[C@@H]32)C1
REMARK SMILES IDX 15 1 14 2 13 3 12 4 10 5 11 6 9 8 8 9 75 10 68 12 70 13
REMARK SMILES IDX 74 14 69 15 71 16 73 17 72 18 7 19 5 20 4 21 6 22 3 23 2 24
REMARK SMILES IDX 76 25 1 26 16 27 17 28 18 29 19 31 20 32 21 33 67 34 22 35
REMARK SMILES IDX 66 36 23 37 24 38 25 39 60 40 26 41 65 42 59 43 61 44 27 45
REMARK SMILES IDX 64 46 58 47 57 48 28 50 50 51 35 52 49 53 36 54 39 55 48 56
REMARK SMILES IDX 62 57 37 58 38 59 47 61 63 62 40 63 29 64 30 65 34 66 31 67
REMARK SMILES IDX 33 68 32 69 51 70 52 71 56 72 53 73 55 74 54 75 41 76 42 77
REMARK SMILES IDX 46 78 43 79 45 80 44 81
REMARK H PARENT 12 7 8 11 17 30 61 49 39 60
REMARK Flexibility Score: inf
ROOT
ATOM      1  C   UNL A   1      32.098  28.465  27.196  1.00  0.00     0.023 C 
ENDROOT
BRANCH   1   2
ATOM      2  C   UNL A   1      31.467  28.430  25.810  1.00  0.00     0.023 C 
BRANCH   2   3
ATOM      3  C   UNL A   1      30.933  27.073  25.382  1.00  0.00     0.116 C 
BRANCH   3   4
ATOM      4  N   UNL A   1      30.956  26.065  26.422  1.00  0.00    -0.351 N 
ATOM      5  C   UNL A   1      31.812  24.986  26.509  1.00  0.00     0.278 C 
ATOM      6  O   UNL A   1      31.801  24.326  27.547  1.00  0.00    -0.268 OA
ATOM      7  H   UNL A   1      30.292  26.159  27.143  1.00  0.00     0.163 HD
BRANCH   5   8
ATOM      8  C   UNL A   1      32.683  24.656  25.250  1.00  0.00     0.274 C 
ATOM      9  N   UNL A   1      33.133  23.216  25.136  1.00  0.00    -0.320 N 
ATOM     10  C   UNL A   1      34.275  22.996  26.058  1.00  0.00     0.188 C 
ATOM     11  H   UNL A   1      33.623  22.866  24.314  1.00  0.00     0.349 HD
ATOM     12  C   UNL A   1      33.775  25.701  25.021  1.00  0.00     0.076 C 
ATOM     13  C   UNL A   1      35.468  23.948  25.699  1.00  0.00     0.048 C 
ATOM     14  C   UNL A   1      34.998  21.655  26.287  1.00  0.00     0.065 C 
ATOM     15  C   UNL A   1      35.088  25.418  25.707  1.00  0.00     0.016 C 
ATOM     16  C   UNL A   1      36.239  23.588  24.414  1.00  0.00     0.010 C 
ATOM     17  C   UNL A   1      36.022  21.164  25.254  1.00  0.00     0.006 C 
ATOM     18  C   UNL A   1      36.353  22.103  24.104  1.00  0.00     0.001 C 
BRANCH   9  19
ATOM     19  C   UNL A   1      31.886  22.393  24.994  1.00  0.00     0.185 C 
ATOM     20  C   UNL A   1      33.280  23.002  22.009  1.00  0.00     0.008 C 
ATOM     21  C   UNL A   1      32.284  21.940  22.498  1.00  0.00    -0.008 C 
ATOM     22  C   UNL A   1      31.339  22.547  23.539  1.00  0.00     0.068 C 
ATOM     23  C   UNL A   1      32.988  20.666  23.021  1.00  0.00     0.007 C 
ATOM     24  C   UNL A   1      32.299  19.946  24.196  1.00  0.00    -0.008 C 
ATOM     25  C   UNL A   1      31.752  20.891  25.276  1.00  0.00     0.068 C 
ATOM     26  C   UNL A   1      33.165  18.868  24.858  1.00  0.00     0.008 C 
ENDBRANCH   9  19
ENDBRANCH   5   8
ENDBRANCH   3   4
ENDBRANCH   2   3
ENDBRANCH   1   2
BRANCH   1  27
ATOM     27  C   UNL A   1      33.514  29.029  27.256  1.00  0.00     0.116 C 
BRANCH  27  28
ATOM     28  N   UNL A   1      33.590  30.370  27.818  1.00  0.00    -0.352 N 
ATOM     29  C   UNL A   1      34.638  30.988  28.473  1.00  0.00     0.251 C 
ATOM     30  H   UNL A   1      32.776  30.915  27.717  1.00  0.00     0.163 HD
ATOM     31  O   UNL A   1      34.500  32.086  28.967  1.00  0.00    -0.269 OA
BRANCH  29  32
ATOM     32  C   UNL A   1      35.924  30.265  28.600  1.00  0.00     0.039 A 
ATOM     33  C   UNL A   1      36.819  30.292  27.528  1.00  0.00     0.014 A 
ATOM     34  C   UNL A   1      36.265  29.621  29.790  1.00  0.00     0.014 A 
ATOM     35  C   UNL A   1      38.097  29.753  27.687  1.00  0.00     0.010 A 
ATOM     36  C   UNL A   1      37.566  29.170  29.977  1.00  0.00     0.010 A 
ATOM     37  C   UNL A   1      38.498  29.236  28.930  1.00  0.00    -0.014 A 
BRANCH  37  38
ATOM     38  C   UNL A   1      39.890  28.774  29.162  1.00  0.00     0.031 A 
ATOM     39  C   UNL A   1      40.902  29.701  29.777  1.00  0.00     0.074 A 
ATOM     40  C   UNL A   1      40.264  27.545  28.752  1.00  0.00     0.049 A 
ATOM     41  N   UNL A   1      42.177  29.501  29.998  1.00  0.00    -0.248 NA
ATOM     42  C   UNL A   1      40.427  31.038  30.167  1.00  0.00     0.031 C 
ATOM     43  C   UNL A   1      39.392  26.564  28.101  1.00  0.00     0.029 A 
ATOM     44  N   UNL A   1      41.480  26.914  28.816  1.00  0.00    -0.354 N 
ATOM     45  C   UNL A   1      42.655  30.688  30.537  1.00  0.00     0.074 A 
ATOM     46  C   UNL A   1      41.551  31.621  30.554  1.00  0.00     0.031 C 
ATOM     47  C   UNL A   1      40.093  25.444  27.859  1.00  0.00     0.029 A 
ATOM     48  C   UNL A   1      41.472  25.644  28.290  1.00  0.00     0.049 A 
ATOM     49  H   UNL A   1      42.284  27.331  29.203  1.00  0.00     0.167 HD
ATOM     50  C   UNL A   1      43.897  30.972  30.997  1.00  0.00     0.031 A 
ATOM     51  C   UNL A   1      42.464  24.743  28.163  1.00  0.00     0.031 A 
ATOM     52  C   UNL A   1      44.996  30.043  30.984  1.00  0.00     0.049 A 
ATOM     53  C   UNL A   1      43.842  25.090  28.656  1.00  0.00     0.074 A 
ATOM     54  C   UNL A   1      46.276  30.217  31.478  1.00  0.00     0.029 A 
ATOM     55  N   UNL A   1      44.945  28.768  30.442  1.00  0.00    -0.354 N 
ATOM     56  N   UNL A   1      44.259  26.192  29.232  1.00  0.00    -0.248 NA
ATOM     57  C   UNL A   1      44.881  24.065  28.490  1.00  0.00     0.031 C 
ATOM     58  C   UNL A   1      47.018  29.069  31.181  1.00  0.00     0.029 A 
ATOM     59  C   UNL A   1      46.181  28.156  30.563  1.00  0.00     0.049 A 
ATOM     60  H   UNL A   1      44.149  28.359  30.032  1.00  0.00     0.167 HD
ATOM     61  C   UNL A   1      45.601  25.982  29.523  1.00  0.00     0.074 A 
ATOM     62  C   UNL A   1      45.922  24.641  29.076  1.00  0.00     0.031 C 
ATOM     63  C   UNL A   1      46.487  26.822  30.110  1.00  0.00     0.031 A 
BRANCH  50  64
ATOM     64  C   UNL A   1      44.133  32.354  31.543  1.00  0.00    -0.014 A 
ATOM     65  C   UNL A   1      43.988  32.631  32.913  1.00  0.00     0.009 A 
ATOM     66  C   UNL A   1      44.528  33.388  30.681  1.00  0.00     0.009 A 
ATOM     67  C   UNL A   1      44.194  33.923  33.400  1.00  0.00     0.001 A 
ATOM     68  C   UNL A   1      44.766  34.671  31.176  1.00  0.00     0.001 A 
ATOM     69  C   UNL A   1      44.588  34.941  32.532  1.00  0.00     0.000 A 
ENDBRANCH  50  64
BRANCH  51  70
ATOM     70  C   UNL A   1      42.191  23.414  27.552  1.00  0.00    -0.014 A 
ATOM     71  C   UNL A   1      42.506  23.171  26.206  1.00  0.00     0.009 A 
ATOM     72  C   UNL A   1      41.608  22.384  28.307  1.00  0.00     0.009 A 
ATOM     73  C   UNL A   1      42.218  21.936  25.622  1.00  0.00     0.001 A 
ATOM     74  C   UNL A   1      41.350  21.139  27.729  1.00  0.00     0.001 A 
ATOM     75  C   UNL A   1      41.645  20.919  26.385  1.00  0.00     0.000 A 
ENDBRANCH  51  70
BRANCH  63  76
ATOM     76  C   UNL A   1      47.881  26.307  30.336  1.00  0.00    -0.014 A 
ATOM     77  C   UNL A   1      48.270  25.760  31.568  1.00  0.00     0.009 A 
ATOM     78  C   UNL A   1      48.807  26.330  29.280  1.00  0.00     0.009 A 
ATOM     79  C   UNL A   1      49.569  25.279  31.748  1.00  0.00     0.001 A 
ATOM     80  C   UNL A   1      50.094  25.819  29.453  1.00  0.00     0.001 A 
ATOM     81  C   UNL A   1      50.477  25.303  30.690  1.00  0.00     0.000 A 
ENDBRANCH  63  76
ENDBRANCH  37  38
ENDBRANCH  29  32
ENDBRANCH  27  28
ENDBRANCH   1  27
TORSDOF 12
ENDMDL
MODEL 2
REMARK VINA RESULT:     -11.7      1.931      7.405
REMARK SMILES C[C@@H]1C[C@H](C)C[C@H]([N@H+]2[C@@H](C(=O)NCCCCNC(=O)c3ccc(-c4c5nc(c(-c6ccccc6)c6ccc([nH]6)c(-c6ccccc6)c6nc(c(-c7ccccc7)c7ccc4[nH]7)C=C6)C=C5)cc3)CC[C@@H]3CCCC[C@@H]32)C1
REMARK SMILES IDX 15 1 14 2 13 3 12 4 10 5 11 6 9 8 8 9 75 10 68 12 70 13
REMARK SMILES IDX 74 14 69 15 71 16 73 17 72 18 7 19 5 20 4 21 6 22 3 23 2 24
REMARK SMILES IDX 76 25 1 26 16 27 17 28 18 29 19 31 20 32 21 33 67 34 22 35
REMARK SMILES IDX 66 36 23 37 24 38 25 39 60 40 26 41 65 42 59 43 61 44 27 45
REMARK SMILES IDX 64 46 58 47 57 48 28 50 50 51 35 52 49 53 36 54 39 55 48 56
REMARK SMILES IDX 62 57 37 58 38 59 47 61 63 62 40 63 29 64 30 65 34 66 31 67
REMARK SMILES IDX 33 68 32 69 51 70 52 71 56 72 53 73 55 74 54 75 41 76 42 77
REMARK SMILES IDX 46 78 43 79 45 80 44 81
REMARK H PARENT 12 7 8 11 17 30 61 49 39 60
REMARK Flexibility Score: inf
ROOT
ATOM      1  C   UNL A   1      37.422  20.858  24.895  1.00  0.00     0.023 C 
ENDROOT
BRANCH   1   2
ATOM      2  C   UNL A   1      36.982  22.108  24.143  1.00  0.00     0.023 C 
BRANCH   2   3
ATOM      3  C   UNL A   1      36.839  23.355  24.999  1.00  0.00     0.116 C 
BRANCH   3   4
ATOM      4  N   UNL A   1      35.969  23.195  26.148  1.00  0.00    -0.351 N 
ATOM      5  C   UNL A   1      34.592  23.287  26.161  1.00  0.00     0.278 C 
ATOM      6  O   UNL A   1      34.005  22.958  27.191  1.00  0.00    -0.268 OA
ATOM      7  H   UNL A   1      36.406  23.002  27.009  1.00  0.00     0.163 HD
BRANCH   5   8
ATOM      8  C   UNL A   1      33.897  23.862  24.882  1.00  0.00     0.274 C 
ATOM      9  N   UNL A   1      33.001  25.058  25.117  1.00  0.00    -0.320 N 
ATOM     10  C   UNL A   1      31.710  24.586  25.679  1.00  0.00     0.188 C 
ATOM     11  H   UNL A   1      32.572  25.572  24.348  1.00  0.00     0.349 HD
ATOM     12  C   UNL A   1      33.297  22.757  24.012  1.00  0.00     0.076 C 
ATOM     13  C   UNL A   1      31.007  23.590  24.694  1.00  0.00     0.048 C 
ATOM     14  C   UNL A   1      30.536  25.487  26.109  1.00  0.00     0.065 C 
ATOM     15  C   UNL A   1      31.869  22.393  24.332  1.00  0.00     0.016 C 
ATOM     16  C   UNL A   1      30.398  24.228  23.429  1.00  0.00     0.010 C 
ATOM     17  C   UNL A   1      29.605  26.073  25.040  1.00  0.00     0.006 C 
ATOM     18  C   UNL A   1      29.830  25.628  23.602  1.00  0.00     0.001 C 
BRANCH   9  19
ATOM     19  C   UNL A   1      33.886  26.157  25.627  1.00  0.00     0.185 C 
ATOM     20  C   UNL A   1      33.007  26.691  22.438  1.00  0.00     0.008 C 
ATOM     21  C   UNL A   1      33.530  27.618  23.546  1.00  0.00    -0.008 C 
ATOM     22  C   UNL A   1      34.553  26.876  24.411  1.00  0.00     0.068 C 
ATOM     23  C   UNL A   1      32.389  28.235  24.388  1.00  0.00     0.007 C 
ATOM     24  C   UNL A   1      32.698  28.464  25.880  1.00  0.00    -0.008 C 
ATOM     25  C   UNL A   1      33.464  27.311  26.546  1.00  0.00     0.068 C 
ATOM     26  C   UNL A   1      31.464  28.804  26.725  1.00  0.00     0.008 C 
ENDBRANCH   9  19
ENDBRANCH   5   8
ENDBRANCH   3   4
ENDBRANCH   2   3
ENDBRANCH   1   2
BRANCH   1  27
ATOM     27  C   UNL A   1      38.663  21.022  25.766  1.00  0.00     0.116 C 
BRANCH  27  28
ATOM     28  N   UNL A   1      39.596  19.907  25.677  1.00  0.00    -0.352 N 
ATOM     29  C   UNL A   1      40.939  19.860  25.998  1.00  0.00     0.251 C 
ATOM     30  H   UNL A   1      39.214  19.066  25.338  1.00  0.00     0.163 HD
ATOM     31  O   UNL A   1      41.597  18.868  25.770  1.00  0.00    -0.269 OA
BRANCH  29  32
ATOM     32  C   UNL A   1      41.574  21.063  26.585  1.00  0.00     0.039 A 
ATOM     33  C   UNL A   1      42.140  22.009  25.729  1.00  0.00     0.014 A 
ATOM     34  C   UNL A   1      41.552  21.278  27.964  1.00  0.00     0.014 A 
ATOM     35  C   UNL A   1      42.599  23.219  26.252  1.00  0.00     0.010 A 
ATOM     36  C   UNL A   1      41.922  22.518  28.470  1.00  0.00     0.010 A 
ATOM     37  C   UNL A   1      42.445  23.505  27.619  1.00  0.00    -0.014 A 
BRANCH  37  38
ATOM     38  C   UNL A   1      42.808  24.832  28.177  1.00  0.00     0.031 A 
ATOM     39  C   UNL A   1      41.752  25.885  28.373  1.00  0.00     0.074 A 
ATOM     40  C   UNL A   1      44.099  25.116  28.440  1.00  0.00     0.049 A 
ATOM     41  N   UNL A   1      41.885  27.120  28.786  1.00  0.00    -0.248 NA
ATOM     42  C   UNL A   1      40.371  25.511  28.032  1.00  0.00     0.031 C 
ATOM     43  C   UNL A   1      45.227  24.200  28.253  1.00  0.00     0.029 A 
ATOM     44  N   UNL A   1      44.682  26.264  28.916  1.00  0.00    -0.354 N 
ATOM     45  C   UNL A   1      40.611  27.670  28.739  1.00  0.00     0.074 A 
ATOM     46  C   UNL A   1      39.731  26.657  28.202  1.00  0.00     0.031 C 
ATOM     47  C   UNL A   1      46.359  24.809  28.642  1.00  0.00     0.029 A 
ATOM     48  C   UNL A   1      46.046  26.171  29.060  1.00  0.00     0.049 A 
ATOM     49  H   UNL A   1      44.172  27.077  29.134  1.00  0.00     0.167 HD
ATOM     50  C   UNL A   1      40.204  28.903  29.127  1.00  0.00     0.031 A 
ATOM     51  C   UNL A   1      46.946  27.083  29.474  1.00  0.00     0.031 A 
ATOM     52  C   UNL A   1      41.079  29.910  29.665  1.00  0.00     0.049 A 
ATOM     53  C   UNL A   1      46.474  28.454  29.874  1.00  0.00     0.074 A 
ATOM     54  C   UNL A   1      40.753  31.169  30.139  1.00  0.00     0.029 A 
ATOM     55  N   UNL A   1      42.453  29.777  29.793  1.00  0.00    -0.354 N 
ATOM     56  N   UNL A   1      45.254  28.934  29.894  1.00  0.00    -0.248 NA
ATOM     57  C   UNL A   1      47.504  29.404  30.318  1.00  0.00     0.031 C 
ATOM     58  C   UNL A   1      41.938  31.820  30.498  1.00  0.00     0.029 A 
ATOM     59  C   UNL A   1      42.993  30.942  30.311  1.00  0.00     0.049 A 
ATOM     60  H   UNL A   1      42.968  28.973  29.551  1.00  0.00     0.167 HD
ATOM     61  C   UNL A   1      45.366  30.231  30.379  1.00  0.00     0.074 A 
ATOM     62  C   UNL A   1      46.770  30.455  30.657  1.00  0.00     0.031 C 
ATOM     63  C   UNL A   1      44.393  31.153  30.579  1.00  0.00     0.031 A 
BRANCH  50  64
ATOM     64  C   UNL A   1      38.744  29.229  28.971  1.00  0.00    -0.014 A 
ATOM     65  C   UNL A   1      38.228  29.695  27.750  1.00  0.00     0.009 A 
ATOM     66  C   UNL A   1      37.867  29.046  30.051  1.00  0.00     0.009 A 
ATOM     67  C   UNL A   1      36.873  30.009  27.628  1.00  0.00     0.001 A 
ATOM     68  C   UNL A   1      36.507  29.329  29.916  1.00  0.00     0.001 A 
ATOM     69  C   UNL A   1      36.013  29.821  28.709  1.00  0.00     0.000 A 
ENDBRANCH  50  64
BRANCH  51  70
ATOM     70  C   UNL A   1      48.389  26.728  29.545  1.00  0.00    -0.014 A 
ATOM     71  C   UNL A   1      49.240  26.987  28.460  1.00  0.00     0.009 A 
ATOM     72  C   UNL A   1      48.922  26.122  30.693  1.00  0.00     0.009 A 
ATOM     73  C   UNL A   1      50.588  26.622  28.512  1.00  0.00     0.001 A 
ATOM     74  C   UNL A   1      50.277  25.787  30.755  1.00  0.00     0.001 A 
ATOM     75  C   UNL A   1      51.106  26.027  29.662  1.00  0.00     0.000 A 
ENDBRANCH  51  70
BRANCH  63  76
ATOM     76  C   UNL A   1      44.806  32.477  31.158  1.00  0.00    -0.014 A 
ATOM     77  C   UNL A   1      45.119  33.571  30.336  1.00  0.00     0.009 A 
ATOM     78  C   UNL A   1      44.840  32.643  32.552  1.00  0.00     0.009 A 
ATOM     79  C   UNL A   1      45.490  34.793  30.900  1.00  0.00     0.001 A 
ATOM     80  C   UNL A   1      45.180  33.875  33.112  1.00  0.00     0.001 A 
ATOM     81  C   UNL A   1      45.514  34.946  32.285  1.00  0.00     0.000 A 
ENDBRANCH  63  76
ENDBRANCH  37  38
ENDBRANCH  29  32
ENDBRANCH  27  28
ENDBRANCH   1  27
TORSDOF 12
ENDMDL
MODEL 3
REMARK VINA RESULT:     -11.6      1.892      7.441
REMARK SMILES C[C@@H]1C[C@H](C)C[C@H]([N@H+]2[C@@H](C(=O)NCCCCNC(=O)c3ccc(-c4c5nc(c(-c6ccccc6)c6ccc([nH]6)c(-c6ccccc6)c6nc(c(-c7ccccc7)c7ccc4[nH]7)C=C6)C=C5)cc3)CC[C@@H]3CCCC[C@@H]32)C1
REMARK SMILES IDX 15 1 14 2 13 3 12 4 10 5 11 6 9 8 8 9 75 10 68 12 70 13
REMARK SMILES IDX 74 14 69 15 71 16 73 17 72 18 7 19 5 20 4 21 6 22 3 23 2 24
REMARK SMILES IDX 76 25 1 26 16 27 17 28 18 29 19 31 20 32 21 33 67 34 22 35
REMARK SMILES IDX 66 36 23 37 24 38 25 39 60 40 26 41 65 42 59 43 61 44 27 45
REMARK SMILES IDX 64 46 58 47 57 48 28 50 50 51 35 52 49 53 36 54 39 55 48 56
REMARK SMILES IDX 62 57 37 58 38 59 47 61 63 62 40 63 29 64 30 65 34 66 31 67
REMARK SMILES IDX 33 68 32 69 51 70 52 71 56 72 53 73 55 74 54 75 41 76 42 77
REMARK SMILES IDX 46 78 43 79 45 80 44 81
REMARK H PARENT 12 7 8 11 17 30 61 49 39 60
REMARK Flexibility Score: inf
ROOT
ATOM      1  C   UNL A   1      37.412  20.553  24.921  1.00  0.00     0.023 C 
ENDROOT
BRANCH   1   2
ATOM      2  C   UNL A   1      36.811  21.779  24.248  1.00  0.00     0.023 C 
BRANCH   2   3
ATOM      3  C   UNL A   1      36.790  23.035  25.103  1.00  0.00     0.116 C 
BRANCH   3   4
ATOM      4  N   UNL A   1      35.907  22.964  26.251  1.00  0.00    -0.351 N 
ATOM      5  C   UNL A   1      34.537  23.129  26.250  1.00  0.00     0.278 C 
ATOM      6  O   UNL A   1      33.928  22.869  27.287  1.00  0.00    -0.268 OA
ATOM      7  H   UNL A   1      36.329  22.779  27.120  1.00  0.00     0.163 HD
BRANCH   5   8
ATOM      8  C   UNL A   1      33.881  23.694  24.946  1.00  0.00     0.274 C 
ATOM      9  N   UNL A   1      33.003  24.910  25.140  1.00  0.00    -0.320 N 
ATOM     10  C   UNL A   1      31.692  24.473  25.683  1.00  0.00     0.188 C 
ATOM     11  H   UNL A   1      32.600  25.418  24.353  1.00  0.00     0.349 HD
ATOM     12  C   UNL A   1      33.278  22.585  24.083  1.00  0.00     0.076 C 
ATOM     13  C   UNL A   1      30.991  23.473  24.700  1.00  0.00     0.048 C 
ATOM     14  C   UNL A   1      30.526  25.404  26.071  1.00  0.00     0.065 C 
ATOM     15  C   UNL A   1      31.837  22.253  24.379  1.00  0.00     0.016 C 
ATOM     16  C   UNL A   1      30.421  24.098  23.412  1.00  0.00     0.010 C 
ATOM     17  C   UNL A   1      29.629  25.988  24.971  1.00  0.00     0.006 C 
ATOM     18  C   UNL A   1      29.876  25.512  23.547  1.00  0.00     0.001 C 
BRANCH   9  19
ATOM     19  C   UNL A   1      33.898  26.002  25.649  1.00  0.00     0.185 C 
ATOM     20  C   UNL A   1      33.169  26.446  22.409  1.00  0.00     0.008 C 
ATOM     21  C   UNL A   1      33.673  27.397  23.505  1.00  0.00    -0.008 C 
ATOM     22  C   UNL A   1      34.636  26.658  24.439  1.00  0.00     0.068 C 
ATOM     23  C   UNL A   1      32.516  28.075  24.276  1.00  0.00     0.007 C 
ATOM     24  C   UNL A   1      32.768  28.348  25.772  1.00  0.00    -0.008 C 
ATOM     25  C   UNL A   1      33.472  27.199  26.509  1.00  0.00     0.068 C 
ATOM     26  C   UNL A   1      31.512  28.753  26.550  1.00  0.00     0.008 C 
ENDBRANCH   9  19
ENDBRANCH   5   8
ENDBRANCH   3   4
ENDBRANCH   2   3
ENDBRANCH   1   2
BRANCH   1  27
ATOM     27  C   UNL A   1      38.661  20.812  25.758  1.00  0.00     0.116 C 
BRANCH  27  28
ATOM     28  N   UNL A   1      39.651  19.746  25.686  1.00  0.00    -0.352 N 
ATOM     29  C   UNL A   1      40.994  19.775  26.004  1.00  0.00     0.251 C 
ATOM     30  H   UNL A   1      39.312  18.880  25.362  1.00  0.00     0.163 HD
ATOM     31  O   UNL A   1      41.703  18.814  25.791  1.00  0.00    -0.269 OA
BRANCH  29  32
ATOM     32  C   UNL A   1      41.566  21.018  26.570  1.00  0.00     0.039 A 
ATOM     33  C   UNL A   1      42.098  21.970  25.698  1.00  0.00     0.014 A 
ATOM     34  C   UNL A   1      41.518  21.263  27.943  1.00  0.00     0.014 A 
ATOM     35  C   UNL A   1      42.495  23.211  26.198  1.00  0.00     0.010 A 
ATOM     36  C   UNL A   1      41.826  22.530  28.424  1.00  0.00     0.010 A 
ATOM     37  C   UNL A   1      42.312  23.521  27.556  1.00  0.00    -0.014 A 
BRANCH  37  38
ATOM     38  C   UNL A   1      42.607  24.875  28.087  1.00  0.00     0.031 A 
ATOM     39  C   UNL A   1      44.001  25.228  28.529  1.00  0.00     0.074 A 
ATOM     40  C   UNL A   1      41.607  25.766  28.241  1.00  0.00     0.049 A 
ATOM     41  N   UNL A   1      44.438  26.333  29.077  1.00  0.00    -0.248 NA
ATOM     42  C   UNL A   1      45.032  24.192  28.360  1.00  0.00     0.031 C 
ATOM     43  C   UNL A   1      40.202  25.535  27.894  1.00  0.00     0.029 A 
ATOM     44  N   UNL A   1      41.618  27.044  28.739  1.00  0.00    -0.354 N 
ATOM     45  C   UNL A   1      45.786  26.119  29.331  1.00  0.00     0.074 A 
ATOM     46  C   UNL A   1      46.082  24.761  28.933  1.00  0.00     0.031 C 
ATOM     47  C   UNL A   1      39.495  26.646  28.156  1.00  0.00     0.029 A 
ATOM     48  C   UNL A   1      40.383  27.649  28.734  1.00  0.00     0.049 A 
ATOM     49  H   UNL A   1      42.433  27.487  29.067  1.00  0.00     0.167 HD
ATOM     50  C   UNL A   1      46.703  26.981  29.831  1.00  0.00     0.031 A 
ATOM     51  C   UNL A   1      40.006  28.871  29.155  1.00  0.00     0.031 A 
ATOM     52  C   UNL A   1      46.411  28.333  30.224  1.00  0.00     0.049 A 
ATOM     53  C   UNL A   1      41.037  29.802  29.732  1.00  0.00     0.074 A 
ATOM     54  C   UNL A   1      47.283  29.303  30.688  1.00  0.00     0.029 A 
ATOM     55  N   UNL A   1      45.149  28.907  30.204  1.00  0.00    -0.354 N 
ATOM     56  N   UNL A   1      42.324  29.609  29.896  1.00  0.00    -0.248 NA
ATOM     57  C   UNL A   1      40.564  31.121  30.172  1.00  0.00     0.031 C 
ATOM     58  C   UNL A   1      46.538  30.442  31.007  1.00  0.00     0.029 A 
ATOM     59  C   UNL A   1      45.214  30.206  30.677  1.00  0.00     0.049 A 
ATOM     60  H   UNL A   1      44.328  28.456  29.899  1.00  0.00     0.167 HD
ATOM     61  C   UNL A   1      42.819  30.792  30.430  1.00  0.00     0.074 A 
ATOM     62  C   UNL A   1      41.696  31.701  30.546  1.00  0.00     0.031 C 
ATOM     63  C   UNL A   1      44.089  31.099  30.790  1.00  0.00     0.031 A 
BRANCH  50  64
ATOM     64  C   UNL A   1      48.111  26.475  29.991  1.00  0.00    -0.014 A 
ATOM     65  C   UNL A   1      48.535  25.863  31.182  1.00  0.00     0.009 A 
ATOM     66  C   UNL A   1      49.020  26.591  28.928  1.00  0.00     0.009 A 
ATOM     67  C   UNL A   1      49.850  25.415  31.319  1.00  0.00     0.001 A 
ATOM     68  C   UNL A   1      50.325  26.112  29.056  1.00  0.00     0.001 A 
ATOM     69  C   UNL A   1      50.743  25.535  30.255  1.00  0.00     0.000 A 
ENDBRANCH  50  64
BRANCH  51  70
ATOM     70  C   UNL A   1      38.585  29.295  29.035  1.00  0.00    -0.014 A 
ATOM     71  C   UNL A   1      38.081  29.758  27.810  1.00  0.00     0.009 A 
ATOM     72  C   UNL A   1      37.727  29.248  30.146  1.00  0.00     0.009 A 
ATOM     73  C   UNL A   1      36.756  30.189  27.705  1.00  0.00     0.001 A 
ATOM     74  C   UNL A   1      36.395  29.650  30.030  1.00  0.00     0.001 A 
ATOM     75  C   UNL A   1      35.913  30.130  28.814  1.00  0.00     0.000 A 
ENDBRANCH  51  70
BRANCH  63  76
ATOM     76  C   UNL A   1      44.342  32.486  31.312  1.00  0.00    -0.014 A 
ATOM     77  C   UNL A   1      44.273  32.777  32.683  1.00  0.00     0.009 A 
ATOM     78  C   UNL A   1      44.698  33.507  30.416  1.00  0.00     0.009 A 
ATOM     79  C   UNL A   1      44.522  34.073  33.142  1.00  0.00     0.001 A 
ATOM     80  C   UNL A   1      44.978  34.793  30.881  1.00  0.00     0.001 A 
ATOM     81  C   UNL A   1      44.880  35.076  32.242  1.00  0.00     0.000 A 
ENDBRANCH  63  76
ENDBRANCH  37  38
ENDBRANCH  29  32
ENDBRANCH  27  28
ENDBRANCH   1  27
TORSDOF 12
ENDMDL
