MODEL 1
REMARK VINA RESULT:     -12.1      0.000      0.000
REMARK SMILES O=C(NCCCCNC(=O)c1ccc2c(=O)n(CCC[NH+]3CCOCC3)c(=O)[nH]c2c1)c1ccc(-c2c3nc(c(-c4ccccc4)c4ccc([nH]4)c(-c4ccccc4)c4nc(c(-c5ccccc5)c5ccc2[nH]5)C=C4)C=C3)cc1
REMARK SMILES IDX 6 1 5 2 4 3 3 4 1 5 2 6 32 8 33 9 79 10 34 11 78 12 35 13
REMARK SMILES IDX 36 14 37 15 72 16 38 17 77 18 71 19 73 20 39 21 76 22 70 23
REMARK SMILES IDX 69 24 40 26 62 27 47 28 61 29 48 30 51 31 60 32 74 33 49 34
REMARK SMILES IDX 50 35 59 37 75 38 52 39 41 40 42 41 46 42 43 43 45 44 44 45
REMARK SMILES IDX 63 46 64 47 68 48 65 49 67 50 66 51 53 52 54 53 58 54 55 55
REMARK SMILES IDX 57 56 56 57 7 58 8 59 9 60 10 62 11 63 12 64 31 65 13 66
REMARK SMILES IDX 30 67 14 68 29 69 15 70 27 71 16 73 17 74 28 75 18 76 19 77
REMARK SMILES IDX 20 78 21 79 22 80 26 81 23 83 25 84 24 85
REMARK H PARENT 3 7 73 25 51 36 8 61 29 72 21 82
REMARK Flexibility Score: inf
ROOT
ATOM      1  C   UNL A   1      32.998  29.470  24.905  1.00  0.00     0.023 C 
ENDROOT
BRANCH   1   2
ATOM      2  C   UNL A   1      33.768  28.447  25.734  1.00  0.00     0.023 C 
BRANCH   2   3
ATOM      3  C   UNL A   1      33.636  28.621  27.241  1.00  0.00     0.116 C 
BRANCH   3   4
ATOM      4  N   UNL A   1      33.611  30.019  27.638  1.00  0.00    -0.352 N 
ATOM      5  O   UNL A   1      34.328  31.880  28.685  1.00  0.00    -0.269 OA
ATOM      6  C   UNL A   1      34.587  30.760  28.257  1.00  0.00     0.251 C 
ATOM      7  H   UNL A   1      32.778  30.502  27.436  1.00  0.00     0.163 HD
BRANCH   6   8
ATOM      8  C   UNL A   1      35.950  30.207  28.418  1.00  0.00     0.039 A 
ATOM      9  C   UNL A   1      36.313  29.651  29.648  1.00  0.00     0.014 A 
ATOM     10  C   UNL A   1      36.879  30.267  27.376  1.00  0.00     0.014 A 
ATOM     11  C   UNL A   1      37.602  29.143  29.825  1.00  0.00     0.010 A 
ATOM     12  C   UNL A   1      38.128  29.674  27.522  1.00  0.00     0.010 A 
ATOM     13  C   UNL A   1      38.517  29.142  28.760  1.00  0.00    -0.014 A 
BRANCH  13  14
ATOM     14  C   UNL A   1      39.913  28.676  28.944  1.00  0.00     0.031 A 
ATOM     15  C   UNL A   1      40.941  29.618  29.517  1.00  0.00     0.074 A 
ATOM     16  C   UNL A   1      40.270  27.430  28.579  1.00  0.00     0.049 A 
ATOM     17  N   UNL A   1      42.219  29.424  29.715  1.00  0.00    -0.248 NA
ATOM     18  C   UNL A   1      40.475  30.963  29.897  1.00  0.00     0.031 C 
ATOM     19  C   UNL A   1      39.371  26.429  28.006  1.00  0.00     0.029 A 
ATOM     20  N   UNL A   1      41.485  26.793  28.644  1.00  0.00    -0.354 N 
ATOM     21  C   UNL A   1      42.706  30.622  30.223  1.00  0.00     0.074 A 
ATOM     22  C   UNL A   1      41.606  31.558  30.242  1.00  0.00     0.031 C 
ATOM     23  C   UNL A   1      40.055  25.291  27.809  1.00  0.00     0.029 A 
ATOM     24  C   UNL A   1      41.450  25.495  28.192  1.00  0.00     0.049 A 
ATOM     25  H   UNL A   1      42.303  27.224  28.980  1.00  0.00     0.167 HD
ATOM     26  C   UNL A   1      43.952  30.907  30.666  1.00  0.00     0.031 A 
ATOM     27  C   UNL A   1      42.428  24.573  28.095  1.00  0.00     0.031 A 
ATOM     28  C   UNL A   1      45.036  29.964  30.670  1.00  0.00     0.049 A 
ATOM     29  C   UNL A   1      43.816  24.922  28.560  1.00  0.00     0.074 A 
ATOM     30  C   UNL A   1      46.323  30.143  31.145  1.00  0.00     0.029 A 
ATOM     31  N   UNL A   1      44.963  28.669  30.181  1.00  0.00    -0.354 N 
ATOM     32  N   UNL A   1      44.251  26.042  29.085  1.00  0.00    -0.248 NA
ATOM     33  C   UNL A   1      44.847  23.881  28.432  1.00  0.00     0.031 C 
ATOM     34  C   UNL A   1      47.051  28.986  30.870  1.00  0.00     0.029 A 
ATOM     35  C   UNL A   1      46.195  28.050  30.311  1.00  0.00     0.049 A 
ATOM     36  H   UNL A   1      44.157  28.252  29.800  1.00  0.00     0.167 HD
ATOM     37  C   UNL A   1      45.594  25.833  29.376  1.00  0.00     0.074 A 
ATOM     38  C   UNL A   1      45.899  24.474  28.981  1.00  0.00     0.031 C 
ATOM     39  C   UNL A   1      46.489  26.694  29.920  1.00  0.00     0.031 A 
BRANCH  26  40
ATOM     40  C   UNL A   1      44.219  32.293  31.194  1.00  0.00    -0.014 A 
ATOM     41  C   UNL A   1      44.605  33.313  30.310  1.00  0.00     0.009 A 
ATOM     42  C   UNL A   1      44.179  32.568  32.570  1.00  0.00     0.009 A 
ATOM     43  C   UNL A   1      44.965  34.573  30.792  1.00  0.00     0.001 A 
ATOM     44  C   UNL A   1      44.502  33.841  33.047  1.00  0.00     0.001 A 
ATOM     45  C   UNL A   1      44.907  34.837  32.160  1.00  0.00     0.000 A 
ENDBRANCH  26  40
BRANCH  27  46
ATOM     46  C   UNL A   1      42.099  23.217  27.575  1.00  0.00    -0.014 A 
ATOM     47  C   UNL A   1      42.278  22.907  26.216  1.00  0.00     0.009 A 
ATOM     48  C   UNL A   1      41.533  22.249  28.418  1.00  0.00     0.009 A 
ATOM     49  C   UNL A   1      41.863  21.674  25.706  1.00  0.00     0.001 A 
ATOM     50  C   UNL A   1      41.150  21.004  27.912  1.00  0.00     0.001 A 
ATOM     51  C   UNL A   1      41.302  20.722  26.555  1.00  0.00     0.000 A 
ENDBRANCH  27  46
BRANCH  39  52
ATOM     52  C   UNL A   1      47.896  26.210  30.154  1.00  0.00    -0.014 A 
ATOM     53  C   UNL A   1      48.272  25.760  31.432  1.00  0.00     0.009 A 
ATOM     54  C   UNL A   1      48.881  26.332  29.162  1.00  0.00     0.009 A 
ATOM     55  C   UNL A   1      49.606  25.475  31.720  1.00  0.00     0.001 A 
ATOM     56  C   UNL A   1      50.210  26.009  29.444  1.00  0.00     0.001 A 
ATOM     57  C   UNL A   1      50.574  25.596  30.725  1.00  0.00     0.000 A 
ENDBRANCH  39  52
ENDBRANCH  13  14
ENDBRANCH   6   8
ENDBRANCH   3   4
ENDBRANCH   2   3
ENDBRANCH   1   2
BRANCH   1  58
ATOM     58  C   UNL A   1      31.488  29.455  25.122  1.00  0.00     0.116 C 
BRANCH  58  59
ATOM     59  N   UNL A   1      30.744  29.652  23.880  1.00  0.00    -0.352 N 
ATOM     60  C   UNL A   1      30.468  28.743  22.886  1.00  0.00     0.251 C 
ATOM     61  H   UNL A   1      30.391  30.560  23.735  1.00  0.00     0.163 HD
ATOM     62  O   UNL A   1      29.978  29.083  21.818  1.00  0.00    -0.269 OA
BRANCH  60  63
ATOM     63  C   UNL A   1      30.793  27.331  23.138  1.00  0.00     0.041 A 
ATOM     64  C   UNL A   1      29.954  26.604  23.988  1.00  0.00     0.015 A 
ATOM     65  C   UNL A   1      31.990  26.796  22.644  1.00  0.00     0.040 A 
ATOM     66  C   UNL A   1      30.402  25.397  24.490  1.00  0.00     0.017 A 
ATOM     67  C   UNL A   1      32.420  25.571  23.142  1.00  0.00     0.056 A 
ATOM     68  C   UNL A   1      31.659  24.921  24.100  1.00  0.00     0.064 A 
ATOM     69  N   UNL A   1      33.613  24.986  22.730  1.00  0.00    -0.307 N 
ATOM     70  C   UNL A   1      32.231  23.767  24.782  1.00  0.00     0.264 A 
ATOM     71  C   UNL A   1      34.119  23.824  23.256  1.00  0.00     0.328 A 
ATOM     72  H   UNL A   1      34.125  25.433  22.018  1.00  0.00     0.171 HD
ATOM     73  O   UNL A   1      31.589  23.361  25.735  1.00  0.00    -0.268 OA
ATOM     74  N   UNL A   1      33.442  23.267  24.343  1.00  0.00    -0.260 N 
ATOM     75  O   UNL A   1      35.133  23.341  22.754  1.00  0.00    -0.248 OA
BRANCH  74  76
ATOM     76  C   UNL A   1      34.005  22.038  24.916  1.00  0.00     0.137 C 
BRANCH  76  77
ATOM     77  C   UNL A   1      33.652  20.634  24.389  1.00  0.00     0.083 C 
BRANCH  77  78
ATOM     78  C   UNL A   1      33.005  19.488  25.208  1.00  0.00     0.264 C 
BRANCH  78  79
ATOM     79  N   UNL A   1      32.514  18.232  24.660  1.00  0.00    -0.331 N 
ATOM     80  C   UNL A   1      32.529  17.066  25.532  1.00  0.00     0.291 C 
ATOM     81  C   UNL A   1      32.843  17.871  23.281  1.00  0.00     0.291 C 
ATOM     82  H   UNL A   1      31.544  18.543  24.605  1.00  0.00     0.348 HD
ATOM     83  C   UNL A   1      33.801  16.229  25.383  1.00  0.00     0.221 C 
ATOM     84  C   UNL A   1      34.063  16.952  23.128  1.00  0.00     0.221 C 
ATOM     85  O   UNL A   1      34.025  15.832  24.023  1.00  0.00    -0.370 OA
ENDBRANCH  78  79
ENDBRANCH  77  78
ENDBRANCH  76  77
ENDBRANCH  74  76
ENDBRANCH  60  63
ENDBRANCH  58  59
ENDBRANCH   1  58
TORSDOF 15
ENDMDL
MODEL 2
REMARK VINA RESULT:     -12.0      1.591      6.140
REMARK SMILES O=C(NCCCCNC(=O)c1ccc2c(=O)n(CCC[NH+]3CCOCC3)c(=O)[nH]c2c1)c1ccc(-c2c3nc(c(-c4ccccc4)c4ccc([nH]4)c(-c4ccccc4)c4nc(c(-c5ccccc5)c5ccc2[nH]5)C=C4)C=C3)cc1
REMARK SMILES IDX 6 1 5 2 4 3 3 4 1 5 2 6 32 8 33 9 79 10 34 11 78 12 35 13
REMARK SMILES IDX 36 14 37 15 72 16 38 17 77 18 71 19 73 20 39 21 76 22 70 23
REMARK SMILES IDX 69 24 40 26 62 27 47 28 61 29 48 30 51 31 60 32 74 33 49 34
REMARK SMILES IDX 50 35 59 37 75 38 52 39 41 40 42 41 46 42 43 43 45 44 44 45
REMARK SMILES IDX 63 46 64 47 68 48 65 49 67 50 66 51 53 52 54 53 58 54 55 55
REMARK SMILES IDX 57 56 56 57 7 58 8 59 9 60 10 62 11 63 12 64 31 65 13 66
REMARK SMILES IDX 30 67 14 68 29 69 15 70 27 71 16 73 17 74 28 75 18 76 19 77
REMARK SMILES IDX 20 78 21 79 22 80 26 81 23 83 25 84 24 85
REMARK H PARENT 3 7 73 25 51 36 8 61 29 72 21 82
REMARK Flexibility Score: inf
ROOT
ATOM      1  C   UNL A   1      32.990  29.301  24.725  1.00  0.00     0.023 C 
ENDROOT
BRANCH   1   2
ATOM      2  C   UNL A   1      33.701  28.217  25.530  1.00  0.00     0.023 C 
BRANCH   2   3
ATOM      3  C   UNL A   1      33.694  28.438  27.036  1.00  0.00     0.116 C 
BRANCH   3   4
ATOM      4  N   UNL A   1      33.585  29.842  27.391  1.00  0.00    -0.352 N 
ATOM      5  O   UNL A   1      34.157  31.760  28.426  1.00  0.00    -0.269 OA
ATOM      6  C   UNL A   1      34.489  30.642  28.045  1.00  0.00     0.251 C 
ATOM      7  H   UNL A   1      32.745  30.282  27.127  1.00  0.00     0.163 HD
BRANCH   6   8
ATOM      8  C   UNL A   1      35.862  30.155  28.301  1.00  0.00     0.039 A 
ATOM      9  C   UNL A   1      36.170  29.631  29.560  1.00  0.00     0.014 A 
ATOM     10  C   UNL A   1      36.854  30.247  27.320  1.00  0.00     0.014 A 
ATOM     11  C   UNL A   1      37.467  29.186  29.826  1.00  0.00     0.010 A 
ATOM     12  C   UNL A   1      38.116  29.715  27.554  1.00  0.00     0.010 A 
ATOM     13  C   UNL A   1      38.448  29.216  28.822  1.00  0.00    -0.014 A 
BRANCH  13  14
ATOM     14  C   UNL A   1      39.850  28.818  29.102  1.00  0.00     0.031 A 
ATOM     15  C   UNL A   1      40.328  27.449  28.693  1.00  0.00     0.074 A 
ATOM     16  C   UNL A   1      40.684  29.661  29.739  1.00  0.00     0.049 A 
ATOM     17  N   UNL A   1      41.496  26.891  28.884  1.00  0.00    -0.248 NA
ATOM     18  C   UNL A   1      39.360  26.584  27.996  1.00  0.00     0.031 C 
ATOM     19  C   UNL A   1      40.338  31.008  30.193  1.00  0.00     0.029 A 
ATOM     20  N   UNL A   1      41.998  29.510  30.109  1.00  0.00    -0.354 N 
ATOM     21  C   UNL A   1      41.393  25.613  28.349  1.00  0.00     0.074 A 
ATOM     22  C   UNL A   1      40.035  25.451  27.885  1.00  0.00     0.031 C 
ATOM     23  C   UNL A   1      41.423  31.575  30.743  1.00  0.00     0.029 A 
ATOM     24  C   UNL A   1      42.526  30.617  30.729  1.00  0.00     0.049 A 
ATOM     25  H   UNL A   1      42.513  28.688  29.946  1.00  0.00     0.167 HD
ATOM     26  C   UNL A   1      42.355  24.669  28.226  1.00  0.00     0.031 A 
ATOM     27  C   UNL A   1      43.757  30.839  31.231  1.00  0.00     0.031 A 
ATOM     28  C   UNL A   1      43.712  24.846  28.664  1.00  0.00     0.049 A 
ATOM     29  C   UNL A   1      44.802  29.762  31.116  1.00  0.00     0.074 A 
ATOM     30  C   UNL A   1      44.772  23.968  28.537  1.00  0.00     0.029 A 
ATOM     31  N   UNL A   1      44.197  25.973  29.309  1.00  0.00    -0.354 N 
ATOM     32  N   UNL A   1      44.706  28.577  30.562  1.00  0.00    -0.248 NA
ATOM     33  C   UNL A   1      46.128  30.054  31.680  1.00  0.00     0.031 C 
ATOM     34  C   UNL A   1      45.878  24.528  29.176  1.00  0.00     0.029 A 
ATOM     35  C   UNL A   1      45.535  25.796  29.618  1.00  0.00     0.049 A 
ATOM     36  H   UNL A   1      43.670  26.779  29.515  1.00  0.00     0.167 HD
ATOM     37  C   UNL A   1      45.961  27.994  30.686  1.00  0.00     0.074 A 
ATOM     38  C   UNL A   1      46.806  28.961  31.354  1.00  0.00     0.031 C 
ATOM     39  C   UNL A   1      46.371  26.766  30.280  1.00  0.00     0.031 A 
BRANCH  26  40
ATOM     40  C   UNL A   1      41.985  23.359  27.582  1.00  0.00    -0.014 A 
ATOM     41  C   UNL A   1      41.460  22.320  28.368  1.00  0.00     0.009 A 
ATOM     42  C   UNL A   1      42.241  23.116  26.223  1.00  0.00     0.009 A 
ATOM     43  C   UNL A   1      41.216  21.063  27.813  1.00  0.00     0.001 A 
ATOM     44  C   UNL A   1      41.959  21.868  25.661  1.00  0.00     0.001 A 
ATOM     45  C   UNL A   1      41.460  20.840  26.459  1.00  0.00     0.000 A 
ENDBRANCH  26  40
BRANCH  27  46
ATOM     46  C   UNL A   1      44.064  32.160  31.846  1.00  0.00    -0.014 A 
ATOM     47  C   UNL A   1      44.603  33.203  31.073  1.00  0.00     0.009 A 
ATOM     48  C   UNL A   1      43.891  32.361  33.223  1.00  0.00     0.009 A 
ATOM     49  C   UNL A   1      44.997  34.402  31.672  1.00  0.00     0.001 A 
ATOM     50  C   UNL A   1      44.255  33.574  33.814  1.00  0.00     0.001 A 
ATOM     51  C   UNL A   1      44.820  34.588  33.042  1.00  0.00     0.000 A 
ENDBRANCH  27  46
BRANCH  39  52
ATOM     52  C   UNL A   1      47.806  26.376  30.518  1.00  0.00    -0.014 A 
ATOM     53  C   UNL A   1      48.731  26.457  29.462  1.00  0.00     0.009 A 
ATOM     54  C   UNL A   1      48.210  25.797  31.730  1.00  0.00     0.009 A 
ATOM     55  C   UNL A   1      50.018  25.939  29.604  1.00  0.00     0.001 A 
ATOM     56  C   UNL A   1      49.512  25.313  31.881  1.00  0.00     0.001 A 
ATOM     57  C   UNL A   1      50.409  25.370  30.814  1.00  0.00     0.000 A 
ENDBRANCH  39  52
ENDBRANCH  13  14
ENDBRANCH   6   8
ENDBRANCH   3   4
ENDBRANCH   2   3
ENDBRANCH   1   2
BRANCH   1  58
ATOM     58  C   UNL A   1      31.490  29.402  24.982  1.00  0.00     0.116 C 
BRANCH  58  59
ATOM     59  N   UNL A   1      30.755  29.892  23.818  1.00  0.00    -0.352 N 
ATOM     60  C   UNL A   1      30.277  29.185  22.740  1.00  0.00     0.251 C 
ATOM     61  H   UNL A   1      30.578  30.860  23.804  1.00  0.00     0.163 HD
ATOM     62  O   UNL A   1      29.825  29.744  21.751  1.00  0.00    -0.269 OA
BRANCH  60  63
ATOM     63  C   UNL A   1      30.336  27.717  22.802  1.00  0.00     0.041 A 
ATOM     64  C   UNL A   1      29.450  27.059  23.662  1.00  0.00     0.015 A 
ATOM     65  C   UNL A   1      31.351  27.033  22.119  1.00  0.00     0.040 A 
ATOM     66  C   UNL A   1      29.693  25.735  23.977  1.00  0.00     0.017 A 
ATOM     67  C   UNL A   1      31.571  25.697  22.433  1.00  0.00     0.056 A 
ATOM     68  C   UNL A   1      30.787  25.085  23.397  1.00  0.00     0.064 A 
ATOM     69  N   UNL A   1      32.580  24.955  21.826  1.00  0.00    -0.307 N 
ATOM     70  C   UNL A   1      31.178  23.767  23.883  1.00  0.00     0.264 A 
ATOM     71  C   UNL A   1      32.889  23.661  22.164  1.00  0.00     0.328 A 
ATOM     72  H   UNL A   1      33.103  25.384  21.111  1.00  0.00     0.171 HD
ATOM     73  O   UNL A   1      30.559  23.372  24.855  1.00  0.00    -0.268 OA
ATOM     74  N   UNL A   1      32.218  23.109  23.256  1.00  0.00    -0.260 N 
ATOM     75  O   UNL A   1      33.736  23.065  21.500  1.00  0.00    -0.248 OA
BRANCH  74  76
ATOM     76  C   UNL A   1      32.575  21.733  23.627  1.00  0.00     0.137 C 
BRANCH  76  77
ATOM     77  C   UNL A   1      33.436  21.398  24.860  1.00  0.00     0.083 C 
BRANCH  77  78
ATOM     78  C   UNL A   1      34.951  21.072  24.852  1.00  0.00     0.264 C 
BRANCH  78  79
ATOM     79  N   UNL A   1      36.000  21.943  24.342  1.00  0.00    -0.331 N 
ATOM     80  C   UNL A   1      37.377  21.490  24.479  1.00  0.00     0.291 C 
ATOM     81  C   UNL A   1      35.892  23.389  24.539  1.00  0.00     0.291 C 
ATOM     82  H   UNL A   1      35.745  21.811  23.363  1.00  0.00     0.348 HD
ATOM     83  C   UNL A   1      38.049  22.008  25.752  1.00  0.00     0.221 C 
ATOM     84  C   UNL A   1      36.644  23.932  25.762  1.00  0.00     0.221 C 
ATOM     85  O   UNL A   1      37.988  23.438  25.847  1.00  0.00    -0.370 OA
ENDBRANCH  78  79
ENDBRANCH  77  78
ENDBRANCH  76  77
ENDBRANCH  74  76
ENDBRANCH  60  63
ENDBRANCH  58  59
ENDBRANCH   1  58
TORSDOF 15
ENDMDL
MODEL 3
REMARK VINA RESULT:     -12.0      2.439      8.411
REMARK SMILES O=C(NCCCCNC(=O)c1ccc2c(=O)n(CCC[NH+]3CCOCC3)c(=O)[nH]c2c1)c1ccc(-c2c3nc(c(-c4ccccc4)c4ccc([nH]4)c(-c4ccccc4)c4nc(c(-c5ccccc5)c5ccc2[nH]5)C=C4)C=C3)cc1
REMARK SMILES IDX 6 1 5 2 4 3 3 4 1 5 2 6 32 8 33 9 79 10 34 11 78 12 35 13
REMARK SMILES IDX 36 14 37 15 72 16 38 17 77 18 71 19 73 20 39 21 76 22 70 23
REMARK SMILES IDX 69 24 40 26 62 27 47 28 61 29 48 30 51 31 60 32 74 33 49 34
REMARK SMILES IDX 50 35 59 37 75 38 52 39 41 40 42 41 46 42 43 43 45 44 44 45
REMARK SMILES IDX 63 46 64 47 68 48 65 49 67 50 66 51 53 52 54 53 58 54 55 55
REMARK SMILES IDX 57 56 56 57 7 58 8 59 9 60 10 62 11 63 12 64 31 65 13 66
REMARK SMILES IDX 30 67 14 68 29 69 15 70 27 71 16 73 17 74 28 75 18 76 19 77
REMARK SMILES IDX 20 78 21 79 22 80 26 81 23 83 25 84 24 85
REMARK H PARENT 3 7 73 25 51 36 8 61 29 72 21 82
REMARK Flexibility Score: inf
ROOT
ATOM      1  C   UNL A   1      35.524  21.863  26.223  1.00  0.00     0.023 C 
ENDROOT
BRANCH   1   2
ATOM      2  C   UNL A   1      35.806  23.347  26.005  1.00  0.00     0.023 C 
BRANCH   2   3
ATOM      3  C   UNL A   1      37.075  23.643  25.217  1.00  0.00     0.116 C 
BRANCH   3   4
ATOM      4  N   UNL A   1      38.147  22.709  25.518  1.00  0.00    -0.352 N 
ATOM      5  O   UNL A   1      40.206  22.072  26.175  1.00  0.00    -0.269 OA
ATOM      6  C   UNL A   1      39.334  22.936  26.170  1.00  0.00     0.251 C 
ATOM      7  H   UNL A   1      38.002  21.785  25.212  1.00  0.00     0.163 HD
BRANCH   6   8
ATOM      8  C   UNL A   1      39.569  24.224  26.859  1.00  0.00     0.039 A 
ATOM      9  C   UNL A   1      40.262  25.234  26.185  1.00  0.00     0.014 A 
ATOM     10  C   UNL A   1      39.143  24.426  28.175  1.00  0.00     0.014 A 
ATOM     11  C   UNL A   1      40.511  26.449  26.826  1.00  0.00     0.010 A 
ATOM     12  C   UNL A   1      39.307  25.668  28.776  1.00  0.00     0.010 A 
ATOM     13  C   UNL A   1      40.028  26.679  28.124  1.00  0.00    -0.014 A 
BRANCH  13  14
ATOM     14  C   UNL A   1      40.343  27.932  28.854  1.00  0.00     0.031 A 
ATOM     15  C   UNL A   1      41.686  28.086  29.519  1.00  0.00     0.074 A 
ATOM     16  C   UNL A   1      39.428  28.916  28.946  1.00  0.00     0.049 A 
ATOM     17  N   UNL A   1      42.142  29.077  30.241  1.00  0.00    -0.248 NA
ATOM     18  C   UNL A   1      42.636  26.969  29.371  1.00  0.00     0.031 C 
ATOM     19  C   UNL A   1      38.091  28.883  28.354  1.00  0.00     0.029 A 
ATOM     20  N   UNL A   1      39.490  30.139  29.567  1.00  0.00    -0.354 N 
ATOM     21  C   UNL A   1      43.416  28.695  30.643  1.00  0.00     0.074 A 
ATOM     22  C   UNL A   1      43.639  27.358  30.143  1.00  0.00     0.031 C 
ATOM     23  C   UNL A   1      37.474  30.048  28.606  1.00  0.00     0.029 A 
ATOM     24  C   UNL A   1      38.349  30.890  29.420  1.00  0.00     0.049 A 
ATOM     25  H   UNL A   1      40.277  30.448  30.072  1.00  0.00     0.167 HD
ATOM     26  C   UNL A   1      44.331  29.407  31.338  1.00  0.00     0.031 A 
ATOM     27  C   UNL A   1      38.037  32.115  29.885  1.00  0.00     0.031 A 
ATOM     28  C   UNL A   1      44.114  30.747  31.809  1.00  0.00     0.049 A 
ATOM     29  C   UNL A   1      39.057  32.877  30.688  1.00  0.00     0.074 A 
ATOM     30  C   UNL A   1      45.000  31.571  32.480  1.00  0.00     0.029 A 
ATOM     31  N   UNL A   1      42.935  31.460  31.658  1.00  0.00    -0.354 N 
ATOM     32  N   UNL A   1      40.276  32.524  31.018  1.00  0.00    -0.248 NA
ATOM     33  C   UNL A   1      38.668  34.209  31.174  1.00  0.00     0.031 C 
ATOM     34  C   UNL A   1      44.331  32.751  32.806  1.00  0.00     0.029 A 
ATOM     35  C   UNL A   1      43.059  32.703  32.256  1.00  0.00     0.049 A 
ATOM     36  H   UNL A   1      42.130  31.133  31.195  1.00  0.00     0.167 HD
ATOM     37  C   UNL A   1      40.809  33.597  31.723  1.00  0.00     0.074 A 
ATOM     38  C   UNL A   1      39.785  34.620  31.761  1.00  0.00     0.031 C 
ATOM     39  C   UNL A   1      42.036  33.718  32.285  1.00  0.00     0.031 A 
BRANCH  26  40
ATOM     40  C   UNL A   1      45.661  28.763  31.630  1.00  0.00    -0.014 A 
ATOM     41  C   UNL A   1      45.840  28.044  32.823  1.00  0.00     0.009 A 
ATOM     42  C   UNL A   1      46.761  28.941  30.776  1.00  0.00     0.009 A 
ATOM     43  C   UNL A   1      47.094  27.534  33.164  1.00  0.00     0.001 A 
ATOM     44  C   UNL A   1      48.006  28.397  31.100  1.00  0.00     0.001 A 
ATOM     45  C   UNL A   1      48.174  27.706  32.300  1.00  0.00     0.000 A 
ENDBRANCH  26  40
BRANCH  27  46
ATOM     46  C   UNL A   1      36.710  32.703  29.554  1.00  0.00    -0.014 A 
ATOM     47  C   UNL A   1      35.669  32.705  30.498  1.00  0.00     0.009 A 
ATOM     48  C   UNL A   1      36.453  33.198  28.267  1.00  0.00     0.009 A 
ATOM     49  C   UNL A   1      34.393  33.152  30.150  1.00  0.00     0.001 A 
ATOM     50  C   UNL A   1      35.183  33.676  27.931  1.00  0.00     0.001 A 
ATOM     51  C   UNL A   1      34.151  33.640  28.868  1.00  0.00     0.000 A 
ENDBRANCH  27  46
BRANCH  39  52
ATOM     52  C   UNL A   1      42.378  35.006  32.986  1.00  0.00    -0.014 A 
ATOM     53  C   UNL A   1      43.133  35.983  32.312  1.00  0.00     0.009 A 
ATOM     54  C   UNL A   1      42.085  35.196  34.344  1.00  0.00     0.009 A 
ATOM     55  C   UNL A   1      43.612  37.104  32.991  1.00  0.00     0.001 A 
ATOM     56  C   UNL A   1      42.534  36.338  35.011  1.00  0.00     0.001 A 
ATOM     57  C   UNL A   1      43.310  37.282  34.338  1.00  0.00     0.000 A 
ENDBRANCH  39  52
ENDBRANCH  13  14
ENDBRANCH   6   8
ENDBRANCH   3   4
ENDBRANCH   2   3
ENDBRANCH   1   2
BRANCH   1  58
ATOM     58  C   UNL A   1      34.209  21.566  26.937  1.00  0.00     0.116 C 
BRANCH  58  59
ATOM     59  N   UNL A   1      33.602  20.314  26.490  1.00  0.00    -0.352 N 
ATOM     60  C   UNL A   1      32.643  20.118  25.524  1.00  0.00     0.251 C 
ATOM     61  H   UNL A   1      33.924  19.501  26.941  1.00  0.00     0.163 HD
ATOM     62  O   UNL A   1      32.099  19.034  25.366  1.00  0.00    -0.269 OA
BRANCH  60  63
ATOM     63  C   UNL A   1      32.272  21.265  24.683  1.00  0.00     0.041 A 
ATOM     64  C   UNL A   1      33.004  21.486  23.511  1.00  0.00     0.015 A 
ATOM     65  C   UNL A   1      31.307  22.174  25.135  1.00  0.00     0.040 A 
ATOM     66  C   UNL A   1      32.894  22.710  22.881  1.00  0.00     0.017 A 
ATOM     67  C   UNL A   1      31.194  23.395  24.479  1.00  0.00     0.056 A 
ATOM     68  C   UNL A   1      32.026  23.673  23.408  1.00  0.00     0.064 A 
ATOM     69  N   UNL A   1      30.285  24.367  24.885  1.00  0.00    -0.307 N 
ATOM     70  C   UNL A   1      32.062  25.034  22.885  1.00  0.00     0.264 A 
ATOM     71  C   UNL A   1      30.197  25.617  24.324  1.00  0.00     0.328 A 
ATOM     72  H   UNL A   1      29.667  24.145  25.619  1.00  0.00     0.171 HD
ATOM     73  O   UNL A   1      32.945  25.250  22.074  1.00  0.00    -0.268 OA
ATOM     74  N   UNL A   1      31.155  25.956  23.368  1.00  0.00    -0.260 N 
ATOM     75  O   UNL A   1      29.294  26.367  24.693  1.00  0.00    -0.248 OA
BRANCH  74  76
ATOM     76  C   UNL A   1      31.069  27.305  22.792  1.00  0.00     0.137 C 
BRANCH  76  77
ATOM     77  C   UNL A   1      31.776  28.524  23.414  1.00  0.00     0.083 C 
BRANCH  77  78
ATOM     78  C   UNL A   1      31.305  29.312  24.663  1.00  0.00     0.264 C 
BRANCH  78  79
ATOM     79  N   UNL A   1      31.663  29.005  26.040  1.00  0.00    -0.331 N 
ATOM     80  C   UNL A   1      32.039  30.118  26.901  1.00  0.00     0.291 C 
ATOM     81  C   UNL A   1      32.464  27.815  26.327  1.00  0.00     0.291 C 
ATOM     82  H   UNL A   1      30.718  28.734  26.310  1.00  0.00     0.348 HD
ATOM     83  C   UNL A   1      33.549  30.362  26.931  1.00  0.00     0.221 C 
ATOM     84  C   UNL A   1      33.972  28.067  26.454  1.00  0.00     0.221 C 
ATOM     85  O   UNL A   1      34.276  29.183  27.303  1.00  0.00    -0.370 OA
ENDBRANCH  78  79
ENDBRANCH  77  78
ENDBRANCH  76  77
ENDBRANCH  74  76
ENDBRANCH  60  63
ENDBRANCH  58  59
ENDBRANCH   1  58
TORSDOF 15
ENDMDL
