MODEL 1
REMARK VINA RESULT:     -12.2      0.000      0.000
REMARK SMILES CC(C)c1ccc2c(c1)C(=O)C[C@@H]1[C@@]2(C)CCC[C@]1(C)C(=O)NCCCCNC(=O)c1ccc(-c2c3nc(c(-c4ccccc4)c4ccc([nH]4)c(-c4ccccc4)c4nc(c(-c5ccccc5)c5ccc2[nH]5)C=C4)C=C3)cc1
REMARK SMILES IDX 26 1 25 2 24 3 23 4 21 5 22 6 19 8 4 9 5 10 9 11 6 12 8 13
REMARK SMILES IDX 7 14 10 15 14 16 12 17 11 18 13 19 16 20 15 21 17 22 18 23
REMARK SMILES IDX 20 24 2 25 1 26 3 27 27 28 28 29 29 30 30 32 31 33 32 34
REMARK SMILES IDX 78 35 33 36 77 37 34 38 35 39 36 40 71 41 37 42 76 43 70 44
REMARK SMILES IDX 72 45 38 46 75 47 69 48 68 49 39 51 61 52 46 53 60 54 47 55
REMARK SMILES IDX 50 56 59 57 73 58 48 59 49 60 58 62 74 63 51 64 40 65 41 66
REMARK SMILES IDX 45 67 42 68 44 69 43 70 62 71 63 72 67 73 64 74 66 75 65 76
REMARK SMILES IDX 52 77 53 78 57 79 54 80 56 81 55 82
REMARK H PARENT 23 7 28 31 72 50 50 61
REMARK Flexibility Score: inf
ROOT
ATOM      1  C   UNL A   1      33.065  29.895  25.776  1.00  0.00     0.023 C 
ENDROOT
BRANCH   1   2
ATOM      2  C   UNL A   1      32.682  28.692  24.917  1.00  0.00     0.023 C 
BRANCH   2   3
ATOM      3  C   UNL A   1      33.471  27.411  25.193  1.00  0.00     0.116 C 
BRANCH   3   4
ATOM      4  N   UNL A   1      32.859  26.577  26.211  1.00  0.00    -0.356 N 
ATOM      5  C   UNL A   1      31.509  26.524  26.381  1.00  0.00     0.226 C 
ATOM      6  O   UNL A   1      31.038  27.185  27.308  1.00  0.00    -0.274 OA
ATOM      7  H   UNL A   1      33.437  26.033  26.794  1.00  0.00     0.163 HD
BRANCH   5   8
ATOM      8  C   UNL A   1      30.683  25.482  25.576  1.00  0.00     0.050 C 
ATOM      9  C   UNL A   1      36.382  22.301  24.640  1.00  0.00    -0.045 A 
ATOM     10  C   UNL A   1      35.972  22.845  23.424  1.00  0.00     0.004 A 
ATOM     11  C   UNL A   1      35.463  22.299  25.695  1.00  0.00     0.016 A 
ATOM     12  C   UNL A   1      34.681  23.360  23.274  1.00  0.00     0.005 A 
ATOM     13  C   UNL A   1      34.162  22.822  25.540  1.00  0.00     0.022 A 
ATOM     14  C   UNL A   1      33.744  23.381  24.332  1.00  0.00    -0.031 A 
ATOM     15  C   UNL A   1      33.252  22.729  26.690  1.00  0.00     0.163 C 
ATOM     16  C   UNL A   1      32.317  23.910  24.102  1.00  0.00    -0.003 C 
ATOM     17  C   UNL A   1      32.065  23.640  26.740  1.00  0.00     0.086 C 
ATOM     18  O   UNL A   1      33.529  21.998  27.640  1.00  0.00    -0.294 OA
ATOM     19  C   UNL A   1      31.444  24.102  25.406  1.00  0.00     0.022 C 
ATOM     20  C   UNL A   1      32.393  25.209  23.262  1.00  0.00     0.012 C 
ATOM     21  C   UNL A   1      31.606  22.829  23.230  1.00  0.00     0.017 C 
ATOM     22  C   UNL A   1      31.077  25.925  23.032  1.00  0.00     0.002 C 
ATOM     23  C   UNL A   1      30.155  26.023  24.235  1.00  0.00     0.017 C 
ATOM     24  C   UNL A   1      29.409  25.234  26.447  1.00  0.00     0.022 C 
BRANCH   9  25
ATOM     25  C   UNL A   1      37.772  21.723  24.835  1.00  0.00     0.013 C 
ATOM     26  C   UNL A   1      38.493  22.326  26.045  1.00  0.00     0.012 C 
ATOM     27  C   UNL A   1      37.718  20.197  24.946  1.00  0.00     0.012 C 
ENDBRANCH   9  25
ENDBRANCH   5   8
ENDBRANCH   3   4
ENDBRANCH   2   3
ENDBRANCH   1   2
BRANCH   1  28
ATOM     28  C   UNL A   1      33.808  29.575  27.066  1.00  0.00     0.116 C 
BRANCH  28  29
ATOM     29  N   UNL A   1      33.859  30.691  27.999  1.00  0.00    -0.352 N 
ATOM     30  C   UNL A   1      34.879  31.069  28.842  1.00  0.00     0.251 C 
ATOM     31  H   UNL A   1      33.052  31.253  28.032  1.00  0.00     0.163 HD
ATOM     32  O   UNL A   1      34.730  31.994  29.633  1.00  0.00    -0.269 OA
BRANCH  30  33
ATOM     33  C   UNL A   1      36.140  30.305  28.813  1.00  0.00     0.039 A 
ATOM     34  C   UNL A   1      36.555  29.599  29.944  1.00  0.00     0.014 A 
ATOM     35  C   UNL A   1      36.956  30.389  27.684  1.00  0.00     0.014 A 
ATOM     36  C   UNL A   1      37.867  29.149  30.016  1.00  0.00     0.010 A 
ATOM     37  C   UNL A   1      38.244  29.853  27.728  1.00  0.00     0.010 A 
ATOM     38  C   UNL A   1      38.731  29.286  28.915  1.00  0.00    -0.014 A 
BRANCH  38  39
ATOM     39  C   UNL A   1      40.144  28.849  29.041  1.00  0.00     0.031 A 
ATOM     40  C   UNL A   1      41.167  29.729  29.708  1.00  0.00     0.074 A 
ATOM     41  C   UNL A   1      40.489  27.621  28.611  1.00  0.00     0.049 A 
ATOM     42  N   UNL A   1      42.439  29.497  29.919  1.00  0.00    -0.248 NA
ATOM     43  C   UNL A   1      40.710  31.039  30.204  1.00  0.00     0.031 C 
ATOM     44  C   UNL A   1      39.578  26.664  27.979  1.00  0.00     0.029 A 
ATOM     45  N   UNL A   1      41.685  26.952  28.671  1.00  0.00    -0.354 N 
ATOM     46  C   UNL A   1      42.934  30.631  30.550  1.00  0.00     0.074 A 
ATOM     47  C   UNL A   1      41.836  31.565  30.667  1.00  0.00     0.031 C 
ATOM     48  C   UNL A   1      40.228  25.510  27.774  1.00  0.00     0.029 A 
ATOM     49  C   UNL A   1      41.618  25.668  28.188  1.00  0.00     0.049 A 
ATOM     50  H   UNL A   1      42.511  27.353  29.027  1.00  0.00     0.167 HD
ATOM     51  C   UNL A   1      44.191  30.868  31.000  1.00  0.00     0.031 A 
ATOM     52  C   UNL A   1      42.569  24.722  28.076  1.00  0.00     0.031 A 
ATOM     53  C   UNL A   1      45.277  29.930  30.897  1.00  0.00     0.049 A 
ATOM     54  C   UNL A   1      43.965  25.031  28.532  1.00  0.00     0.074 A 
ATOM     55  C   UNL A   1      46.583  30.079  31.331  1.00  0.00     0.029 A 
ATOM     56  N   UNL A   1      45.184  28.670  30.328  1.00  0.00    -0.354 N 
ATOM     57  N   UNL A   1      44.420  26.115  29.110  1.00  0.00    -0.248 NA
ATOM     58  C   UNL A   1      44.979  23.991  28.313  1.00  0.00     0.031 C 
ATOM     59  C   UNL A   1      47.294  28.929  30.978  1.00  0.00     0.029 A 
ATOM     60  C   UNL A   1      46.416  28.040  30.379  1.00  0.00     0.049 A 
ATOM     61  H   UNL A   1      44.365  28.281  29.946  1.00  0.00     0.167 HD
ATOM     62  C   UNL A   1      45.770  25.888  29.331  1.00  0.00     0.074 A 
ATOM     63  C   UNL A   1      46.056  24.553  28.846  1.00  0.00     0.031 C 
ATOM     64  C   UNL A   1      46.689  26.715  29.885  1.00  0.00     0.031 A 
BRANCH  51  65
ATOM     65  C   UNL A   1      44.475  32.200  31.637  1.00  0.00    -0.014 A 
ATOM     66  C   UNL A   1      44.346  32.349  33.027  1.00  0.00     0.009 A 
ATOM     67  C   UNL A   1      44.776  33.330  30.859  1.00  0.00     0.009 A 
ATOM     68  C   UNL A   1      44.500  33.601  33.626  1.00  0.00     0.001 A 
ATOM     69  C   UNL A   1      44.955  34.577  31.464  1.00  0.00     0.001 A 
ATOM     70  C   UNL A   1      44.809  34.713  32.844  1.00  0.00     0.000 A 
ENDBRANCH  51  65
BRANCH  52  71
ATOM     71  C   UNL A   1      42.213  23.397  27.506  1.00  0.00    -0.014 A 
ATOM     72  C   UNL A   1      41.659  22.396  28.320  1.00  0.00     0.009 A 
ATOM     73  C   UNL A   1      42.485  23.105  26.162  1.00  0.00     0.009 A 
ATOM     74  C   UNL A   1      41.413  21.121  27.809  1.00  0.00     0.001 A 
ATOM     75  C   UNL A   1      42.209  21.837  25.645  1.00  0.00     0.001 A 
ATOM     76  C   UNL A   1      41.684  20.844  26.470  1.00  0.00     0.000 A 
ENDBRANCH  52  71
BRANCH  64  77
ATOM     77  C   UNL A   1      48.097  26.210  30.008  1.00  0.00    -0.014 A 
ATOM     78  C   UNL A   1      48.534  25.650  31.219  1.00  0.00     0.009 A 
ATOM     79  C   UNL A   1      49.016  26.375  28.961  1.00  0.00     0.009 A 
ATOM     80  C   UNL A   1      49.869  25.278  31.385  1.00  0.00     0.001 A 
ATOM     81  C   UNL A   1      50.346  25.978  29.122  1.00  0.00     0.001 A 
ATOM     82  C   UNL A   1      50.771  25.439  30.336  1.00  0.00     0.000 A 
ENDBRANCH  64  77
ENDBRANCH  38  39
ENDBRANCH  30  33
ENDBRANCH  28  29
ENDBRANCH   1  28
TORSDOF 12
ENDMDL
MODEL 2
REMARK VINA RESULT:     -12.2      2.278      6.723
REMARK SMILES CC(C)c1ccc2c(c1)C(=O)C[C@@H]1[C@@]2(C)CCC[C@]1(C)C(=O)NCCCCNC(=O)c1ccc(-c2c3nc(c(-c4ccccc4)c4ccc([nH]4)c(-c4ccccc4)c4nc(c(-c5ccccc5)c5ccc2[nH]5)C=C4)C=C3)cc1
REMARK SMILES IDX 26 1 25 2 24 3 23 4 21 5 22 6 19 8 4 9 5 10 9 11 6 12 8 13
REMARK SMILES IDX 7 14 10 15 14 16 12 17 11 18 13 19 16 20 15 21 17 22 18 23
REMARK SMILES IDX 20 24 2 25 1 26 3 27 27 28 28 29 29 30 30 32 31 33 32 34
REMARK SMILES IDX 78 35 33 36 77 37 34 38 35 39 36 40 71 41 37 42 76 43 70 44
REMARK SMILES IDX 72 45 38 46 75 47 69 48 68 49 39 51 61 52 46 53 60 54 47 55
REMARK SMILES IDX 50 56 59 57 73 58 48 59 49 60 58 62 74 63 51 64 40 65 41 66
REMARK SMILES IDX 45 67 42 68 44 69 43 70 62 71 63 72 67 73 64 74 66 75 65 76
REMARK SMILES IDX 52 77 53 78 57 79 54 80 56 81 55 82
REMARK H PARENT 23 7 28 31 72 50 50 61
REMARK Flexibility Score: inf
ROOT
ATOM      1  C   UNL A   1      31.997  30.529  26.885  1.00  0.00     0.023 C 
ENDROOT
BRANCH   1   2
ATOM      2  C   UNL A   1      32.344  29.097  27.287  1.00  0.00     0.023 C 
BRANCH   2   3
ATOM      3  C   UNL A   1      31.153  28.148  27.430  1.00  0.00     0.116 C 
BRANCH   3   4
ATOM      4  N   UNL A   1      31.438  26.805  26.960  1.00  0.00    -0.356 N 
ATOM      5  C   UNL A   1      30.588  26.138  26.132  1.00  0.00     0.226 C 
ATOM      6  O   UNL A   1      29.854  25.294  26.649  1.00  0.00    -0.274 OA
ATOM      7  H   UNL A   1      32.272  26.365  27.247  1.00  0.00     0.163 HD
BRANCH   5   8
ATOM      8  C   UNL A   1      30.746  26.297  24.593  1.00  0.00     0.050 C 
ATOM      9  C   UNL A   1      35.849  22.153  25.105  1.00  0.00    -0.045 A 
ATOM     10  C   UNL A   1      36.336  23.422  24.798  1.00  0.00     0.004 A 
ATOM     11  C   UNL A   1      34.470  21.942  24.999  1.00  0.00     0.016 A 
ATOM     12  C   UNL A   1      35.467  24.439  24.390  1.00  0.00     0.005 A 
ATOM     13  C   UNL A   1      33.596  22.972  24.590  1.00  0.00     0.022 A 
ATOM     14  C   UNL A   1      34.070  24.249  24.292  1.00  0.00    -0.031 A 
ATOM     15  C   UNL A   1      32.170  22.640  24.460  1.00  0.00     0.163 C 
ATOM     16  C   UNL A   1      33.161  25.385  23.788  1.00  0.00    -0.003 C 
ATOM     17  C   UNL A   1      31.171  23.754  24.478  1.00  0.00     0.086 C 
ATOM     18  O   UNL A   1      31.807  21.464  24.452  1.00  0.00    -0.294 OA
ATOM     19  C   UNL A   1      31.608  25.134  23.946  1.00  0.00     0.022 C 
ATOM     20  C   UNL A   1      33.602  26.713  24.451  1.00  0.00     0.012 C 
ATOM     21  C   UNL A   1      33.452  25.505  22.260  1.00  0.00     0.017 C 
ATOM     22  C   UNL A   1      32.740  27.922  24.146  1.00  0.00     0.002 C 
ATOM     23  C   UNL A   1      31.240  27.691  24.169  1.00  0.00     0.017 C 
ATOM     24  C   UNL A   1      29.289  26.192  24.036  1.00  0.00     0.022 C 
BRANCH   9  25
ATOM     25  C   UNL A   1      36.765  21.022  25.539  1.00  0.00     0.013 C 
ATOM     26  C   UNL A   1      36.481  19.718  24.786  1.00  0.00     0.012 C 
ATOM     27  C   UNL A   1      38.235  21.422  25.388  1.00  0.00     0.012 C 
ENDBRANCH   9  25
ENDBRANCH   5   8
ENDBRANCH   3   4
ENDBRANCH   2   3
ENDBRANCH   1   2
BRANCH   1  28
ATOM     28  C   UNL A   1      33.095  31.560  27.107  1.00  0.00     0.116 C 
BRANCH  28  29
ATOM     29  N   UNL A   1      32.589  32.887  27.426  1.00  0.00    -0.352 N 
ATOM     30  C   UNL A   1      33.145  33.856  28.230  1.00  0.00     0.251 C 
ATOM     31  H   UNL A   1      31.730  33.126  27.009  1.00  0.00     0.163 HD
ATOM     32  O   UNL A   1      32.546  34.899  28.464  1.00  0.00    -0.269 OA
BRANCH  30  33
ATOM     33  C   UNL A   1      34.457  33.593  28.850  1.00  0.00     0.039 A 
ATOM     34  C   UNL A   1      35.631  33.913  28.165  1.00  0.00     0.014 A 
ATOM     35  C   UNL A   1      34.504  32.924  30.074  1.00  0.00     0.014 A 
ATOM     36  C   UNL A   1      36.838  33.388  28.609  1.00  0.00     0.010 A 
ATOM     37  C   UNL A   1      35.733  32.476  30.564  1.00  0.00     0.010 A 
ATOM     38  C   UNL A   1      36.899  32.650  29.804  1.00  0.00    -0.014 A 
BRANCH  38  39
ATOM     39  C   UNL A   1      38.191  32.050  30.223  1.00  0.00     0.031 A 
ATOM     40  C   UNL A   1      38.655  30.738  29.648  1.00  0.00     0.074 A 
ATOM     41  C   UNL A   1      38.981  32.729  31.076  1.00  0.00     0.049 A 
ATOM     42  N   UNL A   1      39.763  30.082  29.888  1.00  0.00    -0.248 NA
ATOM     43  C   UNL A   1      37.767  30.074  28.678  1.00  0.00     0.031 C 
ATOM     44  C   UNL A   1      38.654  34.026  31.674  1.00  0.00     0.029 A 
ATOM     45  N   UNL A   1      40.232  32.445  31.560  1.00  0.00    -0.354 N 
ATOM     46  C   UNL A   1      39.695  28.925  29.120  1.00  0.00     0.074 A 
ATOM     47  C   UNL A   1      38.429  28.953  28.424  1.00  0.00     0.031 C 
ATOM     48  C   UNL A   1      39.703  34.456  32.387  1.00  0.00     0.029 A 
ATOM     49  C   UNL A   1      40.746  33.436  32.360  1.00  0.00     0.049 A 
ATOM     50  H   UNL A   1      40.715  31.612  31.354  1.00  0.00     0.167 HD
ATOM     51  C   UNL A   1      40.613  27.936  29.000  1.00  0.00     0.031 A 
ATOM     52  C   UNL A   1      41.921  33.515  33.014  1.00  0.00     0.031 A 
ATOM     53  C   UNL A   1      41.880  27.920  29.682  1.00  0.00     0.049 A 
ATOM     54  C   UNL A   1      42.895  32.379  32.906  1.00  0.00     0.074 A 
ATOM     55  C   UNL A   1      42.878  26.962  29.616  1.00  0.00     0.029 A 
ATOM     56  N   UNL A   1      42.327  28.907  30.546  1.00  0.00    -0.354 N 
ATOM     57  N   UNL A   1      42.806  31.285  32.190  1.00  0.00    -0.248 NA
ATOM     58  C   UNL A   1      44.124  32.484  33.704  1.00  0.00     0.031 C 
ATOM     59  C   UNL A   1      43.907  27.344  30.480  1.00  0.00     0.029 A 
ATOM     60  C   UNL A   1      43.576  28.569  31.037  1.00  0.00     0.049 A 
ATOM     61  H   UNL A   1      41.832  29.725  30.774  1.00  0.00     0.167 HD
ATOM     62  C   UNL A   1      43.971  30.574  32.442  1.00  0.00     0.074 A 
ATOM     63  C   UNL A   1      44.759  31.369  33.360  1.00  0.00     0.031 C 
ATOM     64  C   UNL A   1      44.347  29.366  31.957  1.00  0.00     0.031 A 
BRANCH  51  65
ATOM     65  C   UNL A   1      40.284  26.770  28.108  1.00  0.00    -0.014 A 
ATOM     66  C   UNL A   1      39.539  25.694  28.616  1.00  0.00     0.009 A 
ATOM     67  C   UNL A   1      40.790  26.688  26.801  1.00  0.00     0.009 A 
ATOM     68  C   UNL A   1      39.315  24.555  27.840  1.00  0.00     0.001 A 
ATOM     69  C   UNL A   1      40.541  25.558  26.018  1.00  0.00     0.001 A 
ATOM     70  C   UNL A   1      39.813  24.490  26.540  1.00  0.00     0.000 A 
ENDBRANCH  51  65
BRANCH  52  71
ATOM     71  C   UNL A   1      42.222  34.724  33.823  1.00  0.00    -0.014 A 
ATOM     72  C   UNL A   1      41.863  34.781  35.179  1.00  0.00     0.009 A 
ATOM     73  C   UNL A   1      42.811  35.849  33.228  1.00  0.00     0.009 A 
ATOM     74  C   UNL A   1      42.059  35.950  35.917  1.00  0.00     0.001 A 
ATOM     75  C   UNL A   1      43.034  37.007  33.977  1.00  0.00     0.001 A 
ATOM     76  C   UNL A   1      42.649  37.061  35.316  1.00  0.00     0.000 A 
ENDBRANCH  52  71
BRANCH  64  77
ATOM     77  C   UNL A   1      45.675  28.821  32.396  1.00  0.00    -0.014 A 
ATOM     78  C   UNL A   1      46.823  29.082  31.633  1.00  0.00     0.009 A 
ATOM     79  C   UNL A   1      45.773  27.973  33.510  1.00  0.00     0.009 A 
ATOM     80  C   UNL A   1      48.043  28.492  31.966  1.00  0.00     0.001 A 
ATOM     81  C   UNL A   1      47.001  27.405  33.857  1.00  0.00     0.001 A 
ATOM     82  C   UNL A   1      48.131  27.657  33.079  1.00  0.00     0.000 A 
ENDBRANCH  64  77
ENDBRANCH  38  39
ENDBRANCH  30  33
ENDBRANCH  28  29
ENDBRANCH   1  28
TORSDOF 12
ENDMDL
MODEL 3
REMARK VINA RESULT:     -12.1      2.292      3.488
REMARK SMILES CC(C)c1ccc2c(c1)C(=O)C[C@@H]1[C@@]2(C)CCC[C@]1(C)C(=O)NCCCCNC(=O)c1ccc(-c2c3nc(c(-c4ccccc4)c4ccc([nH]4)c(-c4ccccc4)c4nc(c(-c5ccccc5)c5ccc2[nH]5)C=C4)C=C3)cc1
REMARK SMILES IDX 26 1 25 2 24 3 23 4 21 5 22 6 19 8 4 9 5 10 9 11 6 12 8 13
REMARK SMILES IDX 7 14 10 15 14 16 12 17 11 18 13 19 16 20 15 21 17 22 18 23
REMARK SMILES IDX 20 24 2 25 1 26 3 27 27 28 28 29 29 30 30 32 31 33 32 34
REMARK SMILES IDX 78 35 33 36 77 37 34 38 35 39 36 40 71 41 37 42 76 43 70 44
REMARK SMILES IDX 72 45 38 46 75 47 69 48 68 49 39 51 61 52 46 53 60 54 47 55
REMARK SMILES IDX 50 56 59 57 73 58 48 59 49 60 58 62 74 63 51 64 40 65 41 66
REMARK SMILES IDX 45 67 42 68 44 69 43 70 62 71 63 72 67 73 64 74 66 75 65 76
REMARK SMILES IDX 52 77 53 78 57 79 54 80 56 81 55 82
REMARK H PARENT 23 7 28 31 72 50 50 61
REMARK Flexibility Score: inf
ROOT
ATOM      1  C   UNL A   1      31.959  30.503  26.665  1.00  0.00     0.023 C 
ENDROOT
BRANCH   1   2
ATOM      2  C   UNL A   1      32.005  29.062  27.172  1.00  0.00     0.023 C 
BRANCH   2   3
ATOM      3  C   UNL A   1      32.944  28.128  26.408  1.00  0.00     0.116 C 
BRANCH   3   4
ATOM      4  N   UNL A   1      32.448  26.766  26.328  1.00  0.00    -0.356 N 
ATOM      5  C   UNL A   1      31.185  26.486  25.901  1.00  0.00     0.226 C 
ATOM      6  O   UNL A   1      30.345  26.242  26.769  1.00  0.00    -0.274 OA
ATOM      7  H   UNL A   1      33.041  26.025  26.589  1.00  0.00     0.163 HD
BRANCH   5   8
ATOM      8  C   UNL A   1      30.930  26.260  24.385  1.00  0.00     0.050 C 
ATOM      9  C   UNL A   1      35.514  21.534  24.738  1.00  0.00    -0.045 A 
ATOM     10  C   UNL A   1      36.028  22.597  23.998  1.00  0.00     0.004 A 
ATOM     11  C   UNL A   1      34.145  21.542  25.026  1.00  0.00     0.016 A 
ATOM     12  C   UNL A   1      35.192  23.627  23.556  1.00  0.00     0.005 A 
ATOM     13  C   UNL A   1      33.305  22.585  24.580  1.00  0.00     0.022 A 
ATOM     14  C   UNL A   1      33.810  23.661  23.849  1.00  0.00    -0.031 A 
ATOM     15  C   UNL A   1      31.872  22.481  24.888  1.00  0.00     0.163 C 
ATOM     16  C   UNL A   1      32.921  24.790  23.296  1.00  0.00    -0.003 C 
ATOM     17  C   UNL A   1      31.038  23.724  24.850  1.00  0.00     0.086 C 
ATOM     18  O   UNL A   1      31.400  21.414  25.280  1.00  0.00    -0.294 OA
ATOM     19  C   UNL A   1      31.454  24.851  23.882  1.00  0.00     0.022 C 
ATOM     20  C   UNL A   1      33.664  26.139  23.457  1.00  0.00     0.012 C 
ATOM     21  C   UNL A   1      32.791  24.506  21.767  1.00  0.00     0.017 C 
ATOM     22  C   UNL A   1      32.883  27.375  23.058  1.00  0.00     0.002 C 
ATOM     23  C   UNL A   1      31.431  27.415  23.500  1.00  0.00     0.017 C 
ATOM     24  C   UNL A   1      29.373  26.281  24.242  1.00  0.00     0.022 C 
BRANCH   9  25
ATOM     25  C   UNL A   1      36.390  20.393  25.223  1.00  0.00     0.013 C 
ATOM     26  C   UNL A   1      35.963  19.040  24.644  1.00  0.00     0.012 C 
ATOM     27  C   UNL A   1      37.864  20.668  24.916  1.00  0.00     0.012 C 
ENDBRANCH   9  25
ENDBRANCH   5   8
ENDBRANCH   3   4
ENDBRANCH   2   3
ENDBRANCH   1   2
BRANCH   1  28
ATOM     28  C   UNL A   1      33.022  31.435  27.230  1.00  0.00     0.116 C 
BRANCH  28  29
ATOM     29  N   UNL A   1      32.524  32.769  27.530  1.00  0.00    -0.352 N 
ATOM     30  C   UNL A   1      33.113  33.767  28.272  1.00  0.00     0.251 C 
ATOM     31  H   UNL A   1      31.644  32.989  27.149  1.00  0.00     0.163 HD
ATOM     32  O   UNL A   1      32.520  34.815  28.501  1.00  0.00    -0.269 OA
BRANCH  30  33
ATOM     33  C   UNL A   1      34.457  33.531  28.833  1.00  0.00     0.039 A 
ATOM     34  C   UNL A   1      35.592  33.887  28.103  1.00  0.00     0.014 A 
ATOM     35  C   UNL A   1      34.572  32.854  30.048  1.00  0.00     0.014 A 
ATOM     36  C   UNL A   1      36.829  33.387  28.490  1.00  0.00     0.010 A 
ATOM     37  C   UNL A   1      35.831  32.432  30.481  1.00  0.00     0.010 A 
ATOM     38  C   UNL A   1      36.959  32.641  29.674  1.00  0.00    -0.014 A 
BRANCH  38  39
ATOM     39  C   UNL A   1      38.282  32.070  30.032  1.00  0.00     0.031 A 
ATOM     40  C   UNL A   1      39.177  32.759  31.028  1.00  0.00     0.074 A 
ATOM     41  C   UNL A   1      38.648  30.886  29.504  1.00  0.00     0.049 A 
ATOM     42  N   UNL A   1      40.354  32.391  31.469  1.00  0.00    -0.248 NA
ATOM     43  C   UNL A   1      38.692  34.024  31.607  1.00  0.00     0.031 C 
ATOM     44  C   UNL A   1      37.850  30.107  28.554  1.00  0.00     0.029 A 
ATOM     45  N   UNL A   1      39.761  30.115  29.717  1.00  0.00    -0.354 N 
ATOM     46  C   UNL A   1      40.757  33.382  32.355  1.00  0.00     0.074 A 
ATOM     47  C   UNL A   1      39.713  34.382  32.375  1.00  0.00     0.031 C 
ATOM     48  C   UNL A   1      38.465  28.940  28.320  1.00  0.00     0.029 A 
ATOM     49  C   UNL A   1      39.734  28.919  29.042  1.00  0.00     0.049 A 
ATOM     50  H   UNL A   1      40.507  30.390  30.298  1.00  0.00     0.167 HD
ATOM     51  C   UNL A   1      41.891  33.445  33.094  1.00  0.00     0.031 A 
ATOM     52  C   UNL A   1      40.632  27.918  28.993  1.00  0.00     0.031 A 
ATOM     53  C   UNL A   1      42.920  32.439  33.084  1.00  0.00     0.049 A 
ATOM     54  C   UNL A   1      41.905  28.039  29.779  1.00  0.00     0.074 A 
ATOM     55  C   UNL A   1      44.101  32.413  33.806  1.00  0.00     0.029 A 
ATOM     56  N   UNL A   1      42.888  31.281  32.324  1.00  0.00    -0.354 N 
ATOM     57  N   UNL A   1      42.277  28.992  30.598  1.00  0.00    -0.248 NA
ATOM     58  C   UNL A   1      42.884  26.954  29.626  1.00  0.00     0.031 C 
ATOM     59  C   UNL A   1      44.809  31.265  33.443  1.00  0.00     0.029 A 
ATOM     60  C   UNL A   1      44.040  30.546  32.542  1.00  0.00     0.049 A 
ATOM     61  H   UNL A   1      42.156  31.020  31.721  1.00  0.00     0.167 HD
ATOM     62  C   UNL A   1      43.529  28.619  31.066  1.00  0.00     0.074 A 
ATOM     63  C   UNL A   1      43.844  27.344  30.456  1.00  0.00     0.031 C 
ATOM     64  C   UNL A   1      44.345  29.281  31.922  1.00  0.00     0.031 A 
BRANCH  51  65
ATOM     65  C   UNL A   1      42.098  34.649  33.971  1.00  0.00    -0.014 A 
ATOM     66  C   UNL A   1      41.604  34.645  35.286  1.00  0.00     0.009 A 
ATOM     67  C   UNL A   1      42.693  35.819  33.474  1.00  0.00     0.009 A 
ATOM     68  C   UNL A   1      41.690  35.789  36.081  1.00  0.00     0.001 A 
ATOM     69  C   UNL A   1      42.801  36.955  34.281  1.00  0.00     0.001 A 
ATOM     70  C   UNL A   1      42.292  36.942  35.579  1.00  0.00     0.000 A 
ENDBRANCH  51  65
BRANCH  52  71
ATOM     71  C   UNL A   1      40.342  26.719  28.166  1.00  0.00    -0.014 A 
ATOM     72  C   UNL A   1      40.789  26.645  26.836  1.00  0.00     0.009 A 
ATOM     73  C   UNL A   1      39.562  25.673  28.678  1.00  0.00     0.009 A 
ATOM     74  C   UNL A   1      40.437  25.563  26.027  1.00  0.00     0.001 A 
ATOM     75  C   UNL A   1      39.236  24.577  27.876  1.00  0.00     0.001 A 
ATOM     76  C   UNL A   1      39.664  24.528  26.550  1.00  0.00     0.000 A 
ENDBRANCH  52  71
BRANCH  64  77
ATOM     77  C   UNL A   1      45.660  28.643  32.266  1.00  0.00    -0.014 A 
ATOM     78  C   UNL A   1      45.754  27.799  33.383  1.00  0.00     0.009 A 
ATOM     79  C   UNL A   1      46.821  28.953  31.543  1.00  0.00     0.009 A 
ATOM     80  C   UNL A   1      46.991  27.289  33.780  1.00  0.00     0.001 A 
ATOM     81  C   UNL A   1      48.053  28.419  31.927  1.00  0.00     0.001 A 
ATOM     82  C   UNL A   1      48.137  27.596  33.050  1.00  0.00     0.000 A 
ENDBRANCH  64  77
ENDBRANCH  38  39
ENDBRANCH  30  33
ENDBRANCH  28  29
ENDBRANCH   1  28
TORSDOF 12
ENDMDL
