MODEL 1
REMARK VINA RESULT:     -11.3      0.000      0.000
REMARK SMILES O=C(Nc1nc(C2CC2)cs1)N[C@@H]1C=C[C@@H](C(=O)NCCCCNC(=O)c2ccc(-c3c4nc(c(-c5ccccc5)c5ccc([nH]5)c(-c5ccccc5)c5nc(c(-c6ccccc6)c6ccc3[nH]6)C=C5)C=C4)cc2)C1
REMARK SMILES IDX 21 1 20 2 19 3 17 4 18 5 16 7 13 8 14 9 75 10 15 11 12 12
REMARK SMILES IDX 1 13 2 14 3 15 4 18 5 19 11 20 6 21 10 22 7 23 8 24 9 25
REMARK SMILES IDX 22 26 23 27 24 28 25 29 26 31 27 32 28 33 74 34 29 35 73 36
REMARK SMILES IDX 30 37 31 38 32 39 67 40 33 41 72 42 66 43 68 44 34 45 71 46
REMARK SMILES IDX 65 47 64 48 35 50 57 51 42 52 56 53 43 54 46 55 55 56 69 57
REMARK SMILES IDX 44 58 45 59 54 61 70 62 47 63 36 64 37 65 41 66 38 67 40 68
REMARK SMILES IDX 39 69 58 70 59 71 63 72 60 73 62 74 61 75 48 76 49 77 53 78
REMARK SMILES IDX 50 79 52 80 51 81
REMARK H PARENT 19 6 3 16 12 17 24 30 68 49 46 60
REMARK Flexibility Score: inf
ROOT
ATOM      1  C   UNL A   1      35.661  21.831  26.353  1.00  0.00     0.023 C 
ENDROOT
BRANCH   1   2
ATOM      2  C   UNL A   1      34.379  21.606  27.151  1.00  0.00     0.116 C 
BRANCH   2   3
ATOM      3  N   UNL A   1      33.372  20.912  26.374  1.00  0.00    -0.356 N 
ATOM      4  C   UNL A   1      32.447  21.380  25.492  1.00  0.00     0.227 C 
ATOM      5  O   UNL A   1      31.730  20.542  24.934  1.00  0.00    -0.274 OA
ATOM      6  H   UNL A   1      33.352  19.937  26.508  1.00  0.00     0.163 HD
BRANCH   4   7
ATOM      7  C   UNL A   1      32.282  22.868  25.171  1.00  0.00     0.103 C 
ATOM      8  C   UNL A   1      32.238  24.082  23.021  1.00  0.00     0.107 C 
ATOM      9  C   UNL A   1      30.872  23.904  23.609  1.00  0.00    -0.006 C 
ATOM     10  C   UNL A   1      33.169  23.390  24.031  1.00  0.00     0.047 C 
ATOM     11  C   UNL A   1      30.889  23.238  24.767  1.00  0.00    -0.016 C 
BRANCH   8  12
ATOM     12  N   UNL A   1      32.496  25.490  22.916  1.00  0.00    -0.332 N 
ATOM     13  O   UNL A   1      33.172  25.483  20.738  1.00  0.00    -0.248 OA
ATOM     14  C   UNL A   1      32.880  26.101  21.759  1.00  0.00     0.321 C 
ATOM     15  N   UNL A   1      32.812  27.462  21.736  1.00  0.00    -0.284 N 
ATOM     16  H   UNL A   1      32.972  27.912  20.874  1.00  0.00     0.174 HD
ATOM     17  H   UNL A   1      32.389  26.045  23.722  1.00  0.00     0.165 HD
BRANCH  15  18
ATOM     18  C   UNL A   1      32.541  28.246  22.817  1.00  0.00     0.191 A 
ATOM     19  N   UNL A   1      33.336  28.521  23.822  1.00  0.00    -0.225 NA
ATOM     20  S   UNL A   1      30.963  28.882  22.888  1.00  0.00    -0.105 S 
ATOM     21  C   UNL A   1      32.642  29.268  24.750  1.00  0.00     0.057 A 
ATOM     22  C   UNL A   1      31.310  29.483  24.463  1.00  0.00     0.092 A 
BRANCH  21  23
ATOM     23  C   UNL A   1      33.313  29.820  26.000  1.00  0.00     0.039 C 
ATOM     24  C   UNL A   1      33.021  29.173  27.338  1.00  0.00     0.011 C 
ATOM     25  C   UNL A   1      34.342  28.944  26.683  1.00  0.00     0.011 C 
ENDBRANCH  21  23
ENDBRANCH  15  18
ENDBRANCH   8  12
ENDBRANCH   4   7
ENDBRANCH   2   3
ENDBRANCH   1   2
BRANCH   1  26
ATOM     26  C   UNL A   1      36.007  23.300  26.117  1.00  0.00     0.023 C 
BRANCH  26  27
ATOM     27  C   UNL A   1      37.187  23.540  25.183  1.00  0.00     0.116 C 
BRANCH  27  28
ATOM     28  N   UNL A   1      38.317  22.663  25.455  1.00  0.00    -0.352 N 
ATOM     29  C   UNL A   1      39.482  22.937  26.127  1.00  0.00     0.251 C 
ATOM     30  H   UNL A   1      38.233  21.745  25.109  1.00  0.00     0.163 HD
ATOM     31  O   UNL A   1      40.393  22.115  26.150  1.00  0.00    -0.269 OA
BRANCH  29  32
ATOM     32  C   UNL A   1      39.649  24.244  26.796  1.00  0.00     0.039 A 
ATOM     33  C   UNL A   1      39.120  24.416  28.077  1.00  0.00     0.014 A 
ATOM     34  C   UNL A   1      40.343  25.284  26.173  1.00  0.00     0.014 A 
ATOM     35  C   UNL A   1      39.344  25.613  28.759  1.00  0.00     0.010 A 
ATOM     36  C   UNL A   1      40.637  26.442  26.886  1.00  0.00     0.010 A 
ATOM     37  C   UNL A   1      40.136  26.621  28.184  1.00  0.00    -0.014 A 
BRANCH  37  38
ATOM     38  C   UNL A   1      40.446  27.869  28.925  1.00  0.00     0.031 A 
ATOM     39  C   UNL A   1      41.764  28.021  29.634  1.00  0.00     0.074 A 
ATOM     40  C   UNL A   1      39.521  28.846  29.005  1.00  0.00     0.049 A 
ATOM     41  N   UNL A   1      42.202  29.020  30.357  1.00  0.00    -0.248 NA
ATOM     42  C   UNL A   1      42.704  26.893  29.538  1.00  0.00     0.031 C 
ATOM     43  C   UNL A   1      38.188  28.805  28.398  1.00  0.00     0.029 A 
ATOM     44  N   UNL A   1      39.563  30.066  29.632  1.00  0.00    -0.354 N 
ATOM     45  C   UNL A   1      43.457  28.636  30.812  1.00  0.00     0.074 A 
ATOM     46  C   UNL A   1      43.686  27.290  30.332  1.00  0.00     0.031 C 
ATOM     47  C   UNL A   1      37.555  29.962  28.654  1.00  0.00     0.029 A 
ATOM     48  C   UNL A   1      38.416  30.806  29.475  1.00  0.00     0.049 A 
ATOM     49  H   UNL A   1      40.341  30.382  30.144  1.00  0.00     0.167 HD
ATOM     50  C   UNL A   1      44.349  29.343  31.544  1.00  0.00     0.031 A 
ATOM     51  C   UNL A   1      38.092  32.025  29.943  1.00  0.00     0.031 A 
ATOM     52  C   UNL A   1      44.124  30.683  32.017  1.00  0.00     0.049 A 
ATOM     53  C   UNL A   1      39.092  32.784  30.771  1.00  0.00     0.074 A 
ATOM     54  C   UNL A   1      44.986  31.505  32.722  1.00  0.00     0.029 A 
ATOM     55  N   UNL A   1      42.948  31.396  31.837  1.00  0.00    -0.354 N 
ATOM     56  N   UNL A   1      40.303  32.433  31.130  1.00  0.00    -0.248 NA
ATOM     57  C   UNL A   1      38.683  34.114  31.244  1.00  0.00     0.031 C 
ATOM     58  C   UNL A   1      44.311  32.693  33.019  1.00  0.00     0.029 A 
ATOM     59  C   UNL A   1      43.053  32.639  32.441  1.00  0.00     0.049 A 
ATOM     60  H   UNL A   1      42.157  31.068  31.353  1.00  0.00     0.167 HD
ATOM     61  C   UNL A   1      40.812  33.512  31.844  1.00  0.00     0.074 A 
ATOM     62  C   UNL A   1      39.785  34.533  31.850  1.00  0.00     0.031 C 
ATOM     63  C   UNL A   1      42.022  33.645  32.440  1.00  0.00     0.031 A 
BRANCH  50  64
ATOM     64  C   UNL A   1      45.652  28.673  31.884  1.00  0.00    -0.014 A 
ATOM     65  C   UNL A   1      45.797  27.910  33.054  1.00  0.00     0.009 A 
ATOM     66  C   UNL A   1      46.742  28.779  31.006  1.00  0.00     0.009 A 
ATOM     67  C   UNL A   1      47.018  27.303  33.359  1.00  0.00     0.001 A 
ATOM     68  C   UNL A   1      47.952  28.144  31.297  1.00  0.00     0.001 A 
ATOM     69  C   UNL A   1      48.091  27.416  32.477  1.00  0.00     0.000 A 
ENDBRANCH  50  64
BRANCH  51  70
ATOM     70  C   UNL A   1      36.765  32.619  29.628  1.00  0.00    -0.014 A 
ATOM     71  C   UNL A   1      36.531  33.224  28.383  1.00  0.00     0.009 A 
ATOM     72  C   UNL A   1      35.728  32.594  30.573  1.00  0.00     0.009 A 
ATOM     73  C   UNL A   1      35.300  33.821  28.104  1.00  0.00     0.001 A 
ATOM     74  C   UNL A   1      34.486  33.163  30.280  1.00  0.00     0.001 A 
ATOM     75  C   UNL A   1      34.277  33.786  29.051  1.00  0.00     0.000 A 
ENDBRANCH  51  70
BRANCH  63  76
ATOM     76  C   UNL A   1      42.318  34.957  33.111  1.00  0.00    -0.014 A 
ATOM     77  C   UNL A   1      43.107  35.938  32.491  1.00  0.00     0.009 A 
ATOM     78  C   UNL A   1      41.767  35.227  34.374  1.00  0.00     0.009 A 
ATOM     79  C   UNL A   1      43.371  37.145  33.140  1.00  0.00     0.001 A 
ATOM     80  C   UNL A   1      42.005  36.448  35.006  1.00  0.00     0.001 A 
ATOM     81  C   UNL A   1      42.815  37.401  34.393  1.00  0.00     0.000 A 
ENDBRANCH  63  76
ENDBRANCH  37  38
ENDBRANCH  29  32
ENDBRANCH  27  28
ENDBRANCH  26  27
ENDBRANCH   1  26
TORSDOF 14
ENDMDL
MODEL 2
REMARK VINA RESULT:     -11.3      2.377      3.658
REMARK SMILES O=C(Nc1nc(C2CC2)cs1)N[C@@H]1C=C[C@@H](C(=O)NCCCCNC(=O)c2ccc(-c3c4nc(c(-c5ccccc5)c5ccc([nH]5)c(-c5ccccc5)c5nc(c(-c6ccccc6)c6ccc3[nH]6)C=C5)C=C4)cc2)C1
REMARK SMILES IDX 21 1 20 2 19 3 17 4 18 5 16 7 13 8 14 9 75 10 15 11 12 12
REMARK SMILES IDX 1 13 2 14 3 15 4 18 5 19 11 20 6 21 10 22 7 23 8 24 9 25
REMARK SMILES IDX 22 26 23 27 24 28 25 29 26 31 27 32 28 33 74 34 29 35 73 36
REMARK SMILES IDX 30 37 31 38 32 39 67 40 33 41 72 42 66 43 68 44 34 45 71 46
REMARK SMILES IDX 65 47 64 48 35 50 57 51 42 52 56 53 43 54 46 55 55 56 69 57
REMARK SMILES IDX 44 58 45 59 54 61 70 62 47 63 36 64 37 65 41 66 38 67 40 68
REMARK SMILES IDX 39 69 58 70 59 71 63 72 60 73 62 74 61 75 48 76 49 77 53 78
REMARK SMILES IDX 50 79 52 80 51 81
REMARK H PARENT 19 6 3 16 12 17 24 30 68 49 46 60
REMARK Flexibility Score: inf
ROOT
ATOM      1  C   UNL A   1      36.776  20.934  24.621  1.00  0.00     0.023 C 
ENDROOT
BRANCH   1   2
ATOM      2  C   UNL A   1      35.645  21.151  25.621  1.00  0.00     0.116 C 
BRANCH   2   3
ATOM      3  N   UNL A   1      34.429  20.471  25.222  1.00  0.00    -0.356 N 
ATOM      4  C   UNL A   1      33.235  20.960  24.790  1.00  0.00     0.227 C 
ATOM      5  O   UNL A   1      32.372  20.134  24.473  1.00  0.00    -0.274 OA
ATOM      6  H   UNL A   1      34.474  19.489  25.274  1.00  0.00     0.163 HD
BRANCH   4   7
ATOM      7  C   UNL A   1      32.941  22.459  24.676  1.00  0.00     0.103 C 
ATOM      8  C   UNL A   1      32.278  23.854  22.751  1.00  0.00     0.107 C 
ATOM      9  C   UNL A   1      31.129  23.546  23.660  1.00  0.00    -0.006 C 
ATOM     10  C   UNL A   1      33.469  23.130  23.400  1.00  0.00     0.047 C 
ATOM     11  C   UNL A   1      31.480  22.781  24.698  1.00  0.00    -0.016 C 
BRANCH   8  12
ATOM     12  N   UNL A   1      32.453  25.278  22.723  1.00  0.00    -0.332 N 
ATOM     13  O   UNL A   1      33.278  25.413  20.602  1.00  0.00    -0.248 OA
ATOM     14  C   UNL A   1      32.876  25.964  21.624  1.00  0.00     0.321 C 
ATOM     15  N   UNL A   1      32.724  27.318  21.653  1.00  0.00    -0.284 N 
ATOM     16  H   UNL A   1      32.915  27.816  20.825  1.00  0.00     0.174 HD
ATOM     17  H   UNL A   1      32.254  25.787  23.542  1.00  0.00     0.165 HD
BRANCH  15  18
ATOM     18  C   UNL A   1      32.328  28.034  22.743  1.00  0.00     0.191 A 
ATOM     19  N   UNL A   1      32.976  28.190  23.872  1.00  0.00    -0.225 NA
ATOM     20  S   UNL A   1      30.786  28.747  22.636  1.00  0.00    -0.105 S 
ATOM     21  C   UNL A   1      32.184  28.902  24.747  1.00  0.00     0.057 A 
ATOM     22  C   UNL A   1      30.919  29.210  24.288  1.00  0.00     0.092 A 
BRANCH  21  23
ATOM     23  C   UNL A   1      32.684  29.323  26.121  1.00  0.00     0.039 C 
ATOM     24  C   UNL A   1      32.250  28.530  27.336  1.00  0.00     0.011 C 
ATOM     25  C   UNL A   1      33.646  28.392  26.828  1.00  0.00     0.011 C 
ENDBRANCH  21  23
ENDBRANCH  15  18
ENDBRANCH   8  12
ENDBRANCH   4   7
ENDBRANCH   2   3
ENDBRANCH   1   2
BRANCH   1  26
ATOM     26  C   UNL A   1      37.777  19.853  25.025  1.00  0.00     0.023 C 
BRANCH  26  27
ATOM     27  C   UNL A   1      39.022  20.365  25.739  1.00  0.00     0.116 C 
BRANCH  27  28
ATOM     28  N   UNL A   1      40.099  19.386  25.779  1.00  0.00    -0.352 N 
ATOM     29  C   UNL A   1      41.423  19.570  26.093  1.00  0.00     0.251 C 
ATOM     30  H   UNL A   1      39.842  18.463  25.550  1.00  0.00     0.163 HD
ATOM     31  O   UNL A   1      42.227  18.655  25.947  1.00  0.00    -0.269 OA
BRANCH  29  32
ATOM     32  C   UNL A   1      41.882  20.887  26.577  1.00  0.00     0.039 A 
ATOM     33  C   UNL A   1      42.304  21.838  25.645  1.00  0.00     0.014 A 
ATOM     34  C   UNL A   1      41.874  21.192  27.941  1.00  0.00     0.014 A 
ATOM     35  C   UNL A   1      42.658  23.117  26.077  1.00  0.00     0.010 A 
ATOM     36  C   UNL A   1      42.145  22.491  28.360  1.00  0.00     0.010 A 
ATOM     37  C   UNL A   1      42.546  23.465  27.433  1.00  0.00    -0.014 A 
BRANCH  37  38
ATOM     38  C   UNL A   1      42.846  24.842  27.899  1.00  0.00     0.031 A 
ATOM     39  C   UNL A   1      44.266  25.256  28.172  1.00  0.00     0.074 A 
ATOM     40  C   UNL A   1      41.836  25.704  28.129  1.00  0.00     0.049 A 
ATOM     41  N   UNL A   1      44.721  26.401  28.614  1.00  0.00    -0.248 NA
ATOM     42  C   UNL A   1      45.310  24.244  27.941  1.00  0.00     0.031 C 
ATOM     43  C   UNL A   1      40.412  25.413  27.945  1.00  0.00     0.029 A 
ATOM     44  N   UNL A   1      41.855  27.004  28.568  1.00  0.00    -0.354 N 
ATOM     45  C   UNL A   1      46.097  26.242  28.727  1.00  0.00     0.074 A 
ATOM     46  C   UNL A   1      46.396  24.874  28.363  1.00  0.00     0.031 C 
ATOM     47  C   UNL A   1      39.699  26.513  28.235  1.00  0.00     0.029 A 
ATOM     48  C   UNL A   1      40.607  27.570  28.666  1.00  0.00     0.049 A 
ATOM     49  H   UNL A   1      42.683  27.485  28.792  1.00  0.00     0.167 HD
ATOM     50  C   UNL A   1      47.031  27.156  29.079  1.00  0.00     0.031 A 
ATOM     51  C   UNL A   1      40.234  28.802  29.060  1.00  0.00     0.031 A 
ATOM     52  C   UNL A   1      46.736  28.517  29.436  1.00  0.00     0.049 A 
ATOM     53  C   UNL A   1      41.290  29.794  29.466  1.00  0.00     0.074 A 
ATOM     54  C   UNL A   1      47.618  29.535  29.758  1.00  0.00     0.029 A 
ATOM     55  N   UNL A   1      45.459  29.051  29.522  1.00  0.00    -0.354 N 
ATOM     56  N   UNL A   1      42.592  29.648  29.497  1.00  0.00    -0.248 NA
ATOM     57  C   UNL A   1      40.822  31.124  29.877  1.00  0.00     0.031 C 
ATOM     58  C   UNL A   1      46.870  30.668  30.095  1.00  0.00     0.029 A 
ATOM     59  C   UNL A   1      45.527  30.377  29.918  1.00  0.00     0.049 A 
ATOM     60  H   UNL A   1      44.628  28.561  29.331  1.00  0.00     0.167 HD
ATOM     61  C   UNL A   1      43.100  30.877  29.900  1.00  0.00     0.074 A 
ATOM     62  C   UNL A   1      41.966  31.759  30.084  1.00  0.00     0.031 C 
ATOM     63  C   UNL A   1      44.391  31.243  30.099  1.00  0.00     0.031 A 
BRANCH  50  64
ATOM     64  C   UNL A   1      48.466  26.704  29.102  1.00  0.00    -0.014 A 
ATOM     65  C   UNL A   1      49.283  26.808  27.964  1.00  0.00     0.009 A 
ATOM     66  C   UNL A   1      49.020  26.196  30.287  1.00  0.00     0.009 A 
ATOM     67  C   UNL A   1      50.610  26.375  28.001  1.00  0.00     0.001 A 
ATOM     68  C   UNL A   1      50.357  25.794  30.331  1.00  0.00     0.001 A 
ATOM     69  C   UNL A   1      51.146  25.874  29.185  1.00  0.00     0.000 A 
ENDBRANCH  50  64
BRANCH  51  70
ATOM     70  C   UNL A   1      38.796  29.179  29.076  1.00  0.00    -0.014 A 
ATOM     71  C   UNL A   1      38.026  29.011  30.238  1.00  0.00     0.009 A 
ATOM     72  C   UNL A   1      38.181  29.700  27.927  1.00  0.00     0.009 A 
ATOM     73  C   UNL A   1      36.665  29.324  30.239  1.00  0.00     0.001 A 
ATOM     74  C   UNL A   1      36.827  30.043  27.939  1.00  0.00     0.001 A 
ATOM     75  C   UNL A   1      36.068  29.844  29.091  1.00  0.00     0.000 A 
ENDBRANCH  51  70
BRANCH  63  76
ATOM     76  C   UNL A   1      44.647  32.670  30.495  1.00  0.00    -0.014 A 
ATOM     77  C   UNL A   1      44.819  33.679  29.536  1.00  0.00     0.009 A 
ATOM     78  C   UNL A   1      44.685  33.013  31.857  1.00  0.00     0.009 A 
ATOM     79  C   UNL A   1      45.063  34.995  29.932  1.00  0.00     0.001 A 
ATOM     80  C   UNL A   1      44.895  34.335  32.249  1.00  0.00     0.001 A 
ATOM     81  C   UNL A   1      45.095  35.323  31.288  1.00  0.00     0.000 A 
ENDBRANCH  63  76
ENDBRANCH  37  38
ENDBRANCH  29  32
ENDBRANCH  27  28
ENDBRANCH  26  27
ENDBRANCH   1  26
TORSDOF 14
ENDMDL
MODEL 3
REMARK VINA RESULT:     -11.2      0.436      5.908
REMARK SMILES O=C(Nc1nc(C2CC2)cs1)N[C@@H]1C=C[C@@H](C(=O)NCCCCNC(=O)c2ccc(-c3c4nc(c(-c5ccccc5)c5ccc([nH]5)c(-c5ccccc5)c5nc(c(-c6ccccc6)c6ccc3[nH]6)C=C5)C=C4)cc2)C1
REMARK SMILES IDX 21 1 20 2 19 3 17 4 18 5 16 7 13 8 14 9 75 10 15 11 12 12
REMARK SMILES IDX 1 13 2 14 3 15 4 18 5 19 11 20 6 21 10 22 7 23 8 24 9 25
REMARK SMILES IDX 22 26 23 27 24 28 25 29 26 31 27 32 28 33 74 34 29 35 73 36
REMARK SMILES IDX 30 37 31 38 32 39 67 40 33 41 72 42 66 43 68 44 34 45 71 46
REMARK SMILES IDX 65 47 64 48 35 50 57 51 42 52 56 53 43 54 46 55 55 56 69 57
REMARK SMILES IDX 44 58 45 59 54 61 70 62 47 63 36 64 37 65 41 66 38 67 40 68
REMARK SMILES IDX 39 69 58 70 59 71 63 72 60 73 62 74 61 75 48 76 49 77 53 78
REMARK SMILES IDX 50 79 52 80 51 81
REMARK H PARENT 19 6 3 16 12 17 24 30 68 49 46 60
REMARK Flexibility Score: inf
ROOT
ATOM      1  C   UNL A   1      35.685  21.771  26.160  1.00  0.00     0.023 C 
ENDROOT
BRANCH   1   2
ATOM      2  C   UNL A   1      34.451  21.466  27.003  1.00  0.00     0.116 C 
BRANCH   2   3
ATOM      3  N   UNL A   1      33.405  20.834  26.224  1.00  0.00    -0.356 N 
ATOM      4  C   UNL A   1      32.453  21.367  25.409  1.00  0.00     0.227 C 
ATOM      5  O   UNL A   1      31.704  20.575  24.828  1.00  0.00    -0.274 OA
ATOM      6  H   UNL A   1      33.377  19.852  26.297  1.00  0.00     0.163 HD
BRANCH   4   7
ATOM      7  C   UNL A   1      32.296  22.875  25.190  1.00  0.00     0.103 C 
ATOM      8  C   UNL A   1      32.122  24.217  23.125  1.00  0.00     0.107 C 
ATOM      9  C   UNL A   1      30.798  24.027  23.801  1.00  0.00    -0.006 C 
ATOM     10  C   UNL A   1      33.109  23.450  24.021  1.00  0.00     0.047 C 
ATOM     11  C   UNL A   1      30.886  23.291  24.913  1.00  0.00    -0.016 C 
BRANCH   8  12
ATOM     12  N   UNL A   1      32.400  25.624  23.084  1.00  0.00    -0.332 N 
ATOM     13  O   UNL A   1      33.392  25.648  21.031  1.00  0.00    -0.248 OA
ATOM     14  C   UNL A   1      32.955  26.251  22.008  1.00  0.00     0.321 C 
ATOM     15  N   UNL A   1      32.899  27.613  21.999  1.00  0.00    -0.284 N 
ATOM     16  H   UNL A   1      33.187  28.076  21.179  1.00  0.00     0.174 HD
ATOM     17  H   UNL A   1      32.178  26.166  23.875  1.00  0.00     0.165 HD
BRANCH  15  18
ATOM     18  C   UNL A   1      32.475  28.381  23.042  1.00  0.00     0.191 A 
ATOM     19  N   UNL A   1      33.121  28.647  24.151  1.00  0.00    -0.225 NA
ATOM     20  S   UNL A   1      30.898  29.008  22.901  1.00  0.00    -0.105 S 
ATOM     21  C   UNL A   1      32.299  29.377  24.983  1.00  0.00     0.057 A 
ATOM     22  C   UNL A   1      31.018  29.589  24.516  1.00  0.00     0.092 A 
BRANCH  21  23
ATOM     23  C   UNL A   1      32.786  29.916  26.321  1.00  0.00     0.039 C 
ATOM     24  C   UNL A   1      33.172  28.938  27.411  1.00  0.00     0.011 C 
ATOM     25  C   UNL A   1      34.238  29.682  26.680  1.00  0.00     0.011 C 
ENDBRANCH  21  23
ENDBRANCH  15  18
ENDBRANCH   8  12
ENDBRANCH   4   7
ENDBRANCH   2   3
ENDBRANCH   1   2
BRANCH   1  26
ATOM     26  C   UNL A   1      36.016  23.258  26.041  1.00  0.00     0.023 C 
BRANCH  26  27
ATOM     27  C   UNL A   1      37.222  23.581  25.167  1.00  0.00     0.116 C 
BRANCH  27  28
ATOM     28  N   UNL A   1      38.361  22.712  25.426  1.00  0.00    -0.352 N 
ATOM     29  C   UNL A   1      39.516  22.985  26.117  1.00  0.00     0.251 C 
ATOM     30  H   UNL A   1      38.295  21.803  25.055  1.00  0.00     0.163 HD
ATOM     31  O   UNL A   1      40.439  22.176  26.127  1.00  0.00    -0.269 OA
BRANCH  29  32
ATOM     32  C   UNL A   1      39.658  24.275  26.824  1.00  0.00     0.039 A 
ATOM     33  C   UNL A   1      39.115  24.404  28.104  1.00  0.00     0.014 A 
ATOM     34  C   UNL A   1      40.342  25.342  26.236  1.00  0.00     0.014 A 
ATOM     35  C   UNL A   1      39.315  25.585  28.820  1.00  0.00     0.010 A 
ATOM     36  C   UNL A   1      40.612  26.484  26.983  1.00  0.00     0.010 A 
ATOM     37  C   UNL A   1      40.097  26.619  28.281  1.00  0.00    -0.014 A 
BRANCH  37  38
ATOM     38  C   UNL A   1      40.382  27.851  29.059  1.00  0.00     0.031 A 
ATOM     39  C   UNL A   1      39.379  28.971  29.099  1.00  0.00     0.074 A 
ATOM     40  C   UNL A   1      41.567  27.985  29.686  1.00  0.00     0.049 A 
ATOM     41  N   UNL A   1      39.462  30.133  29.695  1.00  0.00    -0.248 NA
ATOM     42  C   UNL A   1      38.127  28.769  28.351  1.00  0.00     0.031 C 
ATOM     43  C   UNL A   1      42.644  26.991  29.690  1.00  0.00     0.029 A 
ATOM     44  N   UNL A   1      42.065  29.015  30.444  1.00  0.00    -0.354 N 
ATOM     45  C   UNL A   1      38.286  30.803  29.383  1.00  0.00     0.074 A 
ATOM     46  C   UNL A   1      37.531  29.943  28.499  1.00  0.00     0.031 C 
ATOM     47  C   UNL A   1      43.658  27.446  30.443  1.00  0.00     0.029 A 
ATOM     48  C   UNL A   1      43.324  28.777  30.939  1.00  0.00     0.049 A 
ATOM     49  H   UNL A   1      41.567  29.846  30.617  1.00  0.00     0.167 HD
ATOM     50  C   UNL A   1      37.860  32.015  29.810  1.00  0.00     0.031 A 
ATOM     51  C   UNL A   1      44.123  29.545  31.702  1.00  0.00     0.031 A 
ATOM     52  C   UNL A   1      38.607  32.869  30.694  1.00  0.00     0.049 A 
ATOM     53  C   UNL A   1      43.635  30.896  32.148  1.00  0.00     0.074 A 
ATOM     54  C   UNL A   1      38.239  34.093  31.226  1.00  0.00     0.029 A 
ATOM     55  N   UNL A   1      39.879  32.591  31.171  1.00  0.00    -0.354 N 
ATOM     56  N   UNL A   1      42.489  31.483  31.903  1.00  0.00    -0.248 NA
ATOM     57  C   UNL A   1      44.548  31.682  32.989  1.00  0.00     0.031 C 
ATOM     58  C   UNL A   1      39.312  34.581  31.979  1.00  0.00     0.029 A 
ATOM     59  C   UNL A   1      40.321  33.632  31.971  1.00  0.00     0.049 A 
ATOM     60  H   UNL A   1      40.391  31.775  30.972  1.00  0.00     0.167 HD
ATOM     61  C   UNL A   1      42.531  32.693  32.585  1.00  0.00     0.074 A 
ATOM     62  C   UNL A   1      43.807  32.746  33.267  1.00  0.00     0.031 C 
ATOM     63  C   UNL A   1      41.594  33.672  32.643  1.00  0.00     0.031 A 
BRANCH  50  64
ATOM     64  C   UNL A   1      36.520  32.491  29.317  1.00  0.00    -0.014 A 
ATOM     65  C   UNL A   1      35.337  32.181  30.006  1.00  0.00     0.009 A 
ATOM     66  C   UNL A   1      36.443  33.287  28.164  1.00  0.00     0.009 A 
ATOM     67  C   UNL A   1      34.101  32.622  29.528  1.00  0.00     0.001 A 
ATOM     68  C   UNL A   1      35.209  33.755  27.706  1.00  0.00     0.001 A 
ATOM     69  C   UNL A   1      34.040  33.413  28.382  1.00  0.00     0.000 A 
ENDBRANCH  50  64
BRANCH  51  70
ATOM     70  C   UNL A   1      45.464  29.052  32.114  1.00  0.00    -0.014 A 
ATOM     71  C   UNL A   1      45.623  28.324  33.304  1.00  0.00     0.009 A 
ATOM     72  C   UNL A   1      46.596  29.315  31.327  1.00  0.00     0.009 A 
ATOM     73  C   UNL A   1      46.890  27.899  33.712  1.00  0.00     0.001 A 
ATOM     74  C   UNL A   1      47.857  28.862  31.720  1.00  0.00     0.001 A 
ATOM     75  C   UNL A   1      48.004  28.165  32.918  1.00  0.00     0.000 A 
ENDBRANCH  51  70
BRANCH  63  76
ATOM     76  C   UNL A   1      41.899  34.864  33.506  1.00  0.00    -0.014 A 
ATOM     77  C   UNL A   1      42.726  35.905  33.056  1.00  0.00     0.009 A 
ATOM     78  C   UNL A   1      41.320  34.961  34.782  1.00  0.00     0.009 A 
ATOM     79  C   UNL A   1      42.997  36.998  33.881  1.00  0.00     0.001 A 
ATOM     80  C   UNL A   1      41.566  36.070  35.591  1.00  0.00     0.001 A 
ATOM     81  C   UNL A   1      42.413  37.082  35.145  1.00  0.00     0.000 A 
ENDBRANCH  63  76
ENDBRANCH  37  38
ENDBRANCH  29  32
ENDBRANCH  27  28
ENDBRANCH  26  27
ENDBRANCH   1  26
TORSDOF 14
ENDMDL
