MODEL 1
REMARK VINA RESULT:     -10.3      0.000      0.000
REMARK SMILES O=C(NCCCCNC(=O)c1ccc(N2C(=O)C[C@H]([NH+]3CCN(c4ccc(F)cc4)CC3)C2=O)cc1)c1ccc(-c2c3nc(c(-c4ccccc4)c4ccc([nH]4)c(-c4ccccc4)c4nc(c(-c5ccccc5)c5ccc2[nH]5)C=C4)C=C3)cc1
REMARK SMILES IDX 6 1 5 2 4 3 3 4 1 5 2 6 37 8 38 9 84 10 39 11 83 12 40 13
REMARK SMILES IDX 41 14 42 15 77 16 43 17 82 18 76 19 78 20 44 21 81 22 75 23
REMARK SMILES IDX 74 24 45 26 67 27 52 28 66 29 53 30 56 31 65 32 79 33 54 34
REMARK SMILES IDX 55 35 64 37 80 38 57 39 46 40 47 41 51 42 48 43 50 44 49 45
REMARK SMILES IDX 68 46 69 47 73 48 70 49 72 50 71 51 58 52 59 53 63 54 60 55
REMARK SMILES IDX 62 56 61 57 7 58 8 59 9 60 10 62 11 63 12 64 36 65 13 66
REMARK SMILES IDX 35 67 14 68 15 69 16 70 33 71 17 72 18 73 19 74 34 75 20 76
REMARK SMILES IDX 21 77 32 78 22 80 31 81 23 82 24 83 25 84 30 85 26 86 29 87
REMARK SMILES IDX 27 88 28 89
REMARK H PARENT 3 7 78 25 56 36 8 61 20 79
REMARK Flexibility Score: inf
ROOT
ATOM      1  C   UNL A   1      44.712  23.668  24.999  1.00  0.00     0.023 C 
ENDROOT
BRANCH   1   2
ATOM      2  C   UNL A   1      45.447  23.392  26.305  1.00  0.00     0.023 C 
BRANCH   2   3
ATOM      3  C   UNL A   1      46.668  24.264  26.548  1.00  0.00     0.116 C 
BRANCH   3   4
ATOM      4  N   UNL A   1      47.089  25.013  25.371  1.00  0.00    -0.352 N 
ATOM      5  O   UNL A   1      47.195  26.771  23.954  1.00  0.00    -0.269 OA
ATOM      6  C   UNL A   1      46.871  26.335  25.054  1.00  0.00     0.251 C 
ATOM      7  H   UNL A   1      47.601  24.499  24.706  1.00  0.00     0.163 HD
BRANCH   6   8
ATOM      8  C   UNL A   1      46.204  27.216  26.035  1.00  0.00     0.039 A 
ATOM      9  C   UNL A   1      46.955  27.904  26.987  1.00  0.00     0.014 A 
ATOM     10  C   UNL A   1      44.810  27.306  26.041  1.00  0.00     0.014 A 
ATOM     11  C   UNL A   1      46.314  28.498  28.065  1.00  0.00     0.010 A 
ATOM     12  C   UNL A   1      44.166  28.012  27.063  1.00  0.00     0.010 A 
ATOM     13  C   UNL A   1      44.911  28.567  28.115  1.00  0.00    -0.014 A 
BRANCH  13  14
ATOM     14  C   UNL A   1      44.266  29.254  29.265  1.00  0.00     0.031 A 
ATOM     15  C   UNL A   1      43.857  30.702  29.188  1.00  0.00     0.074 A 
ATOM     16  C   UNL A   1      43.998  28.539  30.376  1.00  0.00     0.049 A 
ATOM     17  N   UNL A   1      43.228  31.427  30.081  1.00  0.00    -0.248 NA
ATOM     18  C   UNL A   1      44.202  31.435  27.961  1.00  0.00     0.031 C 
ATOM     19  C   UNL A   1      44.343  27.128  30.573  1.00  0.00     0.029 A 
ATOM     20  N   UNL A   1      43.347  28.884  31.530  1.00  0.00    -0.354 N 
ATOM     21  C   UNL A   1      43.128  32.703  29.538  1.00  0.00     0.074 A 
ATOM     22  C   UNL A   1      43.785  32.661  28.249  1.00  0.00     0.031 C 
ATOM     23  C   UNL A   1      43.837  26.710  31.741  1.00  0.00     0.029 A 
ATOM     24  C   UNL A   1      43.206  27.840  32.412  1.00  0.00     0.049 A 
ATOM     25  H   UNL A   1      43.013  29.793  31.712  1.00  0.00     0.167 HD
ATOM     26  C   UNL A   1      42.542  33.806  30.063  1.00  0.00     0.031 A 
ATOM     27  C   UNL A   1      42.643  27.793  33.632  1.00  0.00     0.031 A 
ATOM     28  C   UNL A   1      41.888  33.844  31.347  1.00  0.00     0.049 A 
ATOM     29  C   UNL A   1      42.037  29.040  34.203  1.00  0.00     0.074 A 
ATOM     30  C   UNL A   1      41.230  34.904  31.947  1.00  0.00     0.029 A 
ATOM     31  N   UNL A   1      41.816  32.778  32.232  1.00  0.00    -0.354 N 
ATOM     32  N   UNL A   1      41.915  30.225  33.658  1.00  0.00    -0.248 NA
ATOM     33  C   UNL A   1      41.485  28.938  35.560  1.00  0.00     0.031 C 
ATOM     34  C   UNL A   1      40.820  34.501  33.223  1.00  0.00     0.029 A 
ATOM     35  C   UNL A   1      41.153  33.167  33.386  1.00  0.00     0.049 A 
ATOM     36  H   UNL A   1      42.180  31.880  32.064  1.00  0.00     0.167 HD
ATOM     37  C   UNL A   1      41.247  31.004  34.592  1.00  0.00     0.074 A 
ATOM     38  C   UNL A   1      40.971  30.148  35.728  1.00  0.00     0.031 C 
ATOM     39  C   UNL A   1      40.890  32.309  34.513  1.00  0.00     0.031 A 
BRANCH  26  40
ATOM     40  C   UNL A   1      42.615  35.083  29.267  1.00  0.00    -0.014 A 
ATOM     41  C   UNL A   1      43.706  35.960  29.377  1.00  0.00     0.009 A 
ATOM     42  C   UNL A   1      41.592  35.390  28.355  1.00  0.00     0.009 A 
ATOM     43  C   UNL A   1      43.750  37.136  28.621  1.00  0.00     0.001 A 
ATOM     44  C   UNL A   1      41.654  36.548  27.577  1.00  0.00     0.001 A 
ATOM     45  C   UNL A   1      42.727  37.425  27.719  1.00  0.00     0.000 A 
ENDBRANCH  26  40
BRANCH  27  46
ATOM     46  C   UNL A   1      42.636  26.518  34.398  1.00  0.00    -0.014 A 
ATOM     47  C   UNL A   1      41.441  26.013  34.932  1.00  0.00     0.009 A 
ATOM     48  C   UNL A   1      43.827  25.802  34.599  1.00  0.00     0.009 A 
ATOM     49  C   UNL A   1      41.445  24.831  35.677  1.00  0.00     0.001 A 
ATOM     50  C   UNL A   1      43.821  24.604  35.314  1.00  0.00     0.001 A 
ATOM     51  C   UNL A   1      42.633  24.125  35.861  1.00  0.00     0.000 A 
ENDBRANCH  27  46
BRANCH  39  52
ATOM     52  C   UNL A   1      40.116  32.874  35.673  1.00  0.00    -0.014 A 
ATOM     53  C   UNL A   1      40.761  33.437  36.785  1.00  0.00     0.009 A 
ATOM     54  C   UNL A   1      38.712  32.853  35.642  1.00  0.00     0.009 A 
ATOM     55  C   UNL A   1      40.017  33.923  37.863  1.00  0.00     0.001 A 
ATOM     56  C   UNL A   1      37.971  33.372  36.704  1.00  0.00     0.001 A 
ATOM     57  C   UNL A   1      38.623  33.893  37.819  1.00  0.00     0.000 A 
ENDBRANCH  39  52
ENDBRANCH  13  14
ENDBRANCH   6   8
ENDBRANCH   3   4
ENDBRANCH   2   3
ENDBRANCH   1   2
BRANCH   1  58
ATOM     58  C   UNL A   1      43.249  23.239  24.986  1.00  0.00     0.116 C 
BRANCH  58  59
ATOM     59  N   UNL A   1      42.988  22.122  25.883  1.00  0.00    -0.352 N 
ATOM     60  C   UNL A   1      42.288  22.130  27.063  1.00  0.00     0.251 C 
ATOM     61  H   UNL A   1      43.358  21.253  25.608  1.00  0.00     0.163 HD
ATOM     62  O   UNL A   1      42.246  21.143  27.788  1.00  0.00    -0.269 OA
BRANCH  60  63
ATOM     63  C   UNL A   1      41.607  23.372  27.458  1.00  0.00     0.039 A 
ATOM     64  C   UNL A   1      42.329  24.350  28.135  1.00  0.00     0.016 A 
ATOM     65  C   UNL A   1      40.281  23.593  27.081  1.00  0.00     0.016 A 
ATOM     66  C   UNL A   1      41.741  25.595  28.364  1.00  0.00     0.027 A 
ATOM     67  C   UNL A   1      39.693  24.832  27.334  1.00  0.00     0.027 A 
ATOM     68  C   UNL A   1      40.422  25.857  27.957  1.00  0.00     0.052 A 
BRANCH  68  69
ATOM     69  N   UNL A   1      39.838  27.129  28.181  1.00  0.00    -0.245 N 
ATOM     70  C   UNL A   1      40.009  28.207  27.347  1.00  0.00     0.240 C 
ATOM     71  C   UNL A   1      39.052  27.438  29.274  1.00  0.00     0.292 C 
ATOM     72  O   UNL A   1      40.706  28.305  26.349  1.00  0.00    -0.274 OA
ATOM     73  C   UNL A   1      39.097  29.305  27.786  1.00  0.00     0.176 C 
ATOM     74  C   UNL A   1      38.677  28.916  29.191  1.00  0.00     0.284 C 
ATOM     75  O   UNL A   1      38.752  26.707  30.211  1.00  0.00    -0.267 OA
BRANCH  74  76
ATOM     76  N   UNL A   1      39.202  29.677  30.340  1.00  0.00    -0.321 N 
ATOM     77  C   UNL A   1      39.384  31.132  30.177  1.00  0.00     0.284 C 
ATOM     78  C   UNL A   1      38.510  29.398  31.615  1.00  0.00     0.284 C 
ATOM     79  H   UNL A   1      40.147  29.297  30.375  1.00  0.00     0.348 HD
ATOM     80  C   UNL A   1      38.127  32.011  30.372  1.00  0.00     0.178 C 
ATOM     81  C   UNL A   1      37.226  30.210  31.896  1.00  0.00     0.178 C 
ATOM     82  N   UNL A   1      37.422  31.631  31.596  1.00  0.00    -0.360 N 
BRANCH  82  83
ATOM     83  C   UNL A   1      36.787  32.597  32.350  1.00  0.00     0.037 A 
ATOM     84  C   UNL A   1      35.611  32.330  33.066  1.00  0.00     0.029 A 
ATOM     85  C   UNL A   1      37.286  33.909  32.365  1.00  0.00     0.029 A 
ATOM     86  C   UNL A   1      34.947  33.344  33.763  1.00  0.00     0.041 A 
ATOM     87  C   UNL A   1      36.619  34.929  33.044  1.00  0.00     0.041 A 
ATOM     88  C   UNL A   1      35.453  34.636  33.735  1.00  0.00     0.123 A 
ATOM     89  F   UNL A   1      34.805  35.615  34.378  1.00  0.00    -0.207 F 
ENDBRANCH  82  83
ENDBRANCH  74  76
ENDBRANCH  68  69
ENDBRANCH  60  63
ENDBRANCH  58  59
ENDBRANCH   1  58
TORSDOF 14
ENDMDL
MODEL 2
REMARK VINA RESULT:     -10.1      3.244     11.269
REMARK SMILES O=C(NCCCCNC(=O)c1ccc(N2C(=O)C[C@H]([NH+]3CCN(c4ccc(F)cc4)CC3)C2=O)cc1)c1ccc(-c2c3nc(c(-c4ccccc4)c4ccc([nH]4)c(-c4ccccc4)c4nc(c(-c5ccccc5)c5ccc2[nH]5)C=C4)C=C3)cc1
REMARK SMILES IDX 6 1 5 2 4 3 3 4 1 5 2 6 37 8 38 9 84 10 39 11 83 12 40 13
REMARK SMILES IDX 41 14 42 15 77 16 43 17 82 18 76 19 78 20 44 21 81 22 75 23
REMARK SMILES IDX 74 24 45 26 67 27 52 28 66 29 53 30 56 31 65 32 79 33 54 34
REMARK SMILES IDX 55 35 64 37 80 38 57 39 46 40 47 41 51 42 48 43 50 44 49 45
REMARK SMILES IDX 68 46 69 47 73 48 70 49 72 50 71 51 58 52 59 53 63 54 60 55
REMARK SMILES IDX 62 56 61 57 7 58 8 59 9 60 10 62 11 63 12 64 36 65 13 66
REMARK SMILES IDX 35 67 14 68 15 69 16 70 33 71 17 72 18 73 19 74 34 75 20 76
REMARK SMILES IDX 21 77 32 78 22 80 31 81 23 82 24 83 25 84 30 85 26 86 29 87
REMARK SMILES IDX 27 88 28 89
REMARK H PARENT 3 7 78 25 56 36 8 61 20 79
REMARK Flexibility Score: inf
ROOT
ATOM      1  C   UNL A   1      35.433  33.205  33.071  1.00  0.00     0.023 C 
ENDROOT
BRANCH   1   2
ATOM      2  C   UNL A   1      36.442  34.336  32.909  1.00  0.00     0.023 C 
BRANCH   2   3
ATOM      3  C   UNL A   1      37.658  34.242  33.816  1.00  0.00     0.116 C 
BRANCH   3   4
ATOM      4  N   UNL A   1      37.382  33.590  35.089  1.00  0.00    -0.352 N 
ATOM      5  O   UNL A   1      37.450  31.947  36.640  1.00  0.00    -0.269 OA
ATOM      6  C   UNL A   1      37.889  32.414  35.594  1.00  0.00     0.251 C 
ATOM      7  H   UNL A   1      36.740  34.056  35.670  1.00  0.00     0.163 HD
BRANCH   6   8
ATOM      8  C   UNL A   1      38.939  31.694  34.844  1.00  0.00     0.039 A 
ATOM      9  C   UNL A   1      40.285  31.893  35.150  1.00  0.00     0.014 A 
ATOM     10  C   UNL A   1      38.577  30.859  33.784  1.00  0.00     0.014 A 
ATOM     11  C   UNL A   1      41.261  31.441  34.273  1.00  0.00     0.010 A 
ATOM     12  C   UNL A   1      39.570  30.301  32.972  1.00  0.00     0.010 A 
ATOM     13  C   UNL A   1      40.918  30.632  33.176  1.00  0.00    -0.014 A 
BRANCH  13  14
ATOM     14  C   UNL A   1      41.999  30.129  32.289  1.00  0.00     0.031 A 
ATOM     15  C   UNL A   1      42.634  28.780  32.508  1.00  0.00     0.074 A 
ATOM     16  C   UNL A   1      42.374  30.885  31.237  1.00  0.00     0.049 A 
ATOM     17  N   UNL A   1      43.543  28.173  31.785  1.00  0.00    -0.248 NA
ATOM     18  C   UNL A   1      42.203  28.017  33.688  1.00  0.00     0.031 C 
ATOM     19  C   UNL A   1      41.834  32.209  30.916  1.00  0.00     0.029 A 
ATOM     20  N   UNL A   1      43.265  30.638  30.226  1.00  0.00    -0.354 N 
ATOM     21  C   UNL A   1      43.813  26.975  32.435  1.00  0.00     0.074 A 
ATOM     22  C   UNL A   1      42.991  26.951  33.626  1.00  0.00     0.031 C 
ATOM     23  C   UNL A   1      42.351  32.624  29.751  1.00  0.00     0.029 A 
ATOM     24  C   UNL A   1      43.316  31.637  29.285  1.00  0.00     0.049 A 
ATOM     25  H   UNL A   1      43.818  29.823  30.179  1.00  0.00     0.167 HD
ATOM     26  C   UNL A   1      44.664  25.984  32.073  1.00  0.00     0.031 A 
ATOM     27  C   UNL A   1      44.063  31.758  28.174  1.00  0.00     0.031 A 
ATOM     28  C   UNL A   1      45.481  26.009  30.886  1.00  0.00     0.049 A 
ATOM     29  C   UNL A   1      45.025  30.663  27.820  1.00  0.00     0.074 A 
ATOM     30  C   UNL A   1      46.346  25.036  30.414  1.00  0.00     0.029 A 
ATOM     31  N   UNL A   1      45.543  27.066  29.989  1.00  0.00    -0.354 N 
ATOM     32  N   UNL A   1      45.235  29.520  28.425  1.00  0.00    -0.248 NA
ATOM     33  C   UNL A   1      45.850  30.876  26.625  1.00  0.00     0.031 C 
ATOM     34  C   UNL A   1      46.980  25.531  29.270  1.00  0.00     0.029 A 
ATOM     35  C   UNL A   1      46.455  26.780  28.985  1.00  0.00     0.049 A 
ATOM     36  H   UNL A   1      45.016  27.895  30.056  1.00  0.00     0.167 HD
ATOM     37  C   UNL A   1      46.195  28.863  27.668  1.00  0.00     0.074 A 
ATOM     38  C   UNL A   1      46.508  29.729  26.548  1.00  0.00     0.031 C 
ATOM     39  C   UNL A   1      46.762  27.651  27.879  1.00  0.00     0.031 A 
BRANCH  26  40
ATOM     40  C   UNL A   1      44.791  24.799  32.995  1.00  0.00    -0.014 A 
ATOM     41  C   UNL A   1      43.944  23.685  32.887  1.00  0.00     0.009 A 
ATOM     42  C   UNL A   1      45.811  24.780  33.962  1.00  0.00     0.009 A 
ATOM     43  C   UNL A   1      44.088  22.597  33.753  1.00  0.00     0.001 A 
ATOM     44  C   UNL A   1      45.974  23.678  34.804  1.00  0.00     0.001 A 
ATOM     45  C   UNL A   1      45.107  22.593  34.707  1.00  0.00     0.000 A 
ENDBRANCH  26  40
BRANCH  27  46
ATOM     46  C   UNL A   1      43.934  32.968  27.320  1.00  0.00    -0.014 A 
ATOM     47  C   UNL A   1      43.967  34.250  27.890  1.00  0.00     0.009 A 
ATOM     48  C   UNL A   1      43.777  32.847  25.930  1.00  0.00     0.009 A 
ATOM     49  C   UNL A   1      43.815  35.384  27.087  1.00  0.00     0.001 A 
ATOM     50  C   UNL A   1      43.661  33.982  25.127  1.00  0.00     0.001 A 
ATOM     51  C   UNL A   1      43.668  35.248  25.708  1.00  0.00     0.000 A 
ENDBRANCH  27  46
BRANCH  39  52
ATOM     52  C   UNL A   1      47.745  27.169  26.846  1.00  0.00    -0.014 A 
ATOM     53  C   UNL A   1      49.070  27.631  26.818  1.00  0.00     0.009 A 
ATOM     54  C   UNL A   1      47.336  26.225  25.891  1.00  0.00     0.009 A 
ATOM     55  C   UNL A   1      49.950  27.194  25.826  1.00  0.00     0.001 A 
ATOM     56  C   UNL A   1      48.228  25.762  24.923  1.00  0.00     0.001 A 
ATOM     57  C   UNL A   1      49.530  26.257  24.882  1.00  0.00     0.000 A 
ENDBRANCH  39  52
ENDBRANCH  13  14
ENDBRANCH   6   8
ENDBRANCH   3   4
ENDBRANCH   2   3
ENDBRANCH   1   2
BRANCH   1  58
ATOM     58  C   UNL A   1      34.924  32.609  31.762  1.00  0.00     0.116 C 
BRANCH  58  59
ATOM     59  N   UNL A   1      34.870  33.591  30.687  1.00  0.00    -0.352 N 
ATOM     60  C   UNL A   1      35.565  33.591  29.504  1.00  0.00     0.251 C 
ATOM     61  H   UNL A   1      34.256  34.347  30.827  1.00  0.00     0.163 HD
ATOM     62  O   UNL A   1      35.518  34.544  28.736  1.00  0.00    -0.269 OA
BRANCH  60  63
ATOM     63  C   UNL A   1      36.399  32.422  29.190  1.00  0.00     0.039 A 
ATOM     64  C   UNL A   1      37.708  32.383  29.660  1.00  0.00     0.016 A 
ATOM     65  C   UNL A   1      35.852  31.337  28.502  1.00  0.00     0.016 A 
ATOM     66  C   UNL A   1      38.451  31.211  29.511  1.00  0.00     0.027 A 
ATOM     67  C   UNL A   1      36.609  30.177  28.338  1.00  0.00     0.027 A 
ATOM     68  C   UNL A   1      37.909  30.089  28.860  1.00  0.00     0.052 A 
BRANCH  68  69
ATOM     69  N   UNL A   1      38.666  28.899  28.727  1.00  0.00    -0.245 N 
ATOM     70  C   UNL A   1      38.774  27.947  29.711  1.00  0.00     0.240 C 
ATOM     71  C   UNL A   1      39.399  28.569  27.604  1.00  0.00     0.292 C 
ATOM     72  O   UNL A   1      38.330  27.962  30.849  1.00  0.00    -0.274 OA
ATOM     73  C   UNL A   1      39.477  26.754  29.152  1.00  0.00     0.176 C 
ATOM     74  C   UNL A   1      40.124  27.253  27.875  1.00  0.00     0.284 C 
ATOM     75  O   UNL A   1      39.536  29.229  26.579  1.00  0.00    -0.267 OA
BRANCH  74  76
ATOM     76  N   UNL A   1      41.589  27.418  27.823  1.00  0.00    -0.321 N 
ATOM     77  C   UNL A   1      42.415  26.497  28.627  1.00  0.00     0.284 C 
ATOM     78  C   UNL A   1      42.138  27.517  26.455  1.00  0.00     0.284 C 
ATOM     79  H   UNL A   1      41.673  28.321  28.290  1.00  0.00     0.348 HD
ATOM     80  C   UNL A   1      42.708  25.111  28.007  1.00  0.00     0.178 C 
ATOM     81  C   UNL A   1      42.444  26.184  25.735  1.00  0.00     0.178 C 
ATOM     82  N   UNL A   1      43.153  25.256  26.620  1.00  0.00    -0.360 N 
BRANCH  82  83
ATOM     83  C   UNL A   1      44.098  24.390  26.110  1.00  0.00     0.037 A 
ATOM     84  C   UNL A   1      44.312  24.250  24.731  1.00  0.00     0.029 A 
ATOM     85  C   UNL A   1      44.835  23.572  26.979  1.00  0.00     0.029 A 
ATOM     86  C   UNL A   1      45.224  23.313  24.236  1.00  0.00     0.041 A 
ATOM     87  C   UNL A   1      45.734  22.623  26.492  1.00  0.00     0.041 A 
ATOM     88  C   UNL A   1      45.918  22.501  25.123  1.00  0.00     0.123 A 
ATOM     89  F   UNL A   1      46.771  21.583  24.651  1.00  0.00    -0.207 F 
ENDBRANCH  82  83
ENDBRANCH  74  76
ENDBRANCH  68  69
ENDBRANCH  60  63
ENDBRANCH  58  59
ENDBRANCH   1  58
TORSDOF 14
ENDMDL
MODEL 3
REMARK VINA RESULT:     -10.0      3.292      9.827
REMARK SMILES O=C(NCCCCNC(=O)c1ccc(N2C(=O)C[C@H]([NH+]3CCN(c4ccc(F)cc4)CC3)C2=O)cc1)c1ccc(-c2c3nc(c(-c4ccccc4)c4ccc([nH]4)c(-c4ccccc4)c4nc(c(-c5ccccc5)c5ccc2[nH]5)C=C4)C=C3)cc1
REMARK SMILES IDX 6 1 5 2 4 3 3 4 1 5 2 6 37 8 38 9 84 10 39 11 83 12 40 13
REMARK SMILES IDX 41 14 42 15 77 16 43 17 82 18 76 19 78 20 44 21 81 22 75 23
REMARK SMILES IDX 74 24 45 26 67 27 52 28 66 29 53 30 56 31 65 32 79 33 54 34
REMARK SMILES IDX 55 35 64 37 80 38 57 39 46 40 47 41 51 42 48 43 50 44 49 45
REMARK SMILES IDX 68 46 69 47 73 48 70 49 72 50 71 51 58 52 59 53 63 54 60 55
REMARK SMILES IDX 62 56 61 57 7 58 8 59 9 60 10 62 11 63 12 64 36 65 13 66
REMARK SMILES IDX 35 67 14 68 15 69 16 70 33 71 17 72 18 73 19 74 34 75 20 76
REMARK SMILES IDX 21 77 32 78 22 80 31 81 23 82 24 83 25 84 30 85 26 86 29 87
REMARK SMILES IDX 27 88 28 89
REMARK H PARENT 3 7 78 25 56 36 8 61 20 79
REMARK Flexibility Score: inf
ROOT
ATOM      1  C   UNL A   1      36.345  34.598  32.949  1.00  0.00     0.023 C 
ENDROOT
BRANCH   1   2
ATOM      2  C   UNL A   1      37.868  34.558  32.897  1.00  0.00     0.023 C 
BRANCH   2   3
ATOM      3  C   UNL A   1      38.558  34.710  34.243  1.00  0.00     0.116 C 
BRANCH   3   4
ATOM      4  N   UNL A   1      37.984  33.871  35.286  1.00  0.00    -0.352 N 
ATOM      5  O   UNL A   1      37.508  31.954  36.386  1.00  0.00    -0.269 OA
ATOM      6  C   UNL A   1      38.172  32.530  35.530  1.00  0.00     0.251 C 
ATOM      7  H   UNL A   1      37.370  34.330  35.905  1.00  0.00     0.163 HD
BRANCH   6   8
ATOM      8  C   UNL A   1      39.154  31.777  34.723  1.00  0.00     0.039 A 
ATOM      9  C   UNL A   1      40.513  31.839  35.030  1.00  0.00     0.014 A 
ATOM     10  C   UNL A   1      38.718  31.050  33.612  1.00  0.00     0.014 A 
ATOM     11  C   UNL A   1      41.444  31.366  34.115  1.00  0.00     0.010 A 
ATOM     12  C   UNL A   1      39.657  30.466  32.755  1.00  0.00     0.010 A 
ATOM     13  C   UNL A   1      41.030  30.667  32.969  1.00  0.00    -0.014 A 
BRANCH  13  14
ATOM     14  C   UNL A   1      42.061  30.136  32.039  1.00  0.00     0.031 A 
ATOM     15  C   UNL A   1      42.570  30.952  30.880  1.00  0.00     0.074 A 
ATOM     16  C   UNL A   1      42.581  28.916  32.281  1.00  0.00     0.049 A 
ATOM     17  N   UNL A   1      43.512  30.656  30.017  1.00  0.00    -0.248 NA
ATOM     18  C   UNL A   1      41.943  32.262  30.651  1.00  0.00     0.031 C 
ATOM     19  C   UNL A   1      42.173  28.028  33.374  1.00  0.00     0.029 A 
ATOM     20  N   UNL A   1      43.586  28.228  31.653  1.00  0.00    -0.354 N 
ATOM     21  C   UNL A   1      43.569  31.725  29.130  1.00  0.00     0.074 A 
ATOM     22  C   UNL A   1      42.550  32.666  29.543  1.00  0.00     0.031 C 
ATOM     23  C   UNL A   1      42.967  26.948  33.382  1.00  0.00     0.029 A 
ATOM     24  C   UNL A   1      43.883  27.027  32.252  1.00  0.00     0.049 A 
ATOM     25  H   UNL A   1      44.049  28.560  30.850  1.00  0.00     0.167 HD
ATOM     26  C   UNL A   1      44.396  31.908  28.072  1.00  0.00     0.031 A 
ATOM     27  C   UNL A   1      44.784  26.084  31.924  1.00  0.00     0.031 A 
ATOM     28  C   UNL A   1      45.411  30.970  27.664  1.00  0.00     0.049 A 
ATOM     29  C   UNL A   1      45.658  26.297  30.724  1.00  0.00     0.074 A 
ATOM     30  C   UNL A   1      46.324  31.084  26.629  1.00  0.00     0.029 A 
ATOM     31  N   UNL A   1      45.642  29.741  28.264  1.00  0.00    -0.354 N 
ATOM     32  N   UNL A   1      45.726  27.332  29.924  1.00  0.00    -0.248 NA
ATOM     33  C   UNL A   1      46.584  25.209  30.388  1.00  0.00     0.031 C 
ATOM     34  C   UNL A   1      47.061  29.896  26.561  1.00  0.00     0.029 A 
ATOM     35  C   UNL A   1      46.661  29.074  27.601  1.00  0.00     0.049 A 
ATOM     36  H   UNL A   1      45.155  29.394  29.046  1.00  0.00     0.167 HD
ATOM     37  C   UNL A   1      46.722  27.034  29.005  1.00  0.00     0.074 A 
ATOM     38  C   UNL A   1      47.244  25.730  29.364  1.00  0.00     0.031 C 
ATOM     39  C   UNL A   1      47.168  27.775  27.962  1.00  0.00     0.031 A 
BRANCH  26  40
ATOM     40  C   UNL A   1      44.212  33.155  27.248  1.00  0.00    -0.014 A 
ATOM     41  C   UNL A   1      44.642  34.412  27.703  1.00  0.00     0.009 A 
ATOM     42  C   UNL A   1      43.638  33.062  25.969  1.00  0.00     0.009 A 
ATOM     43  C   UNL A   1      44.463  35.552  26.914  1.00  0.00     0.001 A 
ATOM     44  C   UNL A   1      43.490  34.197  25.169  1.00  0.00     0.001 A 
ATOM     45  C   UNL A   1      43.893  35.442  25.646  1.00  0.00     0.000 A 
ENDBRANCH  26  40
BRANCH  27  46
ATOM     46  C   UNL A   1      44.896  24.848  32.743  1.00  0.00    -0.014 A 
ATOM     47  C   UNL A   1      45.877  24.739  33.741  1.00  0.00     0.009 A 
ATOM     48  C   UNL A   1      44.021  23.771  32.530  1.00  0.00     0.009 A 
ATOM     49  C   UNL A   1      45.997  23.564  34.486  1.00  0.00     0.001 A 
ATOM     50  C   UNL A   1      44.121  22.612  33.301  1.00  0.00     0.001 A 
ATOM     51  C   UNL A   1      45.116  22.505  34.270  1.00  0.00     0.000 A 
ENDBRANCH  27  46
BRANCH  39  52
ATOM     52  C   UNL A   1      48.312  27.210  27.164  1.00  0.00    -0.014 A 
ATOM     53  C   UNL A   1      49.647  27.418  27.543  1.00  0.00     0.009 A 
ATOM     54  C   UNL A   1      48.042  26.444  26.019  1.00  0.00     0.009 A 
ATOM     55  C   UNL A   1      50.690  26.911  26.763  1.00  0.00     0.001 A 
ATOM     56  C   UNL A   1      49.085  25.908  25.262  1.00  0.00     0.001 A 
ATOM     57  C   UNL A   1      50.407  26.153  25.626  1.00  0.00     0.000 A 
ENDBRANCH  39  52
ENDBRANCH  13  14
ENDBRANCH   6   8
ENDBRANCH   3   4
ENDBRANCH   2   3
ENDBRANCH   1   2
BRANCH   1  58
ATOM     58  C   UNL A   1      35.648  33.563  32.071  1.00  0.00     0.116 C 
BRANCH  58  59
ATOM     59  N   UNL A   1      35.300  34.090  30.759  1.00  0.00    -0.352 N 
ATOM     60  C   UNL A   1      35.692  33.625  29.529  1.00  0.00     0.251 C 
ATOM     61  H   UNL A   1      34.708  34.875  30.754  1.00  0.00     0.163 HD
ATOM     62  O   UNL A   1      35.426  34.236  28.501  1.00  0.00    -0.269 OA
BRANCH  60  63
ATOM     63  C   UNL A   1      36.473  32.380  29.474  1.00  0.00     0.039 A 
ATOM     64  C   UNL A   1      35.816  31.186  29.193  1.00  0.00     0.016 A 
ATOM     65  C   UNL A   1      37.860  32.417  29.620  1.00  0.00     0.016 A 
ATOM     66  C   UNL A   1      36.567  30.030  28.973  1.00  0.00     0.027 A 
ATOM     67  C   UNL A   1      38.602  31.253  29.421  1.00  0.00     0.027 A 
ATOM     68  C   UNL A   1      37.969  30.050  29.072  1.00  0.00     0.052 A 
BRANCH  68  69
ATOM     69  N   UNL A   1      38.725  28.875  28.833  1.00  0.00    -0.245 N 
ATOM     70  C   UNL A   1      38.893  27.873  29.758  1.00  0.00     0.240 C 
ATOM     71  C   UNL A   1      39.397  28.614  27.656  1.00  0.00     0.292 C 
ATOM     72  O   UNL A   1      38.513  27.824  30.917  1.00  0.00    -0.274 OA
ATOM     73  C   UNL A   1      39.572  26.719  29.098  1.00  0.00     0.176 C 
ATOM     74  C   UNL A   1      40.145  27.292  27.816  1.00  0.00     0.284 C 
ATOM     75  O   UNL A   1      39.474  29.328  26.663  1.00  0.00    -0.267 OA
BRANCH  74  76
ATOM     76  N   UNL A   1      41.604  27.473  27.693  1.00  0.00    -0.321 N 
ATOM     77  C   UNL A   1      42.477  26.575  28.472  1.00  0.00     0.284 C 
ATOM     78  C   UNL A   1      42.087  27.557  26.300  1.00  0.00     0.284 C 
ATOM     79  H   UNL A   1      41.698  28.385  28.141  1.00  0.00     0.348 HD
ATOM     80  C   UNL A   1      42.759  25.184  27.861  1.00  0.00     0.178 C 
ATOM     81  C   UNL A   1      42.376  26.216  25.587  1.00  0.00     0.178 C 
ATOM     82  N   UNL A   1      43.137  25.311  26.453  1.00  0.00    -0.360 N 
BRANCH  82  83
ATOM     83  C   UNL A   1      44.068  24.449  25.912  1.00  0.00     0.037 A 
ATOM     84  C   UNL A   1      43.905  23.876  24.642  1.00  0.00     0.029 A 
ATOM     85  C   UNL A   1      45.191  24.073  26.666  1.00  0.00     0.029 A 
ATOM     86  C   UNL A   1      44.826  22.948  24.147  1.00  0.00     0.041 A 
ATOM     87  C   UNL A   1      46.104  23.135  26.186  1.00  0.00     0.041 A 
ATOM     88  C   UNL A   1      45.912  22.579  24.930  1.00  0.00     0.123 A 
ATOM     89  F   UNL A   1      46.780  21.670  24.471  1.00  0.00    -0.207 F 
ENDBRANCH  82  83
ENDBRANCH  74  76
ENDBRANCH  68  69
ENDBRANCH  60  63
ENDBRANCH  58  59
ENDBRANCH   1  58
TORSDOF 14
ENDMDL
