MODEL 1
REMARK VINA RESULT:     -11.0      0.000      0.000
REMARK SMILES Cc1cc(C)n([C@@H](C(=O)NCCCCNC(=O)c2ccc(-c3c4nc(c(-c5ccccc5)c5ccc([nH]5)c(-c5ccccc5)c5nc(c(-c6ccccc6)c6ccc3[nH]6)C=C5)C=C4)cc2)C(C)C)n1
REMARK SMILES IDX 13 1 12 2 11 3 10 4 8 5 9 6 7 8 6 9 1 10 2 11 3 12 69 13
REMARK SMILES IDX 4 14 5 15 66 16 67 17 68 18 14 19 15 20 16 21 17 23 18 24
REMARK SMILES IDX 19 25 65 26 20 27 64 28 21 29 22 30 23 31 58 32 24 33 63 34
REMARK SMILES IDX 57 35 59 36 25 37 62 38 56 39 55 40 26 42 48 43 33 44 47 45
REMARK SMILES IDX 34 46 37 47 46 48 60 49 35 50 36 51 45 53 61 54 38 55 27 56
REMARK SMILES IDX 28 57 32 58 29 59 31 60 30 61 49 62 50 63 54 64 51 65 53 66
REMARK SMILES IDX 52 67 39 68 40 69 44 70 41 71 43 72 42 73
REMARK H PARENT 10 7 15 22 59 41 37 52
REMARK Flexibility Score: inf
ROOT
ATOM      1  C   UNL A   1      37.969  19.880  24.964  1.00  0.00     0.023 C 
ENDROOT
BRANCH   1   2
ATOM      2  C   UNL A   1      37.182  21.107  24.479  1.00  0.00     0.023 C 
BRANCH   2   3
ATOM      3  C   UNL A   1      36.807  22.140  25.549  1.00  0.00     0.116 C 
BRANCH   3   4
ATOM      4  N   UNL A   1      35.797  21.643  26.470  1.00  0.00    -0.354 N 
ATOM      5  C   UNL A   1      34.435  21.789  26.437  1.00  0.00     0.245 C 
ATOM      6  O   UNL A   1      33.810  21.365  27.414  1.00  0.00    -0.273 OA
ATOM      7  H   UNL A   1      36.144  21.123  27.231  1.00  0.00     0.163 HD
BRANCH   5   8
ATOM      8  C   UNL A   1      33.740  22.425  25.224  1.00  0.00     0.199 C 
BRANCH   8   9
ATOM      9  N   UNL A   1      33.144  23.708  25.614  1.00  0.00    -0.257 N 
ATOM     10  C   UNL A   1      33.656  27.205  25.953  1.00  0.00     0.069 C 
ATOM     11  C   UNL A   1      33.145  25.815  25.929  1.00  0.00     0.060 A 
ATOM     12  C   UNL A   1      31.908  25.339  26.408  1.00  0.00     0.048 A 
ATOM     13  N   UNL A   1      33.885  24.827  25.421  1.00  0.00    -0.177 NA
ATOM     14  C   UNL A   1      31.923  23.977  26.190  1.00  0.00     0.037 A 
ATOM     15  C   UNL A   1      30.884  22.967  26.510  1.00  0.00     0.066 C 
ENDBRANCH   8   9
BRANCH   8  16
ATOM     16  C   UNL A   1      32.715  21.496  24.508  1.00  0.00     0.017 C 
ATOM     17  C   UNL A   1      32.388  22.001  23.093  1.00  0.00     0.010 C 
ATOM     18  C   UNL A   1      33.216  20.049  24.382  1.00  0.00     0.010 C 
ENDBRANCH   8  16
ENDBRANCH   5   8
ENDBRANCH   3   4
ENDBRANCH   2   3
ENDBRANCH   1   2
BRANCH   1  19
ATOM     19  C   UNL A   1      39.083  20.186  25.955  1.00  0.00     0.116 C 
BRANCH  19  20
ATOM     20  N   UNL A   1      40.209  19.255  25.864  1.00  0.00    -0.352 N 
ATOM     21  C   UNL A   1      41.555  19.560  25.885  1.00  0.00     0.251 C 
ATOM     22  H   UNL A   1      39.981  18.301  25.780  1.00  0.00     0.163 HD
ATOM     23  O   UNL A   1      42.391  18.787  25.407  1.00  0.00    -0.269 OA
BRANCH  21  24
ATOM     24  C   UNL A   1      41.988  20.821  26.506  1.00  0.00     0.039 A 
ATOM     25  C   UNL A   1      42.496  21.885  25.754  1.00  0.00     0.014 A 
ATOM     26  C   UNL A   1      41.844  20.930  27.886  1.00  0.00     0.014 A 
ATOM     27  C   UNL A   1      42.775  23.089  26.399  1.00  0.00     0.010 A 
ATOM     28  C   UNL A   1      41.959  22.153  28.487  1.00  0.00     0.010 A 
ATOM     29  C   UNL A   1      42.483  23.220  27.766  1.00  0.00    -0.014 A 
BRANCH  29  30
ATOM     30  C   UNL A   1      42.568  24.510  28.445  1.00  0.00     0.031 A 
ATOM     31  C   UNL A   1      41.461  25.441  28.090  1.00  0.00     0.074 A 
ATOM     32  C   UNL A   1      43.399  24.724  29.491  1.00  0.00     0.049 A 
ATOM     33  N   UNL A   1      41.545  26.550  27.436  1.00  0.00    -0.248 NA
ATOM     34  C   UNL A   1      40.075  25.008  28.351  1.00  0.00     0.031 C 
ATOM     35  C   UNL A   1      44.302  23.755  30.130  1.00  0.00     0.029 A 
ATOM     36  N   UNL A   1      43.519  25.811  30.305  1.00  0.00    -0.354 N 
ATOM     37  C   UNL A   1      40.257  27.077  27.423  1.00  0.00     0.074 A 
ATOM     38  C   UNL A   1      39.377  25.996  27.787  1.00  0.00     0.031 C 
ATOM     39  C   UNL A   1      44.660  24.203  31.354  1.00  0.00     0.029 A 
ATOM     40  C   UNL A   1      44.161  25.555  31.516  1.00  0.00     0.049 A 
ATOM     41  H   UNL A   1      43.180  26.701  30.058  1.00  0.00     0.167 HD
ATOM     42  C   UNL A   1      40.057  28.425  27.451  1.00  0.00     0.031 A 
ATOM     43  C   UNL A   1      44.255  26.381  32.589  1.00  0.00     0.031 A 
ATOM     44  C   UNL A   1      41.272  29.137  27.134  1.00  0.00     0.049 A 
ATOM     45  C   UNL A   1      43.951  27.748  32.117  1.00  0.00     0.074 A 
ATOM     46  C   UNL A   1      42.147  29.178  26.067  1.00  0.00     0.029 A 
ATOM     47  N   UNL A   1      41.948  29.672  28.203  1.00  0.00    -0.354 N 
ATOM     48  N   UNL A   1      44.721  28.414  31.307  1.00  0.00    -0.248 NA
ATOM     49  C   UNL A   1      42.572  28.201  32.190  1.00  0.00     0.031 C 
ATOM     50  C   UNL A   1      43.440  29.323  26.655  1.00  0.00     0.029 A 
ATOM     51  C   UNL A   1      43.284  29.445  28.037  1.00  0.00     0.049 A 
ATOM     52  H   UNL A   1      41.536  30.141  28.964  1.00  0.00     0.167 HD
ATOM     53  C   UNL A   1      43.843  29.038  30.434  1.00  0.00     0.074 A 
ATOM     54  C   UNL A   1      42.540  28.971  31.098  1.00  0.00     0.031 C 
ATOM     55  C   UNL A   1      44.206  29.276  29.138  1.00  0.00     0.031 A 
BRANCH  42  56
ATOM     56  C   UNL A   1      38.965  29.086  28.274  1.00  0.00    -0.014 A 
ATOM     57  C   UNL A   1      38.937  28.830  29.660  1.00  0.00     0.009 A 
ATOM     58  C   UNL A   1      37.800  29.652  27.721  1.00  0.00     0.009 A 
ATOM     59  C   UNL A   1      37.771  29.005  30.413  1.00  0.00     0.001 A 
ATOM     60  C   UNL A   1      36.648  29.871  28.481  1.00  0.00     0.001 A 
ATOM     61  C   UNL A   1      36.621  29.512  29.818  1.00  0.00     0.000 A 
ENDBRANCH  42  56
BRANCH  43  62
ATOM     62  C   UNL A   1      44.339  26.065  34.034  1.00  0.00    -0.014 A 
ATOM     63  C   UNL A   1      43.328  25.322  34.668  1.00  0.00     0.009 A 
ATOM     64  C   UNL A   1      45.549  26.241  34.729  1.00  0.00     0.009 A 
ATOM     65  C   UNL A   1      43.537  24.742  35.928  1.00  0.00     0.001 A 
ATOM     66  C   UNL A   1      45.758  25.662  35.987  1.00  0.00     0.001 A 
ATOM     67  C   UNL A   1      44.756  24.900  36.579  1.00  0.00     0.000 A 
ENDBRANCH  43  62
BRANCH  55  68
ATOM     68  C   UNL A   1      45.662  29.140  28.775  1.00  0.00    -0.014 A 
ATOM     69  C   UNL A   1      46.577  30.207  28.793  1.00  0.00     0.009 A 
ATOM     70  C   UNL A   1      46.151  27.847  28.540  1.00  0.00     0.009 A 
ATOM     71  C   UNL A   1      47.938  29.984  28.556  1.00  0.00     0.001 A 
ATOM     72  C   UNL A   1      47.510  27.621  28.326  1.00  0.00     0.001 A 
ATOM     73  C   UNL A   1      48.404  28.689  28.328  1.00  0.00     0.000 A 
ENDBRANCH  55  68
ENDBRANCH  29  30
ENDBRANCH  21  24
ENDBRANCH  19  20
ENDBRANCH   1  19
TORSDOF 13
ENDMDL
MODEL 2
REMARK VINA RESULT:     -10.8      1.114      2.187
REMARK SMILES Cc1cc(C)n([C@@H](C(=O)NCCCCNC(=O)c2ccc(-c3c4nc(c(-c5ccccc5)c5ccc([nH]5)c(-c5ccccc5)c5nc(c(-c6ccccc6)c6ccc3[nH]6)C=C5)C=C4)cc2)C(C)C)n1
REMARK SMILES IDX 13 1 12 2 11 3 10 4 8 5 9 6 7 8 6 9 1 10 2 11 3 12 69 13
REMARK SMILES IDX 4 14 5 15 66 16 67 17 68 18 14 19 15 20 16 21 17 23 18 24
REMARK SMILES IDX 19 25 65 26 20 27 64 28 21 29 22 30 23 31 58 32 24 33 63 34
REMARK SMILES IDX 57 35 59 36 25 37 62 38 56 39 55 40 26 42 48 43 33 44 47 45
REMARK SMILES IDX 34 46 37 47 46 48 60 49 35 50 36 51 45 53 61 54 38 55 27 56
REMARK SMILES IDX 28 57 32 58 29 59 31 60 30 61 49 62 50 63 54 64 51 65 53 66
REMARK SMILES IDX 52 67 39 68 40 69 44 70 41 71 43 72 42 73
REMARK H PARENT 10 7 15 22 59 41 37 52
REMARK Flexibility Score: inf
ROOT
ATOM      1  C   UNL A   1      37.897  19.739  24.908  1.00  0.00     0.023 C 
ENDROOT
BRANCH   1   2
ATOM      2  C   UNL A   1      36.714  20.719  24.862  1.00  0.00     0.023 C 
BRANCH   2   3
ATOM      3  C   UNL A   1      37.065  22.194  24.626  1.00  0.00     0.116 C 
BRANCH   3   4
ATOM      4  N   UNL A   1      36.326  22.767  23.512  1.00  0.00    -0.354 N 
ATOM      5  C   UNL A   1      35.020  23.178  23.447  1.00  0.00     0.245 C 
ATOM      6  O   UNL A   1      34.604  23.522  22.337  1.00  0.00    -0.273 OA
ATOM      7  H   UNL A   1      36.841  22.877  22.680  1.00  0.00     0.163 HD
BRANCH   5   8
ATOM      8  C   UNL A   1      34.146  23.228  24.708  1.00  0.00     0.199 C 
BRANCH   8   9
ATOM      9  N   UNL A   1      33.652  21.882  25.020  1.00  0.00    -0.257 N 
ATOM     10  C   UNL A   1      32.312  18.866  23.709  1.00  0.00     0.069 C 
ATOM     11  C   UNL A   1      32.837  19.972  24.544  1.00  0.00     0.060 A 
ATOM     12  C   UNL A   1      32.896  20.042  25.949  1.00  0.00     0.048 A 
ATOM     13  N   UNL A   1      33.322  21.080  23.978  1.00  0.00    -0.177 NA
ATOM     14  C   UNL A   1      33.432  21.281  26.238  1.00  0.00     0.037 A 
ATOM     15  C   UNL A   1      33.709  21.895  27.561  1.00  0.00     0.066 C 
ENDBRANCH   8   9
BRANCH   8  16
ATOM     16  C   UNL A   1      32.995  24.277  24.655  1.00  0.00     0.017 C 
ATOM     17  C   UNL A   1      31.636  23.612  24.384  1.00  0.00     0.010 C 
ATOM     18  C   UNL A   1      32.869  25.083  25.956  1.00  0.00     0.010 C 
ENDBRANCH   8  16
ENDBRANCH   5   8
ENDBRANCH   3   4
ENDBRANCH   2   3
ENDBRANCH   1   2
BRANCH   1  19
ATOM     19  C   UNL A   1      39.105  20.230  25.691  1.00  0.00     0.116 C 
BRANCH  19  20
ATOM     20  N   UNL A   1      40.167  19.229  25.806  1.00  0.00    -0.352 N 
ATOM     21  C   UNL A   1      41.518  19.452  25.974  1.00  0.00     0.251 C 
ATOM     22  H   UNL A   1      39.885  18.287  25.759  1.00  0.00     0.163 HD
ATOM     23  O   UNL A   1      42.350  18.596  25.658  1.00  0.00    -0.269 OA
BRANCH  21  24
ATOM     24  C   UNL A   1      41.959  20.728  26.557  1.00  0.00     0.039 A 
ATOM     25  C   UNL A   1      42.432  21.783  25.769  1.00  0.00     0.014 A 
ATOM     26  C   UNL A   1      41.860  20.862  27.939  1.00  0.00     0.014 A 
ATOM     27  C   UNL A   1      42.721  23.001  26.382  1.00  0.00     0.010 A 
ATOM     28  C   UNL A   1      41.984  22.097  28.513  1.00  0.00     0.010 A 
ATOM     29  C   UNL A   1      42.475  23.155  27.756  1.00  0.00    -0.014 A 
BRANCH  29  30
ATOM     30  C   UNL A   1      42.569  24.458  28.408  1.00  0.00     0.031 A 
ATOM     31  C   UNL A   1      41.453  25.379  28.058  1.00  0.00     0.074 A 
ATOM     32  C   UNL A   1      43.422  24.694  29.432  1.00  0.00     0.049 A 
ATOM     33  N   UNL A   1      41.519  26.476  27.381  1.00  0.00    -0.248 NA
ATOM     34  C   UNL A   1      40.073  24.947  28.356  1.00  0.00     0.031 C 
ATOM     35  C   UNL A   1      44.341  23.740  30.070  1.00  0.00     0.029 A 
ATOM     36  N   UNL A   1      43.555  25.797  30.222  1.00  0.00    -0.354 N 
ATOM     37  C   UNL A   1      40.230  26.999  27.385  1.00  0.00     0.074 A 
ATOM     38  C   UNL A   1      39.362  25.923  27.788  1.00  0.00     0.031 C 
ATOM     39  C   UNL A   1      44.723  24.212  31.277  1.00  0.00     0.029 A 
ATOM     40  C   UNL A   1      44.224  25.566  31.423  1.00  0.00     0.049 A 
ATOM     41  H   UNL A   1      43.209  26.681  29.965  1.00  0.00     0.167 HD
ATOM     42  C   UNL A   1      40.027  28.346  27.391  1.00  0.00     0.031 A 
ATOM     43  C   UNL A   1      44.338  26.412  32.478  1.00  0.00     0.031 A 
ATOM     44  C   UNL A   1      41.234  29.055  27.035  1.00  0.00     0.049 A 
ATOM     45  C   UNL A   1      44.020  27.769  31.986  1.00  0.00     0.074 A 
ATOM     46  C   UNL A   1      42.086  29.077  25.949  1.00  0.00     0.029 A 
ATOM     47  N   UNL A   1      41.931  29.612  28.079  1.00  0.00    -0.354 N 
ATOM     48  N   UNL A   1      44.771  28.422  31.147  1.00  0.00    -0.248 NA
ATOM     49  C   UNL A   1      42.642  28.221  32.080  1.00  0.00     0.031 C 
ATOM     50  C   UNL A   1      43.390  29.238  26.507  1.00  0.00     0.029 A 
ATOM     51  C   UNL A   1      43.263  29.386  27.889  1.00  0.00     0.049 A 
ATOM     52  H   UNL A   1      41.533  30.095  28.839  1.00  0.00     0.167 HD
ATOM     53  C   UNL A   1      43.873  29.026  30.282  1.00  0.00     0.074 A 
ATOM     54  C   UNL A   1      42.585  28.970  30.974  1.00  0.00     0.031 C 
ATOM     55  C   UNL A   1      44.208  29.240  28.974  1.00  0.00     0.031 A 
BRANCH  42  56
ATOM     56  C   UNL A   1      38.951  29.021  28.225  1.00  0.00    -0.014 A 
ATOM     57  C   UNL A   1      38.960  28.801  29.617  1.00  0.00     0.009 A 
ATOM     58  C   UNL A   1      37.768  29.563  27.687  1.00  0.00     0.009 A 
ATOM     59  C   UNL A   1      37.812  28.988  30.395  1.00  0.00     0.001 A 
ATOM     60  C   UNL A   1      36.633  29.793  28.469  1.00  0.00     0.001 A 
ATOM     61  C   UNL A   1      36.643  29.469  29.816  1.00  0.00     0.000 A 
ENDBRANCH  42  56
BRANCH  43  62
ATOM     62  C   UNL A   1      44.453  26.125  33.927  1.00  0.00    -0.014 A 
ATOM     63  C   UNL A   1      45.653  26.375  34.617  1.00  0.00     0.009 A 
ATOM     64  C   UNL A   1      43.301  25.879  34.695  1.00  0.00     0.009 A 
ATOM     65  C   UNL A   1      45.687  26.421  36.018  1.00  0.00     0.001 A 
ATOM     66  C   UNL A   1      43.335  25.924  36.094  1.00  0.00     0.001 A 
ATOM     67  C   UNL A   1      44.525  26.210  36.755  1.00  0.00     0.000 A 
ENDBRANCH  43  62
BRANCH  55  68
ATOM     68  C   UNL A   1      45.657  29.101  28.583  1.00  0.00    -0.014 A 
ATOM     69  C   UNL A   1      46.251  27.886  28.196  1.00  0.00     0.009 A 
ATOM     70  C   UNL A   1      46.410  30.278  28.469  1.00  0.00     0.009 A 
ATOM     71  C   UNL A   1      47.572  27.854  27.734  1.00  0.00     0.001 A 
ATOM     72  C   UNL A   1      47.719  30.248  27.988  1.00  0.00     0.001 A 
ATOM     73  C   UNL A   1      48.302  29.036  27.626  1.00  0.00     0.000 A 
ENDBRANCH  55  68
ENDBRANCH  29  30
ENDBRANCH  21  24
ENDBRANCH  19  20
ENDBRANCH   1  19
TORSDOF 13
ENDMDL
MODEL 3
REMARK VINA RESULT:     -10.7      4.231      9.064
REMARK SMILES Cc1cc(C)n([C@@H](C(=O)NCCCCNC(=O)c2ccc(-c3c4nc(c(-c5ccccc5)c5ccc([nH]5)c(-c5ccccc5)c5nc(c(-c6ccccc6)c6ccc3[nH]6)C=C5)C=C4)cc2)C(C)C)n1
REMARK SMILES IDX 13 1 12 2 11 3 10 4 8 5 9 6 7 8 6 9 1 10 2 11 3 12 69 13
REMARK SMILES IDX 4 14 5 15 66 16 67 17 68 18 14 19 15 20 16 21 17 23 18 24
REMARK SMILES IDX 19 25 65 26 20 27 64 28 21 29 22 30 23 31 58 32 24 33 63 34
REMARK SMILES IDX 57 35 59 36 25 37 62 38 56 39 55 40 26 42 48 43 33 44 47 45
REMARK SMILES IDX 34 46 37 47 46 48 60 49 35 50 36 51 45 53 61 54 38 55 27 56
REMARK SMILES IDX 28 57 32 58 29 59 31 60 30 61 49 62 50 63 54 64 51 65 53 66
REMARK SMILES IDX 52 67 39 68 40 69 44 70 41 71 43 72 42 73
REMARK H PARENT 10 7 15 22 59 41 37 52
REMARK Flexibility Score: inf
ROOT
ATOM      1  C   UNL A   1      31.271  31.796  26.728  1.00  0.00     0.023 C 
ENDROOT
BRANCH   1   2
ATOM      2  C   UNL A   1      31.443  30.679  25.687  1.00  0.00     0.023 C 
BRANCH   2   3
ATOM      3  C   UNL A   1      32.767  29.904  25.736  1.00  0.00     0.116 C 
BRANCH   3   4
ATOM      4  N   UNL A   1      33.347  29.715  24.416  1.00  0.00    -0.354 N 
ATOM      5  C   UNL A   1      33.176  28.689  23.523  1.00  0.00     0.245 C 
ATOM      6  O   UNL A   1      33.884  28.714  22.511  1.00  0.00    -0.273 OA
ATOM      7  H   UNL A   1      33.954  30.432  24.118  1.00  0.00     0.163 HD
BRANCH   5   8
ATOM      8  C   UNL A   1      32.132  27.592  23.774  1.00  0.00     0.199 C 
BRANCH   8   9
ATOM      9  N   UNL A   1      32.778  26.276  23.727  1.00  0.00    -0.257 N 
ATOM     10  C   UNL A   1      33.212  23.278  21.875  1.00  0.00     0.069 C 
ATOM     11  C   UNL A   1      33.227  24.381  22.864  1.00  0.00     0.060 A 
ATOM     12  C   UNL A   1      33.824  24.391  24.140  1.00  0.00     0.048 A 
ATOM     13  N   UNL A   1      32.614  25.538  22.603  1.00  0.00    -0.177 NA
ATOM     14  C   UNL A   1      33.530  25.626  24.680  1.00  0.00     0.037 A 
ATOM     15  C   UNL A   1      33.897  26.178  26.008  1.00  0.00     0.066 C 
ENDBRANCH   8   9
BRANCH   8  16
ATOM     16  C   UNL A   1      30.883  27.666  22.846  1.00  0.00     0.017 C 
ATOM     17  C   UNL A   1      29.630  27.106  23.540  1.00  0.00     0.010 C 
ATOM     18  C   UNL A   1      30.566  29.100  22.395  1.00  0.00     0.010 C 
ENDBRANCH   8  16
ENDBRANCH   5   8
ENDBRANCH   3   4
ENDBRANCH   2   3
ENDBRANCH   1   2
BRANCH   1  19
ATOM     19  C   UNL A   1      32.562  32.485  27.147  1.00  0.00     0.116 C 
BRANCH  19  20
ATOM     20  N   UNL A   1      32.371  33.881  27.541  1.00  0.00    -0.352 N 
ATOM     21  C   UNL A   1      33.010  34.563  28.557  1.00  0.00     0.251 C 
ATOM     22  H   UNL A   1      31.711  34.395  27.021  1.00  0.00     0.163 HD
ATOM     23  O   UNL A   1      32.508  35.571  29.062  1.00  0.00    -0.269 OA
BRANCH  21  24
ATOM     24  C   UNL A   1      34.317  34.078  29.024  1.00  0.00     0.039 A 
ATOM     25  C   UNL A   1      34.461  33.346  30.207  1.00  0.00     0.014 A 
ATOM     26  C   UNL A   1      35.419  34.353  28.219  1.00  0.00     0.014 A 
ATOM     27  C   UNL A   1      35.713  32.821  30.523  1.00  0.00     0.010 A 
ATOM     28  C   UNL A   1      36.602  33.703  28.441  1.00  0.00     0.010 A 
ATOM     29  C   UNL A   1      36.777  32.989  29.621  1.00  0.00    -0.014 A 
BRANCH  29  30
ATOM     30  C   UNL A   1      38.049  32.297  29.803  1.00  0.00     0.031 A 
ATOM     31  C   UNL A   1      38.016  30.871  29.375  1.00  0.00     0.074 A 
ATOM     32  C   UNL A   1      39.201  32.957  30.065  1.00  0.00     0.049 A 
ATOM     33  N   UNL A   1      38.120  29.822  30.120  1.00  0.00    -0.248 NA
ATOM     34  C   UNL A   1      37.661  30.572  27.974  1.00  0.00     0.031 C 
ATOM     35  C   UNL A   1      39.394  34.410  30.180  1.00  0.00     0.029 A 
ATOM     36  N   UNL A   1      40.479  32.489  30.144  1.00  0.00    -0.354 N 
ATOM     37  C   UNL A   1      38.096  28.738  29.248  1.00  0.00     0.074 A 
ATOM     38  C   UNL A   1      37.587  29.240  27.998  1.00  0.00     0.031 C 
ATOM     39  C   UNL A   1      40.705  34.709  30.050  1.00  0.00     0.029 A 
ATOM     40  C   UNL A   1      41.460  33.471  30.018  1.00  0.00     0.049 A 
ATOM     41  H   UNL A   1      40.690  31.538  30.280  1.00  0.00     0.167 HD
ATOM     42  C   UNL A   1      38.811  27.611  29.522  1.00  0.00     0.031 A 
ATOM     43  C   UNL A   1      42.796  33.286  29.867  1.00  0.00     0.031 A 
ATOM     44  C   UNL A   1      39.233  27.586  30.903  1.00  0.00     0.049 A 
ATOM     45  C   UNL A   1      43.097  31.904  30.297  1.00  0.00     0.074 A 
ATOM     46  C   UNL A   1      38.606  27.618  32.131  1.00  0.00     0.029 A 
ATOM     47  N   UNL A   1      40.544  27.927  31.134  1.00  0.00    -0.354 N 
ATOM     48  N   UNL A   1      42.994  31.497  31.528  1.00  0.00    -0.248 NA
ATOM     49  C   UNL A   1      43.080  30.860  29.286  1.00  0.00     0.031 C 
ATOM     50  C   UNL A   1      39.461  28.403  32.963  1.00  0.00     0.029 A 
ATOM     51  C   UNL A   1      40.600  28.741  32.228  1.00  0.00     0.049 A 
ATOM     52  H   UNL A   1      41.315  27.634  30.597  1.00  0.00     0.167 HD
ATOM     53  C   UNL A   1      42.430  30.235  31.427  1.00  0.00     0.074 A 
ATOM     54  C   UNL A   1      42.620  29.848  30.029  1.00  0.00     0.031 C 
ATOM     55  C   UNL A   1      41.606  29.763  32.410  1.00  0.00     0.031 A 
BRANCH  42  56
ATOM     56  C   UNL A   1      39.578  26.836  28.464  1.00  0.00    -0.014 A 
ATOM     57  C   UNL A   1      39.528  25.428  28.510  1.00  0.00     0.009 A 
ATOM     58  C   UNL A   1      40.589  27.398  27.661  1.00  0.00     0.009 A 
ATOM     59  C   UNL A   1      40.510  24.641  27.899  1.00  0.00     0.001 A 
ATOM     60  C   UNL A   1      41.545  26.612  27.012  1.00  0.00     0.001 A 
ATOM     61  C   UNL A   1      41.528  25.235  27.162  1.00  0.00     0.000 A 
ENDBRANCH  42  56
BRANCH  43  62
ATOM     62  C   UNL A   1      43.802  34.107  29.154  1.00  0.00    -0.014 A 
ATOM     63  C   UNL A   1      44.998  34.489  29.786  1.00  0.00     0.009 A 
ATOM     64  C   UNL A   1      43.721  34.273  27.760  1.00  0.00     0.009 A 
ATOM     65  C   UNL A   1      46.086  34.975  29.046  1.00  0.00     0.001 A 
ATOM     66  C   UNL A   1      44.807  34.760  27.021  1.00  0.00     0.001 A 
ATOM     67  C   UNL A   1      45.994  35.096  27.663  1.00  0.00     0.000 A 
ENDBRANCH  43  62
BRANCH  55  68
ATOM     68  C   UNL A   1      41.583  30.497  33.726  1.00  0.00    -0.014 A 
ATOM     69  C   UNL A   1      42.400  30.168  34.822  1.00  0.00     0.009 A 
ATOM     70  C   UNL A   1      40.796  31.655  33.805  1.00  0.00     0.009 A 
ATOM     71  C   UNL A   1      42.407  30.966  35.971  1.00  0.00     0.001 A 
ATOM     72  C   UNL A   1      40.819  32.462  34.942  1.00  0.00     0.001 A 
ATOM     73  C   UNL A   1      41.620  32.115  36.028  1.00  0.00     0.000 A 
ENDBRANCH  55  68
ENDBRANCH  29  30
ENDBRANCH  21  24
ENDBRANCH  19  20
ENDBRANCH   1  19
TORSDOF 13
ENDMDL
