MODEL 1
REMARK VINA RESULT:     -11.3      0.000      0.000
REMARK SMILES O=C(NCCCCNC(=O)c1ccc(OC[C@H]2C[C@H]3CC[C@@H]2C3)c(Cl)c1)c1ccc(-c2c3nc(c(-c4ccccc4)c4ccc([nH]4)c(-c4ccccc4)c4nc(c(-c5ccccc5)c5ccc2[nH]5)C=C4)C=C3)cc1
REMARK SMILES IDX 6 1 5 2 4 3 3 4 1 5 2 6 27 8 28 9 74 10 29 11 73 12 30 13
REMARK SMILES IDX 31 14 32 15 67 16 33 17 72 18 66 19 68 20 34 21 71 22 65 23
REMARK SMILES IDX 64 24 35 26 57 27 42 28 56 29 43 30 46 31 55 32 69 33 44 34
REMARK SMILES IDX 45 35 54 37 70 38 47 39 36 40 37 41 41 42 38 43 40 44 39 45
REMARK SMILES IDX 58 46 59 47 63 48 60 49 62 50 61 51 48 52 49 53 53 54 50 55
REMARK SMILES IDX 52 56 51 57 7 58 8 59 9 60 10 62 11 63 12 64 26 65 13 66
REMARK SMILES IDX 24 67 14 68 25 69 15 70 16 71 17 72 18 73 22 74 19 75 21 76
REMARK SMILES IDX 23 77 20 78
REMARK H PARENT 3 7 68 25 46 36 8 61
REMARK Flexibility Score: inf
ROOT
ATOM      1  C   UNL A   1      36.130  21.153  24.759  1.00  0.00     0.023 C 
ENDROOT
BRANCH   1   2
ATOM      2  C   UNL A   1      37.237  20.102  24.851  1.00  0.00     0.023 C 
BRANCH   2   3
ATOM      3  C   UNL A   1      38.489  20.561  25.589  1.00  0.00     0.116 C 
BRANCH   3   4
ATOM      4  N   UNL A   1      39.532  19.546  25.603  1.00  0.00    -0.352 N 
ATOM      5  O   UNL A   1      41.625  18.733  25.809  1.00  0.00    -0.269 OA
ATOM      6  C   UNL A   1      40.842  19.660  25.981  1.00  0.00     0.251 C 
ATOM      7  H   UNL A   1      39.255  18.651  25.298  1.00  0.00     0.163 HD
BRANCH   6   8
ATOM      8  C   UNL A   1      41.306  20.926  26.569  1.00  0.00     0.039 A 
ATOM      9  C   UNL A   1      41.214  21.146  27.948  1.00  0.00     0.014 A 
ATOM     10  C   UNL A   1      41.826  21.905  25.720  1.00  0.00     0.014 A 
ATOM     11  C   UNL A   1      41.544  22.392  28.467  1.00  0.00     0.010 A 
ATOM     12  C   UNL A   1      42.214  23.132  26.251  1.00  0.00     0.010 A 
ATOM     13  C   UNL A   1      42.054  23.390  27.623  1.00  0.00    -0.014 A 
BRANCH  13  14
ATOM     14  C   UNL A   1      42.473  24.693  28.181  1.00  0.00     0.031 A 
ATOM     15  C   UNL A   1      41.468  25.782  28.414  1.00  0.00     0.074 A 
ATOM     16  C   UNL A   1      43.777  24.899  28.431  1.00  0.00     0.049 A 
ATOM     17  N   UNL A   1      41.670  27.017  28.796  1.00  0.00    -0.248 NA
ATOM     18  C   UNL A   1      40.057  25.444  28.178  1.00  0.00     0.031 C 
ATOM     19  C   UNL A   1      44.840  23.909  28.241  1.00  0.00     0.029 A 
ATOM     20  N   UNL A   1      44.432  26.014  28.884  1.00  0.00    -0.354 N 
ATOM     21  C   UNL A   1      40.416  27.612  28.818  1.00  0.00     0.074 A 
ATOM     22  C   UNL A   1      39.462  26.608  28.398  1.00  0.00     0.031 C 
ATOM     23  C   UNL A   1      46.014  24.460  28.579  1.00  0.00     0.029 A 
ATOM     24  C   UNL A   1      45.794  25.852  28.952  1.00  0.00     0.049 A 
ATOM     25  H   UNL A   1      43.973  26.847  29.134  1.00  0.00     0.167 HD
ATOM     26  C   UNL A   1      40.095  28.885  29.155  1.00  0.00     0.031 A 
ATOM     27  C   UNL A   1      46.763  26.737  29.246  1.00  0.00     0.031 A 
ATOM     28  C   UNL A   1      41.051  29.876  29.569  1.00  0.00     0.049 A 
ATOM     29  C   UNL A   1      46.387  28.147  29.582  1.00  0.00     0.074 A 
ATOM     30  C   UNL A   1      40.822  31.180  29.971  1.00  0.00     0.029 A 
ATOM     31  N   UNL A   1      42.422  29.674  29.626  1.00  0.00    -0.354 N 
ATOM     32  N   UNL A   1      45.194  28.690  29.631  1.00  0.00    -0.248 NA
ATOM     33  C   UNL A   1      47.486  29.066  29.905  1.00  0.00     0.031 C 
ATOM     34  C   UNL A   1      42.060  31.781  30.226  1.00  0.00     0.029 A 
ATOM     35  C   UNL A   1      43.055  30.836  30.030  1.00  0.00     0.049 A 
ATOM     36  H   UNL A   1      42.877  28.828  29.410  1.00  0.00     0.167 HD
ATOM     37  C   UNL A   1      45.395  30.011  30.007  1.00  0.00     0.074 A 
ATOM     38  C   UNL A   1      46.825  30.183  30.181  1.00  0.00     0.031 C 
ATOM     39  C   UNL A   1      44.477  30.989  30.195  1.00  0.00     0.031 A 
BRANCH  26  40
ATOM     40  C   UNL A   1      38.650  29.280  29.048  1.00  0.00    -0.014 A 
ATOM     41  C   UNL A   1      38.110  29.769  27.847  1.00  0.00     0.009 A 
ATOM     42  C   UNL A   1      37.809  29.142  30.164  1.00  0.00     0.009 A 
ATOM     43  C   UNL A   1      36.767  30.146  27.779  1.00  0.00     0.001 A 
ATOM     44  C   UNL A   1      36.461  29.496  30.085  1.00  0.00     0.001 A 
ATOM     45  C   UNL A   1      35.944  30.009  28.896  1.00  0.00     0.000 A 
ENDBRANCH  26  40
BRANCH  27  46
ATOM     46  C   UNL A   1      48.178  26.295  29.209  1.00  0.00    -0.014 A 
ATOM     47  C   UNL A   1      48.931  26.415  28.033  1.00  0.00     0.009 A 
ATOM     48  C   UNL A   1      48.800  25.815  30.373  1.00  0.00     0.009 A 
ATOM     49  C   UNL A   1      50.281  26.057  28.023  1.00  0.00     0.001 A 
ATOM     50  C   UNL A   1      50.155  25.481  30.364  1.00  0.00     0.001 A 
ATOM     51  C   UNL A   1      50.893  25.599  29.189  1.00  0.00     0.000 A 
ENDBRANCH  27  46
BRANCH  39  52
ATOM     52  C   UNL A   1      44.987  32.327  30.642  1.00  0.00    -0.014 A 
ATOM     53  C   UNL A   1      45.143  32.626  32.004  1.00  0.00     0.009 A 
ATOM     54  C   UNL A   1      45.368  33.279  29.683  1.00  0.00     0.009 A 
ATOM     55  C   UNL A   1      45.657  33.863  32.397  1.00  0.00     0.001 A 
ATOM     56  C   UNL A   1      45.901  34.505  30.079  1.00  0.00     0.001 A 
ATOM     57  C   UNL A   1      46.040  34.798  31.435  1.00  0.00     0.000 A 
ENDBRANCH  39  52
ENDBRANCH  13  14
ENDBRANCH   6   8
ENDBRANCH   3   4
ENDBRANCH   2   3
ENDBRANCH   1   2
BRANCH   1  58
ATOM     58  C   UNL A   1      35.066  21.028  25.844  1.00  0.00     0.116 C 
BRANCH  58  59
ATOM     59  N   UNL A   1      34.185  19.910  25.577  1.00  0.00    -0.352 N 
ATOM     60  C   UNL A   1      32.908  19.968  25.095  1.00  0.00     0.251 C 
ATOM     61  H   UNL A   1      34.545  19.012  25.762  1.00  0.00     0.163 HD
ATOM     62  O   UNL A   1      32.220  18.965  24.949  1.00  0.00    -0.269 OA
BRANCH  60  63
ATOM     63  C   UNL A   1      32.380  21.281  24.713  1.00  0.00     0.041 A 
ATOM     64  C   UNL A   1      32.692  21.777  23.449  1.00  0.00     0.018 A 
ATOM     65  C   UNL A   1      31.611  22.019  25.612  1.00  0.00     0.038 A 
ATOM     66  C   UNL A   1      32.125  22.978  23.043  1.00  0.00     0.049 A 
ATOM     67  C   UNL A   1      31.064  23.236  25.201  1.00  0.00     0.083 A 
ATOM     68  C   UNL A   1      31.215  23.648  23.871  1.00  0.00     0.137 A 
ATOM     69  Cl  UNL A   1      30.270  24.185  26.406  1.00  0.00    -0.080 Cl
BRANCH  68  70
ATOM     70  O   UNL A   1      30.544  24.665  23.248  1.00  0.00    -0.492 OA
BRANCH  70  71
ATOM     71  C   UNL A   1      31.351  25.633  22.567  1.00  0.00     0.233 C 
BRANCH  71  72
ATOM     72  C   UNL A   1      31.869  26.852  23.363  1.00  0.00     0.030 C 
ATOM     73  C   UNL A   1      31.372  27.150  24.789  1.00  0.00     0.011 C 
ATOM     74  C   UNL A   1      33.415  26.933  23.524  1.00  0.00    -0.004 C 
ATOM     75  C   UNL A   1      32.677  27.413  25.569  1.00  0.00    -0.010 C 
ATOM     76  C   UNL A   1      33.973  25.782  24.375  1.00  0.00     0.004 C 
ATOM     77  C   UNL A   1      33.547  28.095  24.515  1.00  0.00     0.007 C 
ATOM     78  C   UNL A   1      33.424  26.085  25.775  1.00  0.00     0.004 C 
ENDBRANCH  71  72
ENDBRANCH  70  71
ENDBRANCH  68  70
ENDBRANCH  60  63
ENDBRANCH  58  59
ENDBRANCH   1  58
TORSDOF 14
ENDMDL
MODEL 2
REMARK VINA RESULT:     -11.1      2.283      7.335
REMARK SMILES O=C(NCCCCNC(=O)c1ccc(OC[C@H]2C[C@H]3CC[C@@H]2C3)c(Cl)c1)c1ccc(-c2c3nc(c(-c4ccccc4)c4ccc([nH]4)c(-c4ccccc4)c4nc(c(-c5ccccc5)c5ccc2[nH]5)C=C4)C=C3)cc1
REMARK SMILES IDX 6 1 5 2 4 3 3 4 1 5 2 6 27 8 28 9 74 10 29 11 73 12 30 13
REMARK SMILES IDX 31 14 32 15 67 16 33 17 72 18 66 19 68 20 34 21 71 22 65 23
REMARK SMILES IDX 64 24 35 26 57 27 42 28 56 29 43 30 46 31 55 32 69 33 44 34
REMARK SMILES IDX 45 35 54 37 70 38 47 39 36 40 37 41 41 42 38 43 40 44 39 45
REMARK SMILES IDX 58 46 59 47 63 48 60 49 62 50 61 51 48 52 49 53 53 54 50 55
REMARK SMILES IDX 52 56 51 57 7 58 8 59 9 60 10 62 11 63 12 64 26 65 13 66
REMARK SMILES IDX 24 67 14 68 25 69 15 70 16 71 17 72 18 73 22 74 19 75 21 76
REMARK SMILES IDX 23 77 20 78
REMARK H PARENT 3 7 68 25 46 36 8 61
REMARK Flexibility Score: inf
ROOT
ATOM      1  C   UNL A   1      33.076  29.392  24.931  1.00  0.00     0.023 C 
ENDROOT
BRANCH   1   2
ATOM      2  C   UNL A   1      33.917  28.420  25.759  1.00  0.00     0.023 C 
BRANCH   2   3
ATOM      3  C   UNL A   1      33.769  28.576  27.268  1.00  0.00     0.116 C 
BRANCH   3   4
ATOM      4  N   UNL A   1      33.680  29.970  27.677  1.00  0.00    -0.352 N 
ATOM      5  O   UNL A   1      34.340  31.874  28.688  1.00  0.00    -0.269 OA
ATOM      6  C   UNL A   1      34.622  30.749  28.293  1.00  0.00     0.251 C 
ATOM      7  H   UNL A   1      32.822  30.413  27.485  1.00  0.00     0.163 HD
BRANCH   6   8
ATOM      8  C   UNL A   1      35.973  30.205  28.500  1.00  0.00     0.039 A 
ATOM      9  C   UNL A   1      36.354  29.703  29.749  1.00  0.00     0.014 A 
ATOM     10  C   UNL A   1      36.868  30.216  27.428  1.00  0.00     0.014 A 
ATOM     11  C   UNL A   1      37.670  29.307  29.956  1.00  0.00     0.010 A 
ATOM     12  C   UNL A   1      38.169  29.762  27.621  1.00  0.00     0.010 A 
ATOM     13  C   UNL A   1      38.583  29.326  28.892  1.00  0.00    -0.014 A 
BRANCH  13  14
ATOM     14  C   UNL A   1      39.965  28.840  29.089  1.00  0.00     0.031 A 
ATOM     15  C   UNL A   1      41.039  29.768  29.571  1.00  0.00     0.074 A 
ATOM     16  C   UNL A   1      40.250  27.563  28.782  1.00  0.00     0.049 A 
ATOM     17  N   UNL A   1      42.322  29.543  29.701  1.00  0.00    -0.248 NA
ATOM     18  C   UNL A   1      40.622  31.127  29.947  1.00  0.00     0.031 C 
ATOM     19  C   UNL A   1      39.282  26.573  28.305  1.00  0.00     0.029 A 
ATOM     20  N   UNL A   1      41.439  26.883  28.812  1.00  0.00    -0.354 N 
ATOM     21  C   UNL A   1      42.869  30.740  30.145  1.00  0.00     0.074 A 
ATOM     22  C   UNL A   1      41.783  31.691  30.250  1.00  0.00     0.031 C 
ATOM     23  C   UNL A   1      39.916  25.411  28.091  1.00  0.00     0.029 A 
ATOM     24  C   UNL A   1      41.337  25.591  28.359  1.00  0.00     0.049 A 
ATOM     25  H   UNL A   1      42.283  27.282  29.126  1.00  0.00     0.167 HD
ATOM     26  C   UNL A   1      44.164  31.016  30.433  1.00  0.00     0.031 A 
ATOM     27  C   UNL A   1      42.288  24.664  28.148  1.00  0.00     0.031 A 
ATOM     28  C   UNL A   1      45.237  30.064  30.324  1.00  0.00     0.049 A 
ATOM     29  C   UNL A   1      43.717  25.003  28.442  1.00  0.00     0.074 A 
ATOM     30  C   UNL A   1      46.575  30.233  30.632  1.00  0.00     0.029 A 
ATOM     31  N   UNL A   1      45.093  28.764  29.862  1.00  0.00    -0.354 N 
ATOM     32  N   UNL A   1      44.219  26.128  28.891  1.00  0.00    -0.248 NA
ATOM     33  C   UNL A   1      44.711  23.949  28.201  1.00  0.00     0.031 C 
ATOM     34  C   UNL A   1      47.249  29.049  30.312  1.00  0.00     0.029 A 
ATOM     35  C   UNL A   1      46.322  28.128  29.851  1.00  0.00     0.049 A 
ATOM     36  H   UNL A   1      44.243  28.355  29.582  1.00  0.00     0.167 HD
ATOM     37  C   UNL A   1      45.585  25.913  29.006  1.00  0.00     0.074 A 
ATOM     38  C   UNL A   1      45.831  24.547  28.585  1.00  0.00     0.031 C 
ATOM     39  C   UNL A   1      46.546  26.770  29.426  1.00  0.00     0.031 A 
BRANCH  26  40
ATOM     40  C   UNL A   1      44.489  32.420  30.857  1.00  0.00    -0.014 A 
ATOM     41  C   UNL A   1      44.814  33.413  29.919  1.00  0.00     0.009 A 
ATOM     42  C   UNL A   1      44.450  32.759  32.219  1.00  0.00     0.009 A 
ATOM     43  C   UNL A   1      45.130  34.706  30.340  1.00  0.00     0.001 A 
ATOM     44  C   UNL A   1      44.742  34.059  32.635  1.00  0.00     0.001 A 
ATOM     45  C   UNL A   1      45.092  35.029  31.696  1.00  0.00     0.000 A 
ENDBRANCH  26  40
BRANCH  27  46
ATOM     46  C   UNL A   1      41.895  23.340  27.609  1.00  0.00    -0.014 A 
ATOM     47  C   UNL A   1      42.022  23.060  26.241  1.00  0.00     0.009 A 
ATOM     48  C   UNL A   1      41.457  22.326  28.476  1.00  0.00     0.009 A 
ATOM     49  C   UNL A   1      41.712  21.790  25.752  1.00  0.00     0.001 A 
ATOM     50  C   UNL A   1      41.171  21.050  27.986  1.00  0.00     0.001 A 
ATOM     51  C   UNL A   1      41.295  20.785  26.625  1.00  0.00     0.000 A 
ENDBRANCH  27  46
BRANCH  39  52
ATOM     52  C   UNL A   1      47.951  26.246  29.483  1.00  0.00    -0.014 A 
ATOM     53  C   UNL A   1      48.485  25.731  30.673  1.00  0.00     0.009 A 
ATOM     54  C   UNL A   1      48.727  26.217  28.313  1.00  0.00     0.009 A 
ATOM     55  C   UNL A   1      49.781  25.211  30.694  1.00  0.00     0.001 A 
ATOM     56  C   UNL A   1      50.013  25.678  28.333  1.00  0.00     0.001 A 
ATOM     57  C   UNL A   1      50.541  25.180  29.524  1.00  0.00     0.000 A 
ENDBRANCH  39  52
ENDBRANCH  13  14
ENDBRANCH   6   8
ENDBRANCH   3   4
ENDBRANCH   2   3
ENDBRANCH   1   2
BRANCH   1  58
ATOM     58  C   UNL A   1      33.044  29.070  23.441  1.00  0.00     0.116 C 
BRANCH  58  59
ATOM     59  N   UNL A   1      31.719  29.277  22.896  1.00  0.00    -0.352 N 
ATOM     60  C   UNL A   1      30.834  28.314  22.501  1.00  0.00     0.251 C 
ATOM     61  H   UNL A   1      31.423  30.213  22.800  1.00  0.00     0.163 HD
ATOM     62  O   UNL A   1      29.750  28.591  22.002  1.00  0.00    -0.269 OA
BRANCH  60  63
ATOM     63  C   UNL A   1      31.202  26.914  22.725  1.00  0.00     0.041 A 
ATOM     64  C   UNL A   1      31.771  26.202  21.672  1.00  0.00     0.018 A 
ATOM     65  C   UNL A   1      30.955  26.311  23.959  1.00  0.00     0.038 A 
ATOM     66  C   UNL A   1      32.205  24.902  21.901  1.00  0.00     0.049 A 
ATOM     67  C   UNL A   1      31.375  24.997  24.170  1.00  0.00     0.083 A 
ATOM     68  C   UNL A   1      32.118  24.340  23.181  1.00  0.00     0.137 A 
ATOM     69  Cl  UNL A   1      30.890  24.247  25.648  1.00  0.00    -0.080 Cl
BRANCH  68  70
ATOM     70  O   UNL A   1      32.811  23.169  23.321  1.00  0.00    -0.492 OA
BRANCH  70  71
ATOM     71  C   UNL A   1      34.143  23.156  22.792  1.00  0.00     0.233 C 
BRANCH  71  72
ATOM     72  C   UNL A   1      35.323  23.407  23.758  1.00  0.00     0.030 C 
ATOM     73  C   UNL A   1      35.158  24.276  25.017  1.00  0.00     0.011 C 
ATOM     74  C   UNL A   1      36.004  22.126  24.323  1.00  0.00    -0.004 C 
ATOM     75  C   UNL A   1      35.804  23.418  26.126  1.00  0.00    -0.010 C 
ATOM     76  C   UNL A   1      35.063  21.318  25.230  1.00  0.00     0.004 C 
ATOM     77  C   UNL A   1      36.943  22.731  25.373  1.00  0.00     0.007 C 
ATOM     78  C   UNL A   1      34.886  22.229  26.450  1.00  0.00     0.004 C 
ENDBRANCH  71  72
ENDBRANCH  70  71
ENDBRANCH  68  70
ENDBRANCH  60  63
ENDBRANCH  58  59
ENDBRANCH   1  58
TORSDOF 14
ENDMDL
MODEL 3
REMARK VINA RESULT:     -11.0      4.276      9.105
REMARK SMILES O=C(NCCCCNC(=O)c1ccc(OC[C@H]2C[C@H]3CC[C@@H]2C3)c(Cl)c1)c1ccc(-c2c3nc(c(-c4ccccc4)c4ccc([nH]4)c(-c4ccccc4)c4nc(c(-c5ccccc5)c5ccc2[nH]5)C=C4)C=C3)cc1
REMARK SMILES IDX 6 1 5 2 4 3 3 4 1 5 2 6 27 8 28 9 74 10 29 11 73 12 30 13
REMARK SMILES IDX 31 14 32 15 67 16 33 17 72 18 66 19 68 20 34 21 71 22 65 23
REMARK SMILES IDX 64 24 35 26 57 27 42 28 56 29 43 30 46 31 55 32 69 33 44 34
REMARK SMILES IDX 45 35 54 37 70 38 47 39 36 40 37 41 41 42 38 43 40 44 39 45
REMARK SMILES IDX 58 46 59 47 63 48 60 49 62 50 61 51 48 52 49 53 53 54 50 55
REMARK SMILES IDX 52 56 51 57 7 58 8 59 9 60 10 62 11 63 12 64 26 65 13 66
REMARK SMILES IDX 24 67 14 68 25 69 15 70 16 71 17 72 18 73 22 74 19 75 21 76
REMARK SMILES IDX 23 77 20 78
REMARK H PARENT 3 7 68 25 46 36 8 61
REMARK Flexibility Score: inf
ROOT
ATOM      1  C   UNL A   1      31.778  30.216  26.871  1.00  0.00     0.023 C 
ENDROOT
BRANCH   1   2
ATOM      2  C   UNL A   1      31.562  31.727  26.784  1.00  0.00     0.023 C 
BRANCH   2   3
ATOM      3  C   UNL A   1      32.802  32.564  27.078  1.00  0.00     0.116 C 
BRANCH   3   4
ATOM      4  N   UNL A   1      32.475  33.866  27.640  1.00  0.00    -0.352 N 
ATOM      5  O   UNL A   1      32.640  35.602  29.069  1.00  0.00    -0.269 OA
ATOM      6  C   UNL A   1      33.123  34.570  28.618  1.00  0.00     0.251 C 
ATOM      7  H   UNL A   1      31.676  34.300  27.263  1.00  0.00     0.163 HD
BRANCH   6   8
ATOM      8  C   UNL A   1      34.396  34.054  29.144  1.00  0.00     0.039 A 
ATOM      9  C   UNL A   1      35.610  34.408  28.545  1.00  0.00     0.014 A 
ATOM     10  C   UNL A   1      34.364  33.193  30.243  1.00  0.00     0.014 A 
ATOM     11  C   UNL A   1      36.788  33.814  28.980  1.00  0.00     0.010 A 
ATOM     12  C   UNL A   1      35.553  32.646  30.716  1.00  0.00     0.010 A 
ATOM     13  C   UNL A   1      36.768  32.936  30.073  1.00  0.00    -0.014 A 
BRANCH  13  14
ATOM     14  C   UNL A   1      38.028  32.356  30.585  1.00  0.00     0.031 A 
ATOM     15  C   UNL A   1      38.593  31.105  29.981  1.00  0.00     0.074 A 
ATOM     16  C   UNL A   1      38.632  32.945  31.632  1.00  0.00     0.049 A 
ATOM     17  N   UNL A   1      39.626  30.401  30.367  1.00  0.00    -0.248 NA
ATOM     18  C   UNL A   1      37.904  30.571  28.797  1.00  0.00     0.031 C 
ATOM     19  C   UNL A   1      38.169  34.165  32.296  1.00  0.00     0.029 A 
ATOM     20  N   UNL A   1      39.755  32.588  32.329  1.00  0.00    -0.354 N 
ATOM     21  C   UNL A   1      39.694  29.324  29.493  1.00  0.00     0.074 A 
ATOM     22  C   UNL A   1      38.591  29.461  28.565  1.00  0.00     0.031 C 
ATOM     23  C   UNL A   1      39.005  34.457  33.303  1.00  0.00     0.029 A 
ATOM     24  C   UNL A   1      40.023  33.418  33.389  1.00  0.00     0.049 A 
ATOM     25  H   UNL A   1      40.315  31.812  32.094  1.00  0.00     0.167 HD
ATOM     26  C   UNL A   1      40.595  28.312  29.473  1.00  0.00     0.031 A 
ATOM     27  C   UNL A   1      40.962  33.332  34.347  1.00  0.00     0.031 A 
ATOM     28  C   UNL A   1      41.686  28.185  30.401  1.00  0.00     0.049 A 
ATOM     29  C   UNL A   1      41.927  32.186  34.325  1.00  0.00     0.074 A 
ATOM     30  C   UNL A   1      42.677  27.220  30.440  1.00  0.00     0.029 A 
ATOM     31  N   UNL A   1      41.925  29.047  31.462  1.00  0.00    -0.354 N 
ATOM     32  N   UNL A   1      42.001  31.191  33.475  1.00  0.00    -0.248 NA
ATOM     33  C   UNL A   1      42.936  32.150  35.391  1.00  0.00     0.031 C 
ATOM     34  C   UNL A   1      43.488  27.473  31.552  1.00  0.00     0.029 A 
ATOM     35  C   UNL A   1      43.031  28.623  32.177  1.00  0.00     0.049 A 
ATOM     36  H   UNL A   1      41.385  29.843  31.675  1.00  0.00     0.167 HD
ATOM     37  C   UNL A   1      43.075  30.418  33.890  1.00  0.00     0.074 A 
ATOM     38  C   UNL A   1      43.627  31.065  35.065  1.00  0.00     0.031 C 
ATOM     39  C   UNL A   1      43.562  29.278  33.344  1.00  0.00     0.031 A 
BRANCH  26  40
ATOM     40  C   UNL A   1      40.406  27.244  28.434  1.00  0.00    -0.014 A 
ATOM     41  C   UNL A   1      39.634  26.100  28.690  1.00  0.00     0.009 A 
ATOM     42  C   UNL A   1      40.997  27.397  27.169  1.00  0.00     0.009 A 
ATOM     43  C   UNL A   1      39.489  25.113  27.712  1.00  0.00     0.001 A 
ATOM     44  C   UNL A   1      40.829  26.421  26.186  1.00  0.00     0.001 A 
ATOM     45  C   UNL A   1      40.085  25.274  26.461  1.00  0.00     0.000 A 
ENDBRANCH  26  40
BRANCH  27  46
ATOM     46  C   UNL A   1      41.002  34.364  35.411  1.00  0.00    -0.014 A 
ATOM     47  C   UNL A   1      41.758  35.533  35.243  1.00  0.00     0.009 A 
ATOM     48  C   UNL A   1      40.224  34.214  36.571  1.00  0.00     0.009 A 
ATOM     49  C   UNL A   1      41.738  36.530  36.221  1.00  0.00     0.001 A 
ATOM     50  C   UNL A   1      40.188  35.224  37.534  1.00  0.00     0.001 A 
ATOM     51  C   UNL A   1      40.947  36.378  37.361  1.00  0.00     0.000 A 
ENDBRANCH  27  46
BRANCH  39  52
ATOM     52  C   UNL A   1      44.773  28.673  33.991  1.00  0.00    -0.014 A 
ATOM     53  C   UNL A   1      44.649  27.693  34.987  1.00  0.00     0.009 A 
ATOM     54  C   UNL A   1      46.053  29.050  33.555  1.00  0.00     0.009 A 
ATOM     55  C   UNL A   1      45.789  27.113  35.547  1.00  0.00     0.001 A 
ATOM     56  C   UNL A   1      47.188  28.454  34.102  1.00  0.00     0.001 A 
ATOM     57  C   UNL A   1      47.056  27.489  35.100  1.00  0.00     0.000 A 
ENDBRANCH  39  52
ENDBRANCH  13  14
ENDBRANCH   6   8
ENDBRANCH   3   4
ENDBRANCH   2   3
ENDBRANCH   1   2
BRANCH   1  58
ATOM     58  C   UNL A   1      31.903  29.530  25.514  1.00  0.00     0.116 C 
BRANCH  58  59
ATOM     59  N   UNL A   1      30.896  30.017  24.594  1.00  0.00    -0.352 N 
ATOM     60  C   UNL A   1      30.279  29.309  23.603  1.00  0.00     0.251 C 
ATOM     61  H   UNL A   1      30.628  30.960  24.695  1.00  0.00     0.163 HD
ATOM     62  O   UNL A   1      29.472  29.825  22.839  1.00  0.00    -0.269 OA
BRANCH  60  63
ATOM     63  C   UNL A   1      30.581  27.879  23.494  1.00  0.00     0.041 A 
ATOM     64  C   UNL A   1      30.118  27.027  24.495  1.00  0.00     0.018 A 
ATOM     65  C   UNL A   1      31.338  27.399  22.426  1.00  0.00     0.038 A 
ATOM     66  C   UNL A   1      30.321  25.661  24.356  1.00  0.00     0.049 A 
ATOM     67  C   UNL A   1      31.555  26.025  22.308  1.00  0.00     0.083 A 
ATOM     68  C   UNL A   1      30.932  25.147  23.204  1.00  0.00     0.137 A 
ATOM     69  Cl  UNL A   1      32.642  25.506  21.071  1.00  0.00    -0.080 Cl
BRANCH  68  70
ATOM     70  O   UNL A   1      30.833  23.788  23.083  1.00  0.00    -0.492 OA
BRANCH  70  71
ATOM     71  C   UNL A   1      31.274  23.018  24.207  1.00  0.00     0.233 C 
BRANCH  71  72
ATOM     72  C   UNL A   1      32.757  22.590  24.272  1.00  0.00     0.030 C 
ATOM     73  C   UNL A   1      33.723  22.864  23.106  1.00  0.00     0.011 C 
ATOM     74  C   UNL A   1      33.552  23.130  25.498  1.00  0.00    -0.004 C 
ATOM     75  C   UNL A   1      34.958  23.471  23.805  1.00  0.00    -0.010 C 
ATOM     76  C   UNL A   1      33.699  24.659  25.469  1.00  0.00     0.004 C 
ATOM     77  C   UNL A   1      34.980  22.711  25.130  1.00  0.00     0.007 C 
ATOM     78  C   UNL A   1      34.628  24.898  24.272  1.00  0.00     0.004 C 
ENDBRANCH  71  72
ENDBRANCH  70  71
ENDBRANCH  68  70
ENDBRANCH  60  63
ENDBRANCH  58  59
ENDBRANCH   1  58
TORSDOF 14
ENDMDL
