MODEL 1
REMARK VINA RESULT:     -10.5      0.000      0.000
REMARK SMILES CC(C)(C)N(CC(=O)NCCCCNC(=O)c1ccc(-c2c3nc(c(-c4ccccc4)c4ccc([nH]4)c(-c4ccccc4)c4nc(c(-c5ccccc5)c5ccc2[nH]5)C=C4)C=C3)cc1)C(=O)N1CC[C@H](O)C1
REMARK SMILES IDX 10 1 9 2 7 3 8 4 6 6 5 7 2 8 1 9 3 10 4 11 65 12 66 13 67 14
REMARK SMILES IDX 68 15 72 16 69 17 70 18 71 19 11 21 12 22 13 23 14 24 15 25
REMARK SMILES IDX 16 27 17 28 18 29 64 30 19 31 63 32 20 33 21 34 22 35 57 36
REMARK SMILES IDX 23 37 62 38 56 39 58 40 24 41 61 42 55 43 54 44 25 46 47 47
REMARK SMILES IDX 32 48 46 49 33 50 36 51 45 52 59 53 34 54 35 55 44 57 60 58
REMARK SMILES IDX 37 59 26 60 27 61 31 62 28 63 30 64 29 65 48 66 49 67 53 68
REMARK SMILES IDX 50 69 52 70 51 71 38 72 39 73 43 74 40 75 42 76 41 77
REMARK H PARENT 9 5 71 20 14 26 58 45 36 56
REMARK Flexibility Score: inf
ROOT
ATOM      1  C   UNL A   1      31.850  29.921  25.428  1.00  0.00     0.116 C 
ENDROOT
BRANCH   1   2
ATOM      2  N   UNL A   1      33.086  29.672  24.733  1.00  0.00    -0.355 N 
ATOM      3  C   UNL A   1      33.559  28.509  24.209  1.00  0.00     0.239 C 
ATOM      4  O   UNL A   1      34.440  28.617  23.347  1.00  0.00    -0.273 OA
ATOM      5  H   UNL A   1      33.672  30.455  24.621  1.00  0.00     0.163 HD
BRANCH   3   6
ATOM      6  C   UNL A   1      32.991  27.112  24.547  1.00  0.00     0.221 C 
BRANCH   6   7
ATOM      7  N   UNL A   1      31.936  26.495  23.716  1.00  0.00    -0.311 N 
BRANCH   7   8
ATOM      8  C   UNL A   1      32.279  25.291  22.843  1.00  0.00     0.037 C 
ATOM      9  C   UNL A   1      32.380  25.599  21.321  1.00  0.00     0.034 C 
ATOM     10  C   UNL A   1      31.244  24.147  22.976  1.00  0.00     0.034 C 
ATOM     11  C   UNL A   1      33.677  24.742  23.229  1.00  0.00     0.034 C 
ENDBRANCH   7   8
BRANCH   7  12
ATOM     12  C   UNL A   1      30.573  26.706  24.011  1.00  0.00     0.321 C 
ATOM     13  O   UNL A   1      29.978  26.071  24.883  1.00  0.00    -0.248 OA
BRANCH  12  14
ATOM     14  N   UNL A   1      29.952  27.800  23.449  1.00  0.00    -0.322 N 
ATOM     15  C   UNL A   1      28.493  27.844  23.424  1.00  0.00     0.124 C 
ATOM     16  C   UNL A   1      30.451  28.609  22.352  1.00  0.00     0.153 C 
ATOM     17  C   UNL A   1      28.115  28.991  22.489  1.00  0.00     0.055 C 
ATOM     18  C   UNL A   1      29.427  29.736  22.266  1.00  0.00     0.135 C 
BRANCH  18  19
ATOM     19  O   UNL A   1      29.442  30.429  21.031  1.00  0.00    -0.391 OA
ATOM     20  H   UNL A   1      29.201  31.357  21.178  1.00  0.00     0.211 HD
ENDBRANCH  18  19
ENDBRANCH  12  14
ENDBRANCH   7  12
ENDBRANCH   6   7
ENDBRANCH   3   6
ENDBRANCH   1   2
BRANCH   1  21
ATOM     21  C   UNL A   1      32.021  30.526  26.816  1.00  0.00     0.023 C 
BRANCH  21  22
ATOM     22  C   UNL A   1      31.670  32.006  26.937  1.00  0.00     0.023 C 
BRANCH  22  23
ATOM     23  C   UNL A   1      32.822  32.930  27.310  1.00  0.00     0.116 C 
BRANCH  23  24
ATOM     24  N   UNL A   1      32.419  34.272  27.707  1.00  0.00    -0.352 N 
ATOM     25  C   UNL A   1      33.003  35.105  28.635  1.00  0.00     0.251 C 
ATOM     26  H   UNL A   1      31.623  34.631  27.252  1.00  0.00     0.163 HD
ATOM     27  O   UNL A   1      32.523  36.203  28.881  1.00  0.00    -0.269 OA
BRANCH  25  28
ATOM     28  C   UNL A   1      34.190  34.629  29.375  1.00  0.00     0.039 A 
ATOM     29  C   UNL A   1      34.003  33.992  30.604  1.00  0.00     0.014 A 
ATOM     30  C   UNL A   1      35.465  34.733  28.815  1.00  0.00     0.014 A 
ATOM     31  C   UNL A   1      35.088  33.374  31.229  1.00  0.00     0.010 A 
ATOM     32  C   UNL A   1      36.525  34.049  29.397  1.00  0.00     0.010 A 
ATOM     33  C   UNL A   1      36.344  33.354  30.603  1.00  0.00    -0.014 A 
BRANCH  33  34
ATOM     34  C   UNL A   1      37.486  32.604  31.181  1.00  0.00     0.031 A 
ATOM     35  C   UNL A   1      38.102  33.055  32.475  1.00  0.00     0.074 A 
ATOM     36  C   UNL A   1      38.025  31.575  30.498  1.00  0.00     0.049 A 
ATOM     37  N   UNL A   1      39.161  32.594  33.089  1.00  0.00    -0.248 NA
ATOM     38  C   UNL A   1      37.462  34.196  33.147  1.00  0.00     0.031 C 
ATOM     39  C   UNL A   1      37.548  31.065  29.210  1.00  0.00     0.029 A 
ATOM     40  N   UNL A   1      39.100  30.776  30.794  1.00  0.00    -0.354 N 
ATOM     41  C   UNL A   1      39.329  33.405  34.203  1.00  0.00     0.074 A 
ATOM     42  C   UNL A   1      38.294  34.415  34.154  1.00  0.00     0.031 C 
ATOM     43  C   UNL A   1      38.309  30.020  28.843  1.00  0.00     0.029 A 
ATOM     44  C   UNL A   1      39.346  29.812  29.848  1.00  0.00     0.049 A 
ATOM     45  H   UNL A   1      39.645  30.885  31.607  1.00  0.00     0.167 HD
ATOM     46  C   UNL A   1      40.249  33.309  35.193  1.00  0.00     0.031 A 
ATOM     47  C   UNL A   1      40.303  28.866  29.794  1.00  0.00     0.031 A 
ATOM     48  C   UNL A   1      41.264  32.293  35.256  1.00  0.00     0.049 A 
ATOM     49  C   UNL A   1      41.312  28.776  30.903  1.00  0.00     0.074 A 
ATOM     50  C   UNL A   1      42.202  32.072  36.248  1.00  0.00     0.029 A 
ATOM     51  N   UNL A   1      41.471  31.327  34.284  1.00  0.00    -0.354 N 
ATOM     52  N   UNL A   1      41.423  29.514  31.980  1.00  0.00    -0.248 NA
ATOM     53  C   UNL A   1      42.324  27.717  30.790  1.00  0.00     0.031 C 
ATOM     54  C   UNL A   1      43.004  30.993  35.857  1.00  0.00     0.029 A 
ATOM     55  C   UNL A   1      42.534  30.516  34.643  1.00  0.00     0.049 A 
ATOM     56  H   UNL A   1      40.941  31.232  33.460  1.00  0.00     0.167 HD
ATOM     57  C   UNL A   1      42.498  28.993  32.686  1.00  0.00     0.074 A 
ATOM     58  C   UNL A   1      43.000  27.871  31.919  1.00  0.00     0.031 C 
ATOM     59  C   UNL A   1      43.021  29.406  33.867  1.00  0.00     0.031 A 
BRANCH  46  60
ATOM     60  C   UNL A   1      40.190  34.343  36.281  1.00  0.00    -0.014 A 
ATOM     61  C   UNL A   1      39.421  34.137  37.439  1.00  0.00     0.009 A 
ATOM     62  C   UNL A   1      40.909  35.540  36.147  1.00  0.00     0.009 A 
ATOM     63  C   UNL A   1      39.335  35.131  38.416  1.00  0.00     0.001 A 
ATOM     64  C   UNL A   1      40.844  36.519  37.141  1.00  0.00     0.001 A 
ATOM     65  C   UNL A   1      40.047  36.319  38.268  1.00  0.00     0.000 A 
ENDBRANCH  46  60
BRANCH  47  66
ATOM     66  C   UNL A   1      40.328  27.903  28.664  1.00  0.00    -0.014 A 
ATOM     67  C   UNL A   1      41.029  28.215  27.489  1.00  0.00     0.009 A 
ATOM     68  C   UNL A   1      39.667  26.669  28.755  1.00  0.00     0.009 A 
ATOM     69  C   UNL A   1      41.052  27.318  26.419  1.00  0.00     0.001 A 
ATOM     70  C   UNL A   1      39.711  25.764  27.691  1.00  0.00     0.001 A 
ATOM     71  C   UNL A   1      40.398  26.092  26.523  1.00  0.00     0.000 A 
ENDBRANCH  47  66
BRANCH  59  72
ATOM     72  C   UNL A   1      44.174  28.618  34.417  1.00  0.00    -0.014 A 
ATOM     73  C   UNL A   1      43.966  27.502  35.240  1.00  0.00     0.009 A 
ATOM     74  C   UNL A   1      45.486  28.975  34.067  1.00  0.00     0.009 A 
ATOM     75  C   UNL A   1      45.053  26.772  35.725  1.00  0.00     0.001 A 
ATOM     76  C   UNL A   1      46.570  28.229  34.535  1.00  0.00     0.001 A 
ATOM     77  C   UNL A   1      46.352  27.134  35.370  1.00  0.00     0.000 A 
ENDBRANCH  59  72
ENDBRANCH  33  34
ENDBRANCH  25  28
ENDBRANCH  23  24
ENDBRANCH  22  23
ENDBRANCH  21  22
ENDBRANCH   1  21
TORSDOF 16
ENDMDL
MODEL 2
REMARK VINA RESULT:     -10.4      4.410      9.016
REMARK SMILES CC(C)(C)N(CC(=O)NCCCCNC(=O)c1ccc(-c2c3nc(c(-c4ccccc4)c4ccc([nH]4)c(-c4ccccc4)c4nc(c(-c5ccccc5)c5ccc2[nH]5)C=C4)C=C3)cc1)C(=O)N1CC[C@H](O)C1
REMARK SMILES IDX 10 1 9 2 7 3 8 4 6 6 5 7 2 8 1 9 3 10 4 11 65 12 66 13 67 14
REMARK SMILES IDX 68 15 72 16 69 17 70 18 71 19 11 21 12 22 13 23 14 24 15 25
REMARK SMILES IDX 16 27 17 28 18 29 64 30 19 31 63 32 20 33 21 34 22 35 57 36
REMARK SMILES IDX 23 37 62 38 56 39 58 40 24 41 61 42 55 43 54 44 25 46 47 47
REMARK SMILES IDX 32 48 46 49 33 50 36 51 45 52 59 53 34 54 35 55 44 57 60 58
REMARK SMILES IDX 37 59 26 60 27 61 31 62 28 63 30 64 29 65 48 66 49 67 53 68
REMARK SMILES IDX 50 69 52 70 51 71 38 72 39 73 43 74 40 75 42 76 41 77
REMARK H PARENT 9 5 71 20 14 26 58 45 36 56
REMARK Flexibility Score: inf
ROOT
ATOM      1  C   UNL A   1      36.895  23.408  25.318  1.00  0.00     0.116 C 
ENDROOT
BRANCH   1   2
ATOM      2  N   UNL A   1      35.860  23.234  26.304  1.00  0.00    -0.355 N 
ATOM      3  C   UNL A   1      34.586  23.714  26.307  1.00  0.00     0.239 C 
ATOM      4  O   UNL A   1      33.786  23.132  27.050  1.00  0.00    -0.273 OA
ATOM      5  H   UNL A   1      36.109  22.691  27.086  1.00  0.00     0.163 HD
BRANCH   3   6
ATOM      6  C   UNL A   1      34.083  24.842  25.379  1.00  0.00     0.221 C 
BRANCH   6   7
ATOM      7  N   UNL A   1      32.640  25.032  25.122  1.00  0.00    -0.311 N 
BRANCH   7   8
ATOM      8  C   UNL A   1      31.923  24.098  24.150  1.00  0.00     0.037 C 
ATOM      9  C   UNL A   1      31.385  22.784  24.788  1.00  0.00     0.034 C 
ATOM     10  C   UNL A   1      32.829  23.658  22.974  1.00  0.00     0.034 C 
ATOM     11  C   UNL A   1      30.667  24.801  23.574  1.00  0.00     0.034 C 
ENDBRANCH   7   8
BRANCH   7  12
ATOM     12  C   UNL A   1      31.836  25.752  26.030  1.00  0.00     0.321 C 
ATOM     13  O   UNL A   1      31.195  25.203  26.927  1.00  0.00    -0.248 OA
BRANCH  12  14
ATOM     14  N   UNL A   1      31.943  27.126  26.038  1.00  0.00    -0.322 N 
ATOM     15  C   UNL A   1      32.067  27.812  27.321  1.00  0.00     0.124 C 
ATOM     16  C   UNL A   1      31.351  28.045  25.084  1.00  0.00     0.153 C 
ATOM     17  C   UNL A   1      31.858  29.298  27.032  1.00  0.00     0.055 C 
ATOM     18  C   UNL A   1      31.921  29.394  25.512  1.00  0.00     0.135 C 
BRANCH  18  19
ATOM     19  O   UNL A   1      31.194  30.504  25.018  1.00  0.00    -0.391 OA
ATOM     20  H   UNL A   1      31.289  30.550  24.054  1.00  0.00     0.211 HD
ENDBRANCH  18  19
ENDBRANCH  12  14
ENDBRANCH   7  12
ENDBRANCH   6   7
ENDBRANCH   3   6
ENDBRANCH   1   2
BRANCH   1  21
ATOM     21  C   UNL A   1      36.991  22.276  24.302  1.00  0.00     0.023 C 
BRANCH  21  22
ATOM     22  C   UNL A   1      37.553  20.961  24.833  1.00  0.00     0.023 C 
BRANCH  22  23
ATOM     23  C   UNL A   1      38.801  21.077  25.698  1.00  0.00     0.116 C 
BRANCH  23  24
ATOM     24  N   UNL A   1      39.691  19.925  25.636  1.00  0.00    -0.352 N 
ATOM     25  C   UNL A   1      41.003  19.830  26.043  1.00  0.00     0.251 C 
ATOM     26  H   UNL A   1      39.303  19.106  25.252  1.00  0.00     0.163 HD
ATOM     27  O   UNL A   1      41.631  18.792  25.896  1.00  0.00    -0.269 OA
BRANCH  25  28
ATOM     28  C   UNL A   1      41.662  21.025  26.612  1.00  0.00     0.039 A 
ATOM     29  C   UNL A   1      42.170  21.990  25.739  1.00  0.00     0.014 A 
ATOM     30  C   UNL A   1      41.697  21.228  27.993  1.00  0.00     0.014 A 
ATOM     31  C   UNL A   1      42.628  23.205  26.250  1.00  0.00     0.010 A 
ATOM     32  C   UNL A   1      42.077  22.467  28.493  1.00  0.00     0.010 A 
ATOM     33  C   UNL A   1      42.536  23.471  27.626  1.00  0.00    -0.014 A 
BRANCH  33  34
ATOM     34  C   UNL A   1      42.901  24.795  28.185  1.00  0.00     0.031 A 
ATOM     35  C   UNL A   1      41.839  25.836  28.401  1.00  0.00     0.074 A 
ATOM     36  C   UNL A   1      44.195  25.093  28.412  1.00  0.00     0.049 A 
ATOM     37  N   UNL A   1      41.969  27.079  28.787  1.00  0.00    -0.248 NA
ATOM     38  C   UNL A   1      40.454  25.433  28.114  1.00  0.00     0.031 C 
ATOM     39  C   UNL A   1      45.327  24.187  28.201  1.00  0.00     0.029 A 
ATOM     40  N   UNL A   1      44.777  26.250  28.865  1.00  0.00    -0.354 N 
ATOM     41  C   UNL A   1      40.688  27.614  28.761  1.00  0.00     0.074 A 
ATOM     42  C   UNL A   1      39.804  26.576  28.276  1.00  0.00     0.031 C 
ATOM     43  C   UNL A   1      46.462  24.812  28.555  1.00  0.00     0.029 A 
ATOM     44  C   UNL A   1      46.143  26.171  28.979  1.00  0.00     0.049 A 
ATOM     45  H   UNL A   1      44.263  27.060  29.087  1.00  0.00     0.167 HD
ATOM     46  C   UNL A   1      40.277  28.851  29.127  1.00  0.00     0.031 A 
ATOM     47  C   UNL A   1      47.040  27.093  29.379  1.00  0.00     0.031 A 
ATOM     48  C   UNL A   1      41.150  29.877  29.629  1.00  0.00     0.049 A 
ATOM     49  C   UNL A   1      46.562  28.458  29.782  1.00  0.00     0.074 A 
ATOM     50  C   UNL A   1      40.823  31.141  30.086  1.00  0.00     0.029 A 
ATOM     51  N   UNL A   1      42.526  29.753  29.741  1.00  0.00    -0.354 N 
ATOM     52  N   UNL A   1      45.339  28.931  29.808  1.00  0.00    -0.248 NA
ATOM     53  C   UNL A   1      47.588  29.415  30.217  1.00  0.00     0.031 C 
ATOM     54  C   UNL A   1      42.007  31.797  30.439  1.00  0.00     0.029 A 
ATOM     55  C   UNL A   1      43.066  30.924  30.244  1.00  0.00     0.049 A 
ATOM     56  H   UNL A   1      43.042  28.951  29.499  1.00  0.00     0.167 HD
ATOM     57  C   UNL A   1      45.446  30.229  30.286  1.00  0.00     0.074 A 
ATOM     58  C   UNL A   1      46.852  30.466  30.547  1.00  0.00     0.031 C 
ATOM     59  C   UNL A   1      44.466  31.143  30.495  1.00  0.00     0.031 A 
BRANCH  46  60
ATOM     60  C   UNL A   1      38.812  29.153  28.985  1.00  0.00    -0.014 A 
ATOM     61  C   UNL A   1      38.275  29.593  27.763  1.00  0.00     0.009 A 
ATOM     62  C   UNL A   1      37.957  29.002  30.087  1.00  0.00     0.009 A 
ATOM     63  C   UNL A   1      36.922  29.921  27.663  1.00  0.00     0.001 A 
ATOM     64  C   UNL A   1      36.598  29.302  29.975  1.00  0.00     0.001 A 
ATOM     65  C   UNL A   1      36.085  29.774  28.767  1.00  0.00     0.000 A 
ENDBRANCH  46  60
BRANCH  47  66
ATOM     66  C   UNL A   1      48.480  26.740  29.453  1.00  0.00    -0.014 A 
ATOM     67  C   UNL A   1      49.320  26.978  28.354  1.00  0.00     0.009 A 
ATOM     68  C   UNL A   1      49.024  26.176  30.617  1.00  0.00     0.009 A 
ATOM     69  C   UNL A   1      50.674  26.642  28.413  1.00  0.00     0.001 A 
ATOM     70  C   UNL A   1      50.384  25.864  30.680  1.00  0.00     0.001 A 
ATOM     71  C   UNL A   1      51.206  26.091  29.577  1.00  0.00     0.000 A 
ENDBRANCH  47  66
BRANCH  59  72
ATOM     72  C   UNL A   1      44.878  32.470  31.063  1.00  0.00    -0.014 A 
ATOM     73  C   UNL A   1      44.955  32.676  32.448  1.00  0.00     0.009 A 
ATOM     74  C   UNL A   1      45.238  33.513  30.195  1.00  0.00     0.009 A 
ATOM     75  C   UNL A   1      45.358  33.913  32.955  1.00  0.00     0.001 A 
ATOM     76  C   UNL A   1      45.663  34.741  30.705  1.00  0.00     0.001 A 
ATOM     77  C   UNL A   1      45.715  34.942  32.083  1.00  0.00     0.000 A 
ENDBRANCH  59  72
ENDBRANCH  33  34
ENDBRANCH  25  28
ENDBRANCH  23  24
ENDBRANCH  22  23
ENDBRANCH  21  22
ENDBRANCH   1  21
TORSDOF 16
ENDMDL
MODEL 3
REMARK VINA RESULT:     -10.3      1.257      2.771
REMARK SMILES CC(C)(C)N(CC(=O)NCCCCNC(=O)c1ccc(-c2c3nc(c(-c4ccccc4)c4ccc([nH]4)c(-c4ccccc4)c4nc(c(-c5ccccc5)c5ccc2[nH]5)C=C4)C=C3)cc1)C(=O)N1CC[C@H](O)C1
REMARK SMILES IDX 10 1 9 2 7 3 8 4 6 6 5 7 2 8 1 9 3 10 4 11 65 12 66 13 67 14
REMARK SMILES IDX 68 15 72 16 69 17 70 18 71 19 11 21 12 22 13 23 14 24 15 25
REMARK SMILES IDX 16 27 17 28 18 29 64 30 19 31 63 32 20 33 21 34 22 35 57 36
REMARK SMILES IDX 23 37 62 38 56 39 58 40 24 41 61 42 55 43 54 44 25 46 47 47
REMARK SMILES IDX 32 48 46 49 33 50 36 51 45 52 59 53 34 54 35 55 44 57 60 58
REMARK SMILES IDX 37 59 26 60 27 61 31 62 28 63 30 64 29 65 48 66 49 67 53 68
REMARK SMILES IDX 50 69 52 70 51 71 38 72 39 73 43 74 40 75 42 76 41 77
REMARK H PARENT 9 5 71 20 14 26 58 45 36 56
REMARK Flexibility Score: inf
ROOT
ATOM      1  C   UNL A   1      31.703  29.866  25.221  1.00  0.00     0.116 C 
ENDROOT
BRANCH   1   2
ATOM      2  N   UNL A   1      32.892  29.679  24.429  1.00  0.00    -0.355 N 
ATOM      3  C   UNL A   1      33.538  28.525  24.108  1.00  0.00     0.239 C 
ATOM      4  O   UNL A   1      34.292  28.576  23.128  1.00  0.00    -0.273 OA
ATOM      5  H   UNL A   1      33.292  30.502  24.068  1.00  0.00     0.163 HD
BRANCH   3   6
ATOM      6  C   UNL A   1      33.302  27.173  24.818  1.00  0.00     0.221 C 
BRANCH   6   7
ATOM      7  N   UNL A   1      32.724  26.022  24.094  1.00  0.00    -0.311 N 
BRANCH   7   8
ATOM      8  C   UNL A   1      31.238  26.028  23.743  1.00  0.00     0.037 C 
ATOM      9  C   UNL A   1      30.666  24.647  23.311  1.00  0.00     0.034 C 
ATOM     10  C   UNL A   1      30.906  27.005  22.588  1.00  0.00     0.034 C 
ATOM     11  C   UNL A   1      30.405  26.429  24.987  1.00  0.00     0.034 C 
ENDBRANCH   7   8
BRANCH   7  12
ATOM     12  C   UNL A   1      33.551  25.139  23.368  1.00  0.00     0.321 C 
ATOM     13  O   UNL A   1      33.862  25.338  22.194  1.00  0.00    -0.248 OA
BRANCH  12  14
ATOM     14  N   UNL A   1      34.194  24.139  24.064  1.00  0.00    -0.322 N 
ATOM     15  C   UNL A   1      33.424  22.975  24.493  1.00  0.00     0.124 C 
ATOM     16  C   UNL A   1      35.321  24.298  24.966  1.00  0.00     0.153 C 
ATOM     17  C   UNL A   1      34.311  22.215  25.478  1.00  0.00     0.055 C 
ATOM     18  C   UNL A   1      35.684  22.858  25.315  1.00  0.00     0.135 C 
BRANCH  18  19
ATOM     19  O   UNL A   1      36.471  22.736  26.486  1.00  0.00    -0.391 OA
ATOM     20  H   UNL A   1      37.343  23.130  26.331  1.00  0.00     0.211 HD
ENDBRANCH  18  19
ENDBRANCH  12  14
ENDBRANCH   7  12
ENDBRANCH   6   7
ENDBRANCH   3   6
ENDBRANCH   1   2
BRANCH   1  21
ATOM     21  C   UNL A   1      31.962  30.412  26.620  1.00  0.00     0.023 C 
BRANCH  21  22
ATOM     22  C   UNL A   1      31.620  31.885  26.825  1.00  0.00     0.023 C 
BRANCH  22  23
ATOM     23  C   UNL A   1      32.763  32.766  27.313  1.00  0.00     0.116 C 
BRANCH  23  24
ATOM     24  N   UNL A   1      32.370  34.120  27.680  1.00  0.00    -0.352 N 
ATOM     25  C   UNL A   1      32.976  34.977  28.572  1.00  0.00     0.251 C 
ATOM     26  H   UNL A   1      31.565  34.468  27.233  1.00  0.00     0.163 HD
ATOM     27  O   UNL A   1      32.503  36.082  28.798  1.00  0.00    -0.269 OA
BRANCH  25  28
ATOM     28  C   UNL A   1      34.178  34.518  29.299  1.00  0.00     0.039 A 
ATOM     29  C   UNL A   1      34.019  33.939  30.560  1.00  0.00     0.014 A 
ATOM     30  C   UNL A   1      35.438  34.582  28.701  1.00  0.00     0.014 A 
ATOM     31  C   UNL A   1      35.114  33.335  31.181  1.00  0.00     0.010 A 
ATOM     32  C   UNL A   1      36.506  33.910  29.282  1.00  0.00     0.010 A 
ATOM     33  C   UNL A   1      36.352  33.272  30.523  1.00  0.00    -0.014 A 
BRANCH  33  34
ATOM     34  C   UNL A   1      37.501  32.533  31.101  1.00  0.00     0.031 A 
ATOM     35  C   UNL A   1      38.128  33.006  32.382  1.00  0.00     0.074 A 
ATOM     36  C   UNL A   1      38.036  31.495  30.429  1.00  0.00     0.049 A 
ATOM     37  N   UNL A   1      39.194  32.557  32.993  1.00  0.00    -0.248 NA
ATOM     38  C   UNL A   1      37.491  34.155  33.043  1.00  0.00     0.031 C 
ATOM     39  C   UNL A   1      37.549  30.964  29.153  1.00  0.00     0.029 A 
ATOM     40  N   UNL A   1      39.116  30.704  30.727  1.00  0.00    -0.354 N 
ATOM     41  C   UNL A   1      39.370  33.386  34.093  1.00  0.00     0.074 A 
ATOM     42  C   UNL A   1      38.332  34.392  34.038  1.00  0.00     0.031 C 
ATOM     43  C   UNL A   1      38.308  29.916  28.796  1.00  0.00     0.029 A 
ATOM     44  C   UNL A   1      39.356  29.726  29.794  1.00  0.00     0.049 A 
ATOM     45  H   UNL A   1      39.668  30.826  31.533  1.00  0.00     0.167 HD
ATOM     46  C   UNL A   1      40.299  33.307  35.075  1.00  0.00     0.031 A 
ATOM     47  C   UNL A   1      40.314  28.782  29.745  1.00  0.00     0.031 A 
ATOM     48  C   UNL A   1      41.318  32.296  35.144  1.00  0.00     0.049 A 
ATOM     49  C   UNL A   1      41.334  28.711  30.846  1.00  0.00     0.074 A 
ATOM     50  C   UNL A   1      42.266  32.092  36.131  1.00  0.00     0.029 A 
ATOM     51  N   UNL A   1      41.519  31.315  34.185  1.00  0.00    -0.354 N 
ATOM     52  N   UNL A   1      41.453  29.466  31.911  1.00  0.00    -0.248 NA
ATOM     53  C   UNL A   1      42.348  27.653  30.740  1.00  0.00     0.031 C 
ATOM     54  C   UNL A   1      43.067  31.009  35.749  1.00  0.00     0.029 A 
ATOM     55  C   UNL A   1      42.587  30.512  34.547  1.00  0.00     0.049 A 
ATOM     56  H   UNL A   1      40.981  31.206  33.369  1.00  0.00     0.167 HD
ATOM     57  C   UNL A   1      42.536  28.959  32.615  1.00  0.00     0.074 A 
ATOM     58  C   UNL A   1      43.034  27.826  31.860  1.00  0.00     0.031 C 
ATOM     59  C   UNL A   1      43.069  29.391  33.784  1.00  0.00     0.031 A 
BRANCH  46  60
ATOM     60  C   UNL A   1      40.249  34.358  36.148  1.00  0.00    -0.014 A 
ATOM     61  C   UNL A   1      39.481  34.173  37.311  1.00  0.00     0.009 A 
ATOM     62  C   UNL A   1      40.973  35.550  35.994  1.00  0.00     0.009 A 
ATOM     63  C   UNL A   1      39.402  35.182  38.273  1.00  0.00     0.001 A 
ATOM     64  C   UNL A   1      40.915  36.544  36.973  1.00  0.00     0.001 A 
ATOM     65  C   UNL A   1      40.120  36.364  38.105  1.00  0.00     0.000 A 
ENDBRANCH  46  60
BRANCH  47  66
ATOM     66  C   UNL A   1      40.332  27.801  28.631  1.00  0.00    -0.014 A 
ATOM     67  C   UNL A   1      39.654  26.579  28.759  1.00  0.00     0.009 A 
ATOM     68  C   UNL A   1      41.011  28.081  27.435  1.00  0.00     0.009 A 
ATOM     69  C   UNL A   1      39.672  25.648  27.718  1.00  0.00     0.001 A 
ATOM     70  C   UNL A   1      41.006  27.158  26.388  1.00  0.00     0.001 A 
ATOM     71  C   UNL A   1      40.343  25.940  26.532  1.00  0.00     0.000 A 
ENDBRANCH  47  66
BRANCH  59  72
ATOM     72  C   UNL A   1      44.230  28.615  34.335  1.00  0.00    -0.014 A 
ATOM     73  C   UNL A   1      44.032  27.504  35.168  1.00  0.00     0.009 A 
ATOM     74  C   UNL A   1      45.538  28.976  33.976  1.00  0.00     0.009 A 
ATOM     75  C   UNL A   1      45.126  26.785  35.655  1.00  0.00     0.001 A 
ATOM     76  C   UNL A   1      46.628  28.241  34.445  1.00  0.00     0.001 A 
ATOM     77  C   UNL A   1      46.421  27.152  35.290  1.00  0.00     0.000 A 
ENDBRANCH  59  72
ENDBRANCH  33  34
ENDBRANCH  25  28
ENDBRANCH  23  24
ENDBRANCH  22  23
ENDBRANCH  21  22
ENDBRANCH   1  21
TORSDOF 16
ENDMDL
