MODEL 1
REMARK VINA RESULT:     -11.2      0.000      0.000
REMARK SMILES CCc1c(C(=O)NCCCCNC(=O)c2ccc(-c3c4nc(c(-c5ccccc5)c5ccc([nH]5)c(-c5ccccc5)c5nc(c(-c6ccccc6)c6ccc3[nH]6)C=C5)C=C4)cc2)nnn1-c1ccc(OC)cc1
REMARK SMILES IDX 9 1 8 2 7 3 5 4 6 5 4 7 3 8 65 9 63 10 64 11 2 12 1 13 66 14
REMARK SMILES IDX 67 15 73 16 68 17 72 18 69 19 70 20 71 21 10 22 11 23 12 24
REMARK SMILES IDX 13 25 14 27 15 28 16 29 62 30 17 31 61 32 18 33 19 34 20 35
REMARK SMILES IDX 55 36 21 37 60 38 54 39 56 40 22 41 59 42 53 43 52 44 23 46
REMARK SMILES IDX 45 47 30 48 44 49 31 50 34 51 43 52 57 53 32 54 33 55 42 57
REMARK SMILES IDX 58 58 35 59 24 60 25 61 29 62 26 63 28 64 27 65 46 66 47 67
REMARK SMILES IDX 51 68 48 69 50 70 49 71 36 72 37 73 41 74 38 75 40 76 39 77
REMARK H PARENT 7 6 12 26 56 45 34 56
REMARK Flexibility Score: inf
ROOT
ATOM      1  C   UNL A   1      36.683  21.294  24.854  1.00  0.00     0.023 C 
ENDROOT
BRANCH   1   2
ATOM      2  C   UNL A   1      35.638  21.381  25.959  1.00  0.00     0.116 C 
BRANCH   2   3
ATOM      3  N   UNL A   1      34.381  20.723  25.740  1.00  0.00    -0.351 N 
ATOM      4  C   UNL A   1      33.098  21.233  25.654  1.00  0.00     0.273 C 
ATOM      5  O   UNL A   1      32.225  20.393  25.418  1.00  0.00    -0.267 OA
ATOM      6  H   UNL A   1      34.442  19.746  25.634  1.00  0.00     0.163 HD
BRANCH   4   7
ATOM      7  C   UNL A   1      32.732  22.650  25.870  1.00  0.00     0.174 A 
ATOM      8  C   UNL A   1      33.059  23.875  25.278  1.00  0.00     0.077 A 
ATOM      9  N   UNL A   1      32.273  24.804  25.966  1.00  0.00    -0.217 N 
ATOM     10  N   UNL A   1      31.835  22.909  26.893  1.00  0.00    -0.124 NA
ATOM     11  N   UNL A   1      31.663  24.213  27.006  1.00  0.00    -0.061 NA
BRANCH   8  12
ATOM     12  C   UNL A   1      34.065  24.311  24.257  1.00  0.00     0.055 C 
ATOM     13  C   UNL A   1      33.774  23.675  22.890  1.00  0.00     0.011 C 
ENDBRANCH   8  12
BRANCH   9  14
ATOM     14  C   UNL A   1      32.193  26.206  25.775  1.00  0.00     0.067 A 
ATOM     15  C   UNL A   1      31.296  26.722  24.835  1.00  0.00     0.032 A 
ATOM     16  C   UNL A   1      32.935  27.078  26.578  1.00  0.00     0.032 A 
ATOM     17  C   UNL A   1      31.059  28.100  24.802  1.00  0.00     0.048 A 
ATOM     18  C   UNL A   1      32.697  28.454  26.534  1.00  0.00     0.048 A 
ATOM     19  C   UNL A   1      31.732  28.967  25.669  1.00  0.00     0.119 A 
BRANCH  19  20
ATOM     20  O   UNL A   1      31.367  30.282  25.577  1.00  0.00    -0.497 OA
ATOM     21  C   UNL A   1      31.857  31.153  26.591  1.00  0.00     0.278 C 
ENDBRANCH  19  20
ENDBRANCH   9  14
ENDBRANCH   4   7
ENDBRANCH   2   3
ENDBRANCH   1   2
BRANCH   1  22
ATOM     22  C   UNL A   1      37.664  20.127  24.895  1.00  0.00     0.023 C 
BRANCH  22  23
ATOM     23  C   UNL A   1      38.969  20.392  25.636  1.00  0.00     0.116 C 
BRANCH  23  24
ATOM     24  N   UNL A   1      39.883  19.253  25.677  1.00  0.00    -0.352 N 
ATOM     25  C   UNL A   1      41.249  19.295  25.926  1.00  0.00     0.251 C 
ATOM     26  H   UNL A   1      39.491  18.365  25.512  1.00  0.00     0.163 HD
ATOM     27  O   UNL A   1      41.985  18.375  25.643  1.00  0.00    -0.269 OA
BRANCH  25  28
ATOM     28  C   UNL A   1      41.782  20.520  26.554  1.00  0.00     0.039 A 
ATOM     29  C   UNL A   1      42.332  21.545  25.781  1.00  0.00     0.014 A 
ATOM     30  C   UNL A   1      41.609  20.665  27.928  1.00  0.00     0.014 A 
ATOM     31  C   UNL A   1      42.609  22.770  26.388  1.00  0.00     0.010 A 
ATOM     32  C   UNL A   1      41.778  21.905  28.497  1.00  0.00     0.010 A 
ATOM     33  C   UNL A   1      42.299  22.960  27.743  1.00  0.00    -0.014 A 
BRANCH  33  34
ATOM     34  C   UNL A   1      42.408  24.287  28.355  1.00  0.00     0.031 A 
ATOM     35  C   UNL A   1      41.300  25.256  28.083  1.00  0.00     0.074 A 
ATOM     36  C   UNL A   1      43.296  24.564  29.334  1.00  0.00     0.049 A 
ATOM     37  N   UNL A   1      41.390  26.447  27.585  1.00  0.00    -0.248 NA
ATOM     38  C   UNL A   1      39.920  24.839  28.376  1.00  0.00     0.031 C 
ATOM     39  C   UNL A   1      44.249  23.653  29.978  1.00  0.00     0.029 A 
ATOM     40  N   UNL A   1      43.418  25.702  30.073  1.00  0.00    -0.354 N 
ATOM     41  C   UNL A   1      40.106  26.995  27.627  1.00  0.00     0.074 A 
ATOM     42  C   UNL A   1      39.225  25.926  28.026  1.00  0.00     0.031 C 
ATOM     43  C   UNL A   1      44.643  24.179  31.157  1.00  0.00     0.029 A 
ATOM     44  C   UNL A   1      44.117  25.527  31.259  1.00  0.00     0.049 A 
ATOM     45  H   UNL A   1      43.045  26.568  29.791  1.00  0.00     0.167 HD
ATOM     46  C   UNL A   1      39.879  28.334  27.499  1.00  0.00     0.031 A 
ATOM     47  C   UNL A   1      44.232  26.412  32.276  1.00  0.00     0.031 A 
ATOM     48  C   UNL A   1      41.030  29.037  27.004  1.00  0.00     0.049 A 
ATOM     49  C   UNL A   1      43.908  27.754  31.743  1.00  0.00     0.074 A 
ATOM     50  C   UNL A   1      41.797  28.973  25.858  1.00  0.00     0.029 A 
ATOM     51  N   UNL A   1      41.777  29.751  27.911  1.00  0.00    -0.354 N 
ATOM     52  N   UNL A   1      44.657  28.382  30.885  1.00  0.00    -0.248 NA
ATOM     53  C   UNL A   1      42.539  28.232  31.845  1.00  0.00     0.031 C 
ATOM     54  C   UNL A   1      43.134  29.188  26.304  1.00  0.00     0.029 A 
ATOM     55  C   UNL A   1      43.088  29.423  27.680  1.00  0.00     0.049 A 
ATOM     56  H   UNL A   1      41.437  30.374  28.592  1.00  0.00     0.167 HD
ATOM     57  C   UNL A   1      43.763  29.018  30.037  1.00  0.00     0.074 A 
ATOM     58  C   UNL A   1      42.487  28.997  30.751  1.00  0.00     0.031 C 
ATOM     59  C   UNL A   1      44.070  29.242  28.724  1.00  0.00     0.031 A 
BRANCH  46  60
ATOM     60  C   UNL A   1      38.730  29.076  28.137  1.00  0.00    -0.014 A 
ATOM     61  C   UNL A   1      38.545  28.981  29.531  1.00  0.00     0.009 A 
ATOM     62  C   UNL A   1      37.669  29.627  27.396  1.00  0.00     0.009 A 
ATOM     63  C   UNL A   1      37.339  29.354  30.137  1.00  0.00     0.001 A 
ATOM     64  C   UNL A   1      36.480  30.040  28.004  1.00  0.00     0.001 A 
ATOM     65  C   UNL A   1      36.303  29.878  29.371  1.00  0.00     0.000 A 
ENDBRANCH  46  60
BRANCH  47  66
ATOM     66  C   UNL A   1      44.429  26.147  33.713  1.00  0.00    -0.014 A 
ATOM     67  C   UNL A   1      45.458  26.776  34.427  1.00  0.00     0.009 A 
ATOM     68  C   UNL A   1      43.447  25.452  34.446  1.00  0.00     0.009 A 
ATOM     69  C   UNL A   1      45.485  26.740  35.828  1.00  0.00     0.001 A 
ATOM     70  C   UNL A   1      43.478  25.411  35.843  1.00  0.00     0.001 A 
ATOM     71  C   UNL A   1      44.489  26.069  36.534  1.00  0.00     0.000 A 
ENDBRANCH  47  66
BRANCH  59  72
ATOM     72  C   UNL A   1      45.486  28.978  28.270  1.00  0.00    -0.014 A 
ATOM     73  C   UNL A   1      46.473  29.980  28.238  1.00  0.00     0.009 A 
ATOM     74  C   UNL A   1      45.879  27.654  28.029  1.00  0.00     0.009 A 
ATOM     75  C   UNL A   1      47.804  29.671  27.941  1.00  0.00     0.001 A 
ATOM     76  C   UNL A   1      47.214  27.341  27.755  1.00  0.00     0.001 A 
ATOM     77  C   UNL A   1      48.174  28.350  27.705  1.00  0.00     0.000 A 
ENDBRANCH  59  72
ENDBRANCH  33  34
ENDBRANCH  25  28
ENDBRANCH  23  24
ENDBRANCH  22  23
ENDBRANCH   1  22
TORSDOF 14
ENDMDL
MODEL 2
REMARK VINA RESULT:     -11.1      2.238      7.646
REMARK SMILES CCc1c(C(=O)NCCCCNC(=O)c2ccc(-c3c4nc(c(-c5ccccc5)c5ccc([nH]5)c(-c5ccccc5)c5nc(c(-c6ccccc6)c6ccc3[nH]6)C=C5)C=C4)cc2)nnn1-c1ccc(OC)cc1
REMARK SMILES IDX 9 1 8 2 7 3 5 4 6 5 4 7 3 8 65 9 63 10 64 11 2 12 1 13 66 14
REMARK SMILES IDX 67 15 73 16 68 17 72 18 69 19 70 20 71 21 10 22 11 23 12 24
REMARK SMILES IDX 13 25 14 27 15 28 16 29 62 30 17 31 61 32 18 33 19 34 20 35
REMARK SMILES IDX 55 36 21 37 60 38 54 39 56 40 22 41 59 42 53 43 52 44 23 46
REMARK SMILES IDX 45 47 30 48 44 49 31 50 34 51 43 52 57 53 32 54 33 55 42 57
REMARK SMILES IDX 58 58 35 59 24 60 25 61 29 62 26 63 28 64 27 65 46 66 47 67
REMARK SMILES IDX 51 68 48 69 50 70 49 71 36 72 37 73 41 74 38 75 40 76 39 77
REMARK H PARENT 7 6 12 26 56 45 34 56
REMARK Flexibility Score: inf
ROOT
ATOM      1  C   UNL A   1      32.280  29.555  27.071  1.00  0.00     0.023 C 
ENDROOT
BRANCH   1   2
ATOM      2  C   UNL A   1      32.202  30.282  25.735  1.00  0.00     0.116 C 
BRANCH   2   3
ATOM      3  N   UNL A   1      31.153  29.902  24.831  1.00  0.00    -0.351 N 
ATOM      4  C   UNL A   1      30.861  28.680  24.250  1.00  0.00     0.273 C 
ATOM      5  O   UNL A   1      29.853  28.677  23.538  1.00  0.00    -0.267 OA
ATOM      6  H   UNL A   1      30.541  30.631  24.582  1.00  0.00     0.163 HD
BRANCH   4   7
ATOM      7  C   UNL A   1      31.679  27.456  24.391  1.00  0.00     0.174 A 
ATOM      8  C   UNL A   1      32.827  26.938  23.782  1.00  0.00     0.077 A 
ATOM      9  N   UNL A   1      33.073  25.750  24.477  1.00  0.00    -0.217 N 
ATOM     10  N   UNL A   1      31.273  26.547  25.354  1.00  0.00    -0.124 NA
ATOM     11  N   UNL A   1      32.053  25.483  25.311  1.00  0.00    -0.061 NA
BRANCH   8  12
ATOM     12  C   UNL A   1      33.650  27.327  22.592  1.00  0.00     0.055 C 
ATOM     13  C   UNL A   1      34.273  28.718  22.783  1.00  0.00     0.011 C 
ENDBRANCH   8  12
BRANCH   9  14
ATOM     14  C   UNL A   1      34.122  24.817  24.288  1.00  0.00     0.067 A 
ATOM     15  C   UNL A   1      35.132  24.713  25.250  1.00  0.00     0.032 A 
ATOM     16  C   UNL A   1      34.108  23.941  23.197  1.00  0.00     0.032 A 
ATOM     17  C   UNL A   1      36.039  23.650  25.175  1.00  0.00     0.048 A 
ATOM     18  C   UNL A   1      35.023  22.887  23.127  1.00  0.00     0.048 A 
ATOM     19  C   UNL A   1      35.971  22.717  24.136  1.00  0.00     0.119 A 
BRANCH  19  20
ATOM     20  O   UNL A   1      36.876  21.694  24.210  1.00  0.00    -0.497 OA
ATOM     21  C   UNL A   1      37.775  21.717  25.314  1.00  0.00     0.278 C 
ENDBRANCH  19  20
ENDBRANCH   9  14
ENDBRANCH   4   7
ENDBRANCH   2   3
ENDBRANCH   1   2
BRANCH   1  22
ATOM     22  C   UNL A   1      33.474  28.638  27.312  1.00  0.00     0.023 C 
BRANCH  22  23
ATOM     23  C   UNL A   1      34.839  29.313  27.275  1.00  0.00     0.116 C 
BRANCH  23  24
ATOM     24  N   UNL A   1      35.068  30.273  28.351  1.00  0.00    -0.352 N 
ATOM     25  C   UNL A   1      36.142  30.289  29.232  1.00  0.00     0.251 C 
ATOM     26  H   UNL A   1      34.394  30.981  28.463  1.00  0.00     0.163 HD
ATOM     27  O   UNL A   1      36.113  30.908  30.274  1.00  0.00    -0.269 OA
BRANCH  25  28
ATOM     28  C   UNL A   1      37.338  29.510  28.852  1.00  0.00     0.039 A 
ATOM     29  C   UNL A   1      38.033  29.788  27.673  1.00  0.00     0.014 A 
ATOM     30  C   UNL A   1      37.811  28.574  29.766  1.00  0.00     0.014 A 
ATOM     31  C   UNL A   1      39.276  29.189  27.469  1.00  0.00     0.010 A 
ATOM     32  C   UNL A   1      39.083  28.074  29.615  1.00  0.00     0.010 A 
ATOM     33  C   UNL A   1      39.817  28.356  28.459  1.00  0.00    -0.014 A 
BRANCH  33  34
ATOM     34  C   UNL A   1      41.193  27.865  28.353  1.00  0.00     0.031 A 
ATOM     35  C   UNL A   1      41.398  26.557  27.653  1.00  0.00     0.074 A 
ATOM     36  C   UNL A   1      42.265  28.645  28.609  1.00  0.00     0.049 A 
ATOM     37  N   UNL A   1      41.989  25.497  28.105  1.00  0.00    -0.248 NA
ATOM     38  C   UNL A   1      40.855  26.398  26.295  1.00  0.00     0.031 C 
ATOM     39  C   UNL A   1      42.284  30.063  28.987  1.00  0.00     0.029 A 
ATOM     40  N   UNL A   1      43.585  28.363  28.428  1.00  0.00    -0.354 N 
ATOM     41  C   UNL A   1      42.025  24.582  27.052  1.00  0.00     0.074 A 
ATOM     42  C   UNL A   1      41.223  25.149  25.997  1.00  0.00     0.031 C 
ATOM     43  C   UNL A   1      43.509  30.574  28.744  1.00  0.00     0.029 A 
ATOM     44  C   UNL A   1      44.396  29.487  28.374  1.00  0.00     0.049 A 
ATOM     45  H   UNL A   1      43.931  27.445  28.345  1.00  0.00     0.167 HD
ATOM     46  C   UNL A   1      42.855  23.499  27.054  1.00  0.00     0.031 A 
ATOM     47  C   UNL A   1      45.700  29.535  28.016  1.00  0.00     0.031 A 
ATOM     48  C   UNL A   1      43.414  23.244  28.353  1.00  0.00     0.049 A 
ATOM     49  C   UNL A   1      46.255  28.170  28.151  1.00  0.00     0.074 A 
ATOM     50  C   UNL A   1      42.896  22.954  29.600  1.00  0.00     0.029 A 
ATOM     51  N   UNL A   1      44.716  23.623  28.570  1.00  0.00    -0.354 N 
ATOM     52  N   UNL A   1      46.413  27.573  29.296  1.00  0.00    -0.248 NA
ATOM     53  C   UNL A   1      46.251  27.298  26.988  1.00  0.00     0.031 C 
ATOM     54  C   UNL A   1      43.732  23.664  30.512  1.00  0.00     0.029 A 
ATOM     55  C   UNL A   1      44.733  24.292  29.767  1.00  0.00     0.049 A 
ATOM     56  H   UNL A   1      45.486  23.450  27.982  1.00  0.00     0.167 HD
ATOM     57  C   UNL A   1      46.087  26.248  29.051  1.00  0.00     0.074 A 
ATOM     58  C   UNL A   1      46.123  26.115  27.596  1.00  0.00     0.031 C 
ATOM     59  C   UNL A   1      45.538  25.463  30.026  1.00  0.00     0.031 A 
BRANCH  46  60
ATOM     60  C   UNL A   1      43.439  22.861  25.818  1.00  0.00    -0.014 A 
ATOM     61  C   UNL A   1      43.534  21.456  25.752  1.00  0.00     0.009 A 
ATOM     62  C   UNL A   1      44.153  23.587  24.847  1.00  0.00     0.009 A 
ATOM     63  C   UNL A   1      44.351  20.820  24.809  1.00  0.00     0.001 A 
ATOM     64  C   UNL A   1      44.935  22.953  23.877  1.00  0.00     0.001 A 
ATOM     65  C   UNL A   1      45.058  21.570  23.875  1.00  0.00     0.000 A 
ENDBRANCH  46  60
BRANCH  47  66
ATOM     66  C   UNL A   1      46.447  30.646  27.397  1.00  0.00    -0.014 A 
ATOM     67  C   UNL A   1      45.776  31.717  26.792  1.00  0.00     0.009 A 
ATOM     68  C   UNL A   1      47.833  30.774  27.613  1.00  0.00     0.009 A 
ATOM     69  C   UNL A   1      46.460  32.890  26.447  1.00  0.00     0.001 A 
ATOM     70  C   UNL A   1      48.517  31.942  27.263  1.00  0.00     0.001 A 
ATOM     71  C   UNL A   1      47.827  33.006  26.694  1.00  0.00     0.000 A 
ENDBRANCH  47  66
BRANCH  59  72
ATOM     72  C   UNL A   1      45.497  26.004  31.435  1.00  0.00    -0.014 A 
ATOM     73  C   UNL A   1      44.429  26.780  31.921  1.00  0.00     0.009 A 
ATOM     74  C   UNL A   1      46.475  25.581  32.347  1.00  0.00     0.009 A 
ATOM     75  C   UNL A   1      44.361  27.150  33.268  1.00  0.00     0.001 A 
ATOM     76  C   UNL A   1      46.395  25.931  33.698  1.00  0.00     0.001 A 
ATOM     77  C   UNL A   1      45.342  26.720  34.156  1.00  0.00     0.000 A 
ENDBRANCH  59  72
ENDBRANCH  33  34
ENDBRANCH  25  28
ENDBRANCH  23  24
ENDBRANCH  22  23
ENDBRANCH   1  22
TORSDOF 14
ENDMDL
MODEL 3
REMARK VINA RESULT:     -11.0      2.630      7.690
REMARK SMILES CCc1c(C(=O)NCCCCNC(=O)c2ccc(-c3c4nc(c(-c5ccccc5)c5ccc([nH]5)c(-c5ccccc5)c5nc(c(-c6ccccc6)c6ccc3[nH]6)C=C5)C=C4)cc2)nnn1-c1ccc(OC)cc1
REMARK SMILES IDX 9 1 8 2 7 3 5 4 6 5 4 7 3 8 65 9 63 10 64 11 2 12 1 13 66 14
REMARK SMILES IDX 67 15 73 16 68 17 72 18 69 19 70 20 71 21 10 22 11 23 12 24
REMARK SMILES IDX 13 25 14 27 15 28 16 29 62 30 17 31 61 32 18 33 19 34 20 35
REMARK SMILES IDX 55 36 21 37 60 38 54 39 56 40 22 41 59 42 53 43 52 44 23 46
REMARK SMILES IDX 45 47 30 48 44 49 31 50 34 51 43 52 57 53 32 54 33 55 42 57
REMARK SMILES IDX 58 58 35 59 24 60 25 61 29 62 26 63 28 64 27 65 46 66 47 67
REMARK SMILES IDX 51 68 48 69 50 70 49 71 36 72 37 73 41 74 38 75 40 76 39 77
REMARK H PARENT 7 6 12 26 56 45 34 56
REMARK Flexibility Score: inf
ROOT
ATOM      1  C   UNL A   1      32.030  28.755  25.690  1.00  0.00     0.023 C 
ENDROOT
BRANCH   1   2
ATOM      2  C   UNL A   1      31.787  28.241  24.277  1.00  0.00     0.116 C 
BRANCH   2   3
ATOM      3  N   UNL A   1      32.802  28.492  23.293  1.00  0.00    -0.351 N 
ATOM      4  C   UNL A   1      33.586  27.617  22.562  1.00  0.00     0.273 C 
ATOM      5  O   UNL A   1      34.350  28.160  21.758  1.00  0.00    -0.267 OA
ATOM      6  H   UNL A   1      32.969  29.444  23.109  1.00  0.00     0.163 HD
BRANCH   4   7
ATOM      7  C   UNL A   1      33.592  26.147  22.721  1.00  0.00     0.174 A 
ATOM      8  C   UNL A   1      33.690  25.251  23.792  1.00  0.00     0.077 A 
ATOM      9  N   UNL A   1      33.554  23.994  23.194  1.00  0.00    -0.217 N 
ATOM     10  N   UNL A   1      33.465  25.398  21.563  1.00  0.00    -0.124 NA
ATOM     11  N   UNL A   1      33.559  24.114  21.856  1.00  0.00    -0.061 NA
BRANCH   8  12
ATOM     12  C   UNL A   1      33.998  25.390  25.251  1.00  0.00     0.055 C 
ATOM     13  C   UNL A   1      32.739  25.171  26.103  1.00  0.00     0.011 C 
ENDBRANCH   8  12
BRANCH   9  14
ATOM     14  C   UNL A   1      33.564  22.718  23.811  1.00  0.00     0.067 A 
ATOM     15  C   UNL A   1      32.374  21.992  23.912  1.00  0.00     0.032 A 
ATOM     16  C   UNL A   1      34.767  22.143  24.236  1.00  0.00     0.032 A 
ATOM     17  C   UNL A   1      32.422  20.654  24.317  1.00  0.00     0.048 A 
ATOM     18  C   UNL A   1      34.804  20.808  24.646  1.00  0.00     0.048 A 
ATOM     19  C   UNL A   1      33.636  20.047  24.654  1.00  0.00     0.119 A 
BRANCH  19  20
ATOM     20  O   UNL A   1      33.554  18.720  24.975  1.00  0.00    -0.497 OA
ATOM     21  C   UNL A   1      34.435  17.841  24.283  1.00  0.00     0.278 C 
ENDBRANCH  19  20
ENDBRANCH   9  14
ENDBRANCH   4   7
ENDBRANCH   2   3
ENDBRANCH   1   2
BRANCH   1  22
ATOM     22  C   UNL A   1      33.474  28.998  26.119  1.00  0.00     0.023 C 
BRANCH  22  23
ATOM     23  C   UNL A   1      33.653  29.848  27.370  1.00  0.00     0.116 C 
BRANCH  23  24
ATOM     24  N   UNL A   1      34.019  31.238  27.108  1.00  0.00    -0.352 N 
ATOM     25  C   UNL A   1      35.117  31.917  27.621  1.00  0.00     0.251 C 
ATOM     26  H   UNL A   1      33.427  31.745  26.508  1.00  0.00     0.163 HD
ATOM     27  O   UNL A   1      35.189  33.127  27.616  1.00  0.00    -0.269 OA
BRANCH  25  28
ATOM     28  C   UNL A   1      36.210  31.100  28.185  1.00  0.00     0.039 A 
ATOM     29  C   UNL A   1      36.430  29.791  27.750  1.00  0.00     0.014 A 
ATOM     30  C   UNL A   1      37.080  31.720  29.077  1.00  0.00     0.014 A 
ATOM     31  C   UNL A   1      37.603  29.142  28.137  1.00  0.00     0.010 A 
ATOM     32  C   UNL A   1      38.284  31.120  29.365  1.00  0.00     0.010 A 
ATOM     33  C   UNL A   1      38.547  29.822  28.920  1.00  0.00    -0.014 A 
BRANCH  33  34
ATOM     34  C   UNL A   1      39.862  29.232  29.185  1.00  0.00     0.031 A 
ATOM     35  C   UNL A   1      40.189  28.906  30.608  1.00  0.00     0.074 A 
ATOM     36  C   UNL A   1      40.648  28.740  28.203  1.00  0.00     0.049 A 
ATOM     37  N   UNL A   1      41.205  29.305  31.303  1.00  0.00    -0.248 NA
ATOM     38  C   UNL A   1      39.255  28.053  31.362  1.00  0.00     0.031 C 
ATOM     39  C   UNL A   1      40.362  28.662  26.766  1.00  0.00     0.029 A 
ATOM     40  N   UNL A   1      41.820  28.056  28.316  1.00  0.00    -0.354 N 
ATOM     41  C   UNL A   1      41.129  28.650  32.533  1.00  0.00     0.074 A 
ATOM     42  C   UNL A   1      39.856  27.974  32.552  1.00  0.00     0.031 C 
ATOM     43  C   UNL A   1      41.180  27.751  26.196  1.00  0.00     0.029 A 
ATOM     44  C   UNL A   1      42.155  27.328  27.183  1.00  0.00     0.049 A 
ATOM     45  H   UNL A   1      42.379  28.078  29.126  1.00  0.00     0.167 HD
ATOM     46  C   UNL A   1      42.194  28.566  33.383  1.00  0.00     0.031 A 
ATOM     47  C   UNL A   1      43.144  26.411  27.065  1.00  0.00     0.031 A 
ATOM     48  C   UNL A   1      43.248  29.475  33.026  1.00  0.00     0.049 A 
ATOM     49  C   UNL A   1      44.106  26.644  28.165  1.00  0.00     0.074 A 
ATOM     50  C   UNL A   1      43.355  30.844  32.895  1.00  0.00     0.029 A 
ATOM     51  N   UNL A   1      44.347  28.953  32.387  1.00  0.00    -0.354 N 
ATOM     52  N   UNL A   1      44.861  27.700  28.242  1.00  0.00    -0.248 NA
ATOM     53  C   UNL A   1      43.940  25.902  29.404  1.00  0.00     0.031 C 
ATOM     54  C   UNL A   1      44.203  31.034  31.764  1.00  0.00     0.029 A 
ATOM     55  C   UNL A   1      44.601  29.772  31.317  1.00  0.00     0.049 A 
ATOM     56  H   UNL A   1      44.852  28.149  32.646  1.00  0.00     0.167 HD
ATOM     57  C   UNL A   1      44.900  28.007  29.594  1.00  0.00     0.074 A 
ATOM     58  C   UNL A   1      44.427  26.799  30.267  1.00  0.00     0.031 C 
ATOM     59  C   UNL A   1      45.033  29.298  30.023  1.00  0.00     0.031 A 
BRANCH  46  60
ATOM     60  C   UNL A   1      42.440  27.428  34.343  1.00  0.00    -0.014 A 
ATOM     61  C   UNL A   1      43.281  26.369  33.946  1.00  0.00     0.009 A 
ATOM     62  C   UNL A   1      41.662  27.217  35.496  1.00  0.00     0.009 A 
ATOM     63  C   UNL A   1      43.291  25.146  34.628  1.00  0.00     0.001 A 
ATOM     64  C   UNL A   1      41.701  26.012  36.204  1.00  0.00     0.001 A 
ATOM     65  C   UNL A   1      42.495  24.966  35.755  1.00  0.00     0.000 A 
ENDBRANCH  46  60
BRANCH  47  66
ATOM     66  C   UNL A   1      43.215  25.240  26.172  1.00  0.00    -0.014 A 
ATOM     67  C   UNL A   1      44.247  25.112  25.232  1.00  0.00     0.009 A 
ATOM     68  C   UNL A   1      42.398  24.118  26.409  1.00  0.00     0.009 A 
ATOM     69  C   UNL A   1      44.474  23.895  24.576  1.00  0.00     0.001 A 
ATOM     70  C   UNL A   1      42.620  22.905  25.751  1.00  0.00     0.001 A 
ATOM     71  C   UNL A   1      43.669  22.790  24.846  1.00  0.00     0.000 A 
ENDBRANCH  47  66
BRANCH  59  72
ATOM     72  C   UNL A   1      45.356  30.358  28.997  1.00  0.00    -0.014 A 
ATOM     73  C   UNL A   1      46.672  30.762  28.709  1.00  0.00     0.009 A 
ATOM     74  C   UNL A   1      44.322  30.842  28.182  1.00  0.00     0.009 A 
ATOM     75  C   UNL A   1      46.942  31.648  27.661  1.00  0.00     0.001 A 
ATOM     76  C   UNL A   1      44.594  31.709  27.119  1.00  0.00     0.001 A 
ATOM     77  C   UNL A   1      45.901  32.116  26.864  1.00  0.00     0.000 A 
ENDBRANCH  59  72
ENDBRANCH  33  34
ENDBRANCH  25  28
ENDBRANCH  23  24
ENDBRANCH  22  23
ENDBRANCH   1  22
TORSDOF 14
ENDMDL
