MODEL 1
REMARK VINA RESULT:     -13.1      0.000      0.000
REMARK SMILES Cc1c(NC(=O)c2ccc(-c3cccc(Cl)c3)o2)cccc1C(=O)NCCCCNC(=O)c1ccc(-c2c3nc(c(-c4ccccc4)c4ccc([nH]4)c(-c4ccccc4)c4nc(c(-c5ccccc5)c5ccc2[nH]5)C=C4)C=C3)cc1
REMARK SMILES IDX 27 1 26 2 25 3 23 4 24 5 22 7 1 8 2 9 3 10 19 11 21 12 20 13
REMARK SMILES IDX 4 14 5 15 6 17 7 18 8 19 18 20 9 21 10 22 11 23 12 24 17 25
REMARK SMILES IDX 13 26 15 27 14 28 16 29 28 30 29 31 30 32 31 33 32 35 33 36
REMARK SMILES IDX 34 37 80 38 35 39 79 40 36 41 37 42 38 43 73 44 39 45 78 46
REMARK SMILES IDX 72 47 74 48 40 49 77 50 71 51 70 52 41 54 63 55 48 56 62 57
REMARK SMILES IDX 49 58 52 59 61 60 75 61 50 62 51 63 60 65 76 66 53 67 42 68
REMARK SMILES IDX 43 69 47 70 44 71 46 72 45 73 64 74 65 75 69 76 66 77 68 78
REMARK SMILES IDX 67 79 54 80 55 81 59 82 56 83 58 84 57 85
REMARK H PARENT 25 6 4 16 30 34 74 53 52 64
REMARK Flexibility Score: inf
ROOT
ATOM      1  C   UNL A   1      33.729  29.859  27.191  1.00  0.00     0.023 C 
ENDROOT
BRANCH   1   2
ATOM      2  C   UNL A   1      32.421  30.114  26.419  1.00  0.00     0.116 C 
BRANCH   2   3
ATOM      3  N   UNL A   1      32.628  29.906  24.997  1.00  0.00    -0.352 N 
ATOM      4  C   UNL A   1      32.242  28.941  24.105  1.00  0.00     0.251 C 
ATOM      5  O   UNL A   1      32.695  29.037  22.962  1.00  0.00    -0.269 OA
ATOM      6  H   UNL A   1      33.167  30.617  24.581  1.00  0.00     0.163 HD
BRANCH   4   7
ATOM      7  C   UNL A   1      31.238  27.867  24.379  1.00  0.00     0.044 A 
ATOM      8  C   UNL A   1      32.591  26.491  26.050  1.00  0.00     0.047 C 
ATOM      9  C   UNL A   1      31.324  26.817  25.317  1.00  0.00    -0.015 A 
ATOM     10  C   UNL A   1      30.234  25.926  25.465  1.00  0.00     0.045 A 
ATOM     11  C   UNL A   1      29.151  25.989  24.584  1.00  0.00     0.026 A 
ATOM     12  C   UNL A   1      30.144  27.883  23.489  1.00  0.00     0.014 A 
ATOM     13  C   UNL A   1      29.126  26.937  23.571  1.00  0.00     0.003 A 
BRANCH  10  14
ATOM     14  N   UNL A   1      30.255  25.027  26.553  1.00  0.00    -0.319 N 
ATOM     15  C   UNL A   1      30.677  23.718  26.629  1.00  0.00     0.291 C 
ATOM     16  H   UNL A   1      29.910  25.396  27.398  1.00  0.00     0.170 HD
ATOM     17  O   UNL A   1      30.320  23.049  27.599  1.00  0.00    -0.265 OA
BRANCH  15  18
ATOM     18  C   UNL A   1      31.604  23.243  25.634  1.00  0.00     0.192 A 
ATOM     19  C   UNL A   1      31.416  22.707  24.373  1.00  0.00     0.057 A 
ATOM     20  O   UNL A   1      32.933  23.260  25.934  1.00  0.00    -0.451 OA
ATOM     21  C   UNL A   1      32.701  22.369  23.884  1.00  0.00     0.052 A 
ATOM     22  C   UNL A   1      33.595  22.704  24.881  1.00  0.00     0.135 A 
BRANCH  22  23
ATOM     23  C   UNL A   1      35.031  22.582  25.044  1.00  0.00     0.019 A 
ATOM     24  C   UNL A   1      35.812  23.707  25.337  1.00  0.00     0.012 A 
ATOM     25  C   UNL A   1      35.655  21.336  24.898  1.00  0.00     0.032 A 
ATOM     26  C   UNL A   1      37.195  23.588  25.488  1.00  0.00     0.002 A 
ATOM     27  C   UNL A   1      37.036  21.224  25.037  1.00  0.00     0.041 A 
ATOM     28  C   UNL A   1      37.808  22.345  25.335  1.00  0.00     0.020 A 
ATOM     29  Cl  UNL A   1      37.793  19.693  24.830  1.00  0.00    -0.084 Cl
ENDBRANCH  22  23
ENDBRANCH  15  18
ENDBRANCH  10  14
ENDBRANCH   4   7
ENDBRANCH   2   3
ENDBRANCH   1   2
BRANCH   1  30
ATOM     30  C   UNL A   1      34.624  31.083  27.370  1.00  0.00     0.023 C 
BRANCH  30  31
ATOM     31  C   UNL A   1      34.911  31.379  28.827  1.00  0.00     0.116 C 
BRANCH  31  32
ATOM     32  N   UNL A   1      36.145  32.126  29.061  1.00  0.00    -0.352 N 
ATOM     33  C   UNL A   1      37.444  31.661  29.164  1.00  0.00     0.251 C 
ATOM     34  H   UNL A   1      36.036  33.099  29.159  1.00  0.00     0.163 HD
ATOM     35  O   UNL A   1      38.360  32.442  29.421  1.00  0.00    -0.269 OA
BRANCH  33  36
ATOM     36  C   UNL A   1      37.753  30.257  28.794  1.00  0.00     0.039 A 
ATOM     37  C   UNL A   1      37.763  29.312  29.828  1.00  0.00     0.014 A 
ATOM     38  C   UNL A   1      38.342  29.957  27.573  1.00  0.00     0.014 A 
ATOM     39  C   UNL A   1      38.640  28.237  29.748  1.00  0.00     0.010 A 
ATOM     40  C   UNL A   1      39.318  28.984  27.550  1.00  0.00     0.010 A 
ATOM     41  C   UNL A   1      39.527  28.185  28.676  1.00  0.00    -0.014 A 
BRANCH  41  42
ATOM     42  C   UNL A   1      40.780  27.441  28.723  1.00  0.00     0.031 A 
ATOM     43  C   UNL A   1      40.771  25.970  28.536  1.00  0.00     0.074 A 
ATOM     44  C   UNL A   1      41.956  28.105  28.856  1.00  0.00     0.049 A 
ATOM     45  N   UNL A   1      41.692  25.174  28.967  1.00  0.00    -0.248 NA
ATOM     46  C   UNL A   1      39.671  25.263  27.884  1.00  0.00     0.031 C 
ATOM     47  C   UNL A   1      43.297  27.547  28.684  1.00  0.00     0.029 A 
ATOM     48  N   UNL A   1      42.221  29.394  29.334  1.00  0.00    -0.354 N 
ATOM     49  C   UNL A   1      41.488  23.948  28.373  1.00  0.00     0.074 A 
ATOM     50  C   UNL A   1      40.159  24.022  27.817  1.00  0.00     0.031 C 
ATOM     51  C   UNL A   1      44.174  28.320  29.346  1.00  0.00     0.029 A 
ATOM     52  C   UNL A   1      43.396  29.293  30.093  1.00  0.00     0.049 A 
ATOM     53  H   UNL A   1      41.689  30.207  29.170  1.00  0.00     0.167 HD
ATOM     54  C   UNL A   1      42.528  23.072  28.274  1.00  0.00     0.031 A 
ATOM     55  C   UNL A   1      43.467  29.461  31.449  1.00  0.00     0.031 A 
ATOM     56  C   UNL A   1      43.700  23.540  29.019  1.00  0.00     0.049 A 
ATOM     57  C   UNL A   1      44.023  28.245  32.182  1.00  0.00     0.074 A 
ATOM     58  C   UNL A   1      44.899  24.116  28.634  1.00  0.00     0.029 A 
ATOM     59  N   UNL A   1      43.605  23.717  30.396  1.00  0.00    -0.354 N 
ATOM     60  N   UNL A   1      44.119  27.060  31.645  1.00  0.00    -0.248 NA
ATOM     61  C   UNL A   1      44.448  28.246  33.583  1.00  0.00     0.031 C 
ATOM     62  C   UNL A   1      45.482  24.724  29.778  1.00  0.00     0.029 A 
ATOM     63  C   UNL A   1      44.655  24.486  30.862  1.00  0.00     0.049 A 
ATOM     64  H   UNL A   1      42.889  23.346  30.961  1.00  0.00     0.167 HD
ATOM     65  C   UNL A   1      44.582  26.162  32.570  1.00  0.00     0.074 A 
ATOM     66  C   UNL A   1      44.787  26.956  33.767  1.00  0.00     0.031 C 
ATOM     67  C   UNL A   1      44.736  24.839  32.273  1.00  0.00     0.031 A 
BRANCH  54  68
ATOM     68  C   UNL A   1      42.584  21.952  27.253  1.00  0.00    -0.014 A 
ATOM     69  C   UNL A   1      41.748  20.830  27.408  1.00  0.00     0.009 A 
ATOM     70  C   UNL A   1      43.485  21.886  26.175  1.00  0.00     0.009 A 
ATOM     71  C   UNL A   1      41.874  19.685  26.606  1.00  0.00     0.001 A 
ATOM     72  C   UNL A   1      43.638  20.737  25.386  1.00  0.00     0.001 A 
ATOM     73  C   UNL A   1      42.841  19.627  25.612  1.00  0.00     0.000 A 
ENDBRANCH  54  68
BRANCH  55  74
ATOM     74  C   UNL A   1      42.453  30.384  32.022  1.00  0.00    -0.014 A 
ATOM     75  C   UNL A   1      42.754  31.758  32.079  1.00  0.00     0.009 A 
ATOM     76  C   UNL A   1      41.119  29.983  32.175  1.00  0.00     0.009 A 
ATOM     77  C   UNL A   1      41.734  32.711  32.158  1.00  0.00     0.001 A 
ATOM     78  C   UNL A   1      40.101  30.941  32.264  1.00  0.00     0.001 A 
ATOM     79  C   UNL A   1      40.405  32.301  32.214  1.00  0.00     0.000 A 
ENDBRANCH  55  74
BRANCH  67  80
ATOM     80  C   UNL A   1      45.032  23.740  33.265  1.00  0.00    -0.014 A 
ATOM     81  C   UNL A   1      46.310  23.442  33.753  1.00  0.00     0.009 A 
ATOM     82  C   UNL A   1      43.947  23.054  33.858  1.00  0.00     0.009 A 
ATOM     83  C   UNL A   1      46.499  22.478  34.753  1.00  0.00     0.001 A 
ATOM     84  C   UNL A   1      44.128  22.125  34.886  1.00  0.00     0.001 A 
ATOM     85  C   UNL A   1      45.409  21.828  35.326  1.00  0.00     0.000 A 
ENDBRANCH  67  80
ENDBRANCH  41  42
ENDBRANCH  33  36
ENDBRANCH  31  32
ENDBRANCH  30  31
ENDBRANCH   1  30
TORSDOF 14
ENDMDL
MODEL 2
REMARK VINA RESULT:     -13.1      1.213      1.499
REMARK SMILES Cc1c(NC(=O)c2ccc(-c3cccc(Cl)c3)o2)cccc1C(=O)NCCCCNC(=O)c1ccc(-c2c3nc(c(-c4ccccc4)c4ccc([nH]4)c(-c4ccccc4)c4nc(c(-c5ccccc5)c5ccc2[nH]5)C=C4)C=C3)cc1
REMARK SMILES IDX 27 1 26 2 25 3 23 4 24 5 22 7 1 8 2 9 3 10 19 11 21 12 20 13
REMARK SMILES IDX 4 14 5 15 6 17 7 18 8 19 18 20 9 21 10 22 11 23 12 24 17 25
REMARK SMILES IDX 13 26 15 27 14 28 16 29 28 30 29 31 30 32 31 33 32 35 33 36
REMARK SMILES IDX 34 37 80 38 35 39 79 40 36 41 37 42 38 43 73 44 39 45 78 46
REMARK SMILES IDX 72 47 74 48 40 49 77 50 71 51 70 52 41 54 63 55 48 56 62 57
REMARK SMILES IDX 49 58 52 59 61 60 75 61 50 62 51 63 60 65 76 66 53 67 42 68
REMARK SMILES IDX 43 69 47 70 44 71 46 72 45 73 64 74 65 75 69 76 66 77 68 78
REMARK SMILES IDX 67 79 54 80 55 81 59 82 56 83 58 84 57 85
REMARK H PARENT 25 6 4 16 30 34 74 53 52 64
REMARK Flexibility Score: inf
ROOT
ATOM      1  C   UNL A   1      33.567  30.700  27.538  1.00  0.00     0.023 C 
ENDROOT
BRANCH   1   2
ATOM      2  C   UNL A   1      32.347  30.241  26.717  1.00  0.00     0.116 C 
BRANCH   2   3
ATOM      3  N   UNL A   1      32.720  30.056  25.326  1.00  0.00    -0.352 N 
ATOM      4  C   UNL A   1      32.455  29.098  24.384  1.00  0.00     0.251 C 
ATOM      5  O   UNL A   1      33.034  29.217  23.301  1.00  0.00    -0.269 OA
ATOM      6  H   UNL A   1      33.291  30.781  24.983  1.00  0.00     0.163 HD
BRANCH   4   7
ATOM      7  C   UNL A   1      31.444  28.006  24.527  1.00  0.00     0.044 A 
ATOM      8  C   UNL A   1      32.658  26.583  26.265  1.00  0.00     0.047 C 
ATOM      9  C   UNL A   1      31.458  26.923  25.431  1.00  0.00    -0.015 A 
ATOM     10  C   UNL A   1      30.371  26.017  25.449  1.00  0.00     0.045 A 
ATOM     11  C   UNL A   1      29.371  26.101  24.476  1.00  0.00     0.026 A 
ATOM     12  C   UNL A   1      30.435  28.044  23.543  1.00  0.00     0.014 A 
ATOM     13  C   UNL A   1      29.426  27.086  23.498  1.00  0.00     0.003 A 
BRANCH  10  14
ATOM     14  N   UNL A   1      30.305  25.079  26.501  1.00  0.00    -0.319 N 
ATOM     15  C   UNL A   1      30.683  23.756  26.551  1.00  0.00     0.291 C 
ATOM     16  H   UNL A   1      29.925  25.429  27.339  1.00  0.00     0.170 HD
ATOM     17  O   UNL A   1      30.253  23.064  27.474  1.00  0.00    -0.265 OA
BRANCH  15  18
ATOM     18  C   UNL A   1      31.648  23.288  25.590  1.00  0.00     0.192 A 
ATOM     19  C   UNL A   1      31.511  22.766  24.317  1.00  0.00     0.057 A 
ATOM     20  O   UNL A   1      32.964  23.295  25.945  1.00  0.00    -0.451 OA
ATOM     21  C   UNL A   1      32.814  22.428  23.878  1.00  0.00     0.052 A 
ATOM     22  C   UNL A   1      33.667  22.747  24.914  1.00  0.00     0.135 A 
BRANCH  22  23
ATOM     23  C   UNL A   1      35.095  22.617  25.136  1.00  0.00     0.019 A 
ATOM     24  C   UNL A   1      35.866  23.735  25.478  1.00  0.00     0.012 A 
ATOM     25  C   UNL A   1      35.720  21.370  24.998  1.00  0.00     0.032 A 
ATOM     26  C   UNL A   1      37.242  23.608  25.686  1.00  0.00     0.002 A 
ATOM     27  C   UNL A   1      37.094  21.251  25.193  1.00  0.00     0.041 A 
ATOM     28  C   UNL A   1      37.856  22.364  25.540  1.00  0.00     0.020 A 
ATOM     29  Cl  UNL A   1      37.853  19.720  24.996  1.00  0.00    -0.084 Cl
ENDBRANCH  22  23
ENDBRANCH  15  18
ENDBRANCH  10  14
ENDBRANCH   4   7
ENDBRANCH   2   3
ENDBRANCH   1   2
BRANCH   1  30
ATOM     30  C   UNL A   1      33.688  32.211  27.727  1.00  0.00     0.023 C 
BRANCH  30  31
ATOM     31  C   UNL A   1      35.102  32.637  28.064  1.00  0.00     0.116 C 
BRANCH  31  32
ATOM     32  N   UNL A   1      35.387  32.710  29.495  1.00  0.00    -0.352 N 
ATOM     33  C   UNL A   1      35.933  31.751  30.330  1.00  0.00     0.251 C 
ATOM     34  H   UNL A   1      35.159  33.564  29.927  1.00  0.00     0.163 HD
ATOM     35  O   UNL A   1      36.049  31.976  31.534  1.00  0.00    -0.269 OA
BRANCH  33  36
ATOM     36  C   UNL A   1      36.533  30.525  29.746  1.00  0.00     0.039 A 
ATOM     37  C   UNL A   1      36.711  29.431  30.602  1.00  0.00     0.014 A 
ATOM     38  C   UNL A   1      37.201  30.573  28.530  1.00  0.00     0.014 A 
ATOM     39  C   UNL A   1      37.792  28.583  30.394  1.00  0.00     0.010 A 
ATOM     40  C   UNL A   1      38.357  29.832  28.400  1.00  0.00     0.010 A 
ATOM     41  C   UNL A   1      38.698  28.901  29.385  1.00  0.00    -0.014 A 
BRANCH  41  42
ATOM     42  C   UNL A   1      40.076  28.424  29.380  1.00  0.00     0.031 A 
ATOM     43  C   UNL A   1      40.392  27.091  28.816  1.00  0.00     0.074 A 
ATOM     44  C   UNL A   1      41.073  29.234  29.818  1.00  0.00     0.049 A 
ATOM     45  N   UNL A   1      41.434  26.394  29.128  1.00  0.00    -0.248 NA
ATOM     46  C   UNL A   1      39.508  26.399  27.880  1.00  0.00     0.031 C 
ATOM     47  C   UNL A   1      42.510  29.010  29.662  1.00  0.00     0.029 A 
ATOM     48  N   UNL A   1      41.027  30.364  30.642  1.00  0.00    -0.354 N 
ATOM     49  C   UNL A   1      41.531  25.367  28.215  1.00  0.00     0.074 A 
ATOM     50  C   UNL A   1      40.253  25.342  27.547  1.00  0.00     0.031 C 
ATOM     51  C   UNL A   1      43.160  29.719  30.600  1.00  0.00     0.029 A 
ATOM     52  C   UNL A   1      42.150  30.279  31.480  1.00  0.00     0.049 A 
ATOM     53  H   UNL A   1      40.346  31.075  30.636  1.00  0.00     0.167 HD
ATOM     54  C   UNL A   1      42.739  24.767  28.012  1.00  0.00     0.031 A 
ATOM     55  C   UNL A   1      42.102  30.072  32.831  1.00  0.00     0.031 A 
ATOM     56  C   UNL A   1      43.737  25.220  28.983  1.00  0.00     0.049 A 
ATOM     57  C   UNL A   1      42.860  28.828  33.281  1.00  0.00     0.074 A 
ATOM     58  C   UNL A   1      44.806  26.096  28.904  1.00  0.00     0.029 A 
ATOM     59  N   UNL A   1      43.524  24.985  30.338  1.00  0.00    -0.354 N 
ATOM     60  N   UNL A   1      43.238  27.880  32.468  1.00  0.00    -0.248 NA
ATOM     61  C   UNL A   1      43.190  28.517  34.673  1.00  0.00     0.031 C 
ATOM     62  C   UNL A   1      45.177  26.459  30.226  1.00  0.00     0.029 A 
ATOM     63  C   UNL A   1      44.356  25.776  31.107  1.00  0.00     0.049 A 
ATOM     64  H   UNL A   1      42.872  24.343  30.700  1.00  0.00     0.167 HD
ATOM     65  C   UNL A   1      43.826  26.864  33.174  1.00  0.00     0.074 A 
ATOM     66  C   UNL A   1      43.785  27.315  34.552  1.00  0.00     0.031 C 
ATOM     67  C   UNL A   1      44.276  25.729  32.561  1.00  0.00     0.031 A 
BRANCH  54  68
ATOM     68  C   UNL A   1      43.093  24.008  26.747  1.00  0.00    -0.014 A 
ATOM     69  C   UNL A   1      42.750  22.646  26.636  1.00  0.00     0.009 A 
ATOM     70  C   UNL A   1      43.833  24.531  25.672  1.00  0.00     0.009 A 
ATOM     71  C   UNL A   1      43.202  21.844  25.577  1.00  0.00     0.001 A 
ATOM     72  C   UNL A   1      44.312  23.732  24.624  1.00  0.00     0.001 A 
ATOM     73  C   UNL A   1      44.009  22.382  24.584  1.00  0.00     0.000 A 
ENDBRANCH  54  68
BRANCH  55  74
ATOM     74  C   UNL A   1      40.882  30.590  33.504  1.00  0.00    -0.014 A 
ATOM     75  C   UNL A   1      40.785  31.974  33.742  1.00  0.00     0.009 A 
ATOM     76  C   UNL A   1      39.720  29.812  33.586  1.00  0.00     0.009 A 
ATOM     77  C   UNL A   1      39.539  32.581  33.928  1.00  0.00     0.001 A 
ATOM     78  C   UNL A   1      38.475  30.423  33.782  1.00  0.00     0.001 A 
ATOM     79  C   UNL A   1      38.381  31.808  33.913  1.00  0.00     0.000 A 
ENDBRANCH  55  74
BRANCH  67  80
ATOM     80  C   UNL A   1      44.739  24.474  33.259  1.00  0.00    -0.014 A 
ATOM     81  C   UNL A   1      46.043  24.269  33.729  1.00  0.00     0.009 A 
ATOM     82  C   UNL A   1      43.778  23.493  33.597  1.00  0.00     0.009 A 
ATOM     83  C   UNL A   1      46.377  23.122  34.462  1.00  0.00     0.001 A 
ATOM     84  C   UNL A   1      44.099  22.372  34.365  1.00  0.00     0.001 A 
ATOM     85  C   UNL A   1      45.406  22.181  34.789  1.00  0.00     0.000 A 
ENDBRANCH  67  80
ENDBRANCH  41  42
ENDBRANCH  33  36
ENDBRANCH  31  32
ENDBRANCH  30  31
ENDBRANCH   1  30
TORSDOF 14
ENDMDL
MODEL 3
REMARK VINA RESULT:     -13.0      2.333      4.066
REMARK SMILES Cc1c(NC(=O)c2ccc(-c3cccc(Cl)c3)o2)cccc1C(=O)NCCCCNC(=O)c1ccc(-c2c3nc(c(-c4ccccc4)c4ccc([nH]4)c(-c4ccccc4)c4nc(c(-c5ccccc5)c5ccc2[nH]5)C=C4)C=C3)cc1
REMARK SMILES IDX 27 1 26 2 25 3 23 4 24 5 22 7 1 8 2 9 3 10 19 11 21 12 20 13
REMARK SMILES IDX 4 14 5 15 6 17 7 18 8 19 18 20 9 21 10 22 11 23 12 24 17 25
REMARK SMILES IDX 13 26 15 27 14 28 16 29 28 30 29 31 30 32 31 33 32 35 33 36
REMARK SMILES IDX 34 37 80 38 35 39 79 40 36 41 37 42 38 43 73 44 39 45 78 46
REMARK SMILES IDX 72 47 74 48 40 49 77 50 71 51 70 52 41 54 63 55 48 56 62 57
REMARK SMILES IDX 49 58 52 59 61 60 75 61 50 62 51 63 60 65 76 66 53 67 42 68
REMARK SMILES IDX 43 69 47 70 44 71 46 72 45 73 64 74 65 75 69 76 66 77 68 78
REMARK SMILES IDX 67 79 54 80 55 81 59 82 56 83 58 84 57 85
REMARK H PARENT 25 6 4 16 30 34 74 53 52 64
REMARK Flexibility Score: inf
ROOT
ATOM      1  C   UNL A   1      32.957  30.039  27.486  1.00  0.00     0.023 C 
ENDROOT
BRANCH   1   2
ATOM      2  C   UNL A   1      32.007  30.537  26.380  1.00  0.00     0.116 C 
BRANCH   2   3
ATOM      3  N   UNL A   1      32.522  30.171  25.073  1.00  0.00    -0.352 N 
ATOM      4  C   UNL A   1      32.366  29.086  24.252  1.00  0.00     0.251 C 
ATOM      5  O   UNL A   1      33.052  29.069  23.227  1.00  0.00    -0.269 OA
ATOM      6  H   UNL A   1      33.118  30.856  24.691  1.00  0.00     0.163 HD
BRANCH   4   7
ATOM      7  C   UNL A   1      31.357  28.000  24.445  1.00  0.00     0.044 A 
ATOM      8  C   UNL A   1      32.623  26.599  26.163  1.00  0.00     0.047 C 
ATOM      9  C   UNL A   1      31.398  26.930  25.364  1.00  0.00    -0.015 A 
ATOM     10  C   UNL A   1      30.309  26.028  25.430  1.00  0.00     0.045 A 
ATOM     11  C   UNL A   1      29.278  26.101  24.489  1.00  0.00     0.026 A 
ATOM     12  C   UNL A   1      30.316  28.026  23.494  1.00  0.00     0.014 A 
ATOM     13  C   UNL A   1      29.304  27.071  23.496  1.00  0.00     0.003 A 
BRANCH  10  14
ATOM     14  N   UNL A   1      30.275  25.105  26.498  1.00  0.00    -0.319 N 
ATOM     15  C   UNL A   1      30.654  23.783  26.556  1.00  0.00     0.291 C 
ATOM     16  H   UNL A   1      29.922  25.468  27.342  1.00  0.00     0.170 HD
ATOM     17  O   UNL A   1      30.253  23.105  27.502  1.00  0.00    -0.265 OA
BRANCH  15  18
ATOM     18  C   UNL A   1      31.589  23.299  25.573  1.00  0.00     0.192 A 
ATOM     19  C   UNL A   1      31.412  22.762  24.311  1.00  0.00     0.057 A 
ATOM     20  O   UNL A   1      32.915  23.307  25.888  1.00  0.00    -0.451 OA
ATOM     21  C   UNL A   1      32.701  22.414  23.838  1.00  0.00     0.052 A 
ATOM     22  C   UNL A   1      33.585  22.744  24.844  1.00  0.00     0.135 A 
BRANCH  22  23
ATOM     23  C   UNL A   1      35.018  22.613  25.025  1.00  0.00     0.019 A 
ATOM     24  C   UNL A   1      35.802  23.732  25.331  1.00  0.00     0.012 A 
ATOM     25  C   UNL A   1      35.636  21.363  24.881  1.00  0.00     0.032 A 
ATOM     26  C   UNL A   1      37.183  23.603  25.499  1.00  0.00     0.002 A 
ATOM     27  C   UNL A   1      37.015  21.242  25.037  1.00  0.00     0.041 A 
ATOM     28  C   UNL A   1      37.790  22.356  25.349  1.00  0.00     0.020 A 
ATOM     29  Cl  UNL A   1      37.764  19.707  24.834  1.00  0.00    -0.084 Cl
ENDBRANCH  22  23
ENDBRANCH  15  18
ENDBRANCH  10  14
ENDBRANCH   4   7
ENDBRANCH   2   3
ENDBRANCH   1   2
BRANCH   1  30
ATOM     30  C   UNL A   1      34.440  30.294  27.228  1.00  0.00     0.023 C 
BRANCH  30  31
ATOM     31  C   UNL A   1      35.011  31.349  28.154  1.00  0.00     0.116 C 
BRANCH  31  32
ATOM     32  N   UNL A   1      34.105  32.459  28.438  1.00  0.00    -0.352 N 
ATOM     33  C   UNL A   1      34.228  33.473  29.372  1.00  0.00     0.251 C 
ATOM     34  H   UNL A   1      33.291  32.491  27.886  1.00  0.00     0.163 HD
ATOM     35  O   UNL A   1      33.326  34.300  29.506  1.00  0.00    -0.269 OA
BRANCH  33  36
ATOM     36  C   UNL A   1      35.516  33.662  30.085  1.00  0.00     0.039 A 
ATOM     37  C   UNL A   1      36.571  34.226  29.358  1.00  0.00     0.014 A 
ATOM     38  C   UNL A   1      35.769  33.000  31.279  1.00  0.00     0.014 A 
ATOM     39  C   UNL A   1      37.873  33.835  29.648  1.00  0.00     0.010 A 
ATOM     40  C   UNL A   1      37.035  32.492  31.478  1.00  0.00     0.010 A 
ATOM     41  C   UNL A   1      38.067  32.840  30.603  1.00  0.00    -0.014 A 
BRANCH  41  42
ATOM     42  C   UNL A   1      39.264  32.007  30.644  1.00  0.00     0.031 A 
ATOM     43  C   UNL A   1      39.253  30.668  30.010  1.00  0.00     0.074 A 
ATOM     44  C   UNL A   1      40.407  32.495  31.191  1.00  0.00     0.049 A 
ATOM     45  N   UNL A   1      40.045  29.701  30.332  1.00  0.00    -0.248 NA
ATOM     46  C   UNL A   1      38.287  30.290  28.980  1.00  0.00     0.031 C 
ATOM     47  C   UNL A   1      41.739  31.897  31.102  1.00  0.00     0.029 A 
ATOM     48  N   UNL A   1      40.605  33.552  32.086  1.00  0.00    -0.354 N 
ATOM     49  C   UNL A   1      39.931  28.733  29.359  1.00  0.00     0.074 A 
ATOM     50  C   UNL A   1      38.745  29.088  28.620  1.00  0.00     0.031 C 
ATOM     51  C   UNL A   1      42.485  32.356  32.121  1.00  0.00     0.029 A 
ATOM     52  C   UNL A   1      41.600  33.124  32.979  1.00  0.00     0.049 A 
ATOM     53  H   UNL A   1      40.140  34.420  32.089  1.00  0.00     0.167 HD
ATOM     54  C   UNL A   1      40.946  27.838  29.185  1.00  0.00     0.031 A 
ATOM     55  C   UNL A   1      41.400  32.870  34.307  1.00  0.00     0.031 A 
ATOM     56  C   UNL A   1      41.955  27.955  30.240  1.00  0.00     0.049 A 
ATOM     57  C   UNL A   1      41.763  31.447  34.715  1.00  0.00     0.074 A 
ATOM     58  C   UNL A   1      43.223  28.512  30.280  1.00  0.00     0.029 A 
ATOM     59  N   UNL A   1      41.590  27.719  31.561  1.00  0.00    -0.354 N 
ATOM     60  N   UNL A   1      41.933  30.473  33.862  1.00  0.00    -0.248 NA
ATOM     61  C   UNL A   1      41.896  30.989  36.099  1.00  0.00     0.031 C 
ATOM     62  C   UNL A   1      43.580  28.694  31.643  1.00  0.00     0.029 A 
ATOM     63  C   UNL A   1      42.544  28.216  32.428  1.00  0.00     0.049 A 
ATOM     64  H   UNL A   1      40.765  27.261  31.841  1.00  0.00     0.167 HD
ATOM     65  C   UNL A   1      42.175  29.302  34.530  1.00  0.00     0.074 A 
ATOM     66  C   UNL A   1      42.156  29.679  35.931  1.00  0.00     0.031 C 
ATOM     67  C   UNL A   1      42.349  28.120  33.869  1.00  0.00     0.031 A 
BRANCH  54  68
ATOM     68  C   UNL A   1      41.176  27.076  27.894  1.00  0.00    -0.014 A 
ATOM     69  C   UNL A   1      42.106  27.564  26.956  1.00  0.00     0.009 A 
ATOM     70  C   UNL A   1      40.460  25.934  27.492  1.00  0.00     0.009 A 
ATOM     71  C   UNL A   1      42.237  27.011  25.673  1.00  0.00     0.001 A 
ATOM     72  C   UNL A   1      40.563  25.391  26.203  1.00  0.00     0.001 A 
ATOM     73  C   UNL A   1      41.443  25.940  25.286  1.00  0.00     0.000 A 
ENDBRANCH  54  68
BRANCH  55  74
ATOM     74  C   UNL A   1      40.317  33.665  34.944  1.00  0.00    -0.014 A 
ATOM     75  C   UNL A   1      39.094  33.028  35.225  1.00  0.00     0.009 A 
ATOM     76  C   UNL A   1      40.595  34.889  35.569  1.00  0.00     0.009 A 
ATOM     77  C   UNL A   1      38.231  33.536  36.201  1.00  0.00     0.001 A 
ATOM     78  C   UNL A   1      39.722  35.399  36.539  1.00  0.00     0.001 A 
ATOM     79  C   UNL A   1      38.564  34.703  36.882  1.00  0.00     0.000 A 
ENDBRANCH  55  74
BRANCH  67  80
ATOM     80  C   UNL A   1      42.408  26.754  34.505  1.00  0.00    -0.014 A 
ATOM     81  C   UNL A   1      41.381  26.201  35.282  1.00  0.00     0.009 A 
ATOM     82  C   UNL A   1      43.495  25.906  34.191  1.00  0.00     0.009 A 
ATOM     83  C   UNL A   1      41.457  24.884  35.754  1.00  0.00     0.001 A 
ATOM     84  C   UNL A   1      43.553  24.579  34.623  1.00  0.00     0.001 A 
ATOM     85  C   UNL A   1      42.536  24.071  35.417  1.00  0.00     0.000 A 
ENDBRANCH  67  80
ENDBRANCH  41  42
ENDBRANCH  33  36
ENDBRANCH  31  32
ENDBRANCH  30  31
ENDBRANCH   1  30
TORSDOF 14
ENDMDL
