MODEL 1
REMARK VINA RESULT:     -11.0      0.000      0.000
REMARK SMILES C=Cc1cncc(-c2ccc([C@@H](C)C(=O)NCCCCNC(=O)c3ccc(-c4c5nc(c(-c6ccccc6)c6ccc([nH]6)c(-c6ccccc6)c6nc(c(-c7ccccc7)c7ccc4[nH]7)C=C6)C=C5)cc3)cc2)c1
REMARK SMILES IDX 18 1 17 2 16 3 14 4 15 5 12 7 13 8 11 9 8 10 9 11 73 12
REMARK SMILES IDX 10 13 72 14 7 15 3 16 4 17 74 18 5 19 6 20 2 21 1 22 19 23
REMARK SMILES IDX 20 24 21 25 22 26 23 28 24 29 25 30 71 31 26 32 70 33 27 34
REMARK SMILES IDX 28 35 29 36 64 37 30 38 69 39 63 40 65 41 31 42 68 43 62 44
REMARK SMILES IDX 61 45 32 47 54 48 39 49 53 50 40 51 43 52 52 53 66 54 41 55
REMARK SMILES IDX 42 56 51 58 67 59 44 60 33 61 34 62 38 63 35 64 37 65 36 66
REMARK SMILES IDX 55 67 56 68 60 69 57 70 59 71 58 72 45 73 46 74 50 75 47 76
REMARK SMILES IDX 49 77 48 78
REMARK H PARENT 16 6 21 27 65 46 43 57
REMARK Flexibility Score: inf
ROOT
ATOM      1  C   UNL A   1      32.775  29.642  25.035  1.00  0.00     0.023 C 
ENDROOT
BRANCH   1   2
ATOM      2  C   UNL A   1      31.253  29.599  24.911  1.00  0.00     0.116 C 
BRANCH   2   3
ATOM      3  N   UNL A   1      30.802  29.919  23.573  1.00  0.00    -0.356 N 
ATOM      4  C   UNL A   1      30.223  29.146  22.613  1.00  0.00     0.227 C 
ATOM      5  O   UNL A   1      30.013  29.691  21.522  1.00  0.00    -0.274 OA
ATOM      6  H   UNL A   1      30.938  30.859  23.312  1.00  0.00     0.163 HD
BRANCH   4   7
ATOM      7  C   UNL A   1      29.824  27.677  22.826  1.00  0.00     0.105 C 
ATOM      8  C   UNL A   1      28.515  27.496  23.597  1.00  0.00     0.023 C 
BRANCH   7   9
ATOM      9  C   UNL A   1      30.989  26.796  23.250  1.00  0.00    -0.036 A 
ATOM     10  C   UNL A   1      33.039  24.956  24.026  1.00  0.00    -0.017 A 
ATOM     11  C   UNL A   1      33.168  25.773  22.890  1.00  0.00     0.009 A 
ATOM     12  C   UNL A   1      31.874  25.119  24.790  1.00  0.00     0.009 A 
ATOM     13  C   UNL A   1      32.178  26.695  22.527  1.00  0.00     0.005 A 
ATOM     14  C   UNL A   1      30.860  26.005  24.400  1.00  0.00     0.005 A 
BRANCH  10  15
ATOM     15  C   UNL A   1      34.078  23.965  24.388  1.00  0.00     0.001 A 
ATOM     16  C   UNL A   1      36.268  23.381  25.316  1.00  0.00    -0.007 A 
ATOM     17  C   UNL A   1      35.961  22.050  25.056  1.00  0.00     0.119 A 
ATOM     18  C   UNL A   1      35.304  24.338  24.969  1.00  0.00     0.020 A 
ATOM     19  N   UNL A   1      34.801  21.630  24.505  1.00  0.00    -0.263 NA
ATOM     20  C   UNL A   1      33.903  22.593  24.185  1.00  0.00     0.119 A 
BRANCH  16  21
ATOM     21  C   UNL A   1      37.581  23.734  25.867  1.00  0.00     0.002 C 
ATOM     22  C   UNL A   1      38.551  22.850  26.132  1.00  0.00     0.009 C 
ENDBRANCH  16  21
ENDBRANCH  10  15
ENDBRANCH   7   9
ENDBRANCH   4   7
ENDBRANCH   2   3
ENDBRANCH   1   2
BRANCH   1  23
ATOM     23  C   UNL A   1      33.385  28.536  25.893  1.00  0.00     0.023 C 
BRANCH  23  24
ATOM     24  C   UNL A   1      33.424  28.815  27.392  1.00  0.00     0.116 C 
BRANCH  24  25
ATOM     25  N   UNL A   1      33.528  30.225  27.731  1.00  0.00    -0.352 N 
ATOM     26  C   UNL A   1      34.631  30.907  28.207  1.00  0.00     0.251 C 
ATOM     27  H   UNL A   1      32.712  30.760  27.606  1.00  0.00     0.163 HD
ATOM     28  O   UNL A   1      34.557  32.090  28.509  1.00  0.00    -0.269 OA
BRANCH  26  29
ATOM     29  C   UNL A   1      35.893  30.165  28.396  1.00  0.00     0.039 A 
ATOM     30  C   UNL A   1      36.819  30.136  27.350  1.00  0.00     0.014 A 
ATOM     31  C   UNL A   1      36.191  29.581  29.628  1.00  0.00     0.014 A 
ATOM     32  C   UNL A   1      38.091  29.605  27.574  1.00  0.00     0.010 A 
ATOM     33  C   UNL A   1      37.478  29.113  29.869  1.00  0.00     0.010 A 
ATOM     34  C   UNL A   1      38.445  29.140  28.851  1.00  0.00    -0.014 A 
BRANCH  34  35
ATOM     35  C   UNL A   1      39.829  28.708  29.164  1.00  0.00     0.031 A 
ATOM     36  C   UNL A   1      40.785  29.662  29.819  1.00  0.00     0.074 A 
ATOM     37  C   UNL A   1      40.253  27.493  28.764  1.00  0.00     0.049 A 
ATOM     38  N   UNL A   1      42.063  29.516  30.056  1.00  0.00    -0.248 NA
ATOM     39  C   UNL A   1      40.238  30.963  30.236  1.00  0.00     0.031 C 
ATOM     40  C   UNL A   1      39.435  26.489  28.078  1.00  0.00     0.029 A 
ATOM     41  N   UNL A   1      41.489  26.904  28.861  1.00  0.00    -0.354 N 
ATOM     42  C   UNL A   1      42.479  30.714  30.622  1.00  0.00     0.074 A 
ATOM     43  C   UNL A   1      41.326  31.588  30.660  1.00  0.00     0.031 C 
ATOM     44  C   UNL A   1      40.187  25.403  27.835  1.00  0.00     0.029 A 
ATOM     45  C   UNL A   1      41.546  25.649  28.307  1.00  0.00     0.049 A 
ATOM     46  H   UNL A   1      42.261  27.340  29.288  1.00  0.00     0.167 HD
ATOM     47  C   UNL A   1      43.706  31.051  31.081  1.00  0.00     0.031 A 
ATOM     48  C   UNL A   1      42.579  24.796  28.180  1.00  0.00     0.031 A 
ATOM     49  C   UNL A   1      44.846  30.175  31.067  1.00  0.00     0.049 A 
ATOM     50  C   UNL A   1      43.931  25.194  28.696  1.00  0.00     0.074 A 
ATOM     51  C   UNL A   1      46.112  30.401  31.579  1.00  0.00     0.029 A 
ATOM     52  N   UNL A   1      44.857  28.906  30.512  1.00  0.00    -0.354 N 
ATOM     53  N   UNL A   1      44.293  26.307  29.285  1.00  0.00    -0.248 NA
ATOM     54  C   UNL A   1      45.018  24.218  28.529  1.00  0.00     0.031 C 
ATOM     55  C   UNL A   1      46.901  29.280  31.299  1.00  0.00     0.029 A 
ATOM     56  C   UNL A   1      46.114  28.344  30.649  1.00  0.00     0.049 A 
ATOM     57  H   UNL A   1      44.084  28.469  30.085  1.00  0.00     0.167 HD
ATOM     58  C   UNL A   1      45.642  26.159  29.577  1.00  0.00     0.074 A 
ATOM     59  C   UNL A   1      46.032  24.844  29.111  1.00  0.00     0.031 C 
ATOM     60  C   UNL A   1      46.483  27.035  30.177  1.00  0.00     0.031 A 
BRANCH  47  61
ATOM     61  C   UNL A   1      43.875  32.436  31.637  1.00  0.00    -0.014 A 
ATOM     62  C   UNL A   1      43.605  32.714  32.985  1.00  0.00     0.009 A 
ATOM     63  C   UNL A   1      44.334  33.469  30.806  1.00  0.00     0.009 A 
ATOM     64  C   UNL A   1      43.757  34.009  33.484  1.00  0.00     0.001 A 
ATOM     65  C   UNL A   1      44.509  34.758  31.313  1.00  0.00     0.001 A 
ATOM     66  C   UNL A   1      44.211  35.029  32.647  1.00  0.00     0.000 A 
ENDBRANCH  47  61
BRANCH  48  67
ATOM     67  C   UNL A   1      42.375  23.470  27.542  1.00  0.00    -0.014 A 
ATOM     68  C   UNL A   1      41.890  22.390  28.294  1.00  0.00     0.009 A 
ATOM     69  C   UNL A   1      42.665  23.277  26.182  1.00  0.00     0.009 A 
ATOM     70  C   UNL A   1      41.718  21.137  27.703  1.00  0.00     0.001 A 
ATOM     71  C   UNL A   1      42.471  22.028  25.588  1.00  0.00     0.001 A 
ATOM     72  C   UNL A   1      42.006  20.957  26.350  1.00  0.00     0.000 A 
ENDBRANCH  48  67
BRANCH  60  73
ATOM     73  C   UNL A   1      47.902  26.592  30.383  1.00  0.00    -0.014 A 
ATOM     74  C   UNL A   1      48.895  26.890  29.438  1.00  0.00     0.009 A 
ATOM     75  C   UNL A   1      48.256  25.917  31.560  1.00  0.00     0.009 A 
ATOM     76  C   UNL A   1      50.217  26.499  29.661  1.00  0.00     0.001 A 
ATOM     77  C   UNL A   1      49.582  25.546  31.789  1.00  0.00     0.001 A 
ATOM     78  C   UNL A   1      50.559  25.832  30.837  1.00  0.00     0.000 A 
ENDBRANCH  60  73
ENDBRANCH  34  35
ENDBRANCH  26  29
ENDBRANCH  24  25
ENDBRANCH  23  24
ENDBRANCH   1  23
TORSDOF 14
ENDMDL
MODEL 2
REMARK VINA RESULT:     -10.3      3.721      7.428
REMARK SMILES C=Cc1cncc(-c2ccc([C@@H](C)C(=O)NCCCCNC(=O)c3ccc(-c4c5nc(c(-c6ccccc6)c6ccc([nH]6)c(-c6ccccc6)c6nc(c(-c7ccccc7)c7ccc4[nH]7)C=C6)C=C5)cc3)cc2)c1
REMARK SMILES IDX 18 1 17 2 16 3 14 4 15 5 12 7 13 8 11 9 8 10 9 11 73 12
REMARK SMILES IDX 10 13 72 14 7 15 3 16 4 17 74 18 5 19 6 20 2 21 1 22 19 23
REMARK SMILES IDX 20 24 21 25 22 26 23 28 24 29 25 30 71 31 26 32 70 33 27 34
REMARK SMILES IDX 28 35 29 36 64 37 30 38 69 39 63 40 65 41 31 42 68 43 62 44
REMARK SMILES IDX 61 45 32 47 54 48 39 49 53 50 40 51 43 52 52 53 66 54 41 55
REMARK SMILES IDX 42 56 51 58 67 59 44 60 33 61 34 62 38 63 35 64 37 65 36 66
REMARK SMILES IDX 55 67 56 68 60 69 57 70 59 71 58 72 45 73 46 74 50 75 47 76
REMARK SMILES IDX 49 77 48 78
REMARK H PARENT 16 6 21 27 65 46 43 57
REMARK Flexibility Score: inf
ROOT
ATOM      1  C   UNL A   1      35.851  32.214  32.722  1.00  0.00     0.023 C 
ENDROOT
BRANCH   1   2
ATOM      2  C   UNL A   1      37.257  31.897  32.216  1.00  0.00     0.116 C 
BRANCH   2   3
ATOM      3  N   UNL A   1      38.261  32.754  32.810  1.00  0.00    -0.356 N 
ATOM      4  C   UNL A   1      39.035  32.592  33.919  1.00  0.00     0.227 C 
ATOM      5  O   UNL A   1      39.762  33.546  34.225  1.00  0.00    -0.274 OA
ATOM      6  H   UNL A   1      38.409  33.601  32.330  1.00  0.00     0.163 HD
BRANCH   4   7
ATOM      7  C   UNL A   1      39.050  31.312  34.770  1.00  0.00     0.105 C 
ATOM      8  C   UNL A   1      38.702  31.544  36.242  1.00  0.00     0.023 C 
BRANCH   7   9
ATOM      9  C   UNL A   1      40.248  30.419  34.488  1.00  0.00    -0.036 A 
ATOM     10  C   UNL A   1      42.498  28.677  34.181  1.00  0.00    -0.017 A 
ATOM     11  C   UNL A   1      41.304  28.477  33.467  1.00  0.00     0.009 A 
ATOM     12  C   UNL A   1      42.550  29.801  35.019  1.00  0.00     0.009 A 
ATOM     13  C   UNL A   1      40.212  29.347  33.594  1.00  0.00     0.005 A 
ATOM     14  C   UNL A   1      41.443  30.643  35.186  1.00  0.00     0.005 A 
BRANCH  10  15
ATOM     15  C   UNL A   1      43.637  27.738  34.060  1.00  0.00     0.001 A 
ATOM     16  C   UNL A   1      44.620  25.633  33.288  1.00  0.00    -0.007 A 
ATOM     17  C   UNL A   1      45.818  26.048  33.859  1.00  0.00     0.119 A 
ATOM     18  C   UNL A   1      43.525  26.500  33.402  1.00  0.00     0.020 A 
ATOM     19  N   UNL A   1      45.989  27.225  34.500  1.00  0.00    -0.263 NA
ATOM     20  C   UNL A   1      44.900  28.027  34.586  1.00  0.00     0.119 A 
BRANCH  16  21
ATOM     21  C   UNL A   1      44.529  24.308  32.663  1.00  0.00     0.002 C 
ATOM     22  C   UNL A   1      44.003  23.228  33.255  1.00  0.00     0.009 C 
ENDBRANCH  16  21
ENDBRANCH  10  15
ENDBRANCH   7   9
ENDBRANCH   4   7
ENDBRANCH   2   3
ENDBRANCH   1   2
BRANCH   1  23
ATOM     23  C   UNL A   1      34.833  32.549  31.634  1.00  0.00     0.023 C 
BRANCH  23  24
ATOM     24  C   UNL A   1      35.387  32.606  30.214  1.00  0.00     0.116 C 
BRANCH  24  25
ATOM     25  N   UNL A   1      34.489  32.068  29.204  1.00  0.00    -0.352 N 
ATOM     26  C   UNL A   1      34.683  30.969  28.390  1.00  0.00     0.251 C 
ATOM     27  H   UNL A   1      33.637  32.547  29.086  1.00  0.00     0.163 HD
ATOM     28  O   UNL A   1      33.861  30.665  27.537  1.00  0.00    -0.269 OA
BRANCH  26  29
ATOM     29  C   UNL A   1      35.932  30.195  28.534  1.00  0.00     0.039 A 
ATOM     30  C   UNL A   1      36.888  30.265  27.518  1.00  0.00     0.014 A 
ATOM     31  C   UNL A   1      36.190  29.482  29.706  1.00  0.00     0.014 A 
ATOM     32  C   UNL A   1      38.147  29.698  27.720  1.00  0.00     0.010 A 
ATOM     33  C   UNL A   1      37.465  28.975  29.932  1.00  0.00     0.010 A 
ATOM     34  C   UNL A   1      38.460  29.097  28.950  1.00  0.00    -0.014 A 
BRANCH  34  35
ATOM     35  C   UNL A   1      39.830  28.617  29.254  1.00  0.00     0.031 A 
ATOM     36  C   UNL A   1      40.817  29.531  29.922  1.00  0.00     0.074 A 
ATOM     37  C   UNL A   1      40.216  27.397  28.834  1.00  0.00     0.049 A 
ATOM     38  N   UNL A   1      42.090  29.342  30.154  1.00  0.00    -0.248 NA
ATOM     39  C   UNL A   1      40.311  30.842  30.360  1.00  0.00     0.031 C 
ATOM     40  C   UNL A   1      39.367  26.429  28.135  1.00  0.00     0.029 A 
ATOM     41  N   UNL A   1      41.433  26.767  28.920  1.00  0.00    -0.354 N 
ATOM     42  C   UNL A   1      42.544  30.517  30.738  1.00  0.00     0.074 A 
ATOM     43  C   UNL A   1      41.419  31.426  30.791  1.00  0.00     0.031 C 
ATOM     44  C   UNL A   1      40.084  25.324  27.873  1.00  0.00     0.029 A 
ATOM     45  C   UNL A   1      41.451  25.520  28.347  1.00  0.00     0.049 A 
ATOM     46  H   UNL A   1      42.220  27.173  29.352  1.00  0.00     0.167 HD
ATOM     47  C   UNL A   1      43.781  30.809  31.200  1.00  0.00     0.031 A 
ATOM     48  C   UNL A   1      42.456  24.637  28.205  1.00  0.00     0.031 A 
ATOM     49  C   UNL A   1      44.893  29.899  31.171  1.00  0.00     0.049 A 
ATOM     50  C   UNL A   1      43.821  24.985  28.725  1.00  0.00     0.074 A 
ATOM     51  C   UNL A   1      46.167  30.077  31.684  1.00  0.00     0.029 A 
ATOM     52  N   UNL A   1      44.864  28.638  30.596  1.00  0.00    -0.354 N 
ATOM     53  N   UNL A   1      44.218  26.077  29.331  1.00  0.00    -0.248 NA
ATOM     54  C   UNL A   1      44.877  23.979  28.541  1.00  0.00     0.031 C 
ATOM     55  C   UNL A   1      46.920  28.936  31.385  1.00  0.00     0.029 A 
ATOM     56  C   UNL A   1      46.103  28.035  30.722  1.00  0.00     0.049 A 
ATOM     57  H   UNL A   1      44.078  28.232  30.164  1.00  0.00     0.167 HD
ATOM     58  C   UNL A   1      45.562  25.883  29.617  1.00  0.00     0.074 A 
ATOM     59  C   UNL A   1      45.911  24.564  29.130  1.00  0.00     0.031 C 
ATOM     60  C   UNL A   1      46.431  26.723  30.229  1.00  0.00     0.031 A 
BRANCH  47  61
ATOM     61  C   UNL A   1      43.994  32.179  31.777  1.00  0.00    -0.014 A 
ATOM     62  C   UNL A   1      43.807  32.427  33.145  1.00  0.00     0.009 A 
ATOM     63  C   UNL A   1      44.411  33.229  30.945  1.00  0.00     0.009 A 
ATOM     64  C   UNL A   1      43.998  33.709  33.664  1.00  0.00     0.001 A 
ATOM     65  C   UNL A   1      44.626  34.504  31.470  1.00  0.00     0.001 A 
ATOM     66  C   UNL A   1      44.410  34.745  32.826  1.00  0.00     0.000 A 
ENDBRANCH  47  61
BRANCH  48  67
ATOM     67  C   UNL A   1      42.210  23.329  27.547  1.00  0.00    -0.014 A 
ATOM     68  C   UNL A   1      41.645  22.268  28.270  1.00  0.00     0.009 A 
ATOM     69  C   UNL A   1      42.540  23.133  26.197  1.00  0.00     0.009 A 
ATOM     70  C   UNL A   1      41.434  21.030  27.661  1.00  0.00     0.001 A 
ATOM     71  C   UNL A   1      42.306  21.900  25.583  1.00  0.00     0.001 A 
ATOM     72  C   UNL A   1      41.761  20.847  26.318  1.00  0.00     0.000 A 
ENDBRANCH  48  67
BRANCH  60  73
ATOM     73  C   UNL A   1      47.835  26.233  30.426  1.00  0.00    -0.014 A 
ATOM     74  C   UNL A   1      48.801  26.387  29.420  1.00  0.00     0.009 A 
ATOM     75  C   UNL A   1      48.208  25.660  31.651  1.00  0.00     0.009 A 
ATOM     76  C   UNL A   1      50.112  25.955  29.632  1.00  0.00     0.001 A 
ATOM     77  C   UNL A   1      49.524  25.249  31.867  1.00  0.00     0.001 A 
ATOM     78  C   UNL A   1      50.472  25.392  30.856  1.00  0.00     0.000 A 
ENDBRANCH  60  73
ENDBRANCH  34  35
ENDBRANCH  26  29
ENDBRANCH  24  25
ENDBRANCH  23  24
ENDBRANCH   1  23
TORSDOF 14
ENDMDL
MODEL 3
REMARK VINA RESULT:     -10.2      0.772      6.011
REMARK SMILES C=Cc1cncc(-c2ccc([C@@H](C)C(=O)NCCCCNC(=O)c3ccc(-c4c5nc(c(-c6ccccc6)c6ccc([nH]6)c(-c6ccccc6)c6nc(c(-c7ccccc7)c7ccc4[nH]7)C=C6)C=C5)cc3)cc2)c1
REMARK SMILES IDX 18 1 17 2 16 3 14 4 15 5 12 7 13 8 11 9 8 10 9 11 73 12
REMARK SMILES IDX 10 13 72 14 7 15 3 16 4 17 74 18 5 19 6 20 2 21 1 22 19 23
REMARK SMILES IDX 20 24 21 25 22 26 23 28 24 29 25 30 71 31 26 32 70 33 27 34
REMARK SMILES IDX 28 35 29 36 64 37 30 38 69 39 63 40 65 41 31 42 68 43 62 44
REMARK SMILES IDX 61 45 32 47 54 48 39 49 53 50 40 51 43 52 52 53 66 54 41 55
REMARK SMILES IDX 42 56 51 58 67 59 44 60 33 61 34 62 38 63 35 64 37 65 36 66
REMARK SMILES IDX 55 67 56 68 60 69 57 70 59 71 58 72 45 73 46 74 50 75 47 76
REMARK SMILES IDX 49 77 48 78
REMARK H PARENT 16 6 21 27 65 46 43 57
REMARK Flexibility Score: inf
ROOT
ATOM      1  C   UNL A   1      32.355  29.750  25.327  1.00  0.00     0.023 C 
ENDROOT
BRANCH   1   2
ATOM      2  C   UNL A   1      30.881  29.888  24.949  1.00  0.00     0.116 C 
BRANCH   2   3
ATOM      3  N   UNL A   1      30.693  30.051  23.523  1.00  0.00    -0.356 N 
ATOM      4  C   UNL A   1      30.175  29.211  22.584  1.00  0.00     0.227 C 
ATOM      5  O   UNL A   1      30.215  29.606  21.412  1.00  0.00    -0.274 OA
ATOM      6  H   UNL A   1      30.993  30.920  23.170  1.00  0.00     0.163 HD
BRANCH   4   7
ATOM      7  C   UNL A   1      29.555  27.843  22.912  1.00  0.00     0.105 C 
ATOM      8  C   UNL A   1      28.136  27.926  23.475  1.00  0.00     0.023 C 
BRANCH   7   9
ATOM      9  C   UNL A   1      30.516  26.907  23.629  1.00  0.00    -0.036 A 
ATOM     10  C   UNL A   1      32.167  24.977  24.950  1.00  0.00    -0.017 A 
ATOM     11  C   UNL A   1      32.580  25.623  23.772  1.00  0.00     0.009 A 
ATOM     12  C   UNL A   1      30.923  25.358  25.473  1.00  0.00     0.009 A 
ATOM     13  C   UNL A   1      31.785  26.590  23.141  1.00  0.00     0.005 A 
ATOM     14  C   UNL A   1      30.105  26.288  24.817  1.00  0.00     0.005 A 
BRANCH  10  15
ATOM     15  C   UNL A   1      33.001  23.938  25.595  1.00  0.00     0.001 A 
ATOM     16  C   UNL A   1      35.176  23.003  26.220  1.00  0.00    -0.007 A 
ATOM     17  C   UNL A   1      34.489  21.966  26.841  1.00  0.00     0.119 A 
ATOM     18  C   UNL A   1      34.407  23.991  25.591  1.00  0.00     0.020 A 
ATOM     19  N   UNL A   1      33.143  21.862  26.882  1.00  0.00    -0.263 NA
ATOM     20  C   UNL A   1      32.443  22.840  26.257  1.00  0.00     0.119 A 
BRANCH  16  21
ATOM     21  C   UNL A   1      36.643  22.991  26.187  1.00  0.00     0.002 C 
ATOM     22  C   UNL A   1      37.389  23.829  25.456  1.00  0.00     0.009 C 
ENDBRANCH  16  21
ENDBRANCH  10  15
ENDBRANCH   7   9
ENDBRANCH   4   7
ENDBRANCH   2   3
ENDBRANCH   1   2
BRANCH   1  23
ATOM     23  C   UNL A   1      32.698  28.509  26.148  1.00  0.00     0.023 C 
BRANCH  23  24
ATOM     24  C   UNL A   1      33.459  28.770  27.444  1.00  0.00     0.116 C 
BRANCH  24  25
ATOM     25  N   UNL A   1      33.509  30.170  27.832  1.00  0.00    -0.352 N 
ATOM     26  C   UNL A   1      34.594  30.885  28.301  1.00  0.00     0.251 C 
ATOM     27  H   UNL A   1      32.666  30.671  27.750  1.00  0.00     0.163 HD
ATOM     28  O   UNL A   1      34.475  32.052  28.648  1.00  0.00    -0.269 OA
BRANCH  26  29
ATOM     29  C   UNL A   1      35.893  30.196  28.426  1.00  0.00     0.039 A 
ATOM     30  C   UNL A   1      36.774  30.218  27.342  1.00  0.00     0.014 A 
ATOM     31  C   UNL A   1      36.270  29.613  29.638  1.00  0.00     0.014 A 
ATOM     32  C   UNL A   1      38.075  29.740  27.505  1.00  0.00     0.010 A 
ATOM     33  C   UNL A   1      37.585  29.199  29.818  1.00  0.00     0.010 A 
ATOM     34  C   UNL A   1      38.504  29.278  28.760  1.00  0.00    -0.014 A 
BRANCH  34  35
ATOM     35  C   UNL A   1      39.917  28.903  29.008  1.00  0.00     0.031 A 
ATOM     36  C   UNL A   1      40.416  27.544  28.609  1.00  0.00     0.074 A 
ATOM     37  C   UNL A   1      40.721  29.746  29.685  1.00  0.00     0.049 A 
ATOM     38  N   UNL A   1      41.574  26.986  28.854  1.00  0.00    -0.248 NA
ATOM     39  C   UNL A   1      39.479  26.690  27.862  1.00  0.00     0.031 C 
ATOM     40  C   UNL A   1      40.344  31.078  30.168  1.00  0.00     0.029 A 
ATOM     41  N   UNL A   1      42.020  29.598  30.103  1.00  0.00    -0.354 N 
ATOM     42  C   UNL A   1      41.495  25.708  28.318  1.00  0.00     0.074 A 
ATOM     43  C   UNL A   1      40.165  25.561  27.766  1.00  0.00     0.031 C 
ATOM     44  C   UNL A   1      41.394  31.630  30.797  1.00  0.00     0.029 A 
ATOM     45  C   UNL A   1      42.501  30.679  30.801  1.00  0.00     0.049 A 
ATOM     46  H   UNL A   1      42.556  28.793  29.919  1.00  0.00     0.167 HD
ATOM     47  C   UNL A   1      42.448  24.749  28.275  1.00  0.00     0.031 A 
ATOM     48  C   UNL A   1      43.694  30.878  31.390  1.00  0.00     0.031 A 
ATOM     49  C   UNL A   1      43.777  24.903  28.799  1.00  0.00     0.049 A 
ATOM     50  C   UNL A   1      44.735  29.797  31.330  1.00  0.00     0.074 A 
ATOM     51  C   UNL A   1      44.837  24.014  28.736  1.00  0.00     0.029 A 
ATOM     52  N   UNL A   1      44.230  26.019  29.483  1.00  0.00    -0.354 N 
ATOM     53  N   UNL A   1      44.665  28.617  30.764  1.00  0.00    -0.248 NA
ATOM     54  C   UNL A   1      46.018  30.075  31.991  1.00  0.00     0.031 C 
ATOM     55  C   UNL A   1      45.921  24.579  29.417  1.00  0.00     0.029 A 
ATOM     56  C   UNL A   1      45.546  25.834  29.868  1.00  0.00     0.049 A 
ATOM     57  H   UNL A   1      43.694  26.825  29.668  1.00  0.00     0.167 HD
ATOM     58  C   UNL A   1      45.899  28.019  30.983  1.00  0.00     0.074 A 
ATOM     59  C   UNL A   1      46.703  28.971  31.723  1.00  0.00     0.031 C 
ATOM     60  C   UNL A   1      46.328  26.791  30.605  1.00  0.00     0.031 A 
BRANCH  47  61
ATOM     61  C   UNL A   1      42.078  23.440  27.638  1.00  0.00    -0.014 A 
ATOM     62  C   UNL A   1      41.416  22.441  28.367  1.00  0.00     0.009 A 
ATOM     63  C   UNL A   1      42.372  23.216  26.285  1.00  0.00     0.009 A 
ATOM     64  C   UNL A   1      41.089  21.225  27.763  1.00  0.00     0.001 A 
ATOM     65  C   UNL A   1      42.022  22.009  25.676  1.00  0.00     0.001 A 
ATOM     66  C   UNL A   1      41.390  21.012  26.417  1.00  0.00     0.000 A 
ENDBRANCH  47  61
BRANCH  48  67
ATOM     67  C   UNL A   1      43.977  32.160  32.083  1.00  0.00    -0.014 A 
ATOM     68  C   UNL A   1      44.544  33.233  31.382  1.00  0.00     0.009 A 
ATOM     69  C   UNL A   1      43.685  32.316  33.447  1.00  0.00     0.009 A 
ATOM     70  C   UNL A   1      44.832  34.433  32.036  1.00  0.00     0.001 A 
ATOM     71  C   UNL A   1      43.953  33.525  34.094  1.00  0.00     0.001 A 
ATOM     72  C   UNL A   1      44.534  34.579  33.390  1.00  0.00     0.000 A 
ENDBRANCH  48  67
BRANCH  60  73
ATOM     73  C   UNL A   1      47.735  26.415  30.966  1.00  0.00    -0.014 A 
ATOM     74  C   UNL A   1      48.019  25.756  32.172  1.00  0.00     0.009 A 
ATOM     75  C   UNL A   1      48.778  26.676  30.066  1.00  0.00     0.009 A 
ATOM     76  C   UNL A   1      49.330  25.384  32.477  1.00  0.00     0.001 A 
ATOM     77  C   UNL A   1      50.084  26.284  30.365  1.00  0.00     0.001 A 
ATOM     78  C   UNL A   1      50.358  25.644  31.572  1.00  0.00     0.000 A 
ENDBRANCH  60  73
ENDBRANCH  34  35
ENDBRANCH  26  29
ENDBRANCH  24  25
ENDBRANCH  23  24
ENDBRANCH   1  23
TORSDOF 14
ENDMDL
