MODEL 1
REMARK VINA RESULT:     -12.4      0.000      0.000
REMARK SMILES Cc1nc2cc(S(=O)(=O)N3CCC(C(=O)NCCCCNC(=O)c4ccc(-c5c6nc(c(-c7ccccc7)c7ccc([nH]7)c(-c7ccccc7)c7nc(c(-c8ccccc8)c8ccc5[nH]8)C=C7)C=C6)cc4)CC3)ccc2n1C1CCCC1
REMARK SMILES IDX 18 1 17 2 16 3 14 4 15 5 13 7 10 8 11 9 73 10 12 11 72 12
REMARK SMILES IDX 7 13 8 14 9 15 6 16 1 17 2 18 3 19 77 20 4 21 76 22 5 23
REMARK SMILES IDX 75 24 74 25 78 26 79 27 82 28 80 29 81 30 19 31 20 32 21 33
REMARK SMILES IDX 22 34 23 36 24 37 25 38 71 39 26 40 70 41 27 42 28 43 29 44
REMARK SMILES IDX 64 45 30 46 69 47 63 48 65 49 31 50 68 51 62 52 61 53 32 55
REMARK SMILES IDX 54 56 39 57 53 58 40 59 43 60 52 61 66 62 41 63 42 64 51 66
REMARK SMILES IDX 67 67 44 68 33 69 34 70 38 71 35 72 37 73 36 74 55 75 56 76
REMARK SMILES IDX 60 77 57 78 59 79 58 80 45 81 46 82 50 83 47 84 49 85 48 86
REMARK H PARENT 16 6 21 35 65 54 43 65
REMARK Flexibility Score: inf
ROOT
ATOM      1  C   UNL A   1      36.072  31.000  27.851  1.00  0.00     0.023 C 
ENDROOT
BRANCH   1   2
ATOM      2  C   UNL A   1      35.439  29.625  27.734  1.00  0.00     0.116 C 
BRANCH   2   3
ATOM      3  N   UNL A   1      33.996  29.674  27.921  1.00  0.00    -0.356 N 
ATOM      4  C   UNL A   1      33.003  29.000  27.276  1.00  0.00     0.223 C 
ATOM      5  O   UNL A   1      31.837  29.195  27.622  1.00  0.00    -0.275 OA
ATOM      6  H   UNL A   1      33.690  30.291  28.624  1.00  0.00     0.163 HD
BRANCH   4   7
ATOM      7  C   UNL A   1      33.329  28.023  26.159  1.00  0.00     0.081 C 
ATOM      8  N   UNL A   1      32.590  26.662  23.700  1.00  0.00    -0.198 NA
ATOM      9  C   UNL A   1      32.370  25.953  24.982  1.00  0.00     0.103 C 
ATOM     10  C   UNL A   1      33.464  27.854  23.625  1.00  0.00     0.103 C 
ATOM     11  C   UNL A   1      32.391  26.825  26.216  1.00  0.00     0.030 C 
ATOM     12  C   UNL A   1      33.384  28.761  24.828  1.00  0.00     0.030 C 
BRANCH   8  13
ATOM     13  S   UNL A   1      32.760  25.603  22.343  1.00  0.00     0.243 S 
ATOM     14  O   UNL A   1      33.843  26.105  21.537  1.00  0.00    -0.207 OA
ATOM     15  O   UNL A   1      31.432  25.384  21.797  1.00  0.00    -0.207 OA
BRANCH  13  16
ATOM     16  C   UNL A   1      33.298  24.037  23.016  1.00  0.00     0.085 A 
ATOM     17  C   UNL A   1      37.400  20.215  25.084  1.00  0.00     0.088 C 
ATOM     18  C   UNL A   1      36.261  21.047  24.620  1.00  0.00     0.106 A 
ATOM     19  N   UNL A   1      36.374  22.273  24.148  1.00  0.00    -0.233 NA
ATOM     20  N   UNL A   1      34.944  20.640  24.633  1.00  0.00    -0.325 N 
ATOM     21  C   UNL A   1      35.109  22.672  23.818  1.00  0.00     0.090 A 
ATOM     22  C   UNL A   1      34.192  21.663  24.096  1.00  0.00     0.068 A 
ATOM     23  C   UNL A   1      34.668  23.887  23.270  1.00  0.00     0.052 A 
ATOM     24  C   UNL A   1      32.830  21.794  23.836  1.00  0.00     0.030 A 
ATOM     25  C   UNL A   1      32.403  23.001  23.298  1.00  0.00     0.024 A 
BRANCH  20  26
ATOM     26  C   UNL A   1      34.426  19.369  25.106  1.00  0.00     0.089 C 
ATOM     27  C   UNL A   1      33.038  19.443  25.750  1.00  0.00     0.025 C 
ATOM     28  C   UNL A   1      34.294  18.304  24.011  1.00  0.00     0.025 C 
ATOM     29  C   UNL A   1      32.516  18.016  25.682  1.00  0.00     0.002 C 
ATOM     30  C   UNL A   1      33.158  17.384  24.452  1.00  0.00     0.002 C 
ENDBRANCH  20  26
ENDBRANCH  13  16
ENDBRANCH   8  13
ENDBRANCH   4   7
ENDBRANCH   2   3
ENDBRANCH   1   2
BRANCH   1  31
ATOM     31  C   UNL A   1      35.062  32.142  27.899  1.00  0.00     0.023 C 
BRANCH  31  32
ATOM     32  C   UNL A   1      35.405  33.255  28.896  1.00  0.00     0.116 C 
BRANCH  32  33
ATOM     33  N   UNL A   1      34.945  33.011  30.250  1.00  0.00    -0.352 N 
ATOM     34  C   UNL A   1      35.449  32.328  31.322  1.00  0.00     0.251 C 
ATOM     35  H   UNL A   1      34.076  33.433  30.440  1.00  0.00     0.163 HD
ATOM     36  O   UNL A   1      34.830  32.434  32.384  1.00  0.00    -0.269 OA
BRANCH  34  37
ATOM     37  C   UNL A   1      36.640  31.436  31.275  1.00  0.00     0.039 A 
ATOM     38  C   UNL A   1      37.957  31.868  31.143  1.00  0.00     0.014 A 
ATOM     39  C   UNL A   1      36.396  30.051  31.321  1.00  0.00     0.014 A 
ATOM     40  C   UNL A   1      38.984  30.961  30.929  1.00  0.00     0.010 A 
ATOM     41  C   UNL A   1      37.433  29.131  31.163  1.00  0.00     0.010 A 
ATOM     42  C   UNL A   1      38.722  29.592  30.917  1.00  0.00    -0.014 A 
BRANCH  42  43
ATOM     43  C   UNL A   1      39.871  28.718  30.705  1.00  0.00     0.031 A 
ATOM     44  C   UNL A   1      40.743  28.470  31.892  1.00  0.00     0.074 A 
ATOM     45  C   UNL A   1      40.151  28.104  29.541  1.00  0.00     0.049 A 
ATOM     46  N   UNL A   1      42.010  28.703  32.018  1.00  0.00    -0.248 NA
ATOM     47  C   UNL A   1      40.103  27.949  33.108  1.00  0.00     0.031 C 
ATOM     48  C   UNL A   1      39.309  27.980  28.351  1.00  0.00     0.029 A 
ATOM     49  N   UNL A   1      41.249  27.356  29.233  1.00  0.00    -0.354 N 
ATOM     50  C   UNL A   1      42.367  28.254  33.288  1.00  0.00     0.074 A 
ATOM     51  C   UNL A   1      41.141  27.866  33.942  1.00  0.00     0.031 C 
ATOM     52  C   UNL A   1      39.816  27.011  27.557  1.00  0.00     0.029 A 
ATOM     53  C   UNL A   1      41.081  26.560  28.115  1.00  0.00     0.049 A 
ATOM     54  H   UNL A   1      42.081  27.380  29.758  1.00  0.00     0.167 HD
ATOM     55  C   UNL A   1      43.661  28.113  33.687  1.00  0.00     0.031 A 
ATOM     56  C   UNL A   1      41.889  25.549  27.722  1.00  0.00     0.031 A 
ATOM     57  C   UNL A   1      44.576  28.837  32.849  1.00  0.00     0.049 A 
ATOM     58  C   UNL A   1      43.213  25.735  28.353  1.00  0.00     0.074 A 
ATOM     59  C   UNL A   1      44.777  30.170  32.554  1.00  0.00     0.029 A 
ATOM     60  N   UNL A   1      45.299  28.134  31.918  1.00  0.00    -0.354 N 
ATOM     61  N   UNL A   1      44.047  26.680  28.027  1.00  0.00    -0.248 NA
ATOM     62  C   UNL A   1      43.490  25.070  29.617  1.00  0.00     0.031 C 
ATOM     63  C   UNL A   1      45.211  30.189  31.199  1.00  0.00     0.029 A 
ATOM     64  C   UNL A   1      45.268  28.865  30.758  1.00  0.00     0.049 A 
ATOM     65  H   UNL A   1      45.753  27.272  32.057  1.00  0.00     0.167 HD
ATOM     66  C   UNL A   1      44.683  27.017  29.212  1.00  0.00     0.074 A 
ATOM     67  C   UNL A   1      44.406  25.905  30.116  1.00  0.00     0.031 C 
ATOM     68  C   UNL A   1      45.129  28.288  29.438  1.00  0.00     0.031 A 
BRANCH  55  69
ATOM     69  C   UNL A   1      44.136  27.103  34.700  1.00  0.00    -0.014 A 
ATOM     70  C   UNL A   1      44.263  27.394  36.070  1.00  0.00     0.009 A 
ATOM     71  C   UNL A   1      44.223  25.747  34.330  1.00  0.00     0.009 A 
ATOM     72  C   UNL A   1      44.468  26.391  37.024  1.00  0.00     0.001 A 
ATOM     73  C   UNL A   1      44.385  24.737  35.287  1.00  0.00     0.001 A 
ATOM     74  C   UNL A   1      44.505  25.060  36.634  1.00  0.00     0.000 A 
ENDBRANCH  55  69
BRANCH  56  75
ATOM     75  C   UNL A   1      41.506  24.292  27.050  1.00  0.00    -0.014 A 
ATOM     76  C   UNL A   1      40.375  23.574  27.482  1.00  0.00     0.009 A 
ATOM     77  C   UNL A   1      42.389  23.657  26.166  1.00  0.00     0.009 A 
ATOM     78  C   UNL A   1      40.151  22.258  27.071  1.00  0.00     0.001 A 
ATOM     79  C   UNL A   1      42.169  22.335  25.761  1.00  0.00     0.001 A 
ATOM     80  C   UNL A   1      41.059  21.633  26.223  1.00  0.00     0.000 A 
ENDBRANCH  56  75
BRANCH  68  81
ATOM     81  C   UNL A   1      45.152  29.259  28.279  1.00  0.00    -0.014 A 
ATOM     82  C   UNL A   1      46.377  29.538  27.653  1.00  0.00     0.009 A 
ATOM     83  C   UNL A   1      44.032  30.026  27.912  1.00  0.00     0.009 A 
ATOM     84  C   UNL A   1      46.477  30.549  26.692  1.00  0.00     0.001 A 
ATOM     85  C   UNL A   1      44.126  31.015  26.930  1.00  0.00     0.001 A 
ATOM     86  C   UNL A   1      45.351  31.283  26.326  1.00  0.00     0.000 A 
ENDBRANCH  68  81
ENDBRANCH  42  43
ENDBRANCH  34  37
ENDBRANCH  32  33
ENDBRANCH  31  32
ENDBRANCH   1  31
TORSDOF 14
ENDMDL
MODEL 2
REMARK VINA RESULT:     -12.1      2.207      3.994
REMARK SMILES Cc1nc2cc(S(=O)(=O)N3CCC(C(=O)NCCCCNC(=O)c4ccc(-c5c6nc(c(-c7ccccc7)c7ccc([nH]7)c(-c7ccccc7)c7nc(c(-c8ccccc8)c8ccc5[nH]8)C=C7)C=C6)cc4)CC3)ccc2n1C1CCCC1
REMARK SMILES IDX 18 1 17 2 16 3 14 4 15 5 13 7 10 8 11 9 73 10 12 11 72 12
REMARK SMILES IDX 7 13 8 14 9 15 6 16 1 17 2 18 3 19 77 20 4 21 76 22 5 23
REMARK SMILES IDX 75 24 74 25 78 26 79 27 82 28 80 29 81 30 19 31 20 32 21 33
REMARK SMILES IDX 22 34 23 36 24 37 25 38 71 39 26 40 70 41 27 42 28 43 29 44
REMARK SMILES IDX 64 45 30 46 69 47 63 48 65 49 31 50 68 51 62 52 61 53 32 55
REMARK SMILES IDX 54 56 39 57 53 58 40 59 43 60 52 61 66 62 41 63 42 64 51 66
REMARK SMILES IDX 67 67 44 68 33 69 34 70 38 71 35 72 37 73 36 74 55 75 56 76
REMARK SMILES IDX 60 77 57 78 59 79 58 80 45 81 46 82 50 83 47 84 49 85 48 86
REMARK H PARENT 16 6 21 35 65 54 43 65
REMARK Flexibility Score: inf
ROOT
ATOM      1  C   UNL A   1      32.886  29.488  25.036  1.00  0.00     0.023 C 
ENDROOT
BRANCH   1   2
ATOM      2  C   UNL A   1      32.930  28.978  23.606  1.00  0.00     0.116 C 
BRANCH   2   3
ATOM      3  N   UNL A   1      31.656  29.161  22.925  1.00  0.00    -0.356 N 
ATOM      4  C   UNL A   1      30.766  28.238  22.462  1.00  0.00     0.223 C 
ATOM      5  O   UNL A   1      29.732  28.635  21.925  1.00  0.00    -0.275 OA
ATOM      6  H   UNL A   1      31.397  30.098  22.775  1.00  0.00     0.163 HD
BRANCH   4   7
ATOM      7  C   UNL A   1      31.044  26.752  22.614  1.00  0.00     0.081 C 
ATOM      8  N   UNL A   1      32.548  24.576  23.818  1.00  0.00    -0.198 NA
ATOM      9  C   UNL A   1      32.974  25.065  22.486  1.00  0.00     0.103 C 
ATOM     10  C   UNL A   1      31.218  24.920  24.369  1.00  0.00     0.103 C 
ATOM     11  C   UNL A   1      32.434  26.419  22.089  1.00  0.00     0.030 C 
ATOM     12  C   UNL A   1      30.753  26.317  24.044  1.00  0.00     0.030 C 
BRANCH   8  13
ATOM     13  S   UNL A   1      33.021  22.945  24.142  1.00  0.00     0.243 S 
ATOM     14  O   UNL A   1      33.087  22.255  22.879  1.00  0.00    -0.207 OA
ATOM     15  O   UNL A   1      32.198  22.466  25.238  1.00  0.00    -0.207 OA
BRANCH  13  16
ATOM     16  C   UNL A   1      34.694  23.041  24.766  1.00  0.00     0.085 A 
ATOM     17  C   UNL A   1      40.080  20.787  26.038  1.00  0.00     0.088 C 
ATOM     18  C   UNL A   1      38.808  21.502  25.766  1.00  0.00     0.106 A 
ATOM     19  N   UNL A   1      37.732  20.944  25.249  1.00  0.00    -0.233 NA
ATOM     20  N   UNL A   1      38.600  22.843  26.016  1.00  0.00    -0.325 N 
ATOM     21  C   UNL A   1      36.786  21.930  25.182  1.00  0.00     0.090 A 
ATOM     22  C   UNL A   1      37.297  23.128  25.670  1.00  0.00     0.068 A 
ATOM     23  C   UNL A   1      35.463  21.870  24.715  1.00  0.00     0.052 A 
ATOM     24  C   UNL A   1      36.539  24.294  25.738  1.00  0.00     0.030 A 
ATOM     25  C   UNL A   1      35.233  24.227  25.271  1.00  0.00     0.024 A 
BRANCH  20  26
ATOM     26  C   UNL A   1      39.559  23.790  26.556  1.00  0.00     0.089 C 
ATOM     27  C   UNL A   1      38.938  24.973  27.306  1.00  0.00     0.025 C 
ATOM     28  C   UNL A   1      40.550  23.173  27.550  1.00  0.00     0.025 C 
ATOM     29  C   UNL A   1      40.066  25.498  28.179  1.00  0.00     0.002 C 
ATOM     30  C   UNL A   1      40.954  24.300  28.498  1.00  0.00     0.002 C 
ENDBRANCH  20  26
ENDBRANCH  13  16
ENDBRANCH   8  13
ENDBRANCH   4   7
ENDBRANCH   2   3
ENDBRANCH   1   2
BRANCH   1  31
ATOM     31  C   UNL A   1      32.796  28.381  26.082  1.00  0.00     0.023 C 
BRANCH  31  32
ATOM     32  C   UNL A   1      32.993  28.853  27.527  1.00  0.00     0.116 C 
BRANCH  32  33
ATOM     33  N   UNL A   1      33.175  30.285  27.671  1.00  0.00    -0.352 N 
ATOM     34  C   UNL A   1      34.266  31.107  27.752  1.00  0.00     0.251 C 
ATOM     35  H   UNL A   1      32.323  30.776  27.722  1.00  0.00     0.163 HD
ATOM     36  O   UNL A   1      34.044  32.320  27.750  1.00  0.00    -0.269 OA
BRANCH  34  37
ATOM     37  C   UNL A   1      35.671  30.637  27.899  1.00  0.00     0.039 A 
ATOM     38  C   UNL A   1      36.143  29.390  27.498  1.00  0.00     0.014 A 
ATOM     39  C   UNL A   1      36.569  31.514  28.536  1.00  0.00     0.014 A 
ATOM     40  C   UNL A   1      37.421  28.972  27.835  1.00  0.00     0.010 A 
ATOM     41  C   UNL A   1      37.875  31.121  28.828  1.00  0.00     0.010 A 
ATOM     42  C   UNL A   1      38.283  29.827  28.519  1.00  0.00    -0.014 A 
BRANCH  42  43
ATOM     43  C   UNL A   1      39.613  29.303  28.810  1.00  0.00     0.031 A 
ATOM     44  C   UNL A   1      39.906  28.996  30.241  1.00  0.00     0.074 A 
ATOM     45  C   UNL A   1      40.546  29.045  27.875  1.00  0.00     0.049 A 
ATOM     46  N   UNL A   1      40.852  29.472  30.986  1.00  0.00    -0.248 NA
ATOM     47  C   UNL A   1      38.990  28.084  30.942  1.00  0.00     0.031 C 
ATOM     48  C   UNL A   1      40.394  29.007  26.421  1.00  0.00     0.029 A 
ATOM     49  N   UNL A   1      41.837  28.650  28.069  1.00  0.00    -0.354 N 
ATOM     50  C   UNL A   1      40.733  28.841  32.222  1.00  0.00     0.074 A 
ATOM     51  C   UNL A   1      39.527  28.051  32.162  1.00  0.00     0.031 C 
ATOM     52  C   UNL A   1      41.465  28.380  25.886  1.00  0.00     0.029 A 
ATOM     53  C   UNL A   1      42.427  28.110  26.942  1.00  0.00     0.049 A 
ATOM     54  H   UNL A   1      42.304  28.742  28.932  1.00  0.00     0.167 HD
ATOM     55  C   UNL A   1      41.697  28.907  33.183  1.00  0.00     0.031 A 
ATOM     56  C   UNL A   1      43.590  27.420  26.898  1.00  0.00     0.031 A 
ATOM     57  C   UNL A   1      42.617  29.986  32.963  1.00  0.00     0.049 A 
ATOM     58  C   UNL A   1      44.377  27.751  28.106  1.00  0.00     0.074 A 
ATOM     59  C   UNL A   1      42.512  31.362  32.927  1.00  0.00     0.029 A 
ATOM     60  N   UNL A   1      43.851  29.691  32.438  1.00  0.00    -0.354 N 
ATOM     61  N   UNL A   1      44.939  28.906  28.313  1.00  0.00    -0.248 NA
ATOM     62  C   UNL A   1      44.260  26.898  29.278  1.00  0.00     0.031 C 
ATOM     63  C   UNL A   1      43.467  31.782  31.959  1.00  0.00     0.029 A 
ATOM     64  C   UNL A   1      44.111  30.638  31.481  1.00  0.00     0.049 A 
ATOM     65  H   UNL A   1      44.436  28.944  32.699  1.00  0.00     0.167 HD
ATOM     66  C   UNL A   1      44.855  29.102  29.682  1.00  0.00     0.074 A 
ATOM     67  C   UNL A   1      44.562  27.782  30.232  1.00  0.00     0.031 C 
ATOM     68  C   UNL A   1      44.747  30.357  30.212  1.00  0.00     0.031 A 
BRANCH  55  69
ATOM     69  C   UNL A   1      41.961  27.828  34.201  1.00  0.00    -0.014 A 
ATOM     70  C   UNL A   1      42.729  26.683  33.923  1.00  0.00     0.009 A 
ATOM     71  C   UNL A   1      41.650  28.067  35.553  1.00  0.00     0.009 A 
ATOM     72  C   UNL A   1      43.164  25.820  34.934  1.00  0.00     0.001 A 
ATOM     73  C   UNL A   1      42.121  27.230  36.572  1.00  0.00     0.001 A 
ATOM     74  C   UNL A   1      42.880  26.107  36.261  1.00  0.00     0.000 A 
ENDBRANCH  55  69
BRANCH  56  75
ATOM     75  C   UNL A   1      43.942  26.293  26.012  1.00  0.00    -0.014 A 
ATOM     76  C   UNL A   1      43.024  25.249  25.796  1.00  0.00     0.009 A 
ATOM     77  C   UNL A   1      45.265  26.103  25.590  1.00  0.00     0.009 A 
ATOM     78  C   UNL A   1      43.420  24.045  25.208  1.00  0.00     0.001 A 
ATOM     79  C   UNL A   1      45.664  24.893  25.010  1.00  0.00     0.001 A 
ATOM     80  C   UNL A   1      44.746  23.862  24.831  1.00  0.00     0.000 A 
ENDBRANCH  56  75
BRANCH  68  81
ATOM     81  C   UNL A   1      44.980  31.543  29.304  1.00  0.00    -0.014 A 
ATOM     82  C   UNL A   1      46.189  32.250  29.408  1.00  0.00     0.009 A 
ATOM     83  C   UNL A   1      43.972  32.076  28.481  1.00  0.00     0.009 A 
ATOM     84  C   UNL A   1      46.382  33.447  28.712  1.00  0.00     0.001 A 
ATOM     85  C   UNL A   1      44.175  33.257  27.763  1.00  0.00     0.001 A 
ATOM     86  C   UNL A   1      45.377  33.947  27.885  1.00  0.00     0.000 A 
ENDBRANCH  68  81
ENDBRANCH  42  43
ENDBRANCH  34  37
ENDBRANCH  32  33
ENDBRANCH  31  32
ENDBRANCH   1  31
TORSDOF 14
ENDMDL
MODEL 3
REMARK VINA RESULT:     -11.7      2.900      8.723
REMARK SMILES Cc1nc2cc(S(=O)(=O)N3CCC(C(=O)NCCCCNC(=O)c4ccc(-c5c6nc(c(-c7ccccc7)c7ccc([nH]7)c(-c7ccccc7)c7nc(c(-c8ccccc8)c8ccc5[nH]8)C=C7)C=C6)cc4)CC3)ccc2n1C1CCCC1
REMARK SMILES IDX 18 1 17 2 16 3 14 4 15 5 13 7 10 8 11 9 73 10 12 11 72 12
REMARK SMILES IDX 7 13 8 14 9 15 6 16 1 17 2 18 3 19 77 20 4 21 76 22 5 23
REMARK SMILES IDX 75 24 74 25 78 26 79 27 82 28 80 29 81 30 19 31 20 32 21 33
REMARK SMILES IDX 22 34 23 36 24 37 25 38 71 39 26 40 70 41 27 42 28 43 29 44
REMARK SMILES IDX 64 45 30 46 69 47 63 48 65 49 31 50 68 51 62 52 61 53 32 55
REMARK SMILES IDX 54 56 39 57 53 58 40 59 43 60 52 61 66 62 41 63 42 64 51 66
REMARK SMILES IDX 67 67 44 68 33 69 34 70 38 71 35 72 37 73 36 74 55 75 56 76
REMARK SMILES IDX 60 77 57 78 59 79 58 80 45 81 46 82 50 83 47 84 49 85 48 86
REMARK H PARENT 16 6 21 35 65 54 43 65
REMARK Flexibility Score: inf
ROOT
ATOM      1  C   UNL A   1      39.743  22.303  26.583  1.00  0.00     0.023 C 
ENDROOT
BRANCH   1   2
ATOM      2  C   UNL A   1      38.403  21.723  26.164  1.00  0.00     0.116 C 
BRANCH   2   3
ATOM      3  N   UNL A   1      38.115  21.982  24.760  1.00  0.00    -0.356 N 
ATOM      4  C   UNL A   1      36.975  22.433  24.166  1.00  0.00     0.223 C 
ATOM      5  O   UNL A   1      36.972  22.593  22.945  1.00  0.00    -0.275 OA
ATOM      6  H   UNL A   1      38.861  21.802  24.144  1.00  0.00     0.163 HD
BRANCH   4   7
ATOM      7  C   UNL A   1      35.739  22.738  24.994  1.00  0.00     0.081 C 
ATOM      8  N   UNL A   1      33.009  23.719  25.188  1.00  0.00    -0.198 NA
ATOM      9  C   UNL A   1      34.111  24.656  25.507  1.00  0.00     0.103 C 
ATOM     10  C   UNL A   1      33.244  22.259  25.116  1.00  0.00     0.103 C 
ATOM     11  C   UNL A   1      35.479  24.239  25.019  1.00  0.00     0.030 C 
ATOM     12  C   UNL A   1      34.577  21.872  24.526  1.00  0.00     0.030 C 
BRANCH   8  13
ATOM     13  S   UNL A   1      31.508  24.134  25.937  1.00  0.00     0.243 S 
ATOM     14  O   UNL A   1      31.728  24.163  27.360  1.00  0.00    -0.207 OA
ATOM     15  O   UNL A   1      30.480  23.303  25.335  1.00  0.00    -0.207 OA
BRANCH  13  16
ATOM     16  C   UNL A   1      31.163  25.815  25.433  1.00  0.00     0.085 A 
ATOM     17  C   UNL A   1      31.379  31.753  26.062  1.00  0.00     0.088 C 
ATOM     18  C   UNL A   1      31.256  30.307  25.748  1.00  0.00     0.106 A 
ATOM     19  N   UNL A   1      31.708  29.334  26.514  1.00  0.00    -0.233 NA
ATOM     20  N   UNL A   1      30.658  29.805  24.611  1.00  0.00    -0.325 N 
ATOM     21  C   UNL A   1      31.378  28.167  25.882  1.00  0.00     0.090 A 
ATOM     22  C   UNL A   1      30.706  28.431  24.694  1.00  0.00     0.068 A 
ATOM     23  C   UNL A   1      31.621  26.840  26.271  1.00  0.00     0.052 A 
ATOM     24  C   UNL A   1      30.234  27.421  23.859  1.00  0.00     0.030 A 
ATOM     25  C   UNL A   1      30.482  26.112  24.249  1.00  0.00     0.024 A 
BRANCH  20  26
ATOM     26  C   UNL A   1      30.071  30.568  23.524  1.00  0.00     0.089 C 
ATOM     27  C   UNL A   1      29.896  29.788  22.216  1.00  0.00     0.025 C 
ATOM     28  C   UNL A   1      28.678  31.126  23.837  1.00  0.00     0.025 C 
ATOM     29  C   UNL A   1      28.844  30.573  21.449  1.00  0.00     0.002 C 
ATOM     30  C   UNL A   1      27.957  31.237  22.496  1.00  0.00     0.002 C 
ENDBRANCH  20  26
ENDBRANCH  13  16
ENDBRANCH   8  13
ENDBRANCH   4   7
ENDBRANCH   2   3
ENDBRANCH   1   2
BRANCH   1  31
ATOM     31  C   UNL A   1      40.672  21.290  27.244  1.00  0.00     0.023 C 
BRANCH  31  32
ATOM     32  C   UNL A   1      42.144  21.715  27.296  1.00  0.00     0.116 C 
BRANCH  32  33
ATOM     33  N   UNL A   1      42.698  22.117  26.017  1.00  0.00    -0.352 N 
ATOM     34  C   UNL A   1      43.097  23.312  25.482  1.00  0.00     0.251 C 
ATOM     35  H   UNL A   1      42.814  21.363  25.396  1.00  0.00     0.163 HD
ATOM     36  O   UNL A   1      43.646  23.265  24.378  1.00  0.00    -0.269 OA
BRANCH  34  37
ATOM     37  C   UNL A   1      42.859  24.642  26.107  1.00  0.00     0.039 A 
ATOM     38  C   UNL A   1      43.520  25.123  27.234  1.00  0.00     0.014 A 
ATOM     39  C   UNL A   1      41.856  25.443  25.531  1.00  0.00     0.014 A 
ATOM     40  C   UNL A   1      43.110  26.296  27.850  1.00  0.00     0.010 A 
ATOM     41  C   UNL A   1      41.477  26.653  26.114  1.00  0.00     0.010 A 
ATOM     42  C   UNL A   1      42.075  27.052  27.305  1.00  0.00    -0.014 A 
BRANCH  42  43
ATOM     43  C   UNL A   1      41.731  28.280  28.014  1.00  0.00     0.031 A 
ATOM     44  C   UNL A   1      42.731  29.387  27.946  1.00  0.00     0.074 A 
ATOM     45  C   UNL A   1      40.571  28.477  28.667  1.00  0.00     0.049 A 
ATOM     46  N   UNL A   1      43.329  29.987  28.926  1.00  0.00    -0.248 NA
ATOM     47  C   UNL A   1      43.156  29.839  26.614  1.00  0.00     0.031 C 
ATOM     48  C   UNL A   1      39.358  27.661  28.637  1.00  0.00     0.029 A 
ATOM     49  N   UNL A   1      40.214  29.549  29.432  1.00  0.00    -0.354 N 
ATOM     50  C   UNL A   1      44.125  30.977  28.351  1.00  0.00     0.074 A 
ATOM     51  C   UNL A   1      44.035  30.792  26.923  1.00  0.00     0.031 C 
ATOM     52  C   UNL A   1      38.334  28.383  29.143  1.00  0.00     0.029 A 
ATOM     53  C   UNL A   1      38.853  29.640  29.657  1.00  0.00     0.049 A 
ATOM     54  H   UNL A   1      40.864  30.196  29.789  1.00  0.00     0.167 HD
ATOM     55  C   UNL A   1      44.715  31.966  29.077  1.00  0.00     0.031 A 
ATOM     56  C   UNL A   1      38.193  30.708  30.159  1.00  0.00     0.031 A 
ATOM     57  C   UNL A   1      44.774  31.657  30.478  1.00  0.00     0.049 A 
ATOM     58  C   UNL A   1      39.161  31.556  30.888  1.00  0.00     0.074 A 
ATOM     59  C   UNL A   1      45.397  30.685  31.235  1.00  0.00     0.029 A 
ATOM     60  N   UNL A   1      43.866  32.258  31.314  1.00  0.00    -0.354 N 
ATOM     61  N   UNL A   1      39.713  31.223  32.019  1.00  0.00    -0.248 NA
ATOM     62  C   UNL A   1      39.801  32.657  30.185  1.00  0.00     0.031 C 
ATOM     63  C   UNL A   1      44.510  30.436  32.320  1.00  0.00     0.029 A 
ATOM     64  C   UNL A   1      43.413  31.287  32.170  1.00  0.00     0.049 A 
ATOM     65  H   UNL A   1      43.593  33.204  31.301  1.00  0.00     0.167 HD
ATOM     66  C   UNL A   1      40.988  31.762  31.964  1.00  0.00     0.074 A 
ATOM     67  C   UNL A   1      40.934  32.745  30.887  1.00  0.00     0.031 C 
ATOM     68  C   UNL A   1      42.038  31.161  32.601  1.00  0.00     0.031 A 
BRANCH  55  69
ATOM     69  C   UNL A   1      45.021  33.344  28.550  1.00  0.00    -0.014 A 
ATOM     70  C   UNL A   1      46.295  33.724  28.090  1.00  0.00     0.009 A 
ATOM     71  C   UNL A   1      43.957  34.222  28.264  1.00  0.00     0.009 A 
ATOM     72  C   UNL A   1      46.503  34.915  27.386  1.00  0.00     0.001 A 
ATOM     73  C   UNL A   1      44.155  35.393  27.520  1.00  0.00     0.001 A 
ATOM     74  C   UNL A   1      45.428  35.737  27.081  1.00  0.00     0.000 A 
ENDBRANCH  55  69
BRANCH  56  75
ATOM     75  C   UNL A   1      36.835  31.175  29.821  1.00  0.00    -0.014 A 
ATOM     76  C   UNL A   1      36.466  31.370  28.477  1.00  0.00     0.009 A 
ATOM     77  C   UNL A   1      35.986  31.682  30.815  1.00  0.00     0.009 A 
ATOM     78  C   UNL A   1      35.309  32.075  28.137  1.00  0.00     0.001 A 
ATOM     79  C   UNL A   1      34.831  32.395  30.474  1.00  0.00     0.001 A 
ATOM     80  C   UNL A   1      34.500  32.602  29.137  1.00  0.00     0.000 A 
ENDBRANCH  56  75
BRANCH  68  81
ATOM     81  C   UNL A   1      41.742  30.045  33.578  1.00  0.00    -0.014 A 
ATOM     82  C   UNL A   1      41.689  30.341  34.949  1.00  0.00     0.009 A 
ATOM     83  C   UNL A   1      41.691  28.695  33.190  1.00  0.00     0.009 A 
ATOM     84  C   UNL A   1      41.586  29.320  35.899  1.00  0.00     0.001 A 
ATOM     85  C   UNL A   1      41.559  27.676  34.137  1.00  0.00     0.001 A 
ATOM     86  C   UNL A   1      41.515  27.989  35.493  1.00  0.00     0.000 A 
ENDBRANCH  68  81
ENDBRANCH  42  43
ENDBRANCH  34  37
ENDBRANCH  32  33
ENDBRANCH  31  32
ENDBRANCH   1  31
TORSDOF 14
ENDMDL
