MODEL 1
REMARK VINA RESULT:     -11.8      0.000      0.000
REMARK SMILES Cc1cc2c(c(C)c1Cl)C=C(C(=O)NCCCCNC(=O)c1ccc(-c3c4nc(c(-c5ccccc5)c5ccc([nH]5)c(-c5ccccc5)c5nc(c(-c6ccccc6)c6ccc3[nH]6)C=C5)C=C4)cc1)[C@@H](C(F)(F)F)O2
REMARK SMILES IDX 17 1 16 2 15 3 14 4 12 5 13 6 11 8 1 9 2 10 3 11 8 12 4 13
REMARK SMILES IDX 6 14 9 15 5 16 75 17 7 18 10 19 70 20 71 21 72 22 73 23
REMARK SMILES IDX 74 24 18 25 19 26 20 27 21 29 22 30 23 31 69 32 24 33 68 34
REMARK SMILES IDX 25 35 26 36 27 37 62 38 28 39 67 40 61 41 63 42 29 43 66 44
REMARK SMILES IDX 60 45 59 46 30 48 52 49 37 50 51 51 38 52 41 53 50 54 64 55
REMARK SMILES IDX 39 56 40 57 49 59 65 60 42 61 31 62 32 63 36 64 33 65 35 66
REMARK SMILES IDX 34 67 53 68 54 69 58 70 55 71 57 72 56 73 43 74 44 75 48 76
REMARK SMILES IDX 45 77 47 78 46 79
REMARK H PARENT 14 7 19 28 63 47 41 58
REMARK Flexibility Score: inf
ROOT
ATOM      1  C   UNL A   1      37.412  21.110  24.619  1.00  0.00     0.023 C 
ENDROOT
BRANCH   1   2
ATOM      2  C   UNL A   1      36.767  22.480  24.396  1.00  0.00     0.023 C 
BRANCH   2   3
ATOM      3  C   UNL A   1      36.706  23.353  25.646  1.00  0.00     0.116 C 
BRANCH   3   4
ATOM      4  N   UNL A   1      35.601  22.983  26.512  1.00  0.00    -0.352 N 
ATOM      5  C   UNL A   1      34.283  23.276  26.613  1.00  0.00     0.251 C 
ATOM      6  O   UNL A   1      33.697  22.722  27.549  1.00  0.00    -0.270 OA
ATOM      7  H   UNL A   1      35.886  22.350  27.211  1.00  0.00     0.163 HD
BRANCH   5   8
ATOM      8  C   UNL A   1      33.526  24.185  25.701  1.00  0.00     0.067 C 
ATOM      9  C   UNL A   1      30.682  29.146  22.574  1.00  0.00     0.046 C 
ATOM     10  C   UNL A   1      31.360  28.224  23.550  1.00  0.00    -0.028 A 
ATOM     11  C   UNL A   1      31.673  26.925  23.138  1.00  0.00     0.052 A 
ATOM     12  C   UNL A   1      31.715  28.628  24.853  1.00  0.00     0.047 A 
ATOM     13  C   UNL A   1      32.317  26.045  24.001  1.00  0.00     0.128 A 
ATOM     14  C   UNL A   1      32.364  27.738  25.746  1.00  0.00    -0.021 A 
ATOM     15  Cl  UNL A   1      31.358  30.259  25.336  1.00  0.00    -0.084 Cl
ATOM     16  C   UNL A   1      32.683  26.435  25.294  1.00  0.00     0.022 A 
ATOM     17  O   UNL A   1      32.604  24.816  23.481  1.00  0.00    -0.475 OA
ATOM     18  C   UNL A   1      32.746  28.156  27.147  1.00  0.00     0.047 C 
ATOM     19  C   UNL A   1      33.434  25.467  26.100  1.00  0.00     0.026 C 
ATOM     20  C   UNL A   1      32.856  23.750  24.432  1.00  0.00     0.314 C 
BRANCH  20  21
ATOM     21  C   UNL A   1      31.554  22.968  24.685  1.00  0.00     0.429 C 
ATOM     22  F   UNL A   1      31.819  21.646  24.843  1.00  0.00    -0.167 F 
ATOM     23  F   UNL A   1      30.922  23.367  25.815  1.00  0.00    -0.167 F 
ATOM     24  F   UNL A   1      30.667  23.088  23.674  1.00  0.00    -0.167 F 
ENDBRANCH  20  21
ENDBRANCH   5   8
ENDBRANCH   3   4
ENDBRANCH   2   3
ENDBRANCH   1   2
BRANCH   1  25
ATOM     25  C   UNL A   1      38.504  21.064  25.686  1.00  0.00     0.116 C 
BRANCH  25  26
ATOM     26  N   UNL A   1      39.387  19.909  25.583  1.00  0.00    -0.352 N 
ATOM     27  C   UNL A   1      40.702  19.820  25.975  1.00  0.00     0.251 C 
ATOM     28  H   UNL A   1      38.996  19.098  25.187  1.00  0.00     0.163 HD
ATOM     29  O   UNL A   1      41.354  18.800  25.782  1.00  0.00    -0.269 OA
BRANCH  27  30
ATOM     30  C   UNL A   1      41.328  21.007  26.583  1.00  0.00     0.039 A 
ATOM     31  C   UNL A   1      41.926  21.949  25.746  1.00  0.00     0.014 A 
ATOM     32  C   UNL A   1      41.217  21.230  27.958  1.00  0.00     0.014 A 
ATOM     33  C   UNL A   1      42.340  23.168  26.280  1.00  0.00     0.010 A 
ATOM     34  C   UNL A   1      41.578  22.468  28.477  1.00  0.00     0.010 A 
ATOM     35  C   UNL A   1      42.127  23.451  27.640  1.00  0.00    -0.014 A 
BRANCH  35  36
ATOM     36  C   UNL A   1      42.448  24.788  28.190  1.00  0.00     0.031 A 
ATOM     37  C   UNL A   1      43.854  25.124  28.587  1.00  0.00     0.074 A 
ATOM     38  C   UNL A   1      41.457  25.682  28.374  1.00  0.00     0.049 A 
ATOM     39  N   UNL A   1      44.322  26.240  29.082  1.00  0.00    -0.248 NA
ATOM     40  C   UNL A   1      44.861  24.064  28.424  1.00  0.00     0.031 C 
ATOM     41  C   UNL A   1      40.041  25.455  28.072  1.00  0.00     0.029 A 
ATOM     42  N   UNL A   1      41.491  26.966  28.854  1.00  0.00    -0.354 N 
ATOM     43  C   UNL A   1      45.674  26.014  29.298  1.00  0.00     0.074 A 
ATOM     44  C   UNL A   1      45.942  24.643  28.926  1.00  0.00     0.031 C 
ATOM     45  C   UNL A   1      39.351  26.578  28.332  1.00  0.00     0.029 A 
ATOM     46  C   UNL A   1      40.269  27.591  28.842  1.00  0.00     0.049 A 
ATOM     47  H   UNL A   1      42.315  27.399  29.175  1.00  0.00     0.167 HD
ATOM     48  C   UNL A   1      46.614  26.880  29.742  1.00  0.00     0.031 A 
ATOM     49  C   UNL A   1      39.928  28.846  29.191  1.00  0.00     0.031 A 
ATOM     50  C   UNL A   1      46.354  28.248  30.094  1.00  0.00     0.049 A 
ATOM     51  C   UNL A   1      40.988  29.787  29.684  1.00  0.00     0.074 A 
ATOM     52  C   UNL A   1      47.252  29.220  30.499  1.00  0.00     0.029 A 
ATOM     53  N   UNL A   1      45.100  28.838  30.079  1.00  0.00    -0.354 N 
ATOM     54  N   UNL A   1      42.275  29.576  29.823  1.00  0.00    -0.248 NA
ATOM     55  C   UNL A   1      40.552  31.139  30.062  1.00  0.00     0.031 C 
ATOM     56  C   UNL A   1      46.536  30.393  30.758  1.00  0.00     0.029 A 
ATOM     57  C   UNL A   1      45.198  30.157  30.483  1.00  0.00     0.049 A 
ATOM     58  H   UNL A   1      44.265  28.386  29.820  1.00  0.00     0.167 HD
ATOM     59  C   UNL A   1      42.805  30.773  30.285  1.00  0.00     0.074 A 
ATOM     60  C   UNL A   1      41.703  31.707  30.397  1.00  0.00     0.031 C 
ATOM     61  C   UNL A   1      44.091  31.070  30.588  1.00  0.00     0.031 A 
BRANCH  48  62
ATOM     62  C   UNL A   1      48.018  26.366  29.858  1.00  0.00    -0.014 A 
ATOM     63  C   UNL A   1      48.899  26.434  28.768  1.00  0.00     0.009 A 
ATOM     64  C   UNL A   1      48.472  25.832  31.073  1.00  0.00     0.009 A 
ATOM     65  C   UNL A   1      50.203  25.948  28.883  1.00  0.00     0.001 A 
ATOM     66  C   UNL A   1      49.784  25.367  31.191  1.00  0.00     0.001 A 
ATOM     67  C   UNL A   1      50.644  25.419  30.095  1.00  0.00     0.000 A 
ENDBRANCH  48  62
BRANCH  49  68
ATOM     68  C   UNL A   1      38.523  29.298  29.040  1.00  0.00    -0.014 A 
ATOM     69  C   UNL A   1      38.062  29.753  27.795  1.00  0.00     0.009 A 
ATOM     70  C   UNL A   1      37.634  29.263  30.125  1.00  0.00     0.009 A 
ATOM     71  C   UNL A   1      36.741  30.177  27.642  1.00  0.00     0.001 A 
ATOM     72  C   UNL A   1      36.309  29.672  29.965  1.00  0.00     0.001 A 
ATOM     73  C   UNL A   1      35.864  30.134  28.726  1.00  0.00     0.000 A 
ENDBRANCH  49  68
BRANCH  61  74
ATOM     74  C   UNL A   1      44.386  32.462  31.057  1.00  0.00    -0.014 A 
ATOM     75  C   UNL A   1      44.662  33.486  30.140  1.00  0.00     0.009 A 
ATOM     76  C   UNL A   1      44.307  32.768  32.425  1.00  0.00     0.009 A 
ATOM     77  C   UNL A   1      44.864  34.793  30.586  1.00  0.00     0.001 A 
ATOM     78  C   UNL A   1      44.492  34.078  32.866  1.00  0.00     0.001 A 
ATOM     79  C   UNL A   1      44.772  35.089  31.946  1.00  0.00     0.000 A 
ENDBRANCH  61  74
ENDBRANCH  35  36
ENDBRANCH  27  30
ENDBRANCH  25  26
ENDBRANCH   1  25
TORSDOF 12
ENDMDL
MODEL 2
REMARK VINA RESULT:     -11.7      0.546      5.941
REMARK SMILES Cc1cc2c(c(C)c1Cl)C=C(C(=O)NCCCCNC(=O)c1ccc(-c3c4nc(c(-c5ccccc5)c5ccc([nH]5)c(-c5ccccc5)c5nc(c(-c6ccccc6)c6ccc3[nH]6)C=C5)C=C4)cc1)[C@@H](C(F)(F)F)O2
REMARK SMILES IDX 17 1 16 2 15 3 14 4 12 5 13 6 11 8 1 9 2 10 3 11 8 12 4 13
REMARK SMILES IDX 6 14 9 15 5 16 75 17 7 18 10 19 70 20 71 21 72 22 73 23
REMARK SMILES IDX 74 24 18 25 19 26 20 27 21 29 22 30 23 31 69 32 24 33 68 34
REMARK SMILES IDX 25 35 26 36 27 37 62 38 28 39 67 40 61 41 63 42 29 43 66 44
REMARK SMILES IDX 60 45 59 46 30 48 52 49 37 50 51 51 38 52 41 53 50 54 64 55
REMARK SMILES IDX 39 56 40 57 49 59 65 60 42 61 31 62 32 63 36 64 33 65 35 66
REMARK SMILES IDX 34 67 53 68 54 69 58 70 55 71 57 72 56 73 43 74 44 75 48 76
REMARK SMILES IDX 45 77 47 78 46 79
REMARK H PARENT 14 7 19 28 63 47 41 58
REMARK Flexibility Score: inf
ROOT
ATOM      1  C   UNL A   1      37.454  21.121  24.809  1.00  0.00     0.023 C 
ENDROOT
BRANCH   1   2
ATOM      2  C   UNL A   1      37.028  22.477  24.241  1.00  0.00     0.023 C 
BRANCH   2   3
ATOM      3  C   UNL A   1      36.815  23.558  25.297  1.00  0.00     0.116 C 
BRANCH   3   4
ATOM      4  N   UNL A   1      35.924  23.116  26.354  1.00  0.00    -0.352 N 
ATOM      5  C   UNL A   1      34.621  23.285  26.683  1.00  0.00     0.251 C 
ATOM      6  O   UNL A   1      34.269  22.714  27.720  1.00  0.00    -0.270 OA
ATOM      7  H   UNL A   1      36.390  22.541  27.003  1.00  0.00     0.163 HD
BRANCH   5   8
ATOM      8  C   UNL A   1      33.627  24.081  25.903  1.00  0.00     0.067 C 
ATOM      9  C   UNL A   1      29.963  28.646  23.037  1.00  0.00     0.046 C 
ATOM     10  C   UNL A   1      30.900  27.848  23.902  1.00  0.00    -0.028 A 
ATOM     11  C   UNL A   1      31.094  26.495  23.607  1.00  0.00     0.052 A 
ATOM     12  C   UNL A   1      31.608  28.418  24.980  1.00  0.00     0.047 A 
ATOM     13  C   UNL A   1      31.966  25.725  24.369  1.00  0.00     0.128 A 
ATOM     14  C   UNL A   1      32.494  27.642  25.769  1.00  0.00    -0.021 A 
ATOM     15  Cl  UNL A   1      31.389  30.112  25.306  1.00  0.00    -0.084 Cl
ATOM     16  C   UNL A   1      32.682  26.279  25.435  1.00  0.00     0.022 A 
ATOM     17  O   UNL A   1      32.104  24.426  23.969  1.00  0.00    -0.475 OA
ATOM     18  C   UNL A   1      33.255  28.238  26.929  1.00  0.00     0.047 C 
ATOM     19  C   UNL A   1      33.641  25.409  26.125  1.00  0.00     0.026 C 
ATOM     20  C   UNL A   1      32.627  23.495  24.952  1.00  0.00     0.314 C 
BRANCH  20  21
ATOM     21  C   UNL A   1      31.458  22.799  25.673  1.00  0.00     0.429 C 
ATOM     22  F   UNL A   1      31.685  21.463  25.759  1.00  0.00    -0.167 F 
ATOM     23  F   UNL A   1      31.297  23.240  26.944  1.00  0.00    -0.167 F 
ATOM     24  F   UNL A   1      30.277  22.971  25.043  1.00  0.00    -0.167 F 
ENDBRANCH  20  21
ENDBRANCH   5   8
ENDBRANCH   3   4
ENDBRANCH   2   3
ENDBRANCH   1   2
BRANCH   1  25
ATOM     25  C   UNL A   1      38.648  21.154  25.761  1.00  0.00     0.116 C 
BRANCH  25  26
ATOM     26  N   UNL A   1      39.483  19.961  25.709  1.00  0.00    -0.352 N 
ATOM     27  C   UNL A   1      40.803  19.843  26.077  1.00  0.00     0.251 C 
ATOM     28  H   UNL A   1      39.052  19.144  25.371  1.00  0.00     0.163 HD
ATOM     29  O   UNL A   1      41.410  18.788  25.933  1.00  0.00    -0.269 OA
BRANCH  27  30
ATOM     30  C   UNL A   1      41.489  21.037  26.600  1.00  0.00     0.039 A 
ATOM     31  C   UNL A   1      42.039  21.941  25.691  1.00  0.00     0.014 A 
ATOM     32  C   UNL A   1      41.480  21.307  27.971  1.00  0.00     0.014 A 
ATOM     33  C   UNL A   1      42.509  23.170  26.154  1.00  0.00     0.010 A 
ATOM     34  C   UNL A   1      41.896  22.554  28.422  1.00  0.00     0.010 A 
ATOM     35  C   UNL A   1      42.398  23.500  27.516  1.00  0.00    -0.014 A 
BRANCH  35  36
ATOM     36  C   UNL A   1      42.777  24.848  27.996  1.00  0.00     0.031 A 
ATOM     37  C   UNL A   1      41.726  25.893  28.219  1.00  0.00     0.074 A 
ATOM     38  C   UNL A   1      44.078  25.141  28.185  1.00  0.00     0.049 A 
ATOM     39  N   UNL A   1      41.868  27.124  28.637  1.00  0.00    -0.248 NA
ATOM     40  C   UNL A   1      40.337  25.514  27.914  1.00  0.00     0.031 C 
ATOM     41  C   UNL A   1      45.197  24.223  27.956  1.00  0.00     0.029 A 
ATOM     42  N   UNL A   1      44.679  26.294  28.622  1.00  0.00    -0.354 N 
ATOM     43  C   UNL A   1      40.592  27.668  28.638  1.00  0.00     0.074 A 
ATOM     44  C   UNL A   1      39.695  26.652  28.135  1.00  0.00     0.031 C 
ATOM     45  C   UNL A   1      46.344  24.835  28.297  1.00  0.00     0.029 A 
ATOM     46  C   UNL A   1      46.043  26.192  28.742  1.00  0.00     0.049 A 
ATOM     47  H   UNL A   1      44.180  27.116  28.831  1.00  0.00     0.167 HD
ATOM     48  C   UNL A   1      40.197  28.896  29.047  1.00  0.00     0.031 A 
ATOM     49  C   UNL A   1      46.949  27.089  29.175  1.00  0.00     0.031 A 
ATOM     50  C   UNL A   1      41.084  29.900  29.567  1.00  0.00     0.049 A 
ATOM     51  C   UNL A   1      46.488  28.446  29.621  1.00  0.00     0.074 A 
ATOM     52  C   UNL A   1      40.770  31.154  30.060  1.00  0.00     0.029 A 
ATOM     53  N   UNL A   1      42.459  29.761  29.660  1.00  0.00    -0.354 N 
ATOM     54  N   UNL A   1      45.268  28.923  29.675  1.00  0.00    -0.248 NA
ATOM     55  C   UNL A   1      47.525  29.385  30.071  1.00  0.00     0.031 C 
ATOM     56  C   UNL A   1      41.962  31.787  30.427  1.00  0.00     0.029 A 
ATOM     57  C   UNL A   1      43.012  30.913  30.190  1.00  0.00     0.049 A 
ATOM     58  H   UNL A   1      42.966  28.962  29.390  1.00  0.00     0.167 HD
ATOM     59  C   UNL A   1      45.388  30.209  30.182  1.00  0.00     0.074 A 
ATOM     60  C   UNL A   1      46.798  30.436  30.426  1.00  0.00     0.031 C 
ATOM     61  C   UNL A   1      44.416  31.119  30.425  1.00  0.00     0.031 A 
BRANCH  48  62
ATOM     62  C   UNL A   1      38.734  29.210  28.958  1.00  0.00    -0.014 A 
ATOM     63  C   UNL A   1      37.894  29.041  30.069  1.00  0.00     0.009 A 
ATOM     64  C   UNL A   1      38.193  29.704  27.761  1.00  0.00     0.009 A 
ATOM     65  C   UNL A   1      36.532  29.330  29.976  1.00  0.00     0.001 A 
ATOM     66  C   UNL A   1      36.834  30.013  27.677  1.00  0.00     0.001 A 
ATOM     67  C   UNL A   1      36.005  29.820  28.781  1.00  0.00     0.000 A 
ENDBRANCH  48  62
BRANCH  49  68
ATOM     68  C   UNL A   1      48.382  26.711  29.254  1.00  0.00    -0.014 A 
ATOM     69  C   UNL A   1      48.873  26.054  30.391  1.00  0.00     0.009 A 
ATOM     70  C   UNL A   1      49.258  26.987  28.193  1.00  0.00     0.009 A 
ATOM     71  C   UNL A   1      50.220  25.692  30.472  1.00  0.00     0.001 A 
ATOM     72  C   UNL A   1      50.600  26.608  28.270  1.00  0.00     0.001 A 
ATOM     73  C   UNL A   1      51.081  25.966  29.411  1.00  0.00     0.000 A 
ENDBRANCH  49  68
BRANCH  61  74
ATOM     74  C   UNL A   1      44.834  32.441  30.995  1.00  0.00    -0.014 A 
ATOM     75  C   UNL A   1      45.115  33.528  30.156  1.00  0.00     0.009 A 
ATOM     76  C   UNL A   1      44.867  32.621  32.386  1.00  0.00     0.009 A 
ATOM     77  C   UNL A   1      45.433  34.773  30.702  1.00  0.00     0.001 A 
ATOM     78  C   UNL A   1      45.168  33.870  32.928  1.00  0.00     0.001 A 
ATOM     79  C   UNL A   1      45.452  34.945  32.086  1.00  0.00     0.000 A 
ENDBRANCH  61  74
ENDBRANCH  35  36
ENDBRANCH  27  30
ENDBRANCH  25  26
ENDBRANCH   1  25
TORSDOF 12
ENDMDL
MODEL 3
REMARK VINA RESULT:     -11.7      3.476      8.475
REMARK SMILES Cc1cc2c(c(C)c1Cl)C=C(C(=O)NCCCCNC(=O)c1ccc(-c3c4nc(c(-c5ccccc5)c5ccc([nH]5)c(-c5ccccc5)c5nc(c(-c6ccccc6)c6ccc3[nH]6)C=C5)C=C4)cc1)[C@@H](C(F)(F)F)O2
REMARK SMILES IDX 17 1 16 2 15 3 14 4 12 5 13 6 11 8 1 9 2 10 3 11 8 12 4 13
REMARK SMILES IDX 6 14 9 15 5 16 75 17 7 18 10 19 70 20 71 21 72 22 73 23
REMARK SMILES IDX 74 24 18 25 19 26 20 27 21 29 22 30 23 31 69 32 24 33 68 34
REMARK SMILES IDX 25 35 26 36 27 37 62 38 28 39 67 40 61 41 63 42 29 43 66 44
REMARK SMILES IDX 60 45 59 46 30 48 52 49 37 50 51 51 38 52 41 53 50 54 64 55
REMARK SMILES IDX 39 56 40 57 49 59 65 60 42 61 31 62 32 63 36 64 33 65 35 66
REMARK SMILES IDX 34 67 53 68 54 69 58 70 55 71 57 72 56 73 43 74 44 75 48 76
REMARK SMILES IDX 45 77 47 78 46 79
REMARK H PARENT 14 7 19 28 63 47 41 58
REMARK Flexibility Score: inf
ROOT
ATOM      1  C   UNL A   1      31.881  30.850  26.677  1.00  0.00     0.023 C 
ENDROOT
BRANCH   1   2
ATOM      2  C   UNL A   1      32.073  29.362  26.979  1.00  0.00     0.023 C 
BRANCH   2   3
ATOM      3  C   UNL A   1      33.493  28.854  26.740  1.00  0.00     0.116 C 
BRANCH   3   4
ATOM      4  N   UNL A   1      33.876  28.951  25.344  1.00  0.00    -0.352 N 
ATOM      5  C   UNL A   1      33.887  28.136  24.263  1.00  0.00     0.251 C 
ATOM      6  O   UNL A   1      34.329  28.648  23.229  1.00  0.00    -0.270 OA
ATOM      7  H   UNL A   1      34.219  29.848  25.125  1.00  0.00     0.163 HD
BRANCH   5   8
ATOM      8  C   UNL A   1      33.416  26.718  24.243  1.00  0.00     0.067 C 
ATOM      9  C   UNL A   1      32.594  20.272  24.744  1.00  0.00     0.046 C 
ATOM     10  C   UNL A   1      33.111  21.683  24.673  1.00  0.00    -0.028 A 
ATOM     11  C   UNL A   1      32.194  22.725  24.504  1.00  0.00     0.052 A 
ATOM     12  C   UNL A   1      34.480  21.996  24.796  1.00  0.00     0.047 A 
ATOM     13  C   UNL A   1      32.626  24.045  24.451  1.00  0.00     0.128 A 
ATOM     14  C   UNL A   1      34.935  23.337  24.737  1.00  0.00    -0.021 A 
ATOM     15  Cl  UNL A   1      35.603  20.693  25.050  1.00  0.00    -0.084 Cl
ATOM     16  C   UNL A   1      33.980  24.372  24.582  1.00  0.00     0.022 A 
ATOM     17  O   UNL A   1      31.640  24.981  24.318  1.00  0.00    -0.475 OA
ATOM     18  C   UNL A   1      36.399  23.686  24.863  1.00  0.00     0.047 C 
ATOM     19  C   UNL A   1      34.330  25.796  24.600  1.00  0.00     0.026 C 
ATOM     20  C   UNL A   1      32.044  26.284  23.824  1.00  0.00     0.314 C 
BRANCH  20  21
ATOM     21  C   UNL A   1      31.841  26.342  22.300  1.00  0.00     0.429 C 
ATOM     22  F   UNL A   1      31.079  25.298  21.884  1.00  0.00    -0.167 F 
ATOM     23  F   UNL A   1      31.196  27.465  21.905  1.00  0.00    -0.167 F 
ATOM     24  F   UNL A   1      33.004  26.294  21.615  1.00  0.00    -0.167 F 
ENDBRANCH  20  21
ENDBRANCH   5   8
ENDBRANCH   3   4
ENDBRANCH   2   3
ENDBRANCH   1   2
BRANCH   1  25
ATOM     25  C   UNL A   1      32.962  31.777  27.229  1.00  0.00     0.116 C 
BRANCH  25  26
ATOM     26  N   UNL A   1      32.480  33.106  27.583  1.00  0.00    -0.352 N 
ATOM     27  C   UNL A   1      33.111  34.049  28.361  1.00  0.00     0.251 C 
ATOM     28  H   UNL A   1      31.600  33.359  27.224  1.00  0.00     0.163 HD
ATOM     29  O   UNL A   1      32.570  35.116  28.629  1.00  0.00    -0.269 OA
BRANCH  27  30
ATOM     30  C   UNL A   1      34.436  33.720  28.914  1.00  0.00     0.039 A 
ATOM     31  C   UNL A   1      34.501  33.009  30.113  1.00  0.00     0.014 A 
ATOM     32  C   UNL A   1      35.592  34.016  28.187  1.00  0.00     0.014 A 
ATOM     33  C   UNL A   1      35.731  32.514  30.544  1.00  0.00     0.010 A 
ATOM     34  C   UNL A   1      36.807  33.473  28.589  1.00  0.00     0.010 A 
ATOM     35  C   UNL A   1      36.883  32.705  29.761  1.00  0.00    -0.014 A 
BRANCH  35  36
ATOM     36  C   UNL A   1      38.167  32.077  30.145  1.00  0.00     0.031 A 
ATOM     37  C   UNL A   1      39.077  32.758  31.123  1.00  0.00     0.074 A 
ATOM     38  C   UNL A   1      38.531  30.913  29.573  1.00  0.00     0.049 A 
ATOM     39  N   UNL A   1      40.237  32.359  31.579  1.00  0.00    -0.248 NA
ATOM     40  C   UNL A   1      38.639  34.062  31.642  1.00  0.00     0.031 C 
ATOM     41  C   UNL A   1      37.753  30.179  28.572  1.00  0.00     0.029 A 
ATOM     42  N   UNL A   1      39.648  30.139  29.758  1.00  0.00    -0.354 N 
ATOM     43  C   UNL A   1      40.669  33.366  32.430  1.00  0.00     0.074 A 
ATOM     44  C   UNL A   1      39.673  34.414  32.391  1.00  0.00     0.031 C 
ATOM     45  C   UNL A   1      38.395  29.040  28.265  1.00  0.00     0.029 A 
ATOM     46  C   UNL A   1      39.639  28.977  29.026  1.00  0.00     0.049 A 
ATOM     47  H   UNL A   1      40.385  30.391  30.360  1.00  0.00     0.167 HD
ATOM     48  C   UNL A   1      41.784  33.404  33.195  1.00  0.00     0.031 A 
ATOM     49  C   UNL A   1      40.529  27.967  28.983  1.00  0.00     0.031 A 
ATOM     50  C   UNL A   1      42.764  32.355  33.251  1.00  0.00     0.049 A 
ATOM     51  C   UNL A   1      41.759  28.033  29.840  1.00  0.00     0.074 A 
ATOM     52  C   UNL A   1      43.898  32.277  34.040  1.00  0.00     0.029 A 
ATOM     53  N   UNL A   1      42.724  31.201  32.485  1.00  0.00    -0.354 N 
ATOM     54  N   UNL A   1      42.122  28.965  30.688  1.00  0.00    -0.248 NA
ATOM     55  C   UNL A   1      42.699  26.907  29.740  1.00  0.00     0.031 C 
ATOM     56  C   UNL A   1      44.561  31.085  33.730  1.00  0.00     0.029 A 
ATOM     57  C   UNL A   1      43.822  30.410  32.771  1.00  0.00     0.049 A 
ATOM     58  H   UNL A   1      42.019  30.978  31.835  1.00  0.00     0.167 HD
ATOM     59  C   UNL A   1      43.321  28.529  31.236  1.00  0.00     0.074 A 
ATOM     60  C   UNL A   1      43.621  27.248  30.631  1.00  0.00     0.031 C 
ATOM     61  C   UNL A   1      44.102  29.139  32.159  1.00  0.00     0.031 A 
BRANCH  48  62
ATOM     62  C   UNL A   1      41.988  34.621  34.047  1.00  0.00    -0.014 A 
ATOM     63  C   UNL A   1      41.494  34.671  35.359  1.00  0.00     0.009 A 
ATOM     64  C   UNL A   1      42.704  35.717  33.544  1.00  0.00     0.009 A 
ATOM     65  C   UNL A   1      41.684  35.810  36.143  1.00  0.00     0.001 A 
ATOM     66  C   UNL A   1      42.912  36.847  34.338  1.00  0.00     0.001 A 
ATOM     67  C   UNL A   1      42.397  36.895  35.632  1.00  0.00     0.000 A 
ENDBRANCH  48  62
BRANCH  49  68
ATOM     68  C   UNL A   1      40.260  26.783  28.130  1.00  0.00    -0.014 A 
ATOM     69  C   UNL A   1      39.458  25.739  28.612  1.00  0.00     0.009 A 
ATOM     70  C   UNL A   1      40.786  26.698  26.832  1.00  0.00     0.009 A 
ATOM     71  C   UNL A   1      39.197  24.622  27.815  1.00  0.00     0.001 A 
ATOM     72  C   UNL A   1      40.509  25.587  26.032  1.00  0.00     0.001 A 
ATOM     73  C   UNL A   1      39.720  24.548  26.525  1.00  0.00     0.000 A 
ENDBRANCH  49  68
BRANCH  61  74
ATOM     74  C   UNL A   1      45.349  28.427  32.586  1.00  0.00    -0.014 A 
ATOM     75  C   UNL A   1      45.322  27.495  33.633  1.00  0.00     0.009 A 
ATOM     76  C   UNL A   1      46.545  28.632  31.880  1.00  0.00     0.009 A 
ATOM     77  C   UNL A   1      46.476  26.786  33.973  1.00  0.00     0.001 A 
ATOM     78  C   UNL A   1      47.691  27.909  32.210  1.00  0.00     0.001 A 
ATOM     79  C   UNL A   1      47.656  26.989  33.258  1.00  0.00     0.000 A 
ENDBRANCH  61  74
ENDBRANCH  35  36
ENDBRANCH  27  30
ENDBRANCH  25  26
ENDBRANCH   1  25
TORSDOF 12
ENDMDL
