MODEL 1
REMARK VINA RESULT:     -12.0      0.000      0.000
REMARK SMILES Cc1cc2c(c(C)c1Cl)C=C(C(=O)NCCCCNC(=O)c1ccc(-c3c4nc(c(-c5ccccc5)c5ccc([nH]5)c(-c5ccccc5)c5nc(c(-c6ccccc6)c6ccc3[nH]6)C=C5)C=C4)cc1)[C@H](C(F)(F)F)O2
REMARK SMILES IDX 17 1 16 2 15 3 14 4 12 5 13 6 11 8 1 9 2 10 3 11 8 12 4 13
REMARK SMILES IDX 6 14 9 15 5 16 75 17 7 18 10 19 70 20 71 21 72 22 73 23
REMARK SMILES IDX 74 24 18 25 19 26 20 27 21 29 22 30 23 31 69 32 24 33 68 34
REMARK SMILES IDX 25 35 26 36 27 37 62 38 28 39 67 40 61 41 63 42 29 43 66 44
REMARK SMILES IDX 60 45 59 46 30 48 52 49 37 50 51 51 38 52 41 53 50 54 64 55
REMARK SMILES IDX 39 56 40 57 49 59 65 60 42 61 31 62 32 63 36 64 33 65 35 66
REMARK SMILES IDX 34 67 53 68 54 69 58 70 55 71 57 72 56 73 43 74 44 75 48 76
REMARK SMILES IDX 45 77 47 78 46 79
REMARK H PARENT 14 7 19 28 63 47 41 58
REMARK Flexibility Score: inf
ROOT
ATOM      1  C   UNL A   1      37.451  20.575  24.938  1.00  0.00     0.023 C 
ENDROOT
BRANCH   1   2
ATOM      2  C   UNL A   1      36.771  21.827  24.378  1.00  0.00     0.023 C 
BRANCH   2   3
ATOM      3  C   UNL A   1      36.457  22.897  25.423  1.00  0.00     0.116 C 
BRANCH   3   4
ATOM      4  N   UNL A   1      35.633  22.370  26.493  1.00  0.00    -0.352 N 
ATOM      5  C   UNL A   1      34.321  22.387  26.821  1.00  0.00     0.251 C 
ATOM      6  O   UNL A   1      34.026  21.720  27.819  1.00  0.00    -0.270 OA
ATOM      7  H   UNL A   1      36.167  21.871  27.153  1.00  0.00     0.163 HD
BRANCH   5   8
ATOM      8  C   UNL A   1      33.252  23.132  26.091  1.00  0.00     0.067 C 
ATOM      9  C   UNL A   1      29.276  27.530  23.399  1.00  0.00     0.046 C 
ATOM     10  C   UNL A   1      30.357  26.791  24.139  1.00  0.00    -0.028 A 
ATOM     11  C   UNL A   1      30.289  25.395  24.198  1.00  0.00     0.052 A 
ATOM     12  C   UNL A   1      31.412  27.450  24.804  1.00  0.00     0.047 A 
ATOM     13  C   UNL A   1      31.261  24.668  24.877  1.00  0.00     0.128 A 
ATOM     14  C   UNL A   1      32.407  26.722  25.501  1.00  0.00    -0.021 A 
ATOM     15  Cl  UNL A   1      31.452  29.188  24.770  1.00  0.00    -0.084 Cl
ATOM     16  C   UNL A   1      32.310  25.309  25.543  1.00  0.00     0.022 A 
ATOM     17  O   UNL A   1      31.093  23.311  24.880  1.00  0.00    -0.475 OA
ATOM     18  C   UNL A   1      33.554  27.410  26.204  1.00  0.00     0.047 C 
ATOM     19  C   UNL A   1      33.249  24.464  26.287  1.00  0.00     0.026 C 
ATOM     20  C   UNL A   1      32.292  22.524  25.111  1.00  0.00     0.314 C 
BRANCH  20  21
ATOM     21  C   UNL A   1      32.938  22.126  23.774  1.00  0.00     0.429 C 
ATOM     22  F   UNL A   1      33.824  23.040  23.322  1.00  0.00    -0.167 F 
ATOM     23  F   UNL A   1      33.593  20.944  23.842  1.00  0.00    -0.167 F 
ATOM     24  F   UNL A   1      31.982  21.987  22.818  1.00  0.00    -0.167 F 
ENDBRANCH  20  21
ENDBRANCH   5   8
ENDBRANCH   3   4
ENDBRANCH   2   3
ENDBRANCH   1   2
BRANCH   1  25
ATOM     25  C   UNL A   1      38.740  20.829  25.710  1.00  0.00     0.116 C 
BRANCH  25  26
ATOM     26  N   UNL A   1      39.699  19.737  25.627  1.00  0.00    -0.352 N 
ATOM     27  C   UNL A   1      41.022  19.745  25.995  1.00  0.00     0.251 C 
ATOM     28  H   UNL A   1      39.356  18.888  25.264  1.00  0.00     0.163 HD
ATOM     29  O   UNL A   1      41.737  18.768  25.807  1.00  0.00    -0.269 OA
BRANCH  27  30
ATOM     30  C   UNL A   1      41.582  20.979  26.574  1.00  0.00     0.039 A 
ATOM     31  C   UNL A   1      42.093  21.952  25.714  1.00  0.00     0.014 A 
ATOM     32  C   UNL A   1      41.511  21.205  27.952  1.00  0.00     0.014 A 
ATOM     33  C   UNL A   1      42.463  23.193  26.230  1.00  0.00     0.010 A 
ATOM     34  C   UNL A   1      41.820  22.462  28.455  1.00  0.00     0.010 A 
ATOM     35  C   UNL A   1      42.289  23.468  27.596  1.00  0.00    -0.014 A 
BRANCH  35  36
ATOM     36  C   UNL A   1      42.583  24.812  28.143  1.00  0.00     0.031 A 
ATOM     37  C   UNL A   1      43.984  25.168  28.546  1.00  0.00     0.074 A 
ATOM     38  C   UNL A   1      41.578  25.690  28.328  1.00  0.00     0.049 A 
ATOM     39  N   UNL A   1      44.431  26.277  29.075  1.00  0.00    -0.248 NA
ATOM     40  C   UNL A   1      45.014  24.135  28.349  1.00  0.00     0.031 C 
ATOM     41  C   UNL A   1      40.168  25.445  28.015  1.00  0.00     0.029 A 
ATOM     42  N   UNL A   1      41.592  26.969  28.821  1.00  0.00    -0.354 N 
ATOM     43  C   UNL A   1      45.787  26.071  29.287  1.00  0.00     0.074 A 
ATOM     44  C   UNL A   1      46.082  24.716  28.873  1.00  0.00     0.031 C 
ATOM     45  C   UNL A   1      39.460  26.553  28.285  1.00  0.00     0.029 A 
ATOM     46  C   UNL A   1      40.358  27.574  28.817  1.00  0.00     0.049 A 
ATOM     47  H   UNL A   1      42.408  27.413  29.148  1.00  0.00     0.167 HD
ATOM     48  C   UNL A   1      46.710  26.939  29.761  1.00  0.00     0.031 A 
ATOM     49  C   UNL A   1      39.994  28.815  29.190  1.00  0.00     0.031 A 
ATOM     50  C   UNL A   1      46.422  28.291  30.151  1.00  0.00     0.049 A 
ATOM     51  C   UNL A   1      41.038  29.762  29.708  1.00  0.00     0.074 A 
ATOM     52  C   UNL A   1      47.299  29.263  30.600  1.00  0.00     0.029 A 
ATOM     53  N   UNL A   1      45.161  28.863  30.128  1.00  0.00    -0.354 N 
ATOM     54  N   UNL A   1      42.324  29.566  29.859  1.00  0.00    -0.248 NA
ATOM     55  C   UNL A   1      40.580  31.104  30.099  1.00  0.00     0.031 C 
ATOM     56  C   UNL A   1      46.562  30.417  30.876  1.00  0.00     0.029 A 
ATOM     57  C   UNL A   1      45.233  30.173  30.565  1.00  0.00     0.049 A 
ATOM     58  H   UNL A   1      44.337  28.406  29.845  1.00  0.00     0.167 HD
ATOM     59  C   UNL A   1      42.835  30.764  30.341  1.00  0.00     0.074 A 
ATOM     60  C   UNL A   1      41.721  31.683  30.451  1.00  0.00     0.031 C 
ATOM     61  C   UNL A   1      44.114  31.073  30.661  1.00  0.00     0.031 A 
BRANCH  48  62
ATOM     62  C   UNL A   1      48.123  26.446  29.871  1.00  0.00    -0.014 A 
ATOM     63  C   UNL A   1      48.576  25.814  31.040  1.00  0.00     0.009 A 
ATOM     64  C   UNL A   1      49.002  26.589  28.788  1.00  0.00     0.009 A 
ATOM     65  C   UNL A   1      49.892  25.362  31.133  1.00  0.00     0.001 A 
ATOM     66  C   UNL A   1      50.312  26.115  28.876  1.00  0.00     0.001 A 
ATOM     67  C   UNL A   1      50.758  25.510  30.050  1.00  0.00     0.000 A 
ENDBRANCH  48  62
BRANCH  49  68
ATOM     68  C   UNL A   1      38.582  29.246  29.040  1.00  0.00    -0.014 A 
ATOM     69  C   UNL A   1      38.114  29.694  27.795  1.00  0.00     0.009 A 
ATOM     70  C   UNL A   1      37.693  29.194  30.124  1.00  0.00     0.009 A 
ATOM     71  C   UNL A   1      36.785  30.096  27.642  1.00  0.00     0.001 A 
ATOM     72  C   UNL A   1      36.360  29.579  29.963  1.00  0.00     0.001 A 
ATOM     73  C   UNL A   1      35.909  30.034  28.725  1.00  0.00     0.000 A 
ENDBRANCH  49  68
BRANCH  61  74
ATOM     74  C   UNL A   1      44.389  32.468  31.138  1.00  0.00    -0.014 A 
ATOM     75  C   UNL A   1      44.369  32.779  32.505  1.00  0.00     0.009 A 
ATOM     76  C   UNL A   1      44.756  33.457  30.212  1.00  0.00     0.009 A 
ATOM     77  C   UNL A   1      44.700  34.064  32.937  1.00  0.00     0.001 A 
ATOM     78  C   UNL A   1      45.105  34.736  30.649  1.00  0.00     0.001 A 
ATOM     79  C   UNL A   1      45.073  35.038  32.009  1.00  0.00     0.000 A 
ENDBRANCH  61  74
ENDBRANCH  35  36
ENDBRANCH  27  30
ENDBRANCH  25  26
ENDBRANCH   1  25
TORSDOF 12
ENDMDL
MODEL 2
REMARK VINA RESULT:     -12.0      0.297      5.947
REMARK SMILES Cc1cc2c(c(C)c1Cl)C=C(C(=O)NCCCCNC(=O)c1ccc(-c3c4nc(c(-c5ccccc5)c5ccc([nH]5)c(-c5ccccc5)c5nc(c(-c6ccccc6)c6ccc3[nH]6)C=C5)C=C4)cc1)[C@H](C(F)(F)F)O2
REMARK SMILES IDX 17 1 16 2 15 3 14 4 12 5 13 6 11 8 1 9 2 10 3 11 8 12 4 13
REMARK SMILES IDX 6 14 9 15 5 16 75 17 7 18 10 19 70 20 71 21 72 22 73 23
REMARK SMILES IDX 74 24 18 25 19 26 20 27 21 29 22 30 23 31 69 32 24 33 68 34
REMARK SMILES IDX 25 35 26 36 27 37 62 38 28 39 67 40 61 41 63 42 29 43 66 44
REMARK SMILES IDX 60 45 59 46 30 48 52 49 37 50 51 51 38 52 41 53 50 54 64 55
REMARK SMILES IDX 39 56 40 57 49 59 65 60 42 61 31 62 32 63 36 64 33 65 35 66
REMARK SMILES IDX 34 67 53 68 54 69 58 70 55 71 57 72 56 73 43 74 44 75 48 76
REMARK SMILES IDX 45 77 47 78 46 79
REMARK H PARENT 14 7 19 28 63 47 41 58
REMARK Flexibility Score: inf
ROOT
ATOM      1  C   UNL A   1      37.551  20.819  24.959  1.00  0.00     0.023 C 
ENDROOT
BRANCH   1   2
ATOM      2  C   UNL A   1      36.928  22.105  24.408  1.00  0.00     0.023 C 
BRANCH   2   3
ATOM      3  C   UNL A   1      36.518  23.116  25.478  1.00  0.00     0.116 C 
BRANCH   3   4
ATOM      4  N   UNL A   1      35.699  22.502  26.505  1.00  0.00    -0.352 N 
ATOM      5  C   UNL A   1      34.380  22.441  26.802  1.00  0.00     0.251 C 
ATOM      6  O   UNL A   1      34.098  21.716  27.762  1.00  0.00    -0.270 OA
ATOM      7  H   UNL A   1      36.243  22.000  27.154  1.00  0.00     0.163 HD
BRANCH   5   8
ATOM      8  C   UNL A   1      33.292  23.165  26.081  1.00  0.00     0.067 C 
ATOM      9  C   UNL A   1      29.193  27.486  23.448  1.00  0.00     0.046 C 
ATOM     10  C   UNL A   1      30.294  26.767  24.179  1.00  0.00    -0.028 A 
ATOM     11  C   UNL A   1      30.268  25.369  24.214  1.00  0.00     0.052 A 
ATOM     12  C   UNL A   1      31.326  27.447  24.859  1.00  0.00     0.047 A 
ATOM     13  C   UNL A   1      31.259  24.661  24.885  1.00  0.00     0.128 A 
ATOM     14  C   UNL A   1      32.341  26.737  25.547  1.00  0.00    -0.021 A 
ATOM     15  Cl  UNL A   1      31.315  29.185  24.853  1.00  0.00    -0.084 Cl
ATOM     16  C   UNL A   1      32.287  25.322  25.565  1.00  0.00     0.022 A 
ATOM     17  O   UNL A   1      31.132  23.299  24.865  1.00  0.00    -0.475 OA
ATOM     18  C   UNL A   1      33.465  27.448  26.264  1.00  0.00     0.047 C 
ATOM     19  C   UNL A   1      33.248  24.493  26.298  1.00  0.00     0.026 C 
ATOM     20  C   UNL A   1      32.354  22.544  25.088  1.00  0.00     0.314 C 
BRANCH  20  21
ATOM     21  C   UNL A   1      33.015  22.188  23.746  1.00  0.00     0.429 C 
ATOM     22  F   UNL A   1      32.123  22.022  22.745  1.00  0.00    -0.167 F 
ATOM     23  F   UNL A   1      33.897  23.127  23.335  1.00  0.00    -0.167 F 
ATOM     24  F   UNL A   1      33.708  21.025  23.863  1.00  0.00    -0.167 F 
ENDBRANCH  20  21
ENDBRANCH   5   8
ENDBRANCH   3   4
ENDBRANCH   2   3
ENDBRANCH   1   2
BRANCH   1  25
ATOM     25  C   UNL A   1      38.846  21.010  25.740  1.00  0.00     0.116 C 
BRANCH  25  26
ATOM     26  N   UNL A   1      39.750  19.871  25.665  1.00  0.00    -0.352 N 
ATOM     27  C   UNL A   1      41.074  19.819  26.027  1.00  0.00     0.251 C 
ATOM     28  H   UNL A   1      39.365  19.036  25.313  1.00  0.00     0.163 HD
ATOM     29  O   UNL A   1      41.740  18.806  25.847  1.00  0.00    -0.269 OA
BRANCH  27  30
ATOM     30  C   UNL A   1      41.696  21.031  26.591  1.00  0.00     0.039 A 
ATOM     31  C   UNL A   1      42.217  21.986  25.716  1.00  0.00     0.014 A 
ATOM     32  C   UNL A   1      41.674  21.257  27.970  1.00  0.00     0.014 A 
ATOM     33  C   UNL A   1      42.647  23.211  26.223  1.00  0.00     0.010 A 
ATOM     34  C   UNL A   1      42.043  22.501  28.464  1.00  0.00     0.010 A 
ATOM     35  C   UNL A   1      42.523  23.491  27.593  1.00  0.00    -0.014 A 
BRANCH  35  36
ATOM     36  C   UNL A   1      42.883  24.822  28.133  1.00  0.00     0.031 A 
ATOM     37  C   UNL A   1      41.821  25.861  28.336  1.00  0.00     0.074 A 
ATOM     38  C   UNL A   1      44.174  25.109  28.386  1.00  0.00     0.049 A 
ATOM     39  N   UNL A   1      41.945  27.091  28.764  1.00  0.00    -0.248 NA
ATOM     40  C   UNL A   1      40.442  25.477  27.994  1.00  0.00     0.031 C 
ATOM     41  C   UNL A   1      45.303  24.196  28.189  1.00  0.00     0.029 A 
ATOM     42  N   UNL A   1      44.754  26.253  28.870  1.00  0.00    -0.354 N 
ATOM     43  C   UNL A   1      40.667  27.630  28.728  1.00  0.00     0.074 A 
ATOM     44  C   UNL A   1      39.789  26.612  28.194  1.00  0.00     0.031 C 
ATOM     45  C   UNL A   1      46.432  24.802  28.588  1.00  0.00     0.029 A 
ATOM     46  C   UNL A   1      46.114  26.152  29.039  1.00  0.00     0.049 A 
ATOM     47  H   UNL A   1      44.245  27.070  29.077  1.00  0.00     0.167 HD
ATOM     48  C   UNL A   1      40.255  28.856  29.126  1.00  0.00     0.031 A 
ATOM     49  C   UNL A   1      47.002  27.045  29.515  1.00  0.00     0.031 A 
ATOM     50  C   UNL A   1      41.122  29.860  29.677  1.00  0.00     0.049 A 
ATOM     51  C   UNL A   1      46.520  28.397  29.956  1.00  0.00     0.074 A 
ATOM     52  C   UNL A   1      40.791  31.116  30.153  1.00  0.00     0.029 A 
ATOM     53  N   UNL A   1      42.491  29.715  29.833  1.00  0.00    -0.354 N 
ATOM     54  N   UNL A   1      45.300  28.875  29.959  1.00  0.00    -0.248 NA
ATOM     55  C   UNL A   1      47.536  29.329  30.467  1.00  0.00     0.031 C 
ATOM     56  C   UNL A   1      41.967  31.744  30.573  1.00  0.00     0.029 A 
ATOM     57  C   UNL A   1      43.023  30.864  30.390  1.00  0.00     0.049 A 
ATOM     58  H   UNL A   1      43.008  28.916  29.584  1.00  0.00     0.167 HD
ATOM     59  C   UNL A   1      45.397  30.154  30.490  1.00  0.00     0.074 A 
ATOM     60  C   UNL A   1      46.794  30.375  30.806  1.00  0.00     0.031 C 
ATOM     61  C   UNL A   1      44.414  31.062  30.701  1.00  0.00     0.031 A 
BRANCH  48  62
ATOM     62  C   UNL A   1      38.794  29.168  28.988  1.00  0.00    -0.014 A 
ATOM     63  C   UNL A   1      37.916  28.998  30.071  1.00  0.00     0.009 A 
ATOM     64  C   UNL A   1      38.294  29.662  27.774  1.00  0.00     0.009 A 
ATOM     65  C   UNL A   1      36.559  29.289  29.931  1.00  0.00     0.001 A 
ATOM     66  C   UNL A   1      36.939  29.973  27.645  1.00  0.00     0.001 A 
ATOM     67  C   UNL A   1      36.073  29.779  28.720  1.00  0.00     0.000 A 
ENDBRANCH  48  62
BRANCH  49  68
ATOM     68  C   UNL A   1      48.431  26.667  29.643  1.00  0.00    -0.014 A 
ATOM     69  C   UNL A   1      48.890  26.042  30.812  1.00  0.00     0.009 A 
ATOM     70  C   UNL A   1      49.337  26.908  28.599  1.00  0.00     0.009 A 
ATOM     71  C   UNL A   1      50.233  25.677  30.940  1.00  0.00     0.001 A 
ATOM     72  C   UNL A   1      50.674  26.525  28.722  1.00  0.00     0.001 A 
ATOM     73  C   UNL A   1      51.122  25.914  29.893  1.00  0.00     0.000 A 
ENDBRANCH  49  68
BRANCH  61  74
ATOM     74  C   UNL A   1      44.802  32.370  31.322  1.00  0.00    -0.014 A 
ATOM     75  C   UNL A   1      45.132  33.476  30.526  1.00  0.00     0.009 A 
ATOM     76  C   UNL A   1      44.755  32.517  32.717  1.00  0.00     0.009 A 
ATOM     77  C   UNL A   1      45.419  34.706  31.119  1.00  0.00     0.001 A 
ATOM     78  C   UNL A   1      45.025  33.753  33.305  1.00  0.00     0.001 A 
ATOM     79  C   UNL A   1      45.359  34.845  32.506  1.00  0.00     0.000 A 
ENDBRANCH  61  74
ENDBRANCH  35  36
ENDBRANCH  27  30
ENDBRANCH  25  26
ENDBRANCH   1  25
TORSDOF 12
ENDMDL
MODEL 3
REMARK VINA RESULT:     -11.9      3.649      8.496
REMARK SMILES Cc1cc2c(c(C)c1Cl)C=C(C(=O)NCCCCNC(=O)c1ccc(-c3c4nc(c(-c5ccccc5)c5ccc([nH]5)c(-c5ccccc5)c5nc(c(-c6ccccc6)c6ccc3[nH]6)C=C5)C=C4)cc1)[C@H](C(F)(F)F)O2
REMARK SMILES IDX 17 1 16 2 15 3 14 4 12 5 13 6 11 8 1 9 2 10 3 11 8 12 4 13
REMARK SMILES IDX 6 14 9 15 5 16 75 17 7 18 10 19 70 20 71 21 72 22 73 23
REMARK SMILES IDX 74 24 18 25 19 26 20 27 21 29 22 30 23 31 69 32 24 33 68 34
REMARK SMILES IDX 25 35 26 36 27 37 62 38 28 39 67 40 61 41 63 42 29 43 66 44
REMARK SMILES IDX 60 45 59 46 30 48 52 49 37 50 51 51 38 52 41 53 50 54 64 55
REMARK SMILES IDX 39 56 40 57 49 59 65 60 42 61 31 62 32 63 36 64 33 65 35 66
REMARK SMILES IDX 34 67 53 68 54 69 58 70 55 71 57 72 56 73 43 74 44 75 48 76
REMARK SMILES IDX 45 77 47 78 46 79
REMARK H PARENT 14 7 19 28 63 47 41 58
REMARK Flexibility Score: inf
ROOT
ATOM      1  C   UNL A   1      31.789  30.986  26.488  1.00  0.00     0.023 C 
ENDROOT
BRANCH   1   2
ATOM      2  C   UNL A   1      31.866  29.477  26.739  1.00  0.00     0.023 C 
BRANCH   2   3
ATOM      3  C   UNL A   1      33.208  28.844  26.375  1.00  0.00     0.116 C 
BRANCH   3   4
ATOM      4  N   UNL A   1      33.560  29.100  24.992  1.00  0.00    -0.352 N 
ATOM      5  C   UNL A   1      33.509  28.420  23.823  1.00  0.00     0.251 C 
ATOM      6  O   UNL A   1      33.854  29.068  22.829  1.00  0.00    -0.270 OA
ATOM      7  H   UNL A   1      33.934  30.003  24.872  1.00  0.00     0.163 HD
BRANCH   5   8
ATOM      8  C   UNL A   1      33.087  26.997  23.664  1.00  0.00     0.067 C 
ATOM      9  C   UNL A   1      32.458  20.515  23.664  1.00  0.00     0.046 C 
ATOM     10  C   UNL A   1      32.894  21.946  23.830  1.00  0.00    -0.028 A 
ATOM     11  C   UNL A   1      32.129  22.950  23.227  1.00  0.00     0.052 A 
ATOM     12  C   UNL A   1      34.061  22.308  24.535  1.00  0.00     0.047 A 
ATOM     13  C   UNL A   1      32.497  24.285  23.346  1.00  0.00     0.128 A 
ATOM     14  C   UNL A   1      34.448  23.665  24.661  1.00  0.00    -0.021 A 
ATOM     15  Cl  UNL A   1      35.032  21.046  25.230  1.00  0.00    -0.084 Cl
ATOM     16  C   UNL A   1      33.653  24.659  24.040  1.00  0.00     0.022 A 
ATOM     17  O   UNL A   1      31.685  25.184  22.711  1.00  0.00    -0.475 OA
ATOM     18  C   UNL A   1      35.684  24.074  25.429  1.00  0.00     0.047 C 
ATOM     19  C   UNL A   1      33.996  26.084  24.055  1.00  0.00     0.026 C 
ATOM     20  C   UNL A   1      31.727  26.546  23.216  1.00  0.00     0.314 C 
BRANCH  20  21
ATOM     21  C   UNL A   1      30.623  26.763  24.262  1.00  0.00     0.429 C 
ATOM     22  F   UNL A   1      31.021  26.468  25.520  1.00  0.00    -0.167 F 
ATOM     23  F   UNL A   1      30.168  28.037  24.283  1.00  0.00    -0.167 F 
ATOM     24  F   UNL A   1      29.554  25.972  23.984  1.00  0.00    -0.167 F 
ENDBRANCH  20  21
ENDBRANCH   5   8
ENDBRANCH   3   4
ENDBRANCH   2   3
ENDBRANCH   1   2
BRANCH   1  25
ATOM     25  C   UNL A   1      32.879  31.810  27.162  1.00  0.00     0.116 C 
BRANCH  25  26
ATOM     26  N   UNL A   1      32.451  33.149  27.543  1.00  0.00    -0.352 N 
ATOM     27  C   UNL A   1      33.112  34.052  28.340  1.00  0.00     0.251 C 
ATOM     28  H   UNL A   1      31.582  33.443  27.185  1.00  0.00     0.163 HD
ATOM     29  O   UNL A   1      32.602  35.126  28.636  1.00  0.00    -0.269 OA
BRANCH  27  30
ATOM     30  C   UNL A   1      34.432  33.678  28.879  1.00  0.00     0.039 A 
ATOM     31  C   UNL A   1      34.488  32.933  30.058  1.00  0.00     0.014 A 
ATOM     32  C   UNL A   1      35.595  33.984  28.167  1.00  0.00     0.014 A 
ATOM     33  C   UNL A   1      35.713  32.423  30.484  1.00  0.00     0.010 A 
ATOM     34  C   UNL A   1      36.803  33.423  28.559  1.00  0.00     0.010 A 
ATOM     35  C   UNL A   1      36.869  32.630  29.715  1.00  0.00    -0.014 A 
BRANCH  35  36
ATOM     36  C   UNL A   1      38.159  32.013  30.101  1.00  0.00     0.031 A 
ATOM     37  C   UNL A   1      39.068  32.717  31.064  1.00  0.00     0.074 A 
ATOM     38  C   UNL A   1      38.532  30.847  29.540  1.00  0.00     0.049 A 
ATOM     39  N   UNL A   1      40.250  32.355  31.495  1.00  0.00    -0.248 NA
ATOM     40  C   UNL A   1      38.602  34.007  31.597  1.00  0.00     0.031 C 
ATOM     41  C   UNL A   1      37.754  30.089  28.558  1.00  0.00     0.029 A 
ATOM     42  N   UNL A   1      39.664  30.094  29.719  1.00  0.00    -0.354 N 
ATOM     43  C   UNL A   1      40.671  33.376  32.335  1.00  0.00     0.074 A 
ATOM     44  C   UNL A   1      39.642  34.393  32.319  1.00  0.00     0.031 C 
ATOM     45  C   UNL A   1      38.411  28.958  28.255  1.00  0.00     0.029 A 
ATOM     46  C   UNL A   1      39.669  28.926  28.995  1.00  0.00     0.049 A 
ATOM     47  H   UNL A   1      40.403  30.363  30.312  1.00  0.00     0.167 HD
ATOM     48  C   UNL A   1      41.802  33.450  33.073  1.00  0.00     0.031 A 
ATOM     49  C   UNL A   1      40.580  27.937  28.942  1.00  0.00     0.031 A 
ATOM     50  C   UNL A   1      42.813  32.430  33.107  1.00  0.00     0.049 A 
ATOM     51  C   UNL A   1      41.825  28.040  29.775  1.00  0.00     0.074 A 
ATOM     52  C   UNL A   1      43.973  32.393  33.860  1.00  0.00     0.029 A 
ATOM     53  N   UNL A   1      42.777  31.264  32.360  1.00  0.00    -0.354 N 
ATOM     54  N   UNL A   1      42.187  28.991  30.600  1.00  0.00    -0.248 NA
ATOM     55  C   UNL A   1      42.783  26.928  29.676  1.00  0.00     0.031 C 
ATOM     56  C   UNL A   1      44.655  31.213  33.547  1.00  0.00     0.029 A 
ATOM     57  C   UNL A   1      43.900  30.503  32.627  1.00  0.00     0.049 A 
ATOM     58  H   UNL A   1      42.060  31.014  31.734  1.00  0.00     0.167 HD
ATOM     59  C   UNL A   1      43.402  28.585  31.135  1.00  0.00     0.074 A 
ATOM     60  C   UNL A   1      43.713  27.298  30.547  1.00  0.00     0.031 C 
ATOM     61  C   UNL A   1      44.188  29.222  32.035  1.00  0.00     0.031 A 
BRANCH  48  62
ATOM     62  C   UNL A   1      41.993  34.677  33.914  1.00  0.00    -0.014 A 
ATOM     63  C   UNL A   1      42.624  35.817  33.390  1.00  0.00     0.009 A 
ATOM     64  C   UNL A   1      41.515  34.707  35.232  1.00  0.00     0.009 A 
ATOM     65  C   UNL A   1      42.800  36.953  34.181  1.00  0.00     0.001 A 
ATOM     66  C   UNL A   1      41.672  35.853  36.014  1.00  0.00     0.001 A 
ATOM     67  C   UNL A   1      42.320  36.971  35.491  1.00  0.00     0.000 A 
ENDBRANCH  48  62
BRANCH  49  68
ATOM     68  C   UNL A   1      40.322  26.741  28.103  1.00  0.00    -0.014 A 
ATOM     69  C   UNL A   1      39.543  25.687  28.604  1.00  0.00     0.009 A 
ATOM     70  C   UNL A   1      40.831  26.652  26.798  1.00  0.00     0.009 A 
ATOM     71  C   UNL A   1      39.289  24.559  27.819  1.00  0.00     0.001 A 
ATOM     72  C   UNL A   1      40.559  25.531  26.010  1.00  0.00     0.001 A 
ATOM     73  C   UNL A   1      39.794  24.485  26.521  1.00  0.00     0.000 A 
ENDBRANCH  49  68
BRANCH  61  74
ATOM     74  C   UNL A   1      45.448  28.532  32.464  1.00  0.00    -0.014 A 
ATOM     75  C   UNL A   1      45.445  27.625  33.532  1.00  0.00     0.009 A 
ATOM     76  C   UNL A   1      46.631  28.732  31.734  1.00  0.00     0.009 A 
ATOM     77  C   UNL A   1      46.611  26.936  33.871  1.00  0.00     0.001 A 
ATOM     78  C   UNL A   1      47.789  28.028  32.064  1.00  0.00     0.001 A 
ATOM     79  C   UNL A   1      47.779  27.134  33.133  1.00  0.00     0.000 A 
ENDBRANCH  61  74
ENDBRANCH  35  36
ENDBRANCH  27  30
ENDBRANCH  25  26
ENDBRANCH   1  25
TORSDOF 12
ENDMDL
