MODEL 1
REMARK VINA RESULT:     -11.3      0.000      0.000
REMARK SMILES O=C(NCCCCNC(=O)[C@@H]1CC[C@@H](CNC(=O)c2ccc(Cl)cc2)O1)c1ccc(-c2c3nc(c(-c4ccccc4)c4ccc([nH]4)c(-c4ccccc4)c4nc(c(-c5ccccc5)c5ccc2[nH]5)C=C4)C=C3)cc1
REMARK SMILES IDX 6 1 5 2 4 3 3 4 1 5 2 6 27 8 28 9 74 10 29 11 73 12 30 13
REMARK SMILES IDX 31 14 32 15 67 16 33 17 72 18 66 19 68 20 34 21 71 22 65 23
REMARK SMILES IDX 64 24 35 26 57 27 42 28 56 29 43 30 46 31 55 32 69 33 44 34
REMARK SMILES IDX 45 35 54 37 70 38 47 39 36 40 37 41 41 42 38 43 40 44 39 45
REMARK SMILES IDX 58 46 59 47 63 48 60 49 62 50 61 51 48 52 49 53 53 54 50 55
REMARK SMILES IDX 52 56 51 57 7 58 8 59 9 60 10 62 11 63 12 64 26 65 13 66
REMARK SMILES IDX 14 67 15 68 16 69 17 70 18 72 19 73 20 74 25 75 21 76 24 77
REMARK SMILES IDX 22 78 23 79
REMARK H PARENT 3 7 68 25 46 36 8 61 16 71
REMARK Flexibility Score: inf
ROOT
ATOM      1  C   UNL A   1      36.629  21.141  24.742  1.00  0.00     0.023 C 
ENDROOT
BRANCH   1   2
ATOM      2  C   UNL A   1      37.672  20.040  24.954  1.00  0.00     0.023 C 
BRANCH   2   3
ATOM      3  C   UNL A   1      38.912  20.454  25.738  1.00  0.00     0.116 C 
BRANCH   3   4
ATOM      4  N   UNL A   1      39.963  19.448  25.726  1.00  0.00    -0.352 N 
ATOM      5  O   UNL A   1      42.068  18.647  25.896  1.00  0.00    -0.269 OA
ATOM      6  C   UNL A   1      41.287  19.577  26.074  1.00  0.00     0.251 C 
ATOM      7  H   UNL A   1      39.688  18.551  25.428  1.00  0.00     0.163 HD
BRANCH   6   8
ATOM      8  C   UNL A   1      41.777  20.857  26.627  1.00  0.00     0.039 A 
ATOM      9  C   UNL A   1      41.844  21.060  28.006  1.00  0.00     0.014 A 
ATOM     10  C   UNL A   1      42.151  21.877  25.747  1.00  0.00     0.014 A 
ATOM     11  C   UNL A   1      42.130  22.326  28.503  1.00  0.00     0.010 A 
ATOM     12  C   UNL A   1      42.516  23.128  26.251  1.00  0.00     0.010 A 
ATOM     13  C   UNL A   1      42.464  23.376  27.631  1.00  0.00    -0.014 A 
BRANCH  13  14
ATOM     14  C   UNL A   1      42.765  24.718  28.189  1.00  0.00     0.031 A 
ATOM     15  C   UNL A   1      44.179  25.131  28.497  1.00  0.00     0.074 A 
ATOM     16  C   UNL A   1      41.755  25.588  28.378  1.00  0.00     0.049 A 
ATOM     17  N   UNL A   1      44.623  26.283  28.934  1.00  0.00    -0.248 NA
ATOM     18  C   UNL A   1      45.230  24.122  28.294  1.00  0.00     0.031 C 
ATOM     19  C   UNL A   1      40.340  25.308  28.117  1.00  0.00     0.029 A 
ATOM     20  N   UNL A   1      41.763  26.891  28.805  1.00  0.00    -0.354 N 
ATOM     21  C   UNL A   1      45.996  26.130  29.086  1.00  0.00     0.074 A 
ATOM     22  C   UNL A   1      46.310  24.767  28.713  1.00  0.00     0.031 C 
ATOM     23  C   UNL A   1      39.627  26.423  28.331  1.00  0.00     0.029 A 
ATOM     24  C   UNL A   1      40.522  27.476  28.798  1.00  0.00     0.049 A 
ATOM     25  H   UNL A   1      42.581  27.361  29.089  1.00  0.00     0.167 HD
ATOM     26  C   UNL A   1      46.912  27.040  29.496  1.00  0.00     0.031 A 
ATOM     27  C   UNL A   1      40.140  28.722  29.130  1.00  0.00     0.031 A 
ATOM     28  C   UNL A   1      46.603  28.399  29.855  1.00  0.00     0.049 A 
ATOM     29  C   UNL A   1      41.173  29.706  29.593  1.00  0.00     0.074 A 
ATOM     30  C   UNL A   1      47.469  29.408  30.244  1.00  0.00     0.029 A 
ATOM     31  N   UNL A   1      45.327  28.942  29.873  1.00  0.00    -0.354 N 
ATOM     32  N   UNL A   1      42.471  29.554  29.699  1.00  0.00    -0.248 NA
ATOM     33  C   UNL A   1      40.686  31.037  29.982  1.00  0.00     0.031 C 
ATOM     34  C   UNL A   1      46.711  30.546  30.540  1.00  0.00     0.029 A 
ATOM     35  C   UNL A   1      45.379  30.262  30.287  1.00  0.00     0.049 A 
ATOM     36  H   UNL A   1      44.504  28.458  29.628  1.00  0.00     0.167 HD
ATOM     37  C   UNL A   1      42.959  30.774  30.142  1.00  0.00     0.074 A 
ATOM     38  C   UNL A   1      41.819  31.660  30.273  1.00  0.00     0.031 C 
ATOM     39  C   UNL A   1      44.237  31.130  30.415  1.00  0.00     0.031 A 
BRANCH  26  40
ATOM     40  C   UNL A   1      48.340  26.583  29.609  1.00  0.00    -0.014 A 
ATOM     41  C   UNL A   1      49.251  26.753  28.555  1.00  0.00     0.009 A 
ATOM     42  C   UNL A   1      48.788  26.002  30.806  1.00  0.00     0.009 A 
ATOM     43  C   UNL A   1      50.572  26.317  28.686  1.00  0.00     0.001 A 
ATOM     44  C   UNL A   1      50.116  25.591  30.943  1.00  0.00     0.001 A 
ATOM     45  C   UNL A   1      51.004  25.740  29.880  1.00  0.00     0.000 A 
ENDBRANCH  26  40
BRANCH  27  46
ATOM     46  C   UNL A   1      38.712  29.109  29.019  1.00  0.00    -0.014 A 
ATOM     47  C   UNL A   1      37.862  29.018  30.132  1.00  0.00     0.009 A 
ATOM     48  C   UNL A   1      38.197  29.592  27.806  1.00  0.00     0.009 A 
ATOM     49  C   UNL A   1      36.520  29.388  30.027  1.00  0.00     0.001 A 
ATOM     50  C   UNL A   1      36.862  29.986  27.711  1.00  0.00     0.001 A 
ATOM     51  C   UNL A   1      36.022  29.877  28.819  1.00  0.00     0.000 A 
ENDBRANCH  27  46
BRANCH  39  52
ATOM     52  C   UNL A   1      44.472  32.550  30.845  1.00  0.00    -0.014 A 
ATOM     53  C   UNL A   1      44.466  32.912  32.200  1.00  0.00     0.009 A 
ATOM     54  C   UNL A   1      44.718  33.535  29.876  1.00  0.00     0.009 A 
ATOM     55  C   UNL A   1      44.667  34.241  32.575  1.00  0.00     0.001 A 
ATOM     56  C   UNL A   1      44.944  34.859  30.255  1.00  0.00     0.001 A 
ATOM     57  C   UNL A   1      44.909  35.212  31.603  1.00  0.00     0.000 A 
ENDBRANCH  39  52
ENDBRANCH  13  14
ENDBRANCH   6   8
ENDBRANCH   3   4
ENDBRANCH   2   3
ENDBRANCH   1   2
BRANCH   1  58
ATOM     58  C   UNL A   1      35.578  21.246  25.848  1.00  0.00     0.116 C 
BRANCH  58  59
ATOM     59  N   UNL A   1      34.408  20.447  25.548  1.00  0.00    -0.354 N 
ATOM     60  C   UNL A   1      33.119  20.875  25.372  1.00  0.00     0.249 C 
ATOM     61  H   UNL A   1      34.557  19.479  25.459  1.00  0.00     0.163 HD
ATOM     62  O   UNL A   1      32.246  20.029  25.176  1.00  0.00    -0.272 OA
BRANCH  60  63
ATOM     63  C   UNL A   1      32.828  22.388  25.421  1.00  0.00     0.207 C 
ATOM     64  C   UNL A   1      31.694  22.758  26.373  1.00  0.00     0.045 C 
ATOM     65  O   UNL A   1      32.451  22.869  24.115  1.00  0.00    -0.363 OA
ATOM     66  C   UNL A   1      30.939  23.817  25.605  1.00  0.00     0.037 C 
ATOM     67  C   UNL A   1      31.074  23.300  24.186  1.00  0.00     0.138 C 
BRANCH  67  68
ATOM     68  C   UNL A   1      30.761  24.356  23.118  1.00  0.00     0.148 C 
BRANCH  68  69
ATOM     69  N   UNL A   1      31.953  24.701  22.356  1.00  0.00    -0.349 N 
ATOM     70  C   UNL A   1      32.876  25.697  22.490  1.00  0.00     0.251 C 
ATOM     71  H   UNL A   1      32.128  24.098  21.597  1.00  0.00     0.163 HD
ATOM     72  O   UNL A   1      33.722  25.867  21.615  1.00  0.00    -0.269 OA
BRANCH  70  73
ATOM     73  C   UNL A   1      32.860  26.607  23.654  1.00  0.00     0.039 A 
ATOM     74  C   UNL A   1      32.059  27.753  23.692  1.00  0.00     0.015 A 
ATOM     75  C   UNL A   1      33.613  26.240  24.776  1.00  0.00     0.015 A 
ATOM     76  C   UNL A   1      32.060  28.561  24.833  1.00  0.00     0.021 A 
ATOM     77  C   UNL A   1      33.608  27.045  25.917  1.00  0.00     0.021 A 
ATOM     78  C   UNL A   1      32.837  28.206  25.937  1.00  0.00     0.041 A 
ATOM     79  Cl  UNL A   1      32.837  29.204  27.339  1.00  0.00    -0.084 Cl
ENDBRANCH  70  73
ENDBRANCH  68  69
ENDBRANCH  67  68
ENDBRANCH  60  63
ENDBRANCH  58  59
ENDBRANCH   1  58
TORSDOF 14
ENDMDL
MODEL 2
REMARK VINA RESULT:     -11.0      3.906      9.073
REMARK SMILES O=C(NCCCCNC(=O)[C@@H]1CC[C@@H](CNC(=O)c2ccc(Cl)cc2)O1)c1ccc(-c2c3nc(c(-c4ccccc4)c4ccc([nH]4)c(-c4ccccc4)c4nc(c(-c5ccccc5)c5ccc2[nH]5)C=C4)C=C3)cc1
REMARK SMILES IDX 6 1 5 2 4 3 3 4 1 5 2 6 27 8 28 9 74 10 29 11 73 12 30 13
REMARK SMILES IDX 31 14 32 15 67 16 33 17 72 18 66 19 68 20 34 21 71 22 65 23
REMARK SMILES IDX 64 24 35 26 57 27 42 28 56 29 43 30 46 31 55 32 69 33 44 34
REMARK SMILES IDX 45 35 54 37 70 38 47 39 36 40 37 41 41 42 38 43 40 44 39 45
REMARK SMILES IDX 58 46 59 47 63 48 60 49 62 50 61 51 48 52 49 53 53 54 50 55
REMARK SMILES IDX 52 56 51 57 7 58 8 59 9 60 10 62 11 63 12 64 26 65 13 66
REMARK SMILES IDX 14 67 15 68 16 69 17 70 18 72 19 73 20 74 25 75 21 76 24 77
REMARK SMILES IDX 22 78 23 79
REMARK H PARENT 3 7 68 25 46 36 8 61 16 71
REMARK Flexibility Score: inf
ROOT
ATOM      1  C   UNL A   1      31.630  30.316  26.487  1.00  0.00     0.023 C 
ENDROOT
BRANCH   1   2
ATOM      2  C   UNL A   1      31.527  31.841  26.593  1.00  0.00     0.023 C 
BRANCH   2   3
ATOM      3  C   UNL A   1      32.723  32.535  27.236  1.00  0.00     0.116 C 
BRANCH   3   4
ATOM      4  N   UNL A   1      32.437  33.896  27.663  1.00  0.00    -0.352 N 
ATOM      5  O   UNL A   1      32.684  35.781  28.882  1.00  0.00    -0.269 OA
ATOM      6  C   UNL A   1      33.131  34.688  28.546  1.00  0.00     0.251 C 
ATOM      7  H   UNL A   1      31.636  34.306  27.264  1.00  0.00     0.163 HD
BRANCH   6   8
ATOM      8  C   UNL A   1      34.401  34.200  29.124  1.00  0.00     0.039 A 
ATOM      9  C   UNL A   1      35.620  34.472  28.500  1.00  0.00     0.014 A 
ATOM     10  C   UNL A   1      34.364  33.440  30.296  1.00  0.00     0.014 A 
ATOM     11  C   UNL A   1      36.778  33.853  28.955  1.00  0.00     0.010 A 
ATOM     12  C   UNL A   1      35.544  32.883  30.798  1.00  0.00     0.010 A 
ATOM     13  C   UNL A   1      36.753  33.048  30.105  1.00  0.00    -0.014 A 
BRANCH  13  14
ATOM     14  C   UNL A   1      38.006  32.399  30.568  1.00  0.00     0.031 A 
ATOM     15  C   UNL A   1      38.773  32.943  31.742  1.00  0.00     0.074 A 
ATOM     16  C   UNL A   1      38.429  31.282  29.948  1.00  0.00     0.049 A 
ATOM     17  N   UNL A   1      39.852  32.468  32.312  1.00  0.00    -0.248 NA
ATOM     18  C   UNL A   1      38.270  34.182  32.355  1.00  0.00     0.031 C 
ATOM     19  C   UNL A   1      37.773  30.654  28.798  1.00  0.00     0.029 A 
ATOM     20  N   UNL A   1      39.494  30.460  30.213  1.00  0.00    -0.354 N 
ATOM     21  C   UNL A   1      40.174  33.361  33.327  1.00  0.00     0.074 A 
ATOM     22  C   UNL A   1      39.186  34.418  33.283  1.00  0.00     0.031 C 
ATOM     23  C   UNL A   1      38.414  29.516  28.496  1.00  0.00     0.029 A 
ATOM     24  C   UNL A   1      39.555  29.363  29.391  1.00  0.00     0.049 A 
ATOM     25  H   UNL A   1      40.151  30.639  30.925  1.00  0.00     0.167 HD
ATOM     26  C   UNL A   1      41.195  33.305  34.216  1.00  0.00     0.031 A 
ATOM     27  C   UNL A   1      40.432  28.343  29.356  1.00  0.00     0.031 A 
ATOM     28  C   UNL A   1      42.171  32.249  34.268  1.00  0.00     0.049 A 
ATOM     29  C   UNL A   1      41.562  28.313  30.344  1.00  0.00     0.074 A 
ATOM     30  C   UNL A   1      43.219  32.084  35.158  1.00  0.00     0.029 A 
ATOM     31  N   UNL A   1      42.221  31.176  33.391  1.00  0.00    -0.354 N 
ATOM     32  N   UNL A   1      41.830  29.149  31.317  1.00  0.00    -0.248 NA
ATOM     33  C   UNL A   1      42.509  27.196  30.226  1.00  0.00     0.031 C 
ATOM     34  C   UNL A   1      43.930  30.936  34.791  1.00  0.00     0.029 A 
ATOM     35  C   UNL A   1      43.294  30.358  33.704  1.00  0.00     0.049 A 
ATOM     36  H   UNL A   1      41.587  31.018  32.654  1.00  0.00     0.167 HD
ATOM     37  C   UNL A   1      42.961  28.647  31.944  1.00  0.00     0.074 A 
ATOM     38  C   UNL A   1      43.320  27.427  31.248  1.00  0.00     0.031 C 
ATOM     39  C   UNL A   1      43.641  29.150  33.002  1.00  0.00     0.031 A 
BRANCH  26  40
ATOM     40  C   UNL A   1      41.328  34.444  35.188  1.00  0.00    -0.014 A 
ATOM     41  C   UNL A   1      42.080  35.588  34.879  1.00  0.00     0.009 A 
ATOM     42  C   UNL A   1      40.661  34.384  36.422  1.00  0.00     0.009 A 
ATOM     43  C   UNL A   1      42.190  36.632  35.802  1.00  0.00     0.001 A 
ATOM     44  C   UNL A   1      40.752  35.440  37.331  1.00  0.00     0.001 A 
ATOM     45  C   UNL A   1      41.524  36.559  37.024  1.00  0.00     0.000 A 
ENDBRANCH  26  40
BRANCH  27  46
ATOM     46  C   UNL A   1      40.262  27.259  28.358  1.00  0.00    -0.014 A 
ATOM     47  C   UNL A   1      40.885  27.343  27.104  1.00  0.00     0.009 A 
ATOM     48  C   UNL A   1      39.493  26.124  28.663  1.00  0.00     0.009 A 
ATOM     49  C   UNL A   1      40.728  26.319  26.168  1.00  0.00     0.001 A 
ATOM     50  C   UNL A   1      39.360  25.090  27.735  1.00  0.00     0.001 A 
ATOM     51  C   UNL A   1      39.971  25.192  26.485  1.00  0.00     0.000 A 
ENDBRANCH  27  46
BRANCH  39  52
ATOM     52  C   UNL A   1      44.818  28.358  33.493  1.00  0.00    -0.014 A 
ATOM     53  C   UNL A   1      46.114  28.605  33.014  1.00  0.00     0.009 A 
ATOM     54  C   UNL A   1      44.627  27.361  34.462  1.00  0.00     0.009 A 
ATOM     55  C   UNL A   1      47.191  27.843  33.471  1.00  0.00     0.001 A 
ATOM     56  C   UNL A   1      45.710  26.619  34.937  1.00  0.00     0.001 A 
ATOM     57  C   UNL A   1      46.989  26.854  34.433  1.00  0.00     0.000 A 
ENDBRANCH  39  52
ENDBRANCH  13  14
ENDBRANCH   6   8
ENDBRANCH   3   4
ENDBRANCH   2   3
ENDBRANCH   1   2
BRANCH   1  58
ATOM     58  C   UNL A   1      32.233  29.807  25.177  1.00  0.00     0.116 C 
BRANCH  58  59
ATOM     59  N   UNL A   1      31.217  29.626  24.160  1.00  0.00    -0.354 N 
ATOM     60  C   UNL A   1      30.978  28.514  23.398  1.00  0.00     0.249 C 
ATOM     61  H   UNL A   1      30.628  30.397  23.996  1.00  0.00     0.163 HD
ATOM     62  O   UNL A   1      30.097  28.575  22.539  1.00  0.00    -0.272 OA
BRANCH  60  63
ATOM     63  C   UNL A   1      31.813  27.245  23.656  1.00  0.00     0.207 C 
ATOM     64  C   UNL A   1      32.560  26.748  22.422  1.00  0.00     0.045 C 
ATOM     65  O   UNL A   1      30.964  26.165  24.094  1.00  0.00    -0.363 OA
ATOM     66  C   UNL A   1      32.394  25.249  22.506  1.00  0.00     0.037 C 
ATOM     67  C   UNL A   1      30.992  25.143  23.073  1.00  0.00     0.138 C 
BRANCH  67  68
ATOM     68  C   UNL A   1      30.671  23.761  23.656  1.00  0.00     0.148 C 
BRANCH  68  69
ATOM     69  N   UNL A   1      30.560  23.815  25.107  1.00  0.00    -0.349 N 
ATOM     70  C   UNL A   1      31.471  23.644  26.108  1.00  0.00     0.251 C 
ATOM     71  H   UNL A   1      29.650  24.016  25.428  1.00  0.00     0.163 HD
ATOM     72  O   UNL A   1      31.092  23.592  27.275  1.00  0.00    -0.269 OA
BRANCH  70  73
ATOM     73  C   UNL A   1      32.910  23.482  25.816  1.00  0.00     0.039 A 
ATOM     74  C   UNL A   1      33.455  22.259  25.413  1.00  0.00     0.015 A 
ATOM     75  C   UNL A   1      33.717  24.626  25.869  1.00  0.00     0.015 A 
ATOM     76  C   UNL A   1      34.819  22.171  25.118  1.00  0.00     0.021 A 
ATOM     77  C   UNL A   1      35.078  24.538  25.570  1.00  0.00     0.021 A 
ATOM     78  C   UNL A   1      35.624  23.309  25.203  1.00  0.00     0.041 A 
ATOM     79  Cl  UNL A   1      37.303  23.197  24.843  1.00  0.00    -0.084 Cl
ENDBRANCH  70  73
ENDBRANCH  68  69
ENDBRANCH  67  68
ENDBRANCH  60  63
ENDBRANCH  58  59
ENDBRANCH   1  58
TORSDOF 14
ENDMDL
MODEL 3
REMARK VINA RESULT:     -10.9      3.638      8.715
REMARK SMILES O=C(NCCCCNC(=O)[C@@H]1CC[C@@H](CNC(=O)c2ccc(Cl)cc2)O1)c1ccc(-c2c3nc(c(-c4ccccc4)c4ccc([nH]4)c(-c4ccccc4)c4nc(c(-c5ccccc5)c5ccc2[nH]5)C=C4)C=C3)cc1
REMARK SMILES IDX 6 1 5 2 4 3 3 4 1 5 2 6 27 8 28 9 74 10 29 11 73 12 30 13
REMARK SMILES IDX 31 14 32 15 67 16 33 17 72 18 66 19 68 20 34 21 71 22 65 23
REMARK SMILES IDX 64 24 35 26 57 27 42 28 56 29 43 30 46 31 55 32 69 33 44 34
REMARK SMILES IDX 45 35 54 37 70 38 47 39 36 40 37 41 41 42 38 43 40 44 39 45
REMARK SMILES IDX 58 46 59 47 63 48 60 49 62 50 61 51 48 52 49 53 53 54 50 55
REMARK SMILES IDX 52 56 51 57 7 58 8 59 9 60 10 62 11 63 12 64 26 65 13 66
REMARK SMILES IDX 14 67 15 68 16 69 17 70 18 72 19 73 20 74 25 75 21 76 24 77
REMARK SMILES IDX 22 78 23 79
REMARK H PARENT 3 7 68 25 46 36 8 61 16 71
REMARK Flexibility Score: inf
ROOT
ATOM      1  C   UNL A   1      34.413  30.619  27.667  1.00  0.00     0.023 C 
ENDROOT
BRANCH   1   2
ATOM      2  C   UNL A   1      33.107  31.418  27.717  1.00  0.00     0.023 C 
BRANCH   2   3
ATOM      3  C   UNL A   1      33.135  32.763  27.000  1.00  0.00     0.116 C 
BRANCH   3   4
ATOM      4  N   UNL A   1      32.653  33.863  27.822  1.00  0.00    -0.352 N 
ATOM      5  O   UNL A   1      32.623  35.276  29.582  1.00  0.00    -0.269 OA
ATOM      6  C   UNL A   1      33.225  34.422  28.939  1.00  0.00     0.251 C 
ATOM      7  H   UNL A   1      31.799  34.262  27.538  1.00  0.00     0.163 HD
BRANCH   6   8
ATOM      8  C   UNL A   1      34.555  33.959  29.390  1.00  0.00     0.039 A 
ATOM      9  C   UNL A   1      35.709  34.315  28.691  1.00  0.00     0.014 A 
ATOM     10  C   UNL A   1      34.640  33.136  30.517  1.00  0.00     0.014 A 
ATOM     11  C   UNL A   1      36.923  33.723  29.019  1.00  0.00     0.010 A 
ATOM     12  C   UNL A   1      35.876  32.604  30.894  1.00  0.00     0.010 A 
ATOM     13  C   UNL A   1      37.019  32.857  30.121  1.00  0.00    -0.014 A 
BRANCH  13  14
ATOM     14  C   UNL A   1      38.329  32.238  30.449  1.00  0.00     0.031 A 
ATOM     15  C   UNL A   1      39.240  32.851  31.477  1.00  0.00     0.074 A 
ATOM     16  C   UNL A   1      38.677  31.088  29.843  1.00  0.00     0.049 A 
ATOM     17  N   UNL A   1      40.391  32.412  31.924  1.00  0.00    -0.248 NA
ATOM     18  C   UNL A   1      38.811  34.123  32.079  1.00  0.00     0.031 C 
ATOM     19  C   UNL A   1      37.880  30.393  28.829  1.00  0.00     0.029 A 
ATOM     20  N   UNL A   1      39.776  30.284  30.010  1.00  0.00    -0.354 N 
ATOM     21  C   UNL A   1      40.835  33.363  32.834  1.00  0.00     0.074 A 
ATOM     22  C   UNL A   1      39.841  34.414  32.862  1.00  0.00     0.031 C 
ATOM     23  C   UNL A   1      38.485  29.240  28.510  1.00  0.00     0.029 A 
ATOM     24  C   UNL A   1      39.737  29.141  29.252  1.00  0.00     0.049 A 
ATOM     25  H   UNL A   1      40.519  30.506  30.617  1.00  0.00     0.167 HD
ATOM     26  C   UNL A   1      41.966  33.361  33.580  1.00  0.00     0.031 A 
ATOM     27  C   UNL A   1      40.611  28.123  29.159  1.00  0.00     0.031 A 
ATOM     28  C   UNL A   1      42.950  32.311  33.562  1.00  0.00     0.049 A 
ATOM     29  C   UNL A   1      41.862  28.153  29.987  1.00  0.00     0.074 A 
ATOM     30  C   UNL A   1      44.110  32.201  34.313  1.00  0.00     0.029 A 
ATOM     31  N   UNL A   1      42.894  31.189  32.750  1.00  0.00    -0.354 N 
ATOM     32  N   UNL A   1      42.249  29.044  30.867  1.00  0.00    -0.248 NA
ATOM     33  C   UNL A   1      42.796  27.032  29.808  1.00  0.00     0.031 C 
ATOM     34  C   UNL A   1      44.776  31.034  33.921  1.00  0.00     0.029 A 
ATOM     35  C   UNL A   1      44.007  30.393  32.964  1.00  0.00     0.049 A 
ATOM     36  H   UNL A   1      42.169  30.988  32.114  1.00  0.00     0.167 HD
ATOM     37  C   UNL A   1      43.459  28.581  31.364  1.00  0.00     0.074 A 
ATOM     38  C   UNL A   1      43.734  27.323  30.698  1.00  0.00     0.031 C 
ATOM     39  C   UNL A   1      44.268  29.146  32.291  1.00  0.00     0.031 A 
BRANCH  26  40
ATOM     40  C   UNL A   1      42.217  34.555  34.459  1.00  0.00    -0.014 A 
ATOM     41  C   UNL A   1      41.809  34.576  35.802  1.00  0.00     0.009 A 
ATOM     42  C   UNL A   1      42.905  35.664  33.942  1.00  0.00     0.009 A 
ATOM     43  C   UNL A   1      42.053  35.699  36.597  1.00  0.00     0.001 A 
ATOM     44  C   UNL A   1      43.170  36.774  34.747  1.00  0.00     0.001 A 
ATOM     45  C   UNL A   1      42.736  36.795  36.071  1.00  0.00     0.000 A 
ENDBRANCH  26  40
BRANCH  27  46
ATOM     46  C   UNL A   1      40.320  26.982  28.256  1.00  0.00    -0.014 A 
ATOM     47  C   UNL A   1      40.830  26.961  26.950  1.00  0.00     0.009 A 
ATOM     48  C   UNL A   1      39.548  25.898  28.704  1.00  0.00     0.009 A 
ATOM     49  C   UNL A   1      40.559  25.885  26.103  1.00  0.00     0.001 A 
ATOM     50  C   UNL A   1      39.302  24.811  27.865  1.00  0.00     0.001 A 
ATOM     51  C   UNL A   1      39.800  24.808  26.563  1.00  0.00     0.000 A 
ENDBRANCH  27  46
BRANCH  39  52
ATOM     52  C   UNL A   1      45.509  28.387  32.666  1.00  0.00    -0.014 A 
ATOM     53  C   UNL A   1      46.725  28.603  32.001  1.00  0.00     0.009 A 
ATOM     54  C   UNL A   1      45.459  27.453  33.712  1.00  0.00     0.009 A 
ATOM     55  C   UNL A   1      47.860  27.871  32.353  1.00  0.00     0.001 A 
ATOM     56  C   UNL A   1      46.602  26.741  34.080  1.00  0.00     0.001 A 
ATOM     57  C   UNL A   1      47.799  26.944  33.393  1.00  0.00     0.000 A 
ENDBRANCH  39  52
ENDBRANCH  13  14
ENDBRANCH   6   8
ENDBRANCH   3   4
ENDBRANCH   2   3
ENDBRANCH   1   2
BRANCH   1  58
ATOM     58  C   UNL A   1      34.251  29.157  27.248  1.00  0.00     0.116 C 
BRANCH  58  59
ATOM     59  N   UNL A   1      33.031  28.584  27.776  1.00  0.00    -0.354 N 
ATOM     60  C   UNL A   1      32.029  27.955  27.087  1.00  0.00     0.249 C 
ATOM     61  H   UNL A   1      32.905  28.656  28.750  1.00  0.00     0.163 HD
ATOM     62  O   UNL A   1      31.036  27.582  27.713  1.00  0.00    -0.272 OA
BRANCH  60  63
ATOM     63  C   UNL A   1      32.196  27.739  25.570  1.00  0.00     0.207 C 
ATOM     64  C   UNL A   1      31.306  28.646  24.725  1.00  0.00     0.045 C 
ATOM     65  O   UNL A   1      31.864  26.381  25.216  1.00  0.00    -0.363 OA
ATOM     66  C   UNL A   1      30.829  27.725  23.627  1.00  0.00     0.037 C 
ATOM     67  C   UNL A   1      30.684  26.420  24.384  1.00  0.00     0.138 C 
BRANCH  67  68
ATOM     68  C   UNL A   1      30.602  25.189  23.471  1.00  0.00     0.148 C 
BRANCH  68  69
ATOM     69  N   UNL A   1      31.456  25.345  22.302  1.00  0.00    -0.349 N 
ATOM     70  C   UNL A   1      32.733  24.946  22.034  1.00  0.00     0.251 C 
ATOM     71  H   UNL A   1      31.028  25.831  21.560  1.00  0.00     0.163 HD
ATOM     72  O   UNL A   1      33.292  25.336  21.012  1.00  0.00    -0.269 OA
BRANCH  70  73
ATOM     73  C   UNL A   1      33.478  24.079  22.970  1.00  0.00     0.039 A 
ATOM     74  C   UNL A   1      34.469  24.580  23.820  1.00  0.00     0.015 A 
ATOM     75  C   UNL A   1      33.101  22.733  23.050  1.00  0.00     0.015 A 
ATOM     76  C   UNL A   1      35.121  23.719  24.708  1.00  0.00     0.021 A 
ATOM     77  C   UNL A   1      33.749  21.875  23.941  1.00  0.00     0.021 A 
ATOM     78  C   UNL A   1      34.761  22.370  24.761  1.00  0.00     0.041 A 
ATOM     79  Cl  UNL A   1      35.566  21.313  25.854  1.00  0.00    -0.084 Cl
ENDBRANCH  70  73
ENDBRANCH  68  69
ENDBRANCH  67  68
ENDBRANCH  60  63
ENDBRANCH  58  59
ENDBRANCH   1  58
TORSDOF 14
ENDMDL
