MODEL 1
REMARK VINA RESULT:      -9.8      0.000      0.000
REMARK SMILES O=C(NCCCCNC(=O)c1ccc(-c2c3nc(c(-c4ccccc4)c4ccc([nH]4)c(-c4ccccc4)c4nc(c(-c5ccccc5)c5ccc2[nH]5)C=C4)C=C3)cc1)c1ccc(/C=C/c2ccnc(-c3cccc([N+](=O)[O-])c3)[n+]2[O-])cc1
REMARK SMILES IDX 4 1 3 2 1 3 2 4 59 6 60 7 82 8 61 9 81 10 62 11 63 12 64 13
REMARK SMILES IDX 65 14 66 15 79 16 67 17 69 18 80 19 68 20 70 21 71 22 78 23
REMARK SMILES IDX 72 24 74 25 73 26 75 27 76 28 77 29 5 30 6 31 7 32 8 33 9 34
REMARK SMILES IDX 10 36 11 37 12 38 58 39 13 40 57 41 14 42 15 43 16 44 51 45
REMARK SMILES IDX 17 46 56 47 50 48 52 49 18 50 55 51 49 52 48 53 19 55 41 56
REMARK SMILES IDX 26 57 40 58 27 59 30 60 39 61 53 62 28 63 29 64 38 66 54 67
REMARK SMILES IDX 31 68 20 69 21 70 25 71 22 72 24 73 23 74 42 75 43 76 47 77
REMARK SMILES IDX 44 78 46 79 45 80 32 81 33 82 37 83 34 84 36 85 35 86
REMARK H PARENT 3 5 8 35 52 54 30 65
REMARK Flexibility Score: inf
ROOT
ATOM      1  C   UNL A   1      34.855  32.692  32.266  1.00  0.00     0.116 C 
ENDROOT
BRANCH   1   2
ATOM      2  N   UNL A   1      34.264  33.012  30.975  1.00  0.00    -0.352 N 
ATOM      3  O   UNL A   1      34.205  33.193  28.719  1.00  0.00    -0.269 OA
ATOM      4  C   UNL A   1      34.764  32.760  29.721  1.00  0.00     0.251 C 
ATOM      5  H   UNL A   1      33.392  33.467  31.005  1.00  0.00     0.163 HD
BRANCH   4   6
ATOM      6  C   UNL A   1      36.006  31.976  29.595  1.00  0.00     0.039 A 
ATOM      7  C   UNL A   1      37.249  32.609  29.671  1.00  0.00     0.014 A 
ATOM      8  C   UNL A   1      35.923  30.606  29.354  1.00  0.00     0.014 A 
ATOM      9  C   UNL A   1      38.410  31.881  29.407  1.00  0.00     0.009 A 
ATOM     10  C   UNL A   1      37.089  29.883  29.095  1.00  0.00     0.009 A 
ATOM     11  C   UNL A   1      38.344  30.519  29.081  1.00  0.00    -0.025 A 
BRANCH  11  12
ATOM     12  C   UNL A   1      39.531  29.717  28.739  1.00  0.00     0.012 C 
ATOM     13  C   UNL A   1      39.746  29.117  27.557  1.00  0.00     0.053 C 
BRANCH  13  14
ATOM     14  C   UNL A   1      40.959  28.333  27.269  1.00  0.00     0.134 A 
ATOM     15  C   UNL A   1      41.985  28.944  26.547  1.00  0.00     0.100 A 
ATOM     16  N   UNL A   1      41.077  26.998  27.687  1.00  0.00    -0.228 N 
ATOM     17  C   UNL A   1      43.120  28.211  26.297  1.00  0.00     0.259 A 
ATOM     18  C   UNL A   1      42.259  26.322  27.371  1.00  0.00     0.333 A 
ATOM     19  O   UNL A   1      40.128  26.420  28.328  1.00  0.00    -0.710 OA
ATOM     20  N   UNL A   1      43.281  26.939  26.696  1.00  0.00    -0.049 NA
BRANCH  18  21
ATOM     21  C   UNL A   1      42.449  24.910  27.715  1.00  0.00     0.076 A 
ATOM     22  C   UNL A   1      42.986  24.544  28.962  1.00  0.00     0.017 A 
ATOM     23  C   UNL A   1      42.149  23.892  26.794  1.00  0.00     0.102 A 
ATOM     24  C   UNL A   1      43.199  23.203  29.295  1.00  0.00     0.008 A 
ATOM     25  C   UNL A   1      42.380  22.548  27.123  1.00  0.00     0.270 A 
ATOM     26  C   UNL A   1      42.900  22.198  28.375  1.00  0.00     0.085 A 
BRANCH  25  27
ATOM     27  N   UNL A   1      42.100  21.500  26.135  1.00  0.00     0.062 N 
ATOM     28  O   UNL A   1      43.011  21.183  25.357  1.00  0.00    -0.258 OA
ATOM     29  O   UNL A   1      40.962  21.009  26.122  1.00  0.00    -0.258 OA
ENDBRANCH  25  27
ENDBRANCH  18  21
ENDBRANCH  13  14
ENDBRANCH  11  12
ENDBRANCH   4   6
ENDBRANCH   1   2
BRANCH   1  30
ATOM     30  C   UNL A   1      35.252  33.935  33.056  1.00  0.00     0.023 C 
BRANCH  30  31
ATOM     31  C   UNL A   1      36.533  34.624  32.591  1.00  0.00     0.023 C 
BRANCH  31  32
ATOM     32  C   UNL A   1      37.719  34.521  33.545  1.00  0.00     0.116 C 
BRANCH  32  33
ATOM     33  N   UNL A   1      37.397  33.847  34.795  1.00  0.00    -0.352 N 
ATOM     34  C   UNL A   1      37.861  32.650  35.285  1.00  0.00     0.251 C 
ATOM     35  H   UNL A   1      36.755  34.319  35.374  1.00  0.00     0.163 HD
ATOM     36  O   UNL A   1      37.400  32.184  36.321  1.00  0.00    -0.269 OA
BRANCH  34  37
ATOM     37  C   UNL A   1      38.890  31.899  34.535  1.00  0.00     0.039 A 
ATOM     38  C   UNL A   1      38.489  31.086  33.471  1.00  0.00     0.014 A 
ATOM     39  C   UNL A   1      40.244  32.021  34.856  1.00  0.00     0.014 A 
ATOM     40  C   UNL A   1      39.453  30.467  32.673  1.00  0.00     0.010 A 
ATOM     41  C   UNL A   1      41.204  31.460  34.019  1.00  0.00     0.010 A 
ATOM     42  C   UNL A   1      40.819  30.688  32.912  1.00  0.00    -0.014 A 
BRANCH  42  43
ATOM     43  C   UNL A   1      41.861  30.146  32.003  1.00  0.00     0.031 A 
ATOM     44  C   UNL A   1      42.509  28.823  32.295  1.00  0.00     0.074 A 
ATOM     45  C   UNL A   1      42.284  30.887  30.960  1.00  0.00     0.049 A 
ATOM     46  N   UNL A   1      43.499  28.234  31.673  1.00  0.00    -0.248 NA
ATOM     47  C   UNL A   1      41.993  28.074  33.452  1.00  0.00     0.031 C 
ATOM     48  C   UNL A   1      41.767  32.206  30.587  1.00  0.00     0.029 A 
ATOM     49  N   UNL A   1      43.259  30.638  30.026  1.00  0.00    -0.354 N 
ATOM     50  C   UNL A   1      43.739  27.060  32.374  1.00  0.00     0.074 A 
ATOM     51  C   UNL A   1      42.818  27.037  33.490  1.00  0.00     0.031 C 
ATOM     52  C   UNL A   1      42.414  32.639  29.494  1.00  0.00     0.029 A 
ATOM     53  C   UNL A   1      43.418  31.651  29.112  1.00  0.00     0.049 A 
ATOM     54  H   UNL A   1      43.795  29.812  30.013  1.00  0.00     0.167 HD
ATOM     55  C   UNL A   1      44.634  26.081  32.106  1.00  0.00     0.031 A 
ATOM     56  C   UNL A   1      44.281  31.777  28.086  1.00  0.00     0.031 A 
ATOM     57  C   UNL A   1      45.540  26.090  30.990  1.00  0.00     0.049 A 
ATOM     58  C   UNL A   1      45.270  30.680  27.815  1.00  0.00     0.074 A 
ATOM     59  C   UNL A   1      46.441  25.113  30.602  1.00  0.00     0.029 A 
ATOM     60  N   UNL A   1      45.659  27.129  30.080  1.00  0.00    -0.354 N 
ATOM     61  N   UNL A   1      45.443  29.548  28.454  1.00  0.00    -0.248 NA
ATOM     62  C   UNL A   1      46.180  30.876  26.677  1.00  0.00     0.031 C 
ATOM     63  C   UNL A   1      47.135  25.579  29.481  1.00  0.00     0.029 A 
ATOM     64  C   UNL A   1      46.633  26.826  29.144  1.00  0.00     0.049 A 
ATOM     65  H   UNL A   1      45.129  27.959  30.097  1.00  0.00     0.167 HD
ATOM     66  C   UNL A   1      46.463  28.888  27.782  1.00  0.00     0.074 A 
ATOM     67  C   UNL A   1      46.862  29.739  26.679  1.00  0.00     0.031 C 
ATOM     68  C   UNL A   1      47.019  27.683  28.054  1.00  0.00     0.031 A 
BRANCH  55  69
ATOM     69  C   UNL A   1      44.678  24.912  33.048  1.00  0.00    -0.014 A 
ATOM     70  C   UNL A   1      43.884  23.774  32.833  1.00  0.00     0.009 A 
ATOM     71  C   UNL A   1      45.549  24.934  34.149  1.00  0.00     0.009 A 
ATOM     72  C   UNL A   1      43.935  22.697  33.719  1.00  0.00     0.001 A 
ATOM     73  C   UNL A   1      45.617  23.845  35.020  1.00  0.00     0.001 A 
ATOM     74  C   UNL A   1      44.804  22.732  34.809  1.00  0.00     0.000 A 
ENDBRANCH  55  69
BRANCH  56  75
ATOM     75  C   UNL A   1      44.241  32.987  27.226  1.00  0.00    -0.014 A 
ATOM     76  C   UNL A   1      43.766  32.902  25.908  1.00  0.00     0.009 A 
ATOM     77  C   UNL A   1      44.681  34.227  27.713  1.00  0.00     0.009 A 
ATOM     78  C   UNL A   1      43.753  34.033  25.088  1.00  0.00     0.001 A 
ATOM     79  C   UNL A   1      44.643  35.360  26.898  1.00  0.00     0.001 A 
ATOM     80  C   UNL A   1      44.188  35.261  25.584  1.00  0.00     0.000 A 
ENDBRANCH  56  75
BRANCH  68  81
ATOM     81  C   UNL A   1      48.096  27.199  27.127  1.00  0.00    -0.014 A 
ATOM     82  C   UNL A   1      49.452  27.427  27.409  1.00  0.00     0.009 A 
ATOM     83  C   UNL A   1      47.750  26.469  25.980  1.00  0.00     0.009 A 
ATOM     84  C   UNL A   1      50.439  26.955  26.541  1.00  0.00     0.001 A 
ATOM     85  C   UNL A   1      48.740  25.978  25.129  1.00  0.00     0.001 A 
ATOM     86  C   UNL A   1      50.083  26.228  25.406  1.00  0.00     0.000 A 
ENDBRANCH  68  81
ENDBRANCH  42  43
ENDBRANCH  34  37
ENDBRANCH  32  33
ENDBRANCH  31  32
ENDBRANCH  30  31
ENDBRANCH   1  30
TORSDOF 15
ENDMDL
MODEL 2
REMARK VINA RESULT:      -9.3      2.362      9.631
REMARK SMILES O=C(NCCCCNC(=O)c1ccc(-c2c3nc(c(-c4ccccc4)c4ccc([nH]4)c(-c4ccccc4)c4nc(c(-c5ccccc5)c5ccc2[nH]5)C=C4)C=C3)cc1)c1ccc(/C=C/c2ccnc(-c3cccc([N+](=O)[O-])c3)[n+]2[O-])cc1
REMARK SMILES IDX 4 1 3 2 1 3 2 4 59 6 60 7 82 8 61 9 81 10 62 11 63 12 64 13
REMARK SMILES IDX 65 14 66 15 79 16 67 17 69 18 80 19 68 20 70 21 71 22 78 23
REMARK SMILES IDX 72 24 74 25 73 26 75 27 76 28 77 29 5 30 6 31 7 32 8 33 9 34
REMARK SMILES IDX 10 36 11 37 12 38 58 39 13 40 57 41 14 42 15 43 16 44 51 45
REMARK SMILES IDX 17 46 56 47 50 48 52 49 18 50 55 51 49 52 48 53 19 55 41 56
REMARK SMILES IDX 26 57 40 58 27 59 30 60 39 61 53 62 28 63 29 64 38 66 54 67
REMARK SMILES IDX 31 68 20 69 21 70 25 71 22 72 24 73 23 74 42 75 43 76 47 77
REMARK SMILES IDX 44 78 46 79 45 80 32 81 33 82 37 83 34 84 36 85 35 86
REMARK H PARENT 3 5 8 35 52 54 30 65
REMARK Flexibility Score: inf
ROOT
ATOM      1  C   UNL A   1      43.830  23.182  24.822  1.00  0.00     0.116 C 
ENDROOT
BRANCH   1   2
ATOM      2  N   UNL A   1      42.776  22.207  25.060  1.00  0.00    -0.352 N 
ATOM      3  O   UNL A   1      40.988  21.317  26.126  1.00  0.00    -0.269 OA
ATOM      4  C   UNL A   1      41.737  22.273  25.956  1.00  0.00     0.251 C 
ATOM      5  H   UNL A   1      42.813  21.394  24.506  1.00  0.00     0.163 HD
BRANCH   4   6
ATOM      6  C   UNL A   1      41.548  23.511  26.735  1.00  0.00     0.039 A 
ATOM      7  C   UNL A   1      42.316  23.747  27.877  1.00  0.00     0.014 A 
ATOM      8  C   UNL A   1      40.563  24.415  26.344  1.00  0.00     0.014 A 
ATOM      9  C   UNL A   1      42.029  24.849  28.685  1.00  0.00     0.009 A 
ATOM     10  C   UNL A   1      40.284  25.518  27.154  1.00  0.00     0.009 A 
ATOM     11  C   UNL A   1      40.988  25.728  28.353  1.00  0.00    -0.025 A 
BRANCH  11  12
ATOM     12  C   UNL A   1      40.605  26.873  29.198  1.00  0.00     0.012 C 
ATOM     13  C   UNL A   1      39.387  27.072  29.727  1.00  0.00     0.053 C 
BRANCH  13  14
ATOM     14  C   UNL A   1      39.065  28.234  30.572  1.00  0.00     0.134 A 
ATOM     15  C   UNL A   1      39.163  28.092  31.957  1.00  0.00     0.100 A 
ATOM     16  N   UNL A   1      38.647  29.450  30.007  1.00  0.00    -0.228 N 
ATOM     17  C   UNL A   1      38.877  29.185  32.738  1.00  0.00     0.259 A 
ATOM     18  C   UNL A   1      38.357  30.504  30.879  1.00  0.00     0.333 A 
ATOM     19  O   UNL A   1      38.529  29.582  28.737  1.00  0.00    -0.710 OA
ATOM     20  N   UNL A   1      38.493  30.371  32.236  1.00  0.00    -0.049 NA
BRANCH  18  21
ATOM     21  C   UNL A   1      37.859  31.790  30.386  1.00  0.00     0.076 A 
ATOM     22  C   UNL A   1      38.754  32.783  29.947  1.00  0.00     0.017 A 
ATOM     23  C   UNL A   1      36.485  32.085  30.382  1.00  0.00     0.102 A 
ATOM     24  C   UNL A   1      38.296  34.026  29.500  1.00  0.00     0.008 A 
ATOM     25  C   UNL A   1      36.030  33.338  29.950  1.00  0.00     0.270 A 
ATOM     26  C   UNL A   1      36.931  34.311  29.501  1.00  0.00     0.085 A 
BRANCH  25  27
ATOM     27  N   UNL A   1      34.595  33.644  29.992  1.00  0.00     0.062 N 
ATOM     28  O   UNL A   1      34.038  33.944  28.926  1.00  0.00    -0.258 OA
ATOM     29  O   UNL A   1      34.028  33.604  31.093  1.00  0.00    -0.258 OA
ENDBRANCH  25  27
ENDBRANCH  18  21
ENDBRANCH  13  14
ENDBRANCH  11  12
ENDBRANCH   4   6
ENDBRANCH   1   2
BRANCH   1  30
ATOM     30  C   UNL A   1      45.106  22.873  25.599  1.00  0.00     0.023 C 
BRANCH  30  31
ATOM     31  C   UNL A   1      46.404  23.314  24.926  1.00  0.00     0.023 C 
BRANCH  31  32
ATOM     32  C   UNL A   1      47.042  24.578  25.494  1.00  0.00     0.116 C 
BRANCH  32  33
ATOM     33  N   UNL A   1      47.137  25.660  24.526  1.00  0.00    -0.352 N 
ATOM     34  C   UNL A   1      46.701  26.960  24.625  1.00  0.00     0.251 C 
ATOM     35  H   UNL A   1      47.579  25.429  23.677  1.00  0.00     0.163 HD
ATOM     36  O   UNL A   1      46.778  27.715  23.662  1.00  0.00    -0.269 OA
BRANCH  34  37
ATOM     37  C   UNL A   1      46.096  27.437  25.888  1.00  0.00     0.039 A 
ATOM     38  C   UNL A   1      46.920  28.035  26.845  1.00  0.00     0.014 A 
ATOM     39  C   UNL A   1      44.722  27.327  26.112  1.00  0.00     0.014 A 
ATOM     40  C   UNL A   1      46.354  28.602  27.988  1.00  0.00     0.010 A 
ATOM     41  C   UNL A   1      44.151  27.953  27.216  1.00  0.00     0.010 A 
ATOM     42  C   UNL A   1      44.959  28.608  28.158  1.00  0.00    -0.014 A 
BRANCH  42  43
ATOM     43  C   UNL A   1      44.322  29.315  29.298  1.00  0.00     0.031 A 
ATOM     44  C   UNL A   1      43.967  28.567  30.552  1.00  0.00     0.074 A 
ATOM     45  C   UNL A   1      43.987  30.613  29.171  1.00  0.00     0.049 A 
ATOM     46  N   UNL A   1      43.324  28.990  31.610  1.00  0.00    -0.248 NA
ATOM     47  C   UNL A   1      44.366  27.152  30.614  1.00  0.00     0.031 C 
ATOM     48  C   UNL A   1      44.238  31.447  27.993  1.00  0.00     0.029 A 
ATOM     49  N   UNL A   1      43.347  31.459  30.044  1.00  0.00    -0.354 N 
ATOM     50  C   UNL A   1      43.221  27.891  32.453  1.00  0.00     0.074 A 
ATOM     51  C   UNL A   1      43.833  26.773  31.768  1.00  0.00     0.031 C 
ATOM     52  C   UNL A   1      43.778  32.686  28.225  1.00  0.00     0.029 A 
ATOM     53  C   UNL A   1      43.164  32.726  29.548  1.00  0.00     0.049 A 
ATOM     54  H   UNL A   1      43.047  31.182  30.940  1.00  0.00     0.167 HD
ATOM     55  C   UNL A   1      42.679  27.820  33.692  1.00  0.00     0.031 A 
ATOM     56  C   UNL A   1      42.559  33.800  30.091  1.00  0.00     0.031 A 
ATOM     57  C   UNL A   1      42.085  28.931  34.384  1.00  0.00     0.049 A 
ATOM     58  C   UNL A   1      41.958  33.693  31.463  1.00  0.00     0.074 A 
ATOM     59  C   UNL A   1      41.565  28.970  35.667  1.00  0.00     0.029 A 
ATOM     60  N   UNL A   1      41.931  30.202  33.850  1.00  0.00    -0.354 N 
ATOM     61  N   UNL A   1      41.923  32.661  32.271  1.00  0.00    -0.248 NA
ATOM     62  C   UNL A   1      41.320  34.902  32.002  1.00  0.00     0.031 C 
ATOM     63  C   UNL A   1      41.059  30.254  35.894  1.00  0.00     0.029 A 
ATOM     64  C   UNL A   1      41.306  31.026  34.770  1.00  0.00     0.049 A 
ATOM     65  H   UNL A   1      42.223  30.477  32.951  1.00  0.00     0.167 HD
ATOM     66  C   UNL A   1      41.280  33.102  33.419  1.00  0.00     0.074 A 
ATOM     67  C   UNL A   1      40.955  34.499  33.211  1.00  0.00     0.031 C 
ATOM     68  C   UNL A   1      40.988  32.412  34.547  1.00  0.00     0.031 A 
BRANCH  55  69
ATOM     69  C   UNL A   1      42.703  26.485  34.378  1.00  0.00    -0.014 A 
ATOM     70  C   UNL A   1      43.904  25.779  34.552  1.00  0.00     0.009 A 
ATOM     71  C   UNL A   1      41.514  25.939  34.886  1.00  0.00     0.009 A 
ATOM     72  C   UNL A   1      43.909  24.537  35.191  1.00  0.00     0.001 A 
ATOM     73  C   UNL A   1      41.525  24.709  35.546  1.00  0.00     0.001 A 
ATOM     74  C   UNL A   1      42.721  24.006  35.690  1.00  0.00     0.000 A 
ENDBRANCH  55  69
BRANCH  56  75
ATOM     75  C   UNL A   1      42.502  35.080  29.339  1.00  0.00    -0.014 A 
ATOM     76  C   UNL A   1      43.485  36.061  29.539  1.00  0.00     0.009 A 
ATOM     77  C   UNL A   1      41.466  35.329  28.427  1.00  0.00     0.009 A 
ATOM     78  C   UNL A   1      43.418  37.276  28.854  1.00  0.00     0.001 A 
ATOM     79  C   UNL A   1      41.416  36.535  27.726  1.00  0.00     0.001 A 
ATOM     80  C   UNL A   1      42.387  37.512  27.946  1.00  0.00     0.000 A 
ENDBRANCH  56  75
BRANCH  68  81
ATOM     81  C   UNL A   1      40.308  33.163  35.655  1.00  0.00    -0.014 A 
ATOM     82  C   UNL A   1      41.047  33.922  36.577  1.00  0.00     0.009 A 
ATOM     83  C   UNL A   1      38.908  33.145  35.752  1.00  0.00     0.009 A 
ATOM     84  C   UNL A   1      40.394  34.626  37.591  1.00  0.00     0.001 A 
ATOM     85  C   UNL A   1      38.259  33.869  36.751  1.00  0.00     0.001 A 
ATOM     86  C   UNL A   1      39.002  34.603  37.674  1.00  0.00     0.000 A 
ENDBRANCH  68  81
ENDBRANCH  42  43
ENDBRANCH  34  37
ENDBRANCH  32  33
ENDBRANCH  31  32
ENDBRANCH  30  31
ENDBRANCH   1  30
TORSDOF 15
ENDMDL
MODEL 3
REMARK VINA RESULT:      -9.2      2.422     11.173
REMARK SMILES O=C(NCCCCNC(=O)c1ccc(-c2c3nc(c(-c4ccccc4)c4ccc([nH]4)c(-c4ccccc4)c4nc(c(-c5ccccc5)c5ccc2[nH]5)C=C4)C=C3)cc1)c1ccc(/C=C/c2ccnc(-c3cccc([N+](=O)[O-])c3)[n+]2[O-])cc1
REMARK SMILES IDX 4 1 3 2 1 3 2 4 59 6 60 7 82 8 61 9 81 10 62 11 63 12 64 13
REMARK SMILES IDX 65 14 66 15 79 16 67 17 69 18 80 19 68 20 70 21 71 22 78 23
REMARK SMILES IDX 72 24 74 25 73 26 75 27 76 28 77 29 5 30 6 31 7 32 8 33 9 34
REMARK SMILES IDX 10 36 11 37 12 38 58 39 13 40 57 41 14 42 15 43 16 44 51 45
REMARK SMILES IDX 17 46 56 47 50 48 52 49 18 50 55 51 49 52 48 53 19 55 41 56
REMARK SMILES IDX 26 57 40 58 27 59 30 60 39 61 53 62 28 63 29 64 38 66 54 67
REMARK SMILES IDX 31 68 20 69 21 70 25 71 22 72 24 73 23 74 42 75 43 76 47 77
REMARK SMILES IDX 44 78 46 79 45 80 32 81 33 82 37 83 34 84 36 85 35 86
REMARK H PARENT 3 5 8 35 52 54 30 65
REMARK Flexibility Score: inf
ROOT
ATOM      1  C   UNL A   1      43.856  23.246  24.665  1.00  0.00     0.116 C 
ENDROOT
BRANCH   1   2
ATOM      2  N   UNL A   1      42.878  22.215  24.977  1.00  0.00    -0.352 N 
ATOM      3  O   UNL A   1      41.229  21.227  26.173  1.00  0.00    -0.269 OA
ATOM      4  C   UNL A   1      41.910  22.222  25.951  1.00  0.00     0.251 C 
ATOM      5  H   UNL A   1      42.915  21.407  24.417  1.00  0.00     0.163 HD
BRANCH   4   6
ATOM      6  C   UNL A   1      41.716  23.445  26.751  1.00  0.00     0.039 A 
ATOM      7  C   UNL A   1      42.574  23.735  27.815  1.00  0.00     0.014 A 
ATOM      8  C   UNL A   1      40.639  24.281  26.462  1.00  0.00     0.014 A 
ATOM      9  C   UNL A   1      42.294  24.816  28.652  1.00  0.00     0.009 A 
ATOM     10  C   UNL A   1      40.368  25.364  27.302  1.00  0.00     0.009 A 
ATOM     11  C   UNL A   1      41.170  25.623  28.428  1.00  0.00    -0.025 A 
BRANCH  11  12
ATOM     12  C   UNL A   1      40.796  26.741  29.311  1.00  0.00     0.012 C 
ATOM     13  C   UNL A   1      39.544  27.181  29.517  1.00  0.00     0.053 C 
BRANCH  13  14
ATOM     14  C   UNL A   1      39.229  28.301  30.419  1.00  0.00     0.134 A 
ATOM     15  C   UNL A   1      39.426  28.121  31.789  1.00  0.00     0.100 A 
ATOM     16  N   UNL A   1      38.723  29.514  29.924  1.00  0.00    -0.228 N 
ATOM     17  C   UNL A   1      39.147  29.176  32.624  1.00  0.00     0.259 A 
ATOM     18  C   UNL A   1      38.447  30.526  30.847  1.00  0.00     0.333 A 
ATOM     19  O   UNL A   1      38.514  29.679  28.670  1.00  0.00    -0.710 OA
ATOM     20  N   UNL A   1      38.680  30.358  32.188  1.00  0.00    -0.049 NA
BRANCH  18  21
ATOM     21  C   UNL A   1      37.863  31.804  30.432  1.00  0.00     0.076 A 
ATOM     22  C   UNL A   1      38.615  32.723  29.677  1.00  0.00     0.017 A 
ATOM     23  C   UNL A   1      36.560  32.165  30.814  1.00  0.00     0.102 A 
ATOM     24  C   UNL A   1      38.081  33.957  29.296  1.00  0.00     0.008 A 
ATOM     25  C   UNL A   1      36.033  33.411  30.445  1.00  0.00     0.270 A 
ATOM     26  C   UNL A   1      36.788  34.309  29.680  1.00  0.00     0.085 A 
BRANCH  25  27
ATOM     27  N   UNL A   1      34.686  33.790  30.888  1.00  0.00     0.062 N 
ATOM     28  O   UNL A   1      34.087  33.009  31.642  1.00  0.00    -0.258 OA
ATOM     29  O   UNL A   1      34.218  34.857  30.466  1.00  0.00    -0.258 OA
ENDBRANCH  25  27
ENDBRANCH  18  21
ENDBRANCH  13  14
ENDBRANCH  11  12
ENDBRANCH   4   6
ENDBRANCH   1   2
BRANCH   1  30
ATOM     30  C   UNL A   1      45.173  23.055  25.410  1.00  0.00     0.023 C 
BRANCH  30  31
ATOM     31  C   UNL A   1      46.408  23.620  24.711  1.00  0.00     0.023 C 
BRANCH  31  32
ATOM     32  C   UNL A   1      47.055  24.822  25.391  1.00  0.00     0.116 C 
BRANCH  32  33
ATOM     33  N   UNL A   1      47.181  25.980  24.518  1.00  0.00    -0.352 N 
ATOM     34  C   UNL A   1      46.719  27.262  24.698  1.00  0.00     0.251 C 
ATOM     35  H   UNL A   1      47.668  25.822  23.677  1.00  0.00     0.163 HD
ATOM     36  O   UNL A   1      46.831  28.093  23.803  1.00  0.00    -0.269 OA
BRANCH  34  37
ATOM     37  C   UNL A   1      46.045  27.629  25.962  1.00  0.00     0.039 A 
ATOM     38  C   UNL A   1      46.804  28.191  26.991  1.00  0.00     0.014 A 
ATOM     39  C   UNL A   1      44.669  27.451  26.119  1.00  0.00     0.014 A 
ATOM     40  C   UNL A   1      46.170  28.658  28.144  1.00  0.00     0.010 A 
ATOM     41  C   UNL A   1      44.029  27.978  27.238  1.00  0.00     0.010 A 
ATOM     42  C   UNL A   1      44.771  28.598  28.255  1.00  0.00    -0.014 A 
BRANCH  42  43
ATOM     43  C   UNL A   1      44.060  29.202  29.411  1.00  0.00     0.031 A 
ATOM     44  C   UNL A   1      43.654  30.648  29.381  1.00  0.00     0.074 A 
ATOM     45  C   UNL A   1      43.855  28.468  30.521  1.00  0.00     0.049 A 
ATOM     46  N   UNL A   1      43.113  31.372  30.327  1.00  0.00    -0.248 NA
ATOM     47  C   UNL A   1      43.912  31.383  28.132  1.00  0.00     0.031 C 
ATOM     48  C   UNL A   1      44.235  27.063  30.697  1.00  0.00     0.029 A 
ATOM     49  N   UNL A   1      43.284  28.809  31.723  1.00  0.00    -0.354 N 
ATOM     50  C   UNL A   1      42.986  32.649  29.798  1.00  0.00     0.074 A 
ATOM     51  C   UNL A   1      43.542  32.612  28.463  1.00  0.00     0.031 C 
ATOM     52  C   UNL A   1      43.868  26.659  31.923  1.00  0.00     0.029 A 
ATOM     53  C   UNL A   1      43.265  27.782  32.635  1.00  0.00     0.049 A 
ATOM     54  H   UNL A   1      42.923  29.705  31.913  1.00  0.00     0.167 HD
ATOM     55  C   UNL A   1      42.444  33.752  30.366  1.00  0.00     0.031 A 
ATOM     56  C   UNL A   1      42.823  27.748  33.906  1.00  0.00     0.031 A 
ATOM     57  C   UNL A   1      41.875  33.791  31.686  1.00  0.00     0.049 A 
ATOM     58  C   UNL A   1      42.234  28.987  34.516  1.00  0.00     0.074 A 
ATOM     59  C   UNL A   1      41.246  34.848  32.323  1.00  0.00     0.029 A 
ATOM     60  N   UNL A   1      41.865  32.725  32.572  1.00  0.00    -0.354 N 
ATOM     61  N   UNL A   1      42.068  30.172  33.980  1.00  0.00    -0.248 NA
ATOM     62  C   UNL A   1      41.763  28.882  35.905  1.00  0.00     0.031 C 
ATOM     63  C   UNL A   1      40.893  34.432  33.611  1.00  0.00     0.029 A 
ATOM     64  C   UNL A   1      41.260  33.104  33.758  1.00  0.00     0.049 A 
ATOM     65  H   UNL A   1      42.234  31.831  32.385  1.00  0.00     0.167 HD
ATOM     66  C   UNL A   1      41.455  30.945  34.956  1.00  0.00     0.074 A 
ATOM     67  C   UNL A   1      41.265  30.093  36.113  1.00  0.00     0.031 C 
ATOM     68  C   UNL A   1      41.080  32.246  34.899  1.00  0.00     0.031 A 
BRANCH  55  69
ATOM     69  C   UNL A   1      42.445  35.016  29.554  1.00  0.00    -0.014 A 
ATOM     70  C   UNL A   1      41.479  35.241  28.560  1.00  0.00     0.009 A 
ATOM     71  C   UNL A   1      43.404  36.008  29.807  1.00  0.00     0.009 A 
ATOM     72  C   UNL A   1      41.495  36.420  27.812  1.00  0.00     0.001 A 
ATOM     73  C   UNL A   1      43.404  37.197  29.075  1.00  0.00     0.001 A 
ATOM     74  C   UNL A   1      42.454  37.398  28.073  1.00  0.00     0.000 A 
ENDBRANCH  55  69
BRANCH  56  75
ATOM     75  C   UNL A   1      42.910  26.489  34.690  1.00  0.00    -0.014 A 
ATOM     76  C   UNL A   1      44.114  26.124  35.311  1.00  0.00     0.009 A 
ATOM     77  C   UNL A   1      41.796  25.645  34.815  1.00  0.00     0.009 A 
ATOM     78  C   UNL A   1      44.206  24.927  36.026  1.00  0.00     0.001 A 
ATOM     79  C   UNL A   1      41.885  24.462  35.550  1.00  0.00     0.001 A 
ATOM     80  C   UNL A   1      43.091  24.099  36.147  1.00  0.00     0.000 A 
ENDBRANCH  56  75
BRANCH  68  81
ATOM     81  C   UNL A   1      40.400  32.818  36.109  1.00  0.00    -0.014 A 
ATOM     82  C   UNL A   1      39.002  32.788  36.237  1.00  0.00     0.009 A 
ATOM     83  C   UNL A   1      41.171  33.357  37.150  1.00  0.00     0.009 A 
ATOM     84  C   UNL A   1      38.390  33.313  37.377  1.00  0.00     0.001 A 
ATOM     85  C   UNL A   1      40.556  33.857  38.298  1.00  0.00     0.001 A 
ATOM     86  C   UNL A   1      39.167  33.842  38.408  1.00  0.00     0.000 A 
ENDBRANCH  68  81
ENDBRANCH  42  43
ENDBRANCH  34  37
ENDBRANCH  32  33
ENDBRANCH  31  32
ENDBRANCH  30  31
ENDBRANCH   1  30
TORSDOF 15
ENDMDL
