MODEL 1
REMARK VINA RESULT:     -10.2      0.000      0.000
REMARK SMILES C[C@@H](CCO)SCc1cccc(/C=C/C(=O)NCCCCNC(=O)c2ccc(-c3c4nc(c(-c5ccccc5)c5ccc([nH]5)c(-c5ccccc5)c5nc(c(-c6ccccc6)c6ccc3[nH]6)C=C5)C=C4)cc2)c1
REMARK SMILES IDX 15 1 16 2 17 3 14 5 13 6 12 7 8 8 9 9 73 10 10 11 11 12 7 13
REMARK SMILES IDX 6 14 2 15 1 16 3 17 4 18 5 19 18 21 19 22 20 23 21 24 22 25
REMARK SMILES IDX 23 26 24 28 25 29 26 30 72 31 27 32 71 33 28 34 29 35 30 36
REMARK SMILES IDX 65 37 31 38 70 39 64 40 66 41 32 42 69 43 63 44 62 45 33 47
REMARK SMILES IDX 55 48 40 49 54 50 41 51 44 52 53 53 67 54 42 55 43 56 52 58
REMARK SMILES IDX 68 59 45 60 34 61 35 62 39 63 36 64 38 65 37 66 56 67 57 68
REMARK SMILES IDX 61 69 58 70 60 71 59 72 46 73 47 74 51 75 48 76 50 77 49 78
REMARK H PARENT 17 4 5 20 22 27 66 46 44 57
REMARK Flexibility Score: inf
ROOT
ATOM      1  C   UNL A   1      33.134  26.010  22.115  1.00  0.00     0.243 C 
ATOM      2  O   UNL A   1      33.273  25.886  20.898  1.00  0.00    -0.270 OA
ATOM      3  N   UNL A   1      32.243  26.922  22.585  1.00  0.00    -0.353 N 
ATOM      4  H   UNL A   1      31.725  27.377  21.882  1.00  0.00     0.163 HD
ENDROOT
BRANCH   1   5
ATOM      5  C   UNL A   1      34.004  25.215  23.015  1.00  0.00     0.072 C 
ATOM      6  C   UNL A   1      33.955  23.883  23.142  1.00  0.00     0.014 C 
BRANCH   6   7
ATOM      7  C   UNL A   1      34.845  23.062  23.968  1.00  0.00    -0.025 A 
ATOM      8  C   UNL A   1      35.343  20.796  24.748  1.00  0.00    -0.037 A 
ATOM      9  C   UNL A   1      36.635  21.221  25.083  1.00  0.00     0.004 A 
ATOM     10  C   UNL A   1      34.431  21.758  24.279  1.00  0.00     0.012 A 
ATOM     11  C   UNL A   1      37.038  22.536  24.837  1.00  0.00     0.001 A 
ATOM     12  C   UNL A   1      36.156  23.446  24.253  1.00  0.00     0.008 A 
BRANCH   8  13
ATOM     13  C   UNL A   1      34.901  19.353  24.849  1.00  0.00     0.105 C 
BRANCH  13  14
ATOM     14  S   UNL A   1      33.097  19.102  25.012  1.00  0.00    -0.154 SA
BRANCH  14  15
ATOM     15  C   UNL A   1      32.684  17.751  23.813  1.00  0.00     0.046 C 
ATOM     16  C   UNL A   1      32.408  18.236  22.395  1.00  0.00     0.019 C 
BRANCH  15  17
ATOM     17  C   UNL A   1      33.544  16.475  23.948  1.00  0.00     0.042 C 
BRANCH  17  18
ATOM     18  C   UNL A   1      33.736  15.891  25.343  1.00  0.00     0.157 C 
BRANCH  18  19
ATOM     19  O   UNL A   1      33.505  14.501  25.361  1.00  0.00    -0.396 OA
ATOM     20  H   UNL A   1      32.646  14.321  25.777  1.00  0.00     0.210 HD
ENDBRANCH  18  19
ENDBRANCH  17  18
ENDBRANCH  15  17
ENDBRANCH  14  15
ENDBRANCH  13  14
ENDBRANCH   8  13
ENDBRANCH   6   7
ENDBRANCH   1   5
BRANCH   3  21
ATOM     21  C   UNL A   1      31.910  27.353  23.931  1.00  0.00     0.116 C 
BRANCH  21  22
ATOM     22  C   UNL A   1      32.873  28.401  24.478  1.00  0.00     0.023 C 
BRANCH  22  23
ATOM     23  C   UNL A   1      33.928  27.857  25.443  1.00  0.00     0.023 C 
BRANCH  23  24
ATOM     24  C   UNL A   1      33.722  28.215  26.912  1.00  0.00     0.116 C 
BRANCH  24  25
ATOM     25  N   UNL A   1      33.447  29.626  27.139  1.00  0.00    -0.352 N 
ATOM     26  C   UNL A   1      34.250  30.573  27.725  1.00  0.00     0.251 C 
ATOM     27  H   UNL A   1      32.567  29.944  26.831  1.00  0.00     0.163 HD
ATOM     28  O   UNL A   1      33.824  31.707  27.930  1.00  0.00    -0.269 OA
BRANCH  26  29
ATOM     29  C   UNL A   1      35.619  30.210  28.143  1.00  0.00     0.039 A 
ATOM     30  C   UNL A   1      35.822  29.723  29.436  1.00  0.00     0.014 A 
ATOM     31  C   UNL A   1      36.694  30.331  27.259  1.00  0.00     0.014 A 
ATOM     32  C   UNL A   1      37.096  29.309  29.823  1.00  0.00     0.010 A 
ATOM     33  C   UNL A   1      37.943  29.836  27.616  1.00  0.00     0.010 A 
ATOM     34  C   UNL A   1      38.162  29.335  28.908  1.00  0.00    -0.014 A 
BRANCH  34  35
ATOM     35  C   UNL A   1      39.514  28.868  29.304  1.00  0.00     0.031 A 
ATOM     36  C   UNL A   1      40.378  29.717  30.196  1.00  0.00     0.074 A 
ATOM     37  C   UNL A   1      39.974  27.689  28.841  1.00  0.00     0.049 A 
ATOM     38  N   UNL A   1      41.570  29.463  30.676  1.00  0.00    -0.248 NA
ATOM     39  C   UNL A   1      39.847  31.035  30.583  1.00  0.00     0.031 C 
ATOM     40  C   UNL A   1      39.257  26.798  27.927  1.00  0.00     0.029 A 
ATOM     41  N   UNL A   1      41.154  27.034  29.087  1.00  0.00    -0.354 N 
ATOM     42  C   UNL A   1      41.930  30.588  31.408  1.00  0.00     0.074 A 
ATOM     43  C   UNL A   1      40.864  31.552  31.255  1.00  0.00     0.031 C 
ATOM     44  C   UNL A   1      39.991  25.691  27.727  1.00  0.00     0.029 A 
ATOM     45  C   UNL A   1      41.243  25.811  28.468  1.00  0.00     0.049 A 
ATOM     46  H   UNL A   1      41.870  27.405  29.652  1.00  0.00     0.167 HD
ATOM     47  C   UNL A   1      43.034  30.793  32.164  1.00  0.00     0.031 A 
ATOM     48  C   UNL A   1      42.218  24.884  28.502  1.00  0.00     0.031 A 
ATOM     49  C   UNL A   1      44.094  29.834  32.319  1.00  0.00     0.049 A 
ATOM     50  C   UNL A   1      43.437  25.136  29.347  1.00  0.00     0.074 A 
ATOM     51  C   UNL A   1      45.234  29.924  33.100  1.00  0.00     0.029 A 
ATOM     52  N   UNL A   1      44.147  28.606  31.675  1.00  0.00    -0.354 N 
ATOM     53  N   UNL A   1      43.726  26.172  30.097  1.00  0.00    -0.248 NA
ATOM     54  C   UNL A   1      44.454  24.076  29.366  1.00  0.00     0.031 C 
ATOM     55  C   UNL A   1      46.002  28.776  32.885  1.00  0.00     0.029 A 
ATOM     56  C   UNL A   1      45.308  27.939  32.025  1.00  0.00     0.049 A 
ATOM     57  H   UNL A   1      43.459  28.261  31.061  1.00  0.00     0.167 HD
ATOM     58  C   UNL A   1      44.939  25.874  30.703  1.00  0.00     0.074 A 
ATOM     59  C   UNL A   1      45.317  24.552  30.251  1.00  0.00     0.031 C 
ATOM     60  C   UNL A   1      45.674  26.626  31.560  1.00  0.00     0.031 A 
BRANCH  47  61
ATOM     61  C   UNL A   1      43.149  32.115  32.876  1.00  0.00    -0.014 A 
ATOM     62  C   UNL A   1      43.799  33.210  32.280  1.00  0.00     0.009 A 
ATOM     63  C   UNL A   1      42.583  32.275  34.149  1.00  0.00     0.009 A 
ATOM     64  C   UNL A   1      43.916  34.422  32.963  1.00  0.00     0.001 A 
ATOM     65  C   UNL A   1      42.672  33.500  34.816  1.00  0.00     0.001 A 
ATOM     66  C   UNL A   1      43.348  34.567  34.228  1.00  0.00     0.000 A 
ENDBRANCH  47  61
BRANCH  48  67
ATOM     67  C   UNL A   1      42.074  23.614  27.741  1.00  0.00    -0.014 A 
ATOM     68  C   UNL A   1      42.628  23.483  26.457  1.00  0.00     0.009 A 
ATOM     69  C   UNL A   1      41.366  22.533  28.286  1.00  0.00     0.009 A 
ATOM     70  C   UNL A   1      42.445  22.310  25.723  1.00  0.00     0.001 A 
ATOM     71  C   UNL A   1      41.214  21.347  27.562  1.00  0.00     0.001 A 
ATOM     72  C   UNL A   1      41.741  21.242  26.277  1.00  0.00     0.000 A 
ENDBRANCH  48  67
BRANCH  60  73
ATOM     73  C   UNL A   1      46.938  26.010  32.097  1.00  0.00    -0.014 A 
ATOM     74  C   UNL A   1      48.160  26.122  31.413  1.00  0.00     0.009 A 
ATOM     75  C   UNL A   1      46.904  25.309  33.312  1.00  0.00     0.009 A 
ATOM     76  C   UNL A   1      49.307  25.499  31.909  1.00  0.00     0.001 A 
ATOM     77  C   UNL A   1      48.059  24.719  33.825  1.00  0.00     0.001 A 
ATOM     78  C   UNL A   1      49.256  24.801  33.115  1.00  0.00     0.000 A 
ENDBRANCH  60  73
ENDBRANCH  34  35
ENDBRANCH  26  29
ENDBRANCH  24  25
ENDBRANCH  23  24
ENDBRANCH  22  23
ENDBRANCH  21  22
ENDBRANCH   3  21
TORSDOF 18
ENDMDL
MODEL 2
REMARK VINA RESULT:     -10.0      1.260      6.160
REMARK SMILES C[C@@H](CCO)SCc1cccc(/C=C/C(=O)NCCCCNC(=O)c2ccc(-c3c4nc(c(-c5ccccc5)c5ccc([nH]5)c(-c5ccccc5)c5nc(c(-c6ccccc6)c6ccc3[nH]6)C=C5)C=C4)cc2)c1
REMARK SMILES IDX 15 1 16 2 17 3 14 5 13 6 12 7 8 8 9 9 73 10 10 11 11 12 7 13
REMARK SMILES IDX 6 14 2 15 1 16 3 17 4 18 5 19 18 21 19 22 20 23 21 24 22 25
REMARK SMILES IDX 23 26 24 28 25 29 26 30 72 31 27 32 71 33 28 34 29 35 30 36
REMARK SMILES IDX 65 37 31 38 70 39 64 40 66 41 32 42 69 43 63 44 62 45 33 47
REMARK SMILES IDX 55 48 40 49 54 50 41 51 44 52 53 53 67 54 42 55 43 56 52 58
REMARK SMILES IDX 68 59 45 60 34 61 35 62 39 63 36 64 38 65 37 66 56 67 57 68
REMARK SMILES IDX 61 69 58 70 60 71 59 72 46 73 47 74 51 75 48 76 50 77 49 78
REMARK H PARENT 17 4 5 20 22 27 66 46 44 57
REMARK Flexibility Score: inf
ROOT
ATOM      1  C   UNL A   1      33.113  26.342  22.332  1.00  0.00     0.243 C 
ATOM      2  O   UNL A   1      33.298  26.225  21.120  1.00  0.00    -0.270 OA
ATOM      3  N   UNL A   1      32.437  27.429  22.791  1.00  0.00    -0.353 N 
ATOM      4  H   UNL A   1      32.091  28.015  22.080  1.00  0.00     0.163 HD
ENDROOT
BRANCH   1   5
ATOM      5  C   UNL A   1      33.706  25.334  23.243  1.00  0.00     0.072 C 
ATOM      6  C   UNL A   1      34.756  24.560  22.944  1.00  0.00     0.014 C 
BRANCH   6   7
ATOM      7  C   UNL A   1      35.409  23.605  23.845  1.00  0.00    -0.025 A 
ATOM      8  C   UNL A   1      35.068  21.992  25.654  1.00  0.00    -0.037 A 
ATOM      9  C   UNL A   1      36.309  21.421  25.347  1.00  0.00     0.004 A 
ATOM     10  C   UNL A   1      34.678  23.145  24.951  1.00  0.00     0.012 A 
ATOM     11  C   UNL A   1      37.076  21.913  24.287  1.00  0.00     0.001 A 
ATOM     12  C   UNL A   1      36.613  22.981  23.518  1.00  0.00     0.008 A 
BRANCH   8  13
ATOM     13  C   UNL A   1      34.129  21.408  26.686  1.00  0.00     0.105 C 
BRANCH  13  14
ATOM     14  S   UNL A   1      32.376  21.311  26.176  1.00  0.00    -0.154 SA
BRANCH  14  15
ATOM     15  C   UNL A   1      32.370  20.248  24.658  1.00  0.00     0.046 C 
ATOM     16  C   UNL A   1      32.246  21.023  23.352  1.00  0.00     0.019 C 
BRANCH  15  17
ATOM     17  C   UNL A   1      33.386  19.085  24.673  1.00  0.00     0.042 C 
BRANCH  17  18
ATOM     18  C   UNL A   1      32.949  17.767  25.302  1.00  0.00     0.157 C 
BRANCH  18  19
ATOM     19  O   UNL A   1      31.721  17.321  24.775  1.00  0.00    -0.396 OA
ATOM     20  H   UNL A   1      31.113  18.072  24.691  1.00  0.00     0.210 HD
ENDBRANCH  18  19
ENDBRANCH  17  18
ENDBRANCH  15  17
ENDBRANCH  14  15
ENDBRANCH  13  14
ENDBRANCH   8  13
ENDBRANCH   6   7
ENDBRANCH   1   5
BRANCH   3  21
ATOM     21  C   UNL A   1      32.129  27.887  24.134  1.00  0.00     0.116 C 
BRANCH  21  22
ATOM     22  C   UNL A   1      33.221  28.771  24.729  1.00  0.00     0.023 C 
BRANCH  22  23
ATOM     23  C   UNL A   1      34.057  28.103  25.820  1.00  0.00     0.023 C 
BRANCH  23  24
ATOM     24  C   UNL A   1      33.625  28.399  27.254  1.00  0.00     0.116 C 
BRANCH  24  25
ATOM     25  N   UNL A   1      33.537  29.820  27.558  1.00  0.00    -0.352 N 
ATOM     26  C   UNL A   1      34.497  30.644  28.092  1.00  0.00     0.251 C 
ATOM     27  H   UNL A   1      32.674  30.248  27.353  1.00  0.00     0.163 HD
ATOM     28  O   UNL A   1      34.227  31.808  28.379  1.00  0.00    -0.269 OA
BRANCH  26  29
ATOM     29  C   UNL A   1      35.850  30.113  28.353  1.00  0.00     0.039 A 
ATOM     30  C   UNL A   1      36.801  30.162  27.332  1.00  0.00     0.014 A 
ATOM     31  C   UNL A   1      36.184  29.587  29.604  1.00  0.00     0.014 A 
ATOM     32  C   UNL A   1      38.103  29.730  27.584  1.00  0.00     0.010 A 
ATOM     33  C   UNL A   1      37.503  29.241  29.878  1.00  0.00     0.010 A 
ATOM     34  C   UNL A   1      38.473  29.292  28.867  1.00  0.00    -0.014 A 
BRANCH  34  35
ATOM     35  C   UNL A   1      39.864  28.860  29.149  1.00  0.00     0.031 A 
ATOM     36  C   UNL A   1      40.330  27.489  28.740  1.00  0.00     0.074 A 
ATOM     37  C   UNL A   1      40.703  29.693  29.796  1.00  0.00     0.049 A 
ATOM     38  N   UNL A   1      41.515  26.946  28.869  1.00  0.00    -0.248 NA
ATOM     39  C   UNL A   1      39.330  26.600  28.125  1.00  0.00     0.031 C 
ATOM     40  C   UNL A   1      40.359  31.026  30.294  1.00  0.00     0.029 A 
ATOM     41  N   UNL A   1      42.024  29.541  30.137  1.00  0.00    -0.354 N 
ATOM     42  C   UNL A   1      41.397  25.657  28.364  1.00  0.00     0.074 A 
ATOM     43  C   UNL A   1      40.014  25.475  27.987  1.00  0.00     0.031 C 
ATOM     44  C   UNL A   1      41.453  31.590  30.833  1.00  0.00     0.029 A 
ATOM     45  C   UNL A   1      42.562  30.645  30.752  1.00  0.00     0.049 A 
ATOM     46  H   UNL A   1      42.536  28.720  29.959  1.00  0.00     0.167 HD
ATOM     47  C   UNL A   1      42.358  24.718  28.199  1.00  0.00     0.031 A 
ATOM     48  C   UNL A   1      43.813  30.876  31.191  1.00  0.00     0.031 A 
ATOM     49  C   UNL A   1      43.735  24.900  28.571  1.00  0.00     0.049 A 
ATOM     50  C   UNL A   1      44.863  29.815  30.999  1.00  0.00     0.074 A 
ATOM     51  C   UNL A   1      44.798  24.028  28.403  1.00  0.00     0.029 A 
ATOM     52  N   UNL A   1      44.241  26.032  29.191  1.00  0.00    -0.354 N 
ATOM     53  N   UNL A   1      44.753  28.631  30.447  1.00  0.00    -0.248 NA
ATOM     54  C   UNL A   1      46.216  30.136  31.473  1.00  0.00     0.031 C 
ATOM     55  C   UNL A   1      45.935  24.611  28.972  1.00  0.00     0.029 A 
ATOM     56  C   UNL A   1      45.596  25.874  29.431  1.00  0.00     0.049 A 
ATOM     57  H   UNL A   1      43.715  26.830  29.425  1.00  0.00     0.167 HD
ATOM     58  C   UNL A   1      46.028  28.081  30.475  1.00  0.00     0.074 A 
ATOM     59  C   UNL A   1      46.896  29.071  31.078  1.00  0.00     0.031 C 
ATOM     60  C   UNL A   1      46.445  26.866  30.039  1.00  0.00     0.031 A 
BRANCH  47  61
ATOM     61  C   UNL A   1      41.942  23.403  27.594  1.00  0.00    -0.014 A 
ATOM     62  C   UNL A   1      42.097  23.152  26.220  1.00  0.00     0.009 A 
ATOM     63  C   UNL A   1      41.407  22.395  28.410  1.00  0.00     0.009 A 
ATOM     64  C   UNL A   1      41.685  21.936  25.670  1.00  0.00     0.001 A 
ATOM     65  C   UNL A   1      41.028  21.167  27.863  1.00  0.00     0.001 A 
ATOM     66  C   UNL A   1      41.157  20.943  26.493  1.00  0.00     0.000 A 
ENDBRANCH  47  61
BRANCH  48  67
ATOM     67  C   UNL A   1      44.158  32.177  31.825  1.00  0.00    -0.014 A 
ATOM     68  C   UNL A   1      44.618  33.252  31.048  1.00  0.00     0.009 A 
ATOM     69  C   UNL A   1      44.046  32.345  33.213  1.00  0.00     0.009 A 
ATOM     70  C   UNL A   1      44.993  34.454  31.651  1.00  0.00     0.001 A 
ATOM     71  C   UNL A   1      44.390  33.560  33.811  1.00  0.00     0.001 A 
ATOM     72  C   UNL A   1      44.875  34.608  33.031  1.00  0.00     0.000 A 
ENDBRANCH  48  67
BRANCH  60  73
ATOM     73  C   UNL A   1      47.914  26.565  30.160  1.00  0.00    -0.014 A 
ATOM     74  C   UNL A   1      48.448  25.948  31.303  1.00  0.00     0.009 A 
ATOM     75  C   UNL A   1      48.777  26.900  29.105  1.00  0.00     0.009 A 
ATOM     76  C   UNL A   1      49.822  25.725  31.408  1.00  0.00     0.001 A 
ATOM     77  C   UNL A   1      50.145  26.642  29.197  1.00  0.00     0.001 A 
ATOM     78  C   UNL A   1      50.669  26.069  30.355  1.00  0.00     0.000 A 
ENDBRANCH  60  73
ENDBRANCH  34  35
ENDBRANCH  26  29
ENDBRANCH  24  25
ENDBRANCH  23  24
ENDBRANCH  22  23
ENDBRANCH  21  22
ENDBRANCH   3  21
TORSDOF 18
ENDMDL
MODEL 3
REMARK VINA RESULT:      -9.9      6.101      9.978
REMARK SMILES C[C@@H](CCO)SCc1cccc(/C=C/C(=O)NCCCCNC(=O)c2ccc(-c3c4nc(c(-c5ccccc5)c5ccc([nH]5)c(-c5ccccc5)c5nc(c(-c6ccccc6)c6ccc3[nH]6)C=C5)C=C4)cc2)c1
REMARK SMILES IDX 15 1 16 2 17 3 14 5 13 6 12 7 8 8 9 9 73 10 10 11 11 12 7 13
REMARK SMILES IDX 6 14 2 15 1 16 3 17 4 18 5 19 18 21 19 22 20 23 21 24 22 25
REMARK SMILES IDX 23 26 24 28 25 29 26 30 72 31 27 32 71 33 28 34 29 35 30 36
REMARK SMILES IDX 65 37 31 38 70 39 64 40 66 41 32 42 69 43 63 44 62 45 33 47
REMARK SMILES IDX 55 48 40 49 54 50 41 51 44 52 53 53 67 54 42 55 43 56 52 58
REMARK SMILES IDX 68 59 45 60 34 61 35 62 39 63 36 64 38 65 37 66 56 67 57 68
REMARK SMILES IDX 61 69 58 70 60 71 59 72 46 73 47 74 51 75 48 76 50 77 49 78
REMARK H PARENT 17 4 5 20 22 27 66 46 44 57
REMARK Flexibility Score: inf
ROOT
ATOM      1  C   UNL A   1      43.511  23.365  28.492  1.00  0.00     0.243 C 
ATOM      2  O   UNL A   1      43.950  23.242  29.636  1.00  0.00    -0.270 OA
ATOM      3  N   UNL A   1      43.715  22.360  27.599  1.00  0.00    -0.353 N 
ATOM      4  H   UNL A   1      44.159  21.569  27.981  1.00  0.00     0.163 HD
ENDROOT
BRANCH   1   5
ATOM      5  C   UNL A   1      42.851  24.638  28.116  1.00  0.00     0.072 C 
ATOM      6  C   UNL A   1      41.663  25.047  28.580  1.00  0.00     0.014 C 
BRANCH   6   7
ATOM      7  C   UNL A   1      41.016  26.329  28.282  1.00  0.00    -0.025 A 
ATOM      8  C   UNL A   1      40.450  28.545  29.153  1.00  0.00    -0.037 A 
ATOM      9  C   UNL A   1      40.267  28.989  27.837  1.00  0.00     0.004 A 
ATOM     10  C   UNL A   1      40.733  27.183  29.359  1.00  0.00     0.012 A 
ATOM     11  C   UNL A   1      40.484  28.127  26.759  1.00  0.00     0.001 A 
ATOM     12  C   UNL A   1      40.888  26.810  26.979  1.00  0.00     0.008 A 
BRANCH   8  13
ATOM     13  C   UNL A   1      40.379  29.469  30.348  1.00  0.00     0.105 C 
BRANCH  13  14
ATOM     14  S   UNL A   1      39.667  31.120  30.014  1.00  0.00    -0.154 SA
BRANCH  14  15
ATOM     15  C   UNL A   1      38.654  31.524  31.512  1.00  0.00     0.046 C 
ATOM     16  C   UNL A   1      38.163  32.965  31.566  1.00  0.00     0.019 C 
BRANCH  15  17
ATOM     17  C   UNL A   1      37.639  30.435  31.925  1.00  0.00     0.042 C 
BRANCH  17  18
ATOM     18  C   UNL A   1      37.746  29.859  33.332  1.00  0.00     0.157 C 
BRANCH  18  19
ATOM     19  O   UNL A   1      37.207  28.559  33.404  1.00  0.00    -0.396 OA
ATOM     20  H   UNL A   1      37.665  27.983  32.770  1.00  0.00     0.210 HD
ENDBRANCH  18  19
ENDBRANCH  17  18
ENDBRANCH  15  17
ENDBRANCH  14  15
ENDBRANCH  13  14
ENDBRANCH   8  13
ENDBRANCH   6   7
ENDBRANCH   1   5
BRANCH   3  21
ATOM     21  C   UNL A   1      43.399  22.235  26.188  1.00  0.00     0.116 C 
BRANCH  21  22
ATOM     22  C   UNL A   1      44.388  22.967  25.287  1.00  0.00     0.023 C 
BRANCH  22  23
ATOM     23  C   UNL A   1      45.847  22.877  25.737  1.00  0.00     0.023 C 
BRANCH  23  24
ATOM     24  C   UNL A   1      46.483  24.195  26.170  1.00  0.00     0.116 C 
BRANCH  24  25
ATOM     25  N   UNL A   1      46.874  25.052  25.060  1.00  0.00    -0.352 N 
ATOM     26  C   UNL A   1      46.692  26.405  24.915  1.00  0.00     0.251 C 
ATOM     27  H   UNL A   1      47.330  24.601  24.313  1.00  0.00     0.163 HD
ATOM     28  O   UNL A   1      46.997  26.964  23.865  1.00  0.00    -0.269 OA
BRANCH  26  29
ATOM     29  C   UNL A   1      46.093  27.182  26.020  1.00  0.00     0.039 A 
ATOM     30  C   UNL A   1      44.707  27.348  26.051  1.00  0.00     0.014 A 
ATOM     31  C   UNL A   1      46.892  27.727  27.028  1.00  0.00     0.014 A 
ATOM     32  C   UNL A   1      44.119  28.018  27.124  1.00  0.00     0.010 A 
ATOM     33  C   UNL A   1      46.297  28.315  28.140  1.00  0.00     0.010 A 
ATOM     34  C   UNL A   1      44.906  28.482  28.191  1.00  0.00    -0.014 A 
BRANCH  34  35
ATOM     35  C   UNL A   1      44.283  29.169  29.350  1.00  0.00     0.031 A 
ATOM     36  C   UNL A   1      43.948  30.634  29.273  1.00  0.00     0.074 A 
ATOM     37  C   UNL A   1      44.040  28.479  30.482  1.00  0.00     0.049 A 
ATOM     38  N   UNL A   1      43.371  31.397  30.167  1.00  0.00    -0.248 NA
ATOM     39  C   UNL A   1      44.331  31.342  28.041  1.00  0.00     0.031 C 
ATOM     40  C   UNL A   1      44.367  27.069  30.704  1.00  0.00     0.029 A 
ATOM     41  N   UNL A   1      43.451  28.872  31.657  1.00  0.00    -0.354 N 
ATOM     42  C   UNL A   1      43.334  32.669  29.610  1.00  0.00     0.074 A 
ATOM     43  C   UNL A   1      44.003  32.592  28.331  1.00  0.00     0.031 C 
ATOM     44  C   UNL A   1      43.931  26.703  31.921  1.00  0.00     0.029 A 
ATOM     45  C   UNL A   1      43.329  27.859  32.576  1.00  0.00     0.049 A 
ATOM     46  H   UNL A   1      43.146  29.793  31.826  1.00  0.00     0.167 HD
ATOM     47  C   UNL A   1      42.767  33.797  30.102  1.00  0.00     0.031 A 
ATOM     48  C   UNL A   1      42.781  27.858  33.806  1.00  0.00     0.031 A 
ATOM     49  C   UNL A   1      42.099  33.874  31.372  1.00  0.00     0.049 A 
ATOM     50  C   UNL A   1      42.161  29.124  34.332  1.00  0.00     0.074 A 
ATOM     51  C   UNL A   1      41.450  34.957  31.942  1.00  0.00     0.029 A 
ATOM     52  N   UNL A   1      41.996  32.826  32.274  1.00  0.00    -0.354 N 
ATOM     53  N   UNL A   1      42.063  30.299  33.759  1.00  0.00    -0.248 NA
ATOM     54  C   UNL A   1      41.555  29.053  35.668  1.00  0.00     0.031 C 
ATOM     55  C   UNL A   1      41.003  34.578  33.212  1.00  0.00     0.029 A 
ATOM     56  C   UNL A   1      41.312  33.241  33.405  1.00  0.00     0.049 A 
ATOM     57  H   UNL A   1      42.355  31.921  32.131  1.00  0.00     0.167 HD
ATOM     58  C   UNL A   1      41.356  31.096  34.648  1.00  0.00     0.074 A 
ATOM     59  C   UNL A   1      41.030  30.263  35.787  1.00  0.00     0.031 C 
ATOM     60  C   UNL A   1      41.003  32.401  34.533  1.00  0.00     0.031 A 
BRANCH  47  61
ATOM     61  C   UNL A   1      42.858  35.040  29.257  1.00  0.00    -0.014 A 
ATOM     62  C   UNL A   1      43.993  35.868  29.297  1.00  0.00     0.009 A 
ATOM     63  C   UNL A   1      41.804  35.379  28.396  1.00  0.00     0.009 A 
ATOM     64  C   UNL A   1      44.051  37.029  28.525  1.00  0.00     0.001 A 
ATOM     65  C   UNL A   1      41.879  36.524  27.599  1.00  0.00     0.001 A 
ATOM     66  C   UNL A   1      42.997  37.353  27.672  1.00  0.00     0.000 A 
ENDBRANCH  47  61
BRANCH  48  67
ATOM     67  C   UNL A   1      42.762  26.611  34.618  1.00  0.00    -0.014 A 
ATOM     68  C   UNL A   1      43.953  26.071  35.127  1.00  0.00     0.009 A 
ATOM     69  C   UNL A   1      41.553  25.946  34.872  1.00  0.00     0.009 A 
ATOM     70  C   UNL A   1      43.939  24.872  35.842  1.00  0.00     0.001 A 
ATOM     71  C   UNL A   1      41.538  24.764  35.617  1.00  0.00     0.001 A 
ATOM     72  C   UNL A   1      42.731  24.221  36.090  1.00  0.00     0.000 A 
ENDBRANCH  48  67
BRANCH  60  73
ATOM     73  C   UNL A   1      40.185  32.988  35.652  1.00  0.00    -0.014 A 
ATOM     74  C   UNL A   1      38.781  32.950  35.635  1.00  0.00     0.009 A 
ATOM     75  C   UNL A   1      40.834  33.583  36.744  1.00  0.00     0.009 A 
ATOM     76  C   UNL A   1      38.047  33.546  36.663  1.00  0.00     0.001 A 
ATOM     77  C   UNL A   1      40.099  34.144  37.788  1.00  0.00     0.001 A 
ATOM     78  C   UNL A   1      38.706  34.140  37.739  1.00  0.00     0.000 A 
ENDBRANCH  60  73
ENDBRANCH  34  35
ENDBRANCH  26  29
ENDBRANCH  24  25
ENDBRANCH  23  24
ENDBRANCH  22  23
ENDBRANCH  21  22
ENDBRANCH   3  21
TORSDOF 18
ENDMDL
