MODEL 1
REMARK VINA RESULT:     -12.7      0.000      0.000
REMARK SMILES Cc1nc2ccc(Cl)cc2cc1C(=O)N1CCC(C(=O)NCCCCNC(=O)c2ccc(-c3c4nc(c(-c5ccccc5)c5ccc([nH]5)c(-c5ccccc5)c5nc(c(-c6ccccc6)c6ccc3[nH]6)C=C5)C=C4)cc2)CC1
REMARK SMILES IDX 24 1 23 2 22 3 21 4 19 5 20 6 18 8 13 9 14 10 15 11 16 12
REMARK SMILES IDX 78 13 17 14 77 15 12 16 1 17 2 18 3 19 4 20 11 21 5 22 10 23
REMARK SMILES IDX 6 24 9 25 7 26 8 27 25 28 26 29 27 30 28 32 29 33 30 34
REMARK SMILES IDX 76 35 31 36 75 37 32 38 33 39 34 40 69 41 35 42 74 43 68 44
REMARK SMILES IDX 70 45 36 46 73 47 67 48 66 49 37 51 59 52 44 53 58 54 45 55
REMARK SMILES IDX 48 56 57 57 71 58 46 59 47 60 56 62 72 63 49 64 38 65 39 66
REMARK SMILES IDX 43 67 40 68 42 69 41 70 60 71 61 72 65 73 62 74 64 75 63 76
REMARK SMILES IDX 50 77 51 78 55 79 52 80 54 81 53 82
REMARK H PARENT 21 7 26 31 70 50 48 61
REMARK Flexibility Score: inf
ROOT
ATOM      1  C   UNL A   1      38.292  19.778  24.976  1.00  0.00     0.023 C 
ENDROOT
BRANCH   1   2
ATOM      2  C   UNL A   1      37.378  20.972  24.728  1.00  0.00     0.023 C 
BRANCH   2   3
ATOM      3  C   UNL A   1      36.019  20.876  25.418  1.00  0.00     0.116 C 
BRANCH   3   4
ATOM      4  N   UNL A   1      35.273  19.706  24.981  1.00  0.00    -0.356 N 
ATOM      5  C   UNL A   1      34.011  19.598  24.483  1.00  0.00     0.223 C 
ATOM      6  O   UNL A   1      33.589  18.473  24.208  1.00  0.00    -0.275 OA
ATOM      7  H   UNL A   1      35.761  18.855  25.057  1.00  0.00     0.163 HD
BRANCH   5   8
ATOM      8  C   UNL A   1      33.143  20.826  24.257  1.00  0.00     0.082 C 
ATOM      9  C   UNL A   1      31.863  24.462  26.040  1.00  0.00     0.255 C 
ATOM     10  O   UNL A   1      31.557  24.352  27.223  1.00  0.00    -0.269 OA
ATOM     11  N   UNL A   1      32.206  23.353  25.261  1.00  0.00    -0.339 N 
ATOM     12  C   UNL A   1      31.296  22.224  25.308  1.00  0.00     0.120 C 
ATOM     13  C   UNL A   1      33.179  23.368  24.170  1.00  0.00     0.120 C 
ATOM     14  C   UNL A   1      32.004  20.889  25.280  1.00  0.00     0.035 C 
ATOM     15  C   UNL A   1      34.007  22.093  24.139  1.00  0.00     0.035 C 
BRANCH   9  16
ATOM     16  C   UNL A   1      31.648  25.763  25.343  1.00  0.00     0.061 A 
ATOM     17  C   UNL A   1      33.939  26.730  25.945  1.00  0.00     0.067 C 
ATOM     18  C   UNL A   1      32.571  26.809  25.333  1.00  0.00     0.051 A 
ATOM     19  N   UNL A   1      32.265  28.038  24.813  1.00  0.00    -0.252 NA
ATOM     20  C   UNL A   1      31.044  28.257  24.288  1.00  0.00     0.071 A 
ATOM     21  C   UNL A   1      30.378  26.020  24.816  1.00  0.00     0.026 A 
ATOM     22  C   UNL A   1      30.703  29.504  23.778  1.00  0.00     0.030 A 
ATOM     23  C   UNL A   1      30.066  27.252  24.250  1.00  0.00     0.002 A 
ATOM     24  C   UNL A   1      29.444  29.750  23.212  1.00  0.00     0.023 A 
ATOM     25  C   UNL A   1      28.805  27.479  23.679  1.00  0.00     0.030 A 
ATOM     26  C   UNL A   1      28.504  28.728  23.153  1.00  0.00     0.041 A 
ATOM     27  Cl  UNL A   1      26.968  29.001  22.433  1.00  0.00    -0.084 Cl
ENDBRANCH   9  16
ENDBRANCH   5   8
ENDBRANCH   3   4
ENDBRANCH   2   3
ENDBRANCH   1   2
BRANCH   1  28
ATOM     28  C   UNL A   1      39.352  20.006  26.042  1.00  0.00     0.116 C 
BRANCH  28  29
ATOM     29  N   UNL A   1      40.546  19.198  25.838  1.00  0.00    -0.352 N 
ATOM     30  C   UNL A   1      41.861  19.567  25.971  1.00  0.00     0.251 C 
ATOM     31  H   UNL A   1      40.389  18.263  25.570  1.00  0.00     0.163 HD
ATOM     32  O   UNL A   1      42.760  18.807  25.629  1.00  0.00    -0.269 OA
BRANCH  30  33
ATOM     33  C   UNL A   1      42.181  20.903  26.507  1.00  0.00     0.039 A 
ATOM     34  C   UNL A   1      42.513  21.928  25.618  1.00  0.00     0.014 A 
ATOM     35  C   UNL A   1      42.125  21.148  27.882  1.00  0.00     0.014 A 
ATOM     36  C   UNL A   1      42.749  23.211  26.109  1.00  0.00     0.010 A 
ATOM     37  C   UNL A   1      42.262  22.445  28.357  1.00  0.00     0.010 A 
ATOM     38  C   UNL A   1      42.602  23.485  27.479  1.00  0.00    -0.014 A 
BRANCH  38  39
ATOM     39  C   UNL A   1      42.854  24.841  28.022  1.00  0.00     0.031 A 
ATOM     40  C   UNL A   1      44.250  25.241  28.418  1.00  0.00     0.074 A 
ATOM     41  C   UNL A   1      41.829  25.694  28.205  1.00  0.00     0.049 A 
ATOM     42  N   UNL A   1      44.672  26.367  28.934  1.00  0.00    -0.248 NA
ATOM     43  C   UNL A   1      45.303  24.229  28.244  1.00  0.00     0.031 C 
ATOM     44  C   UNL A   1      40.425  25.410  27.908  1.00  0.00     0.029 A 
ATOM     45  N   UNL A   1      41.815  26.978  28.689  1.00  0.00    -0.354 N 
ATOM     46  C   UNL A   1      46.031  26.188  29.163  1.00  0.00     0.074 A 
ATOM     47  C   UNL A   1      46.346  24.826  28.797  1.00  0.00     0.031 C 
ATOM     48  C   UNL A   1      39.690  26.500  28.185  1.00  0.00     0.029 A 
ATOM     49  C   UNL A   1      40.564  27.542  28.711  1.00  0.00     0.049 A 
ATOM     50  H   UNL A   1      42.625  27.448  28.991  1.00  0.00     0.167 HD
ATOM     51  C   UNL A   1      46.944  27.082  29.608  1.00  0.00     0.031 A 
ATOM     52  C   UNL A   1      40.167  28.765  29.110  1.00  0.00     0.031 A 
ATOM     53  C   UNL A   1      46.630  28.439  29.968  1.00  0.00     0.049 A 
ATOM     54  C   UNL A   1      41.193  29.746  29.600  1.00  0.00     0.074 A 
ATOM     55  C   UNL A   1      47.485  29.443  30.384  1.00  0.00     0.029 A 
ATOM     56  N   UNL A   1      45.352  28.979  29.961  1.00  0.00    -0.354 N 
ATOM     57  N   UNL A   1      42.488  29.589  29.742  1.00  0.00    -0.248 NA
ATOM     58  C   UNL A   1      40.706  31.084  29.963  1.00  0.00     0.031 C 
ATOM     59  C   UNL A   1      46.718  30.574  30.681  1.00  0.00     0.029 A 
ATOM     60  C   UNL A   1      45.393  30.296  30.384  1.00  0.00     0.049 A 
ATOM     61  H   UNL A   1      44.536  28.496  29.694  1.00  0.00     0.167 HD
ATOM     62  C   UNL A   1      42.974  30.814  30.177  1.00  0.00     0.074 A 
ATOM     63  C   UNL A   1      41.836  31.708  30.264  1.00  0.00     0.031 C 
ATOM     64  C   UNL A   1      44.250  31.171  30.471  1.00  0.00     0.031 A 
BRANCH  51  65
ATOM     65  C   UNL A   1      48.364  26.601  29.743  1.00  0.00    -0.014 A 
ATOM     66  C   UNL A   1      48.834  26.030  30.937  1.00  0.00     0.009 A 
ATOM     67  C   UNL A   1      49.252  26.735  28.664  1.00  0.00     0.009 A 
ATOM     68  C   UNL A   1      50.174  25.659  31.069  1.00  0.00     0.001 A 
ATOM     69  C   UNL A   1      50.582  26.327  28.785  1.00  0.00     0.001 A 
ATOM     70  C   UNL A   1      51.046  25.806  29.992  1.00  0.00     0.000 A 
ENDBRANCH  51  65
BRANCH  52  71
ATOM     71  C   UNL A   1      38.730  29.136  29.022  1.00  0.00    -0.014 A 
ATOM     72  C   UNL A   1      37.881  28.973  30.127  1.00  0.00     0.009 A 
ATOM     73  C   UNL A   1      38.206  29.679  27.838  1.00  0.00     0.009 A 
ATOM     74  C   UNL A   1      36.532  29.325  30.041  1.00  0.00     0.001 A 
ATOM     75  C   UNL A   1      36.864  30.057  27.764  1.00  0.00     0.001 A 
ATOM     76  C   UNL A   1      36.026  29.873  28.863  1.00  0.00     0.000 A 
ENDBRANCH  52  71
BRANCH  64  77
ATOM     77  C   UNL A   1      44.490  32.603  30.867  1.00  0.00    -0.014 A 
ATOM     78  C   UNL A   1      44.746  33.600  29.914  1.00  0.00     0.009 A 
ATOM     79  C   UNL A   1      44.429  32.961  32.224  1.00  0.00     0.009 A 
ATOM     80  C   UNL A   1      44.978  34.917  30.316  1.00  0.00     0.001 A 
ATOM     81  C   UNL A   1      44.626  34.283  32.619  1.00  0.00     0.001 A 
ATOM     82  C   UNL A   1      44.914  35.258  31.666  1.00  0.00     0.000 A 
ENDBRANCH  64  77
ENDBRANCH  38  39
ENDBRANCH  30  33
ENDBRANCH  28  29
ENDBRANCH   1  28
TORSDOF 12
ENDMDL
MODEL 2
REMARK VINA RESULT:     -12.7      1.986      2.666
REMARK SMILES Cc1nc2ccc(Cl)cc2cc1C(=O)N1CCC(C(=O)NCCCCNC(=O)c2ccc(-c3c4nc(c(-c5ccccc5)c5ccc([nH]5)c(-c5ccccc5)c5nc(c(-c6ccccc6)c6ccc3[nH]6)C=C5)C=C4)cc2)CC1
REMARK SMILES IDX 24 1 23 2 22 3 21 4 19 5 20 6 18 8 13 9 14 10 15 11 16 12
REMARK SMILES IDX 78 13 17 14 77 15 12 16 1 17 2 18 3 19 4 20 11 21 5 22 10 23
REMARK SMILES IDX 6 24 9 25 7 26 8 27 25 28 26 29 27 30 28 32 29 33 30 34
REMARK SMILES IDX 76 35 31 36 75 37 32 38 33 39 34 40 69 41 35 42 74 43 68 44
REMARK SMILES IDX 70 45 36 46 73 47 67 48 66 49 37 51 59 52 44 53 58 54 45 55
REMARK SMILES IDX 48 56 57 57 71 58 46 59 47 60 56 62 72 63 49 64 38 65 39 66
REMARK SMILES IDX 43 67 40 68 42 69 41 70 60 71 61 72 65 73 62 74 64 75 63 76
REMARK SMILES IDX 50 77 51 78 55 79 52 80 54 81 53 82
REMARK H PARENT 21 7 26 31 70 50 48 61
REMARK Flexibility Score: inf
ROOT
ATOM      1  C   UNL A   1      37.802  19.448  24.961  1.00  0.00     0.023 C 
ENDROOT
BRANCH   1   2
ATOM      2  C   UNL A   1      36.743  20.496  24.642  1.00  0.00     0.023 C 
BRANCH   2   3
ATOM      3  C   UNL A   1      35.443  20.334  25.426  1.00  0.00     0.116 C 
BRANCH   3   4
ATOM      4  N   UNL A   1      34.292  20.214  24.545  1.00  0.00    -0.356 N 
ATOM      5  C   UNL A   1      33.374  21.143  24.160  1.00  0.00     0.223 C 
ATOM      6  O   UNL A   1      32.460  20.782  23.416  1.00  0.00    -0.275 OA
ATOM      7  H   UNL A   1      34.155  19.317  24.165  1.00  0.00     0.163 HD
BRANCH   5   8
ATOM      8  C   UNL A   1      33.473  22.589  24.619  1.00  0.00     0.082 C 
ATOM      9  C   UNL A   1      33.073  26.608  23.307  1.00  0.00     0.255 C 
ATOM     10  O   UNL A   1      33.584  26.825  22.213  1.00  0.00    -0.269 OA
ATOM     11  N   UNL A   1      33.196  25.371  23.946  1.00  0.00    -0.339 N 
ATOM     12  C   UNL A   1      34.537  24.828  24.048  1.00  0.00     0.120 C 
ATOM     13  C   UNL A   1      32.176  24.769  24.803  1.00  0.00     0.120 C 
ATOM     14  C   UNL A   1      34.585  23.328  23.867  1.00  0.00     0.035 C 
ATOM     15  C   UNL A   1      32.092  23.264  24.602  1.00  0.00     0.035 C 
BRANCH   9  16
ATOM     16  C   UNL A   1      32.500  27.742  24.087  1.00  0.00     0.061 A 
ATOM     17  C   UNL A   1      30.314  27.857  22.761  1.00  0.00     0.067 C 
ATOM     18  C   UNL A   1      31.267  28.338  23.816  1.00  0.00     0.051 A 
ATOM     19  N   UNL A   1      30.856  29.473  24.461  1.00  0.00    -0.252 NA
ATOM     20  C   UNL A   1      31.649  30.041  25.389  1.00  0.00     0.071 A 
ATOM     21  C   UNL A   1      33.319  28.362  25.037  1.00  0.00     0.026 A 
ATOM     22  C   UNL A   1      31.263  31.208  26.037  1.00  0.00     0.030 A 
ATOM     23  C   UNL A   1      32.897  29.494  25.726  1.00  0.00     0.002 A 
ATOM     24  C   UNL A   1      32.066  31.806  27.018  1.00  0.00     0.023 A 
ATOM     25  C   UNL A   1      33.708  30.076  26.713  1.00  0.00     0.030 A 
ATOM     26  C   UNL A   1      33.282  31.227  27.361  1.00  0.00     0.041 A 
ATOM     27  Cl  UNL A   1      34.264  31.927  28.585  1.00  0.00    -0.084 Cl
ENDBRANCH   9  16
ENDBRANCH   5   8
ENDBRANCH   3   4
ENDBRANCH   2   3
ENDBRANCH   1   2
BRANCH   1  28
ATOM     28  C   UNL A   1      39.041  19.992  25.656  1.00  0.00     0.116 C 
BRANCH  28  29
ATOM     29  N   UNL A   1      40.101  19.003  25.785  1.00  0.00    -0.352 N 
ATOM     30  C   UNL A   1      41.421  19.202  26.099  1.00  0.00     0.251 C 
ATOM     31  H   UNL A   1      39.836  18.068  25.626  1.00  0.00     0.163 HD
ATOM     32  O   UNL A   1      42.225  18.278  26.034  1.00  0.00    -0.269 OA
BRANCH  30  33
ATOM     33  C   UNL A   1      41.871  20.551  26.493  1.00  0.00     0.039 A 
ATOM     34  C   UNL A   1      42.251  21.454  25.498  1.00  0.00     0.014 A 
ATOM     35  C   UNL A   1      41.888  20.930  27.838  1.00  0.00     0.014 A 
ATOM     36  C   UNL A   1      42.611  22.754  25.854  1.00  0.00     0.010 A 
ATOM     37  C   UNL A   1      42.149  22.250  28.179  1.00  0.00     0.010 A 
ATOM     38  C   UNL A   1      42.540  23.168  27.194  1.00  0.00    -0.014 A 
BRANCH  38  39
ATOM     39  C   UNL A   1      42.922  24.544  27.593  1.00  0.00     0.031 A 
ATOM     40  C   UNL A   1      44.370  24.953  27.571  1.00  0.00     0.074 A 
ATOM     41  C   UNL A   1      41.983  25.406  28.021  1.00  0.00     0.049 A 
ATOM     42  N   UNL A   1      44.912  26.097  27.906  1.00  0.00    -0.248 NA
ATOM     43  C   UNL A   1      45.341  23.931  27.148  1.00  0.00     0.031 C 
ATOM     44  C   UNL A   1      40.553  25.116  28.138  1.00  0.00     0.029 A 
ATOM     45  N   UNL A   1      42.094  26.708  28.442  1.00  0.00    -0.354 N 
ATOM     46  C   UNL A   1      46.281  25.922  27.754  1.00  0.00     0.074 A 
ATOM     47  C   UNL A   1      46.492  24.545  27.366  1.00  0.00     0.031 C 
ATOM     48  C   UNL A   1      39.916  26.218  28.567  1.00  0.00     0.029 A 
ATOM     49  C   UNL A   1      40.895  27.277  28.789  1.00  0.00     0.049 A 
ATOM     50  H   UNL A   1      42.953  27.187  28.488  1.00  0.00     0.167 HD
ATOM     51  C   UNL A   1      47.276  26.829  27.893  1.00  0.00     0.031 A 
ATOM     52  C   UNL A   1      40.615  28.515  29.236  1.00  0.00     0.031 A 
ATOM     53  C   UNL A   1      47.064  28.200  28.275  1.00  0.00     0.049 A 
ATOM     54  C   UNL A   1      41.730  29.511  29.384  1.00  0.00     0.074 A 
ATOM     55  C   UNL A   1      47.994  29.216  28.398  1.00  0.00     0.029 A 
ATOM     56  N   UNL A   1      45.831  28.744  28.603  1.00  0.00    -0.354 N 
ATOM     57  N   UNL A   1      43.014  29.355  29.166  1.00  0.00    -0.248 NA
ATOM     58  C   UNL A   1      41.354  30.864  29.817  1.00  0.00     0.031 C 
ATOM     59  C   UNL A   1      47.331  30.361  28.854  1.00  0.00     0.029 A 
ATOM     60  C   UNL A   1      45.978  30.076  28.947  1.00  0.00     0.049 A 
ATOM     61  H   UNL A   1      44.976  28.253  28.592  1.00  0.00     0.167 HD
ATOM     62  C   UNL A   1      43.594  30.595  29.402  1.00  0.00     0.074 A 
ATOM     63  C   UNL A   1      42.518  31.495  29.768  1.00  0.00     0.031 C 
ATOM     64  C   UNL A   1      44.898  30.958  29.316  1.00  0.00     0.031 A 
BRANCH  51  65
ATOM     65  C   UNL A   1      48.681  26.348  27.646  1.00  0.00    -0.014 A 
ATOM     66  C   UNL A   1      49.465  25.814  28.682  1.00  0.00     0.009 A 
ATOM     67  C   UNL A   1      49.235  26.445  26.361  1.00  0.00     0.009 A 
ATOM     68  C   UNL A   1      50.792  25.444  28.450  1.00  0.00     0.001 A 
ATOM     69  C   UNL A   1      50.550  26.038  26.123  1.00  0.00     0.001 A 
ATOM     70  C   UNL A   1      51.332  25.554  27.170  1.00  0.00     0.000 A 
ENDBRANCH  51  65
BRANCH  52  71
ATOM     71  C   UNL A   1      39.208  28.888  29.537  1.00  0.00    -0.014 A 
ATOM     72  C   UNL A   1      38.372  29.396  28.531  1.00  0.00     0.009 A 
ATOM     73  C   UNL A   1      38.686  28.716  30.829  1.00  0.00     0.009 A 
ATOM     74  C   UNL A   1      37.050  29.744  28.818  1.00  0.00     0.001 A 
ATOM     75  C   UNL A   1      37.356  29.036  31.105  1.00  0.00     0.001 A 
ATOM     76  C   UNL A   1      36.541  29.557  30.102  1.00  0.00     0.000 A 
ENDBRANCH  52  71
BRANCH  64  77
ATOM     77  C   UNL A   1      45.228  32.403  29.575  1.00  0.00    -0.014 A 
ATOM     78  C   UNL A   1      45.623  32.854  30.844  1.00  0.00     0.009 A 
ATOM     79  C   UNL A   1      45.167  33.324  28.516  1.00  0.00     0.009 A 
ATOM     80  C   UNL A   1      45.908  34.205  31.055  1.00  0.00     0.001 A 
ATOM     81  C   UNL A   1      45.487  34.665  28.722  1.00  0.00     0.001 A 
ATOM     82  C   UNL A   1      45.844  35.108  29.994  1.00  0.00     0.000 A 
ENDBRANCH  64  77
ENDBRANCH  38  39
ENDBRANCH  30  33
ENDBRANCH  28  29
ENDBRANCH   1  28
TORSDOF 12
ENDMDL
MODEL 3
REMARK VINA RESULT:     -12.6      3.702      9.371
REMARK SMILES Cc1nc2ccc(Cl)cc2cc1C(=O)N1CCC(C(=O)NCCCCNC(=O)c2ccc(-c3c4nc(c(-c5ccccc5)c5ccc([nH]5)c(-c5ccccc5)c5nc(c(-c6ccccc6)c6ccc3[nH]6)C=C5)C=C4)cc2)CC1
REMARK SMILES IDX 24 1 23 2 22 3 21 4 19 5 20 6 18 8 13 9 14 10 15 11 16 12
REMARK SMILES IDX 78 13 17 14 77 15 12 16 1 17 2 18 3 19 4 20 11 21 5 22 10 23
REMARK SMILES IDX 6 24 9 25 7 26 8 27 25 28 26 29 27 30 28 32 29 33 30 34
REMARK SMILES IDX 76 35 31 36 75 37 32 38 33 39 34 40 69 41 35 42 74 43 68 44
REMARK SMILES IDX 70 45 36 46 73 47 67 48 66 49 37 51 59 52 44 53 58 54 45 55
REMARK SMILES IDX 48 56 57 57 71 58 46 59 47 60 56 62 72 63 49 64 38 65 39 66
REMARK SMILES IDX 43 67 40 68 42 69 41 70 60 71 61 72 65 73 62 74 64 75 63 76
REMARK SMILES IDX 50 77 51 78 55 79 52 80 54 81 53 82
REMARK H PARENT 21 7 26 31 70 50 48 61
REMARK Flexibility Score: inf
ROOT
ATOM      1  C   UNL A   1      31.578  32.180  26.869  1.00  0.00     0.023 C 
ENDROOT
BRANCH   1   2
ATOM      2  C   UNL A   1      31.767  30.669  26.807  1.00  0.00     0.023 C 
BRANCH   2   3
ATOM      3  C   UNL A   1      31.896  30.111  25.392  1.00  0.00     0.116 C 
BRANCH   3   4
ATOM      4  N   UNL A   1      30.732  30.424  24.579  1.00  0.00    -0.356 N 
ATOM      5  C   UNL A   1      29.968  29.625  23.785  1.00  0.00     0.223 C 
ATOM      6  O   UNL A   1      29.035  30.142  23.166  1.00  0.00    -0.275 OA
ATOM      7  H   UNL A   1      30.450  31.366  24.609  1.00  0.00     0.163 HD
BRANCH   5   8
ATOM      8  C   UNL A   1      30.240  28.133  23.669  1.00  0.00     0.082 C 
ATOM      9  C   UNL A   1      33.298  25.282  22.925  1.00  0.00     0.255 C 
ATOM     10  O   UNL A   1      34.038  25.582  21.994  1.00  0.00    -0.269 OA
ATOM     11  N   UNL A   1      32.173  26.047  23.248  1.00  0.00    -0.339 N 
ATOM     12  C   UNL A   1      31.280  26.375  22.153  1.00  0.00     0.120 C 
ATOM     13  C   UNL A   1      31.652  26.234  24.601  1.00  0.00     0.120 C 
ATOM     14  C   UNL A   1      30.704  27.769  22.255  1.00  0.00     0.035 C 
ATOM     15  C   UNL A   1      31.145  27.652  24.815  1.00  0.00     0.035 C 
BRANCH   9  16
ATOM     16  C   UNL A   1      33.456  23.957  23.591  1.00  0.00     0.061 A 
ATOM     17  C   UNL A   1      35.059  24.796  25.401  1.00  0.00     0.067 C 
ATOM     18  C   UNL A   1      34.286  23.725  24.689  1.00  0.00     0.051 A 
ATOM     19  N   UNL A   1      34.515  22.463  25.167  1.00  0.00    -0.252 NA
ATOM     20  C   UNL A   1      33.926  21.406  24.575  1.00  0.00     0.071 A 
ATOM     21  C   UNL A   1      32.875  22.843  22.976  1.00  0.00     0.026 A 
ATOM     22  C   UNL A   1      34.166  20.113  25.027  1.00  0.00     0.030 A 
ATOM     23  C   UNL A   1      33.069  21.559  23.475  1.00  0.00     0.002 A 
ATOM     24  C   UNL A   1      33.551  19.001  24.436  1.00  0.00     0.023 A 
ATOM     25  C   UNL A   1      32.439  20.456  22.879  1.00  0.00     0.030 A 
ATOM     26  C   UNL A   1      32.677  19.180  23.371  1.00  0.00     0.041 A 
ATOM     27  Cl  UNL A   1      31.889  17.832  22.655  1.00  0.00    -0.084 Cl
ENDBRANCH   9  16
ENDBRANCH   5   8
ENDBRANCH   3   4
ENDBRANCH   2   3
ENDBRANCH   1   2
BRANCH   1  28
ATOM     28  C   UNL A   1      32.830  32.959  27.240  1.00  0.00     0.116 C 
BRANCH  28  29
ATOM     29  N   UNL A   1      32.540  34.195  27.953  1.00  0.00    -0.352 N 
ATOM     30  C   UNL A   1      33.217  34.750  29.009  1.00  0.00     0.251 C 
ATOM     31  H   UNL A   1      31.756  34.698  27.636  1.00  0.00     0.163 HD
ATOM     32  O   UNL A   1      32.767  35.730  29.593  1.00  0.00    -0.269 OA
BRANCH  30  33
ATOM     33  C   UNL A   1      34.485  34.138  29.452  1.00  0.00     0.039 A 
ATOM     34  C   UNL A   1      34.463  33.234  30.516  1.00  0.00     0.014 A 
ATOM     35  C   UNL A   1      35.683  34.436  28.799  1.00  0.00     0.014 A 
ATOM     36  C   UNL A   1      35.644  32.598  30.897  1.00  0.00     0.010 A 
ATOM     37  C   UNL A   1      36.834  33.728  29.114  1.00  0.00     0.010 A 
ATOM     38  C   UNL A   1      36.833  32.822  30.185  1.00  0.00    -0.014 A 
BRANCH  38  39
ATOM     39  C   UNL A   1      38.099  32.158  30.577  1.00  0.00     0.031 A 
ATOM     40  C   UNL A   1      38.978  32.786  31.626  1.00  0.00     0.074 A 
ATOM     41  C   UNL A   1      38.485  31.026  29.962  1.00  0.00     0.049 A 
ATOM     42  N   UNL A   1      40.133  32.378  32.089  1.00  0.00    -0.248 NA
ATOM     43  C   UNL A   1      38.514  34.056  32.206  1.00  0.00     0.031 C 
ATOM     44  C   UNL A   1      37.749  30.345  28.896  1.00  0.00     0.029 A 
ATOM     45  N   UNL A   1      39.600  30.248  30.147  1.00  0.00    -0.354 N 
ATOM     46  C   UNL A   1      40.537  33.352  32.995  1.00  0.00     0.074 A 
ATOM     47  C   UNL A   1      39.542  34.400  32.963  1.00  0.00     0.031 C 
ATOM     48  C   UNL A   1      38.415  29.233  28.545  1.00  0.00     0.029 A 
ATOM     49  C   UNL A   1      39.639  29.142  29.334  1.00  0.00     0.049 A 
ATOM     50  H   UNL A   1      40.303  30.461  30.801  1.00  0.00     0.167 HD
ATOM     51  C   UNL A   1      41.622  33.362  33.804  1.00  0.00     0.031 A 
ATOM     52  C   UNL A   1      40.558  28.164  29.236  1.00  0.00     0.031 A 
ATOM     53  C   UNL A   1      42.608  32.316  33.838  1.00  0.00     0.049 A 
ATOM     54  C   UNL A   1      41.756  28.190  30.144  1.00  0.00     0.074 A 
ATOM     55  C   UNL A   1      43.719  32.202  34.654  1.00  0.00     0.029 A 
ATOM     56  N   UNL A   1      42.604  31.203  33.010  1.00  0.00    -0.354 N 
ATOM     57  N   UNL A   1      42.090  29.078  31.049  1.00  0.00    -0.248 NA
ATOM     58  C   UNL A   1      42.692  27.064  30.032  1.00  0.00     0.031 C 
ATOM     59  C   UNL A   1      44.417  31.048  34.282  1.00  0.00     0.029 A 
ATOM     60  C   UNL A   1      43.703  30.407  33.282  1.00  0.00     0.049 A 
ATOM     61  H   UNL A   1      41.919  31.009  32.328  1.00  0.00     0.167 HD
ATOM     62  C   UNL A   1      43.254  28.603  31.637  1.00  0.00     0.074 A 
ATOM     63  C   UNL A   1      43.561  27.340  30.994  1.00  0.00     0.031 C 
ATOM     64  C   UNL A   1      43.999  29.157  32.628  1.00  0.00     0.031 A 
BRANCH  51  65
ATOM     65  C   UNL A   1      41.794  34.558  34.702  1.00  0.00    -0.014 A 
ATOM     66  C   UNL A   1      42.395  35.741  34.240  1.00  0.00     0.009 A 
ATOM     67  C   UNL A   1      41.363  34.497  36.036  1.00  0.00     0.009 A 
ATOM     68  C   UNL A   1      42.615  36.813  35.108  1.00  0.00     0.001 A 
ATOM     69  C   UNL A   1      41.548  35.585  36.892  1.00  0.00     0.001 A 
ATOM     70  C   UNL A   1      42.189  36.734  36.433  1.00  0.00     0.000 A 
ENDBRANCH  51  65
BRANCH  52  71
ATOM     71  C   UNL A   1      40.355  27.058  28.264  1.00  0.00    -0.014 A 
ATOM     72  C   UNL A   1      40.907  27.128  26.977  1.00  0.00     0.009 A 
ATOM     73  C   UNL A   1      39.627  25.914  28.629  1.00  0.00     0.009 A 
ATOM     74  C   UNL A   1      40.716  26.086  26.067  1.00  0.00     0.001 A 
ATOM     75  C   UNL A   1      39.463  24.861  27.727  1.00  0.00     0.001 A 
ATOM     76  C   UNL A   1      40.000  24.951  26.445  1.00  0.00     0.000 A 
ENDBRANCH  52  71
BRANCH  64  77
ATOM     77  C   UNL A   1      45.192  28.376  33.110  1.00  0.00    -0.014 A 
ATOM     78  C   UNL A   1      45.092  27.447  34.157  1.00  0.00     0.009 A 
ATOM     79  C   UNL A   1      46.433  28.557  32.479  1.00  0.00     0.009 A 
ATOM     80  C   UNL A   1      46.221  26.749  34.590  1.00  0.00     0.001 A 
ATOM     81  C   UNL A   1      47.551  27.833  32.890  1.00  0.00     0.001 A 
ATOM     82  C   UNL A   1      47.448  26.939  33.954  1.00  0.00     0.000 A 
ENDBRANCH  64  77
ENDBRANCH  38  39
ENDBRANCH  30  33
ENDBRANCH  28  29
ENDBRANCH   1  28
TORSDOF 12
ENDMDL
