MODEL 1
REMARK VINA RESULT:     -12.0      0.000      0.000
REMARK SMILES O=C(NCCCCNC(=O)[C@@H](Cc1cccc(F)c1)[C@H]1CCOC2(CCC2)C1)c1ccc(-c2c3nc(c(-c4ccccc4)c4ccc([nH]4)c(-c4ccccc4)c4nc(c(-c5ccccc5)c5ccc2[nH]5)C=C4)C=C3)cc1
REMARK SMILES IDX 5 1 4 2 3 3 1 4 2 5 29 7 30 8 76 9 31 10 75 11 32 12 33 13
REMARK SMILES IDX 34 14 69 15 35 16 74 17 68 18 70 19 36 20 73 21 67 22 66 23
REMARK SMILES IDX 37 25 59 26 44 27 58 28 45 29 48 30 57 31 71 32 46 33 47 34
REMARK SMILES IDX 56 36 72 37 49 38 38 39 39 40 43 41 40 42 42 43 41 44 60 45
REMARK SMILES IDX 61 46 65 47 62 48 64 49 63 50 50 51 51 52 55 53 52 54 54 55
REMARK SMILES IDX 53 56 6 57 7 58 8 59 9 60 10 62 11 63 12 64 13 65 14 66
REMARK SMILES IDX 19 67 15 68 17 69 16 70 18 71 20 72 21 73 28 74 22 75 24 76
REMARK SMILES IDX 23 77 25 78 27 79 26 80
REMARK H PARENT 3 6 70 24 48 35 8 61
REMARK Flexibility Score: inf
ROOT
ATOM      1  C   UNL A   1      32.575  30.124  26.353  1.00  0.00     0.023 C 
ENDROOT
BRANCH   1   2
ATOM      2  C   UNL A   1      33.309  31.167  27.179  1.00  0.00     0.116 C 
BRANCH   2   3
ATOM      3  N   UNL A   1      32.601  32.425  27.407  1.00  0.00    -0.352 N 
ATOM      4  O   UNL A   1      32.372  34.538  28.228  1.00  0.00    -0.269 OA
ATOM      5  C   UNL A   1      33.056  33.530  28.103  1.00  0.00     0.251 C 
ATOM      6  H   UNL A   1      31.697  32.492  27.023  1.00  0.00     0.163 HD
BRANCH   5   7
ATOM      7  C   UNL A   1      34.374  33.434  28.763  1.00  0.00     0.039 A 
ATOM      8  C   UNL A   1      35.508  33.866  28.082  1.00  0.00     0.014 A 
ATOM      9  C   UNL A   1      34.487  32.724  29.960  1.00  0.00     0.014 A 
ATOM     10  C   UNL A   1      36.739  33.347  28.447  1.00  0.00     0.010 A 
ATOM     11  C   UNL A   1      35.751  32.331  30.408  1.00  0.00     0.010 A 
ATOM     12  C   UNL A   1      36.883  32.575  29.614  1.00  0.00    -0.014 A 
BRANCH  12  13
ATOM     13  C   UNL A   1      38.232  32.055  29.965  1.00  0.00     0.031 A 
ATOM     14  C   UNL A   1      39.120  32.754  30.964  1.00  0.00     0.074 A 
ATOM     15  C   UNL A   1      38.617  30.878  29.433  1.00  0.00     0.049 A 
ATOM     16  N   UNL A   1      40.309  32.402  31.390  1.00  0.00    -0.248 NA
ATOM     17  C   UNL A   1      38.624  34.006  31.559  1.00  0.00     0.031 C 
ATOM     18  C   UNL A   1      37.843  30.100  28.460  1.00  0.00     0.029 A 
ATOM     19  N   UNL A   1      39.722  30.103  29.669  1.00  0.00    -0.354 N 
ATOM     20  C   UNL A   1      40.717  33.403  32.264  1.00  0.00     0.074 A 
ATOM     21  C   UNL A   1      39.654  34.384  32.305  1.00  0.00     0.031 C 
ATOM     22  C   UNL A   1      38.443  28.919  28.262  1.00  0.00     0.029 A 
ATOM     23  C   UNL A   1      39.694  28.900  29.006  1.00  0.00     0.049 A 
ATOM     24  H   UNL A   1      40.462  30.379  30.257  1.00  0.00     0.167 HD
ATOM     25  C   UNL A   1      41.873  33.496  32.967  1.00  0.00     0.031 A 
ATOM     26  C   UNL A   1      40.586  27.895  28.973  1.00  0.00     0.031 A 
ATOM     27  C   UNL A   1      42.922  32.509  32.940  1.00  0.00     0.049 A 
ATOM     28  C   UNL A   1      41.855  28.029  29.754  1.00  0.00     0.074 A 
ATOM     29  C   UNL A   1      44.134  32.516  33.613  1.00  0.00     0.029 A 
ATOM     30  N   UNL A   1      42.878  31.330  32.211  1.00  0.00    -0.354 N 
ATOM     31  N   UNL A   1      42.234  29.001  30.547  1.00  0.00    -0.248 NA
ATOM     32  C   UNL A   1      42.827  26.937  29.621  1.00  0.00     0.031 C 
ATOM     33  C   UNL A   1      44.837  31.358  33.261  1.00  0.00     0.029 A 
ATOM     34  C   UNL A   1      44.045  30.608  32.410  1.00  0.00     0.049 A 
ATOM     35  H   UNL A   1      42.129  31.048  31.638  1.00  0.00     0.167 HD
ATOM     36  C   UNL A   1      43.491  28.640  31.007  1.00  0.00     0.074 A 
ATOM     37  C   UNL A   1      43.793  27.343  30.432  1.00  0.00     0.031 C 
ATOM     38  C   UNL A   1      44.329  29.327  31.819  1.00  0.00     0.031 A 
BRANCH  25  39
ATOM     39  C   UNL A   1      42.085  34.725  33.809  1.00  0.00    -0.014 A 
ATOM     40  C   UNL A   1      41.731  34.752  35.167  1.00  0.00     0.009 A 
ATOM     41  C   UNL A   1      42.710  35.853  33.250  1.00  0.00     0.009 A 
ATOM     42  C   UNL A   1      41.976  35.891  35.941  1.00  0.00     0.001 A 
ATOM     43  C   UNL A   1      42.974  36.980  34.031  1.00  0.00     0.001 A 
ATOM     44  C   UNL A   1      42.601  37.001  35.374  1.00  0.00     0.000 A 
ENDBRANCH  25  39
BRANCH  26  45
ATOM     45  C   UNL A   1      40.315  26.700  28.133  1.00  0.00    -0.014 A 
ATOM     46  C   UNL A   1      39.531  25.645  28.618  1.00  0.00     0.009 A 
ATOM     47  C   UNL A   1      40.822  26.628  26.825  1.00  0.00     0.009 A 
ATOM     48  C   UNL A   1      39.269  24.535  27.812  1.00  0.00     0.001 A 
ATOM     49  C   UNL A   1      40.529  25.534  26.010  1.00  0.00     0.001 A 
ATOM     50  C   UNL A   1      39.760  24.484  26.508  1.00  0.00     0.000 A 
ENDBRANCH  26  45
BRANCH  38  51
ATOM     51  C   UNL A   1      45.640  28.671  32.138  1.00  0.00    -0.014 A 
ATOM     52  C   UNL A   1      45.760  27.791  33.225  1.00  0.00     0.009 A 
ATOM     53  C   UNL A   1      46.765  28.939  31.346  1.00  0.00     0.009 A 
ATOM     54  C   UNL A   1      46.996  27.222  33.536  1.00  0.00     0.001 A 
ATOM     55  C   UNL A   1      47.994  28.349  31.644  1.00  0.00     0.001 A 
ATOM     56  C   UNL A   1      48.110  27.501  32.745  1.00  0.00     0.000 A 
ENDBRANCH  38  51
ENDBRANCH  12  13
ENDBRANCH   5   7
ENDBRANCH   2   3
ENDBRANCH   1   2
BRANCH   1  57
ATOM     57  C   UNL A   1      31.811  29.090  27.156  1.00  0.00     0.023 C 
BRANCH  57  58
ATOM     58  C   UNL A   1      32.182  27.632  26.895  1.00  0.00     0.116 C 
BRANCH  58  59
ATOM     59  N   UNL A   1      31.025  26.775  26.904  1.00  0.00    -0.356 N 
ATOM     60  C   UNL A   1      30.497  26.002  25.929  1.00  0.00     0.223 C 
ATOM     61  H   UNL A   1      30.537  26.749  27.759  1.00  0.00     0.163 HD
ATOM     62  O   UNL A   1      29.573  25.252  26.268  1.00  0.00    -0.275 OA
BRANCH  60  63
ATOM     63  C   UNL A   1      30.984  26.009  24.472  1.00  0.00     0.086 C 
BRANCH  63  64
ATOM     64  C   UNL A   1      30.929  27.414  23.749  1.00  0.00     0.049 C 
BRANCH  64  65
ATOM     65  C   UNL A   1      29.839  28.485  23.600  1.00  0.00    -0.044 A 
ATOM     66  C   UNL A   1      28.559  28.039  23.194  1.00  0.00     0.004 A 
ATOM     67  C   UNL A   1      29.961  29.876  23.716  1.00  0.00     0.043 A 
ATOM     68  C   UNL A   1      27.485  28.920  22.969  1.00  0.00     0.003 A 
ATOM     69  C   UNL A   1      28.897  30.754  23.489  1.00  0.00     0.123 A 
ATOM     70  C   UNL A   1      27.654  30.288  23.121  1.00  0.00     0.039 A 
ATOM     71  F   UNL A   1      29.097  32.067  23.652  1.00  0.00    -0.207 F 
ENDBRANCH  64  65
ENDBRANCH  63  64
BRANCH  63  72
ATOM     72  C   UNL A   1      32.003  24.890  24.036  1.00  0.00     0.007 C 
ATOM     73  C   UNL A   1      32.215  24.910  22.536  1.00  0.00     0.033 C 
ATOM     74  C   UNL A   1      33.383  24.883  24.756  1.00  0.00     0.040 C 
ATOM     75  C   UNL A   1      33.181  23.896  21.992  1.00  0.00     0.161 C 
ATOM     76  C   UNL A   1      34.357  23.879  24.097  1.00  0.00     0.069 C 
ATOM     77  O   UNL A   1      34.405  24.112  22.665  1.00  0.00    -0.375 OA
ATOM     78  C   UNL A   1      35.794  23.795  24.712  1.00  0.00     0.035 C 
ATOM     79  C   UNL A   1      34.247  22.366  24.494  1.00  0.00     0.035 C 
ATOM     80  C   UNL A   1      35.778  22.308  24.280  1.00  0.00     0.006 C 
ENDBRANCH  63  72
ENDBRANCH  60  63
ENDBRANCH  58  59
ENDBRANCH  57  58
ENDBRANCH   1  57
TORSDOF 14
ENDMDL
MODEL 2
REMARK VINA RESULT:     -11.9      3.600      8.889
REMARK SMILES O=C(NCCCCNC(=O)[C@@H](Cc1cccc(F)c1)[C@H]1CCOC2(CCC2)C1)c1ccc(-c2c3nc(c(-c4ccccc4)c4ccc([nH]4)c(-c4ccccc4)c4nc(c(-c5ccccc5)c5ccc2[nH]5)C=C4)C=C3)cc1
REMARK SMILES IDX 5 1 4 2 3 3 1 4 2 5 29 7 30 8 76 9 31 10 75 11 32 12 33 13
REMARK SMILES IDX 34 14 69 15 35 16 74 17 68 18 70 19 36 20 73 21 67 22 66 23
REMARK SMILES IDX 37 25 59 26 44 27 58 28 45 29 48 30 57 31 71 32 46 33 47 34
REMARK SMILES IDX 56 36 72 37 49 38 38 39 39 40 43 41 40 42 42 43 41 44 60 45
REMARK SMILES IDX 61 46 65 47 62 48 64 49 63 50 50 51 51 52 55 53 52 54 54 55
REMARK SMILES IDX 53 56 6 57 7 58 8 59 9 60 10 62 11 63 12 64 13 65 14 66
REMARK SMILES IDX 19 67 15 68 17 69 16 70 18 71 20 72 21 73 28 74 22 75 24 76
REMARK SMILES IDX 23 77 25 78 27 79 26 80
REMARK H PARENT 3 6 70 24 48 35 8 61
REMARK Flexibility Score: inf
ROOT
ATOM      1  C   UNL A   1      37.372  21.434  25.375  1.00  0.00     0.023 C 
ENDROOT
BRANCH   1   2
ATOM      2  C   UNL A   1      38.825  21.445  25.821  1.00  0.00     0.116 C 
BRANCH   2   3
ATOM      3  N   UNL A   1      39.568  20.201  25.631  1.00  0.00    -0.352 N 
ATOM      4  O   UNL A   1      41.401  18.854  25.781  1.00  0.00    -0.269 OA
ATOM      5  C   UNL A   1      40.879  19.944  25.987  1.00  0.00     0.251 C 
ATOM      6  H   UNL A   1      39.080  19.463  25.199  1.00  0.00     0.163 HD
BRANCH   5   7
ATOM      7  C   UNL A   1      41.668  21.053  26.562  1.00  0.00     0.039 A 
ATOM      8  C   UNL A   1      41.737  21.191  27.945  1.00  0.00     0.014 A 
ATOM      9  C   UNL A   1      42.148  22.057  25.719  1.00  0.00     0.014 A 
ATOM     10  C   UNL A   1      42.023  22.439  28.474  1.00  0.00     0.010 A 
ATOM     11  C   UNL A   1      42.582  23.266  26.270  1.00  0.00     0.010 A 
ATOM     12  C   UNL A   1      42.452  23.495  27.648  1.00  0.00    -0.014 A 
BRANCH  12  13
ATOM     13  C   UNL A   1      42.759  24.810  28.273  1.00  0.00     0.031 A 
ATOM     14  C   UNL A   1      44.169  25.218  28.618  1.00  0.00     0.074 A 
ATOM     15  C   UNL A   1      41.747  25.684  28.443  1.00  0.00     0.049 A 
ATOM     16  N   UNL A   1      44.591  26.345  29.139  1.00  0.00    -0.248 NA
ATOM     17  C   UNL A   1      45.244  24.247  28.355  1.00  0.00     0.031 C 
ATOM     18  C   UNL A   1      40.338  25.410  28.140  1.00  0.00     0.029 A 
ATOM     19  N   UNL A   1      41.745  26.989  28.860  1.00  0.00    -0.354 N 
ATOM     20  C   UNL A   1      45.965  26.202  29.304  1.00  0.00     0.074 A 
ATOM     21  C   UNL A   1      46.308  24.877  28.836  1.00  0.00     0.031 C 
ATOM     22  C   UNL A   1      39.629  26.537  28.282  1.00  0.00     0.029 A 
ATOM     23  C   UNL A   1      40.509  27.582  28.788  1.00  0.00     0.049 A 
ATOM     24  H   UNL A   1      42.552  27.457  29.177  1.00  0.00     0.167 HD
ATOM     25  C   UNL A   1      46.856  27.094  29.802  1.00  0.00     0.031 A 
ATOM     26  C   UNL A   1      40.109  28.823  29.116  1.00  0.00     0.031 A 
ATOM     27  C   UNL A   1      46.515  28.420  30.250  1.00  0.00     0.049 A 
ATOM     28  C   UNL A   1      41.115  29.783  29.669  1.00  0.00     0.074 A 
ATOM     29  C   UNL A   1      47.347  29.396  30.777  1.00  0.00     0.029 A 
ATOM     30  N   UNL A   1      45.240  28.962  30.212  1.00  0.00    -0.354 N 
ATOM     31  N   UNL A   1      42.402  29.614  29.848  1.00  0.00    -0.248 NA
ATOM     32  C   UNL A   1      40.609  31.098  30.082  1.00  0.00     0.031 C 
ATOM     33  C   UNL A   1      46.567  30.515  31.090  1.00  0.00     0.029 A 
ATOM     34  C   UNL A   1      45.260  30.254  30.714  1.00  0.00     0.049 A 
ATOM     35  H   UNL A   1      44.439  28.499  29.878  1.00  0.00     0.167 HD
ATOM     36  C   UNL A   1      42.862  30.800  30.398  1.00  0.00     0.074 A 
ATOM     37  C   UNL A   1      41.722  31.692  30.488  1.00  0.00     0.031 C 
ATOM     38  C   UNL A   1      44.113  31.119  30.806  1.00  0.00     0.031 A 
BRANCH  25  39
ATOM     39  C   UNL A   1      48.292  26.660  29.920  1.00  0.00    -0.014 A 
ATOM     40  C   UNL A   1      48.751  25.941  31.035  1.00  0.00     0.009 A 
ATOM     41  C   UNL A   1      49.186  26.917  28.867  1.00  0.00     0.009 A 
ATOM     42  C   UNL A   1      50.080  25.512  31.104  1.00  0.00     0.001 A 
ATOM     43  C   UNL A   1      50.507  26.468  28.928  1.00  0.00     0.001 A 
ATOM     44  C   UNL A   1      50.955  25.771  30.048  1.00  0.00     0.000 A 
ENDBRANCH  25  39
BRANCH  26  45
ATOM     45  C   UNL A   1      38.680  29.198  28.965  1.00  0.00    -0.014 A 
ATOM     46  C   UNL A   1      38.186  29.666  27.740  1.00  0.00     0.009 A 
ATOM     47  C   UNL A   1      37.797  29.060  30.049  1.00  0.00     0.009 A 
ATOM     48  C   UNL A   1      36.836  29.998  27.607  1.00  0.00     0.001 A 
ATOM     49  C   UNL A   1      36.443  29.360  29.903  1.00  0.00     0.001 A 
ATOM     50  C   UNL A   1      35.965  29.838  28.684  1.00  0.00     0.000 A 
ENDBRANCH  26  45
BRANCH  38  51
ATOM     51  C   UNL A   1      44.303  32.495  31.371  1.00  0.00    -0.014 A 
ATOM     52  C   UNL A   1      44.570  33.588  30.533  1.00  0.00     0.009 A 
ATOM     53  C   UNL A   1      44.216  32.699  32.757  1.00  0.00     0.009 A 
ATOM     54  C   UNL A   1      44.788  34.856  31.077  1.00  0.00     0.001 A 
ATOM     55  C   UNL A   1      44.409  33.972  33.295  1.00  0.00     0.001 A 
ATOM     56  C   UNL A   1      44.706  35.045  32.456  1.00  0.00     0.000 A 
ENDBRANCH  38  51
ENDBRANCH  12  13
ENDBRANCH   5   7
ENDBRANCH   2   3
ENDBRANCH   1   2
BRANCH   1  57
ATOM     57  C   UNL A   1      37.036  22.404  24.260  1.00  0.00     0.023 C 
BRANCH  57  58
ATOM     58  C   UNL A   1      35.661  23.064  24.339  1.00  0.00     0.116 C 
BRANCH  58  59
ATOM     59  N   UNL A   1      35.002  23.082  23.059  1.00  0.00    -0.356 N 
ATOM     60  C   UNL A   1      33.687  23.053  22.747  1.00  0.00     0.223 C 
ATOM     61  H   UNL A   1      35.608  23.121  22.284  1.00  0.00     0.163 HD
ATOM     62  O   UNL A   1      33.405  23.230  21.556  1.00  0.00    -0.275 OA
BRANCH  60  63
ATOM     63  C   UNL A   1      32.568  22.825  23.775  1.00  0.00     0.086 C 
BRANCH  63  64
ATOM     64  C   UNL A   1      32.607  21.429  24.518  1.00  0.00     0.049 C 
BRANCH  64  65
ATOM     65  C   UNL A   1      33.052  20.021  24.099  1.00  0.00    -0.044 A 
ATOM     66  C   UNL A   1      32.246  19.356  23.146  1.00  0.00     0.004 A 
ATOM     67  C   UNL A   1      34.106  19.252  24.609  1.00  0.00     0.043 A 
ATOM     68  C   UNL A   1      32.509  18.042  22.714  1.00  0.00     0.003 A 
ATOM     69  C   UNL A   1      34.368  17.945  24.185  1.00  0.00     0.123 A 
ATOM     70  C   UNL A   1      33.581  17.332  23.235  1.00  0.00     0.039 A 
ATOM     71  F   UNL A   1      35.415  17.295  24.707  1.00  0.00    -0.207 F 
ENDBRANCH  64  65
ENDBRANCH  63  64
BRANCH  63  72
ATOM     72  C   UNL A   1      31.907  24.096  24.431  1.00  0.00     0.007 C 
ATOM     73  C   UNL A   1      30.909  23.694  25.497  1.00  0.00     0.033 C 
ATOM     74  C   UNL A   1      32.876  25.170  25.004  1.00  0.00     0.040 C 
ATOM     75  C   UNL A   1      30.216  24.819  26.212  1.00  0.00     0.161 C 
ATOM     76  C   UNL A   1      32.110  26.254  25.797  1.00  0.00     0.069 C 
ATOM     77  O   UNL A   1      31.236  25.622  26.770  1.00  0.00    -0.375 OA
ATOM     78  C   UNL A   1      32.974  27.382  26.452  1.00  0.00     0.035 C 
ATOM     79  C   UNL A   1      31.435  27.423  24.999  1.00  0.00     0.035 C 
ATOM     80  C   UNL A   1      31.750  28.305  26.230  1.00  0.00     0.006 C 
ENDBRANCH  63  72
ENDBRANCH  60  63
ENDBRANCH  58  59
ENDBRANCH  57  58
ENDBRANCH   1  57
TORSDOF 14
ENDMDL
MODEL 3
REMARK VINA RESULT:     -11.9      0.281      5.899
REMARK SMILES O=C(NCCCCNC(=O)[C@@H](Cc1cccc(F)c1)[C@H]1CCOC2(CCC2)C1)c1ccc(-c2c3nc(c(-c4ccccc4)c4ccc([nH]4)c(-c4ccccc4)c4nc(c(-c5ccccc5)c5ccc2[nH]5)C=C4)C=C3)cc1
REMARK SMILES IDX 5 1 4 2 3 3 1 4 2 5 29 7 30 8 76 9 31 10 75 11 32 12 33 13
REMARK SMILES IDX 34 14 69 15 35 16 74 17 68 18 70 19 36 20 73 21 67 22 66 23
REMARK SMILES IDX 37 25 59 26 44 27 58 28 45 29 48 30 57 31 71 32 46 33 47 34
REMARK SMILES IDX 56 36 72 37 49 38 38 39 39 40 43 41 40 42 42 43 41 44 60 45
REMARK SMILES IDX 61 46 65 47 62 48 64 49 63 50 50 51 51 52 55 53 52 54 54 55
REMARK SMILES IDX 53 56 6 57 7 58 8 59 9 60 10 62 11 63 12 64 13 65 14 66
REMARK SMILES IDX 19 67 15 68 17 69 16 70 18 71 20 72 21 73 28 74 22 75 24 76
REMARK SMILES IDX 23 77 25 78 27 79 26 80
REMARK H PARENT 3 6 70 24 48 35 8 61
REMARK Flexibility Score: inf
ROOT
ATOM      1  C   UNL A   1      32.535  30.484  26.443  1.00  0.00     0.023 C 
ENDROOT
BRANCH   1   2
ATOM      2  C   UNL A   1      33.325  31.487  27.267  1.00  0.00     0.116 C 
BRANCH   2   3
ATOM      3  N   UNL A   1      32.677  32.773  27.516  1.00  0.00    -0.352 N 
ATOM      4  O   UNL A   1      32.531  34.868  28.400  1.00  0.00    -0.269 OA
ATOM      5  C   UNL A   1      33.165  33.829  28.262  1.00  0.00     0.251 C 
ATOM      6  H   UNL A   1      31.790  32.901  27.106  1.00  0.00     0.163 HD
BRANCH   5   7
ATOM      7  C   UNL A   1      34.454  33.643  28.959  1.00  0.00     0.039 A 
ATOM      8  C   UNL A   1      35.634  33.992  28.310  1.00  0.00     0.014 A 
ATOM      9  C   UNL A   1      34.484  32.929  30.159  1.00  0.00     0.014 A 
ATOM     10  C   UNL A   1      36.815  33.389  28.709  1.00  0.00     0.010 A 
ATOM     11  C   UNL A   1      35.704  32.450  30.643  1.00  0.00     0.010 A 
ATOM     12  C   UNL A   1      36.872  32.611  29.881  1.00  0.00    -0.014 A 
BRANCH  12  13
ATOM     13  C   UNL A   1      38.171  31.998  30.269  1.00  0.00     0.031 A 
ATOM     14  C   UNL A   1      38.658  30.710  29.655  1.00  0.00     0.074 A 
ATOM     15  C   UNL A   1      38.962  32.675  31.125  1.00  0.00     0.049 A 
ATOM     16  N   UNL A   1      39.783  30.072  29.874  1.00  0.00    -0.248 NA
ATOM     17  C   UNL A   1      37.779  30.044  28.679  1.00  0.00     0.031 C 
ATOM     18  C   UNL A   1      38.606  33.938  31.782  1.00  0.00     0.029 A 
ATOM     19  N   UNL A   1      40.240  32.431  31.553  1.00  0.00    -0.354 N 
ATOM     20  C   UNL A   1      39.728  28.917  29.101  1.00  0.00     0.074 A 
ATOM     21  C   UNL A   1      38.456  28.934  28.411  1.00  0.00     0.031 C 
ATOM     22  C   UNL A   1      39.672  34.407  32.442  1.00  0.00     0.029 A 
ATOM     23  C   UNL A   1      40.748  33.430  32.347  1.00  0.00     0.049 A 
ATOM     24  H   UNL A   1      40.746  31.620  31.314  1.00  0.00     0.167 HD
ATOM     25  C   UNL A   1      40.653  27.934  28.980  1.00  0.00     0.031 A 
ATOM     26  C   UNL A   1      41.939  33.545  32.960  1.00  0.00     0.031 A 
ATOM     27  C   UNL A   1      41.927  27.928  29.652  1.00  0.00     0.049 A 
ATOM     28  C   UNL A   1      42.937  32.440  32.812  1.00  0.00     0.074 A 
ATOM     29  C   UNL A   1      42.930  26.973  29.598  1.00  0.00     0.029 A 
ATOM     30  N   UNL A   1      42.380  28.934  30.493  1.00  0.00    -0.354 N 
ATOM     31  N   UNL A   1      42.849  31.342  32.103  1.00  0.00    -0.248 NA
ATOM     32  C   UNL A   1      44.190  32.582  33.564  1.00  0.00     0.031 C 
ATOM     33  C   UNL A   1      43.974  27.385  30.435  1.00  0.00     0.029 A 
ATOM     34  C   UNL A   1      43.642  28.618  30.971  1.00  0.00     0.049 A 
ATOM     35  H   UNL A   1      41.879  29.751  30.716  1.00  0.00     0.167 HD
ATOM     36  C   UNL A   1      44.035  30.658  32.324  1.00  0.00     0.074 A 
ATOM     37  C   UNL A   1      44.838  31.484  33.204  1.00  0.00     0.031 C 
ATOM     38  C   UNL A   1      44.418  29.447  31.854  1.00  0.00     0.031 A 
BRANCH  25  39
ATOM     39  C   UNL A   1      40.315  26.757  28.105  1.00  0.00    -0.014 A 
ATOM     40  C   UNL A   1      40.805  26.654  26.794  1.00  0.00     0.009 A 
ATOM     41  C   UNL A   1      39.547  25.701  28.625  1.00  0.00     0.009 A 
ATOM     42  C   UNL A   1      40.511  25.531  26.014  1.00  0.00     0.001 A 
ATOM     43  C   UNL A   1      39.274  24.571  27.851  1.00  0.00     0.001 A 
ATOM     44  C   UNL A   1      39.752  24.489  26.544  1.00  0.00     0.000 A 
ENDBRANCH  25  39
BRANCH  26  45
ATOM     45  C   UNL A   1      42.221  34.737  33.799  1.00  0.00    -0.014 A 
ATOM     46  C   UNL A   1      42.779  35.894  33.240  1.00  0.00     0.009 A 
ATOM     47  C   UNL A   1      41.902  34.727  35.167  1.00  0.00     0.009 A 
ATOM     48  C   UNL A   1      43.023  37.015  34.037  1.00  0.00     0.001 A 
ATOM     49  C   UNL A   1      42.114  35.859  35.954  1.00  0.00     0.001 A 
ATOM     50  C   UNL A   1      42.683  37.000  35.389  1.00  0.00     0.000 A 
ENDBRANCH  26  45
BRANCH  38  51
ATOM     51  C   UNL A   1      45.773  28.963  32.278  1.00  0.00    -0.014 A 
ATOM     52  C   UNL A   1      45.933  28.190  33.438  1.00  0.00     0.009 A 
ATOM     53  C   UNL A   1      46.901  29.287  31.510  1.00  0.00     0.009 A 
ATOM     54  C   UNL A   1      47.206  27.783  33.843  1.00  0.00     0.001 A 
ATOM     55  C   UNL A   1      48.169  28.858  31.904  1.00  0.00     0.001 A 
ATOM     56  C   UNL A   1      48.321  28.117  33.075  1.00  0.00     0.000 A 
ENDBRANCH  38  51
ENDBRANCH  12  13
ENDBRANCH   5   7
ENDBRANCH   2   3
ENDBRANCH   1   2
BRANCH   1  57
ATOM     57  C   UNL A   1      31.841  29.401  27.245  1.00  0.00     0.023 C 
BRANCH  57  58
ATOM     58  C   UNL A   1      32.284  27.968  26.957  1.00  0.00     0.116 C 
BRANCH  58  59
ATOM     59  N   UNL A   1      31.179  27.046  27.010  1.00  0.00    -0.356 N 
ATOM     60  C   UNL A   1      30.645  26.258  26.050  1.00  0.00     0.223 C 
ATOM     61  H   UNL A   1      30.740  26.979  27.889  1.00  0.00     0.163 HD
ATOM     62  O   UNL A   1      29.785  25.451  26.423  1.00  0.00    -0.275 OA
BRANCH  60  63
ATOM     63  C   UNL A   1      31.053  26.316  24.571  1.00  0.00     0.086 C 
BRANCH  63  64
ATOM     64  C   UNL A   1      31.005  27.753  23.912  1.00  0.00     0.049 C 
BRANCH  64  65
ATOM     65  C   UNL A   1      29.883  28.775  23.685  1.00  0.00    -0.044 A 
ATOM     66  C   UNL A   1      28.674  28.282  23.140  1.00  0.00     0.004 A 
ATOM     67  C   UNL A   1      29.922  30.165  23.853  1.00  0.00     0.043 A 
ATOM     68  C   UNL A   1      27.583  29.119  22.834  1.00  0.00     0.003 A 
ATOM     69  C   UNL A   1      28.843  30.998  23.546  1.00  0.00     0.123 A 
ATOM     70  C   UNL A   1      27.667  30.488  23.041  1.00  0.00     0.039 A 
ATOM     71  F   UNL A   1      28.959  32.314  23.766  1.00  0.00    -0.207 F 
ENDBRANCH  64  65
ENDBRANCH  63  64
BRANCH  63  72
ATOM     72  C   UNL A   1      32.011  25.187  24.031  1.00  0.00     0.007 C 
ATOM     73  C   UNL A   1      32.228  25.332  22.539  1.00  0.00     0.033 C 
ATOM     74  C   UNL A   1      33.386  25.039  24.744  1.00  0.00     0.040 C 
ATOM     75  C   UNL A   1      33.138  24.321  21.902  1.00  0.00     0.161 C 
ATOM     76  C   UNL A   1      34.306  24.048  23.994  1.00  0.00     0.069 C 
ATOM     77  O   UNL A   1      34.370  24.407  22.589  1.00  0.00    -0.375 OA
ATOM     78  C   UNL A   1      35.735  23.829  24.594  1.00  0.00     0.035 C 
ATOM     79  C   UNL A   1      34.113  22.513  24.251  1.00  0.00     0.035 C 
ATOM     80  C   UNL A   1      35.638  22.391  24.029  1.00  0.00     0.006 C 
ENDBRANCH  63  72
ENDBRANCH  60  63
ENDBRANCH  58  59
ENDBRANCH  57  58
ENDBRANCH   1  57
TORSDOF 14
ENDMDL
