MODEL 1
REMARK VINA RESULT:     -13.3      0.000      0.000
REMARK SMILES Cc1cccc(C[N@H+]2CC[C@@](C)(C(=O)NCCCCNC(=O)c3ccc(-c4c5nc(c(-c6ccccc6)c6ccc([nH]6)c(-c6ccccc6)c6nc(c(-c7ccccc7)c7ccc4[nH]7)C=C6)C=C5)cc3)C2)n1
REMARK SMILES IDX 17 1 16 2 15 3 13 4 14 5 11 7 8 8 9 9 71 10 10 12 12 13 7 14
REMARK SMILES IDX 6 15 1 16 2 17 3 18 72 19 4 20 5 21 18 22 19 23 20 24 21 25
REMARK SMILES IDX 22 27 23 28 24 29 70 30 25 31 69 32 26 33 27 34 28 35 63 36
REMARK SMILES IDX 29 37 68 38 62 39 64 40 30 41 67 42 61 43 60 44 31 46 53 47
REMARK SMILES IDX 38 48 52 49 39 50 42 51 51 52 65 53 40 54 41 55 50 57 66 58
REMARK SMILES IDX 43 59 32 60 33 61 37 62 34 63 36 64 35 65 54 66 55 67 59 68
REMARK SMILES IDX 56 69 58 70 57 71 44 72 45 73 49 74 46 75 48 76 47 77
REMARK H PARENT 15 6 8 11 20 26 64 45 42 56
REMARK Flexibility Score: inf
ROOT
ATOM      1  C   UNL A   1      31.939  30.420  26.258  1.00  0.00     0.023 C 
ENDROOT
BRANCH   1   2
ATOM      2  C   UNL A   1      32.034  28.481  27.257  1.00  0.00     0.116 C 
BRANCH   2   3
ATOM      3  N   UNL A   1      31.223  27.161  27.132  1.00  0.00    -0.355 N 
ATOM      4  C   UNL A   1      31.397  26.071  26.342  1.00  0.00     0.231 C 
ATOM      5  O   UNL A   1      30.529  25.200  26.508  1.00  0.00    -0.274 OA
ATOM      6  H   UNL A   1      30.445  27.105  27.733  1.00  0.00     0.163 HD
BRANCH   4   7
ATOM      7  C   UNL A   1      32.618  25.827  25.400  1.00  0.00     0.100 C 
ATOM      8  N   UNL A   1      32.662  26.533  23.044  1.00  0.00    -0.329 N 
ATOM      9  C   UNL A   1      33.249  27.621  23.829  1.00  0.00     0.263 C 
ATOM     10  C   UNL A   1      32.357  25.403  23.945  1.00  0.00     0.279 C 
ATOM     11  H   UNL A   1      33.371  26.241  22.371  1.00  0.00     0.348 HD
ATOM     12  C   UNL A   1      33.466  27.099  25.251  1.00  0.00     0.084 C 
ATOM     13  C   UNL A   1      33.451  24.717  26.097  1.00  0.00     0.028 C 
BRANCH   8  14
ATOM     14  C   UNL A   1      31.571  26.898  22.106  1.00  0.00     0.319 C 
BRANCH  14  15
ATOM     15  C   UNL A   1      30.464  27.786  22.694  1.00  0.00     0.095 A 
ATOM     16  C   UNL A   1      28.599  31.517  21.290  1.00  0.00     0.067 C 
ATOM     17  C   UNL A   1      28.703  30.192  21.973  1.00  0.00     0.038 A 
ATOM     18  C   UNL A   1      27.278  29.401  22.738  1.00  0.00     0.023 A 
ATOM     19  N   UNL A   1      30.246  29.357  21.907  1.00  0.00    -0.252 NA
ATOM     20  C   UNL A   1      27.498  27.820  23.578  1.00  0.00     0.004 A 
ATOM     21  C   UNL A   1      29.088  26.979  23.502  1.00  0.00     0.030 A 
ENDBRANCH  14  15
ENDBRANCH   8  14
ENDBRANCH   4   7
ENDBRANCH   2   3
ENDBRANCH   1   2
BRANCH   1  22
ATOM     22  C   UNL A   1      31.626  32.053  26.750  1.00  0.00     0.023 C 
BRANCH  22  23
ATOM     23  C   UNL A   1      32.724  32.903  27.378  1.00  0.00     0.116 C 
BRANCH  23  24
ATOM     24  N   UNL A   1      32.301  34.221  27.807  1.00  0.00    -0.352 N 
ATOM     25  C   UNL A   1      32.946  34.995  28.742  1.00  0.00     0.251 C 
ATOM     26  H   UNL A   1      31.488  34.592  27.397  1.00  0.00     0.163 HD
ATOM     27  O   UNL A   1      32.521  36.080  29.109  1.00  0.00    -0.269 OA
BRANCH  25  28
ATOM     28  C   UNL A   1      34.178  34.426  29.309  1.00  0.00     0.039 A 
ATOM     29  C   UNL A   1      34.069  33.483  30.330  1.00  0.00     0.014 A 
ATOM     30  C   UNL A   1      35.397  34.690  28.679  1.00  0.00     0.014 A 
ATOM     31  C   UNL A   1      35.209  32.798  30.731  1.00  0.00     0.010 A 
ATOM     32  C   UNL A   1      36.505  33.926  29.008  1.00  0.00     0.010 A 
ATOM     33  C   UNL A   1      36.432  33.013  30.070  1.00  0.00    -0.014 A 
BRANCH  33  34
ATOM     34  C   UNL A   1      37.667  32.375  30.575  1.00  0.00     0.031 A 
ATOM     35  C   UNL A   1      38.263  32.879  31.860  1.00  0.00     0.074 A 
ATOM     36  C   UNL A   1      38.217  31.344  29.906  1.00  0.00     0.049 A 
ATOM     37  N   UNL A   1      39.298  32.435  32.522  1.00  0.00    -0.248 NA
ATOM     38  C   UNL A   1      37.625  34.060  32.470  1.00  0.00     0.031 C 
ATOM     39  C   UNL A   1      37.725  30.796  28.639  1.00  0.00     0.029 A 
ATOM     40  N   UNL A   1      39.290  30.552  30.219  1.00  0.00    -0.354 N 
ATOM     41  C   UNL A   1      39.433  33.285  33.613  1.00  0.00     0.074 A 
ATOM     42  C   UNL A   1      38.444  34.326  33.473  1.00  0.00     0.031 C 
ATOM     43  C   UNL A   1      38.454  29.715  28.319  1.00  0.00     0.029 A 
ATOM     44  C   UNL A   1      39.485  29.520  29.332  1.00  0.00     0.049 A 
ATOM     45  H   UNL A   1      39.866  30.706  31.002  1.00  0.00     0.167 HD
ATOM     46  C   UNL A   1      40.277  33.187  34.665  1.00  0.00     0.031 A 
ATOM     47  C   UNL A   1      40.388  28.523  29.354  1.00  0.00     0.031 A 
ATOM     48  C   UNL A   1      41.255  32.144  34.790  1.00  0.00     0.049 A 
ATOM     49  C   UNL A   1      41.352  28.458  30.509  1.00  0.00     0.074 A 
ATOM     50  C   UNL A   1      42.158  31.922  35.811  1.00  0.00     0.029 A 
ATOM     51  N   UNL A   1      41.453  31.143  33.847  1.00  0.00    -0.354 N 
ATOM     52  N   UNL A   1      41.438  29.240  31.560  1.00  0.00    -0.248 NA
ATOM     53  C   UNL A   1      42.331  27.365  30.488  1.00  0.00     0.031 C 
ATOM     54  C   UNL A   1      42.950  30.825  35.453  1.00  0.00     0.029 A 
ATOM     55  C   UNL A   1      42.482  30.314  34.250  1.00  0.00     0.049 A 
ATOM     56  H   UNL A   1      40.937  31.041  33.015  1.00  0.00     0.167 HD
ATOM     57  C   UNL A   1      42.454  28.711  32.345  1.00  0.00     0.074 A 
ATOM     58  C   UNL A   1      42.942  27.535  31.652  1.00  0.00     0.031 C 
ATOM     59  C   UNL A   1      42.941  29.151  33.533  1.00  0.00     0.031 A 
BRANCH  46  60
ATOM     60  C   UNL A   1      40.176  34.248  35.728  1.00  0.00    -0.014 A 
ATOM     61  C   UNL A   1      40.929  35.435  35.656  1.00  0.00     0.009 A 
ATOM     62  C   UNL A   1      39.340  34.048  36.837  1.00  0.00     0.009 A 
ATOM     63  C   UNL A   1      40.895  36.363  36.700  1.00  0.00     0.001 A 
ATOM     64  C   UNL A   1      39.277  34.998  37.860  1.00  0.00     0.001 A 
ATOM     65  C   UNL A   1      40.067  36.145  37.798  1.00  0.00     0.000 A 
ENDBRANCH  46  60
BRANCH  47  66
ATOM     66  C   UNL A   1      40.398  27.491  28.281  1.00  0.00    -0.014 A 
ATOM     67  C   UNL A   1      39.658  26.306  28.419  1.00  0.00     0.009 A 
ATOM     68  C   UNL A   1      41.146  27.685  27.109  1.00  0.00     0.009 A 
ATOM     69  C   UNL A   1      39.692  25.327  27.421  1.00  0.00     0.001 A 
ATOM     70  C   UNL A   1      41.152  26.720  26.099  1.00  0.00     0.001 A 
ATOM     71  C   UNL A   1      40.433  25.537  26.260  1.00  0.00     0.000 A 
ENDBRANCH  47  66
BRANCH  59  72
ATOM     72  C   UNL A   1      44.017  28.323  34.179  1.00  0.00    -0.014 A 
ATOM     73  C   UNL A   1      45.378  28.578  33.955  1.00  0.00     0.009 A 
ATOM     74  C   UNL A   1      43.652  27.297  35.066  1.00  0.00     0.009 A 
ATOM     75  C   UNL A   1      46.351  27.789  34.572  1.00  0.00     0.001 A 
ATOM     76  C   UNL A   1      44.626  26.539  35.712  1.00  0.00     0.001 A 
ATOM     77  C   UNL A   1      45.975  26.775  35.454  1.00  0.00     0.000 A 
ENDBRANCH  59  72
ENDBRANCH  33  34
ENDBRANCH  25  28
ENDBRANCH  23  24
ENDBRANCH  22  23
ENDBRANCH   1  22
TORSDOF 13
ENDMDL
MODEL 2
REMARK VINA RESULT:     -12.9      1.278      3.160
REMARK SMILES Cc1cccc(C[N@H+]2CC[C@@](C)(C(=O)NCCCCNC(=O)c3ccc(-c4c5nc(c(-c6ccccc6)c6ccc([nH]6)c(-c6ccccc6)c6nc(c(-c7ccccc7)c7ccc4[nH]7)C=C6)C=C5)cc3)C2)n1
REMARK SMILES IDX 17 1 16 2 15 3 13 4 14 5 11 7 8 8 9 9 71 10 10 12 12 13 7 14
REMARK SMILES IDX 6 15 1 16 2 17 3 18 72 19 4 20 5 21 18 22 19 23 20 24 21 25
REMARK SMILES IDX 22 27 23 28 24 29 70 30 25 31 69 32 26 33 27 34 28 35 63 36
REMARK SMILES IDX 29 37 68 38 62 39 64 40 30 41 67 42 61 43 60 44 31 46 53 47
REMARK SMILES IDX 38 48 52 49 39 50 42 51 51 52 65 53 40 54 41 55 50 57 66 58
REMARK SMILES IDX 43 59 32 60 33 61 37 62 34 63 36 64 35 65 54 66 55 67 59 68
REMARK SMILES IDX 56 69 58 70 57 71 44 72 45 73 49 74 46 75 48 76 47 77
REMARK H PARENT 15 6 8 11 20 26 64 45 42 56
REMARK Flexibility Score: inf
ROOT
ATOM      1  C   UNL A   1      31.518  30.046  25.761  1.00  0.00     0.023 C 
ENDROOT
BRANCH   1   2
ATOM      2  C   UNL A   1      31.923  28.023  26.474  1.00  0.00     0.116 C 
BRANCH   2   3
ATOM      3  N   UNL A   1      31.036  26.773  26.738  1.00  0.00    -0.355 N 
ATOM      4  C   UNL A   1      30.348  25.965  25.893  1.00  0.00     0.231 C 
ATOM      5  O   UNL A   1      29.730  25.059  26.472  1.00  0.00    -0.274 OA
ATOM      6  H   UNL A   1      30.961  26.523  27.687  1.00  0.00     0.163 HD
BRANCH   4   7
ATOM      7  C   UNL A   1      30.400  26.040  24.333  1.00  0.00     0.100 C 
ATOM      8  N   UNL A   1      32.481  25.809  23.043  1.00  0.00    -0.329 N 
ATOM      9  C   UNL A   1      31.889  24.474  23.144  1.00  0.00     0.263 C 
ATOM     10  C   UNL A   1      31.567  26.787  23.667  1.00  0.00     0.279 C 
ATOM     11  H   UNL A   1      32.566  26.018  22.048  1.00  0.00     0.348 HD
ATOM     12  C   UNL A   1      30.477  24.637  23.713  1.00  0.00     0.084 C 
ATOM     13  C   UNL A   1      29.071  26.727  23.918  1.00  0.00     0.028 C 
BRANCH   8  14
ATOM     14  C   UNL A   1      33.906  25.940  23.442  1.00  0.00     0.319 C 
BRANCH  14  15
ATOM     15  C   UNL A   1      34.443  24.823  24.350  1.00  0.00     0.095 A 
ATOM     16  C   UNL A   1      32.693  22.699  27.785  1.00  0.00     0.067 C 
ATOM     17  C   UNL A   1      33.531  22.906  26.564  1.00  0.00     0.038 A 
ATOM     18  C   UNL A   1      34.474  21.567  25.818  1.00  0.00     0.023 A 
ATOM     19  N   UNL A   1      33.478  24.484  25.795  1.00  0.00    -0.252 NA
ATOM     20  C   UNL A   1      35.493  21.911  24.370  1.00  0.00     0.004 A 
ATOM     21  C   UNL A   1      35.428  23.535  23.596  1.00  0.00     0.030 A 
ENDBRANCH  14  15
ENDBRANCH   8  14
ENDBRANCH   4   7
ENDBRANCH   2   3
ENDBRANCH   1   2
BRANCH   1  22
ATOM     22  C   UNL A   1      31.314  31.602  26.499  1.00  0.00     0.023 C 
BRANCH  22  23
ATOM     23  C   UNL A   1      32.522  32.455  26.868  1.00  0.00     0.116 C 
BRANCH  23  24
ATOM     24  N   UNL A   1      32.200  33.760  27.410  1.00  0.00    -0.352 N 
ATOM     25  C   UNL A   1      32.958  34.445  28.329  1.00  0.00     0.251 C 
ATOM     26  H   UNL A   1      31.374  34.191  27.095  1.00  0.00     0.163 HD
ATOM     27  O   UNL A   1      32.618  35.522  28.797  1.00  0.00    -0.269 OA
BRANCH  25  28
ATOM     28  C   UNL A   1      34.205  33.789  28.752  1.00  0.00     0.039 A 
ATOM     29  C   UNL A   1      35.417  34.303  28.297  1.00  0.00     0.014 A 
ATOM     30  C   UNL A   1      34.149  32.809  29.747  1.00  0.00     0.014 A 
ATOM     31  C   UNL A   1      36.597  33.817  28.846  1.00  0.00     0.010 A 
ATOM     32  C   UNL A   1      35.322  32.410  30.367  1.00  0.00     0.010 A 
ATOM     33  C   UNL A   1      36.556  32.872  29.886  1.00  0.00    -0.014 A 
BRANCH  33  34
ATOM     34  C   UNL A   1      37.810  32.267  30.386  1.00  0.00     0.031 A 
ATOM     35  C   UNL A   1      38.414  32.807  31.652  1.00  0.00     0.074 A 
ATOM     36  C   UNL A   1      38.369  31.233  29.730  1.00  0.00     0.049 A 
ATOM     37  N   UNL A   1      39.466  32.395  32.309  1.00  0.00    -0.248 NA
ATOM     38  C   UNL A   1      37.764  33.988  32.249  1.00  0.00     0.031 C 
ATOM     39  C   UNL A   1      37.870  30.651  28.482  1.00  0.00     0.029 A 
ATOM     40  N   UNL A   1      39.460  30.466  30.043  1.00  0.00    -0.354 N 
ATOM     41  C   UNL A   1      39.600  33.269  33.380  1.00  0.00     0.074 A 
ATOM     42  C   UNL A   1      38.591  34.288  33.234  1.00  0.00     0.031 C 
ATOM     43  C   UNL A   1      38.613  29.576  28.172  1.00  0.00     0.029 A 
ATOM     44  C   UNL A   1      39.662  29.420  29.175  1.00  0.00     0.049 A 
ATOM     45  H   UNL A   1      40.044  30.646  30.815  1.00  0.00     0.167 HD
ATOM     46  C   UNL A   1      40.461  33.206  34.423  1.00  0.00     0.031 A 
ATOM     47  C   UNL A   1      40.583  28.440  29.203  1.00  0.00     0.031 A 
ATOM     48  C   UNL A   1      41.459  32.184  34.554  1.00  0.00     0.049 A 
ATOM     49  C   UNL A   1      41.564  28.415  30.346  1.00  0.00     0.074 A 
ATOM     50  C   UNL A   1      42.380  31.998  35.566  1.00  0.00     0.029 A 
ATOM     51  N   UNL A   1      41.662  31.168  33.629  1.00  0.00    -0.354 N 
ATOM     52  N   UNL A   1      41.650  29.219  31.380  1.00  0.00    -0.248 NA
ATOM     53  C   UNL A   1      42.562  27.340  30.332  1.00  0.00     0.031 C 
ATOM     54  C   UNL A   1      43.186  30.908  35.220  1.00  0.00     0.029 A 
ATOM     55  C   UNL A   1      42.712  30.366  34.033  1.00  0.00     0.049 A 
ATOM     56  H   UNL A   1      41.136  31.040  32.806  1.00  0.00     0.167 HD
ATOM     57  C   UNL A   1      42.686  28.724  32.161  1.00  0.00     0.074 A 
ATOM     58  C   UNL A   1      43.186  27.543  31.484  1.00  0.00     0.031 C 
ATOM     59  C   UNL A   1      43.181  29.196  33.333  1.00  0.00     0.031 A 
BRANCH  46  60
ATOM     60  C   UNL A   1      40.354  34.287  35.466  1.00  0.00    -0.014 A 
ATOM     61  C   UNL A   1      41.058  35.499  35.343  1.00  0.00     0.009 A 
ATOM     62  C   UNL A   1      39.566  34.080  36.608  1.00  0.00     0.009 A 
ATOM     63  C   UNL A   1      41.024  36.448  36.367  1.00  0.00     0.001 A 
ATOM     64  C   UNL A   1      39.501  35.049  37.611  1.00  0.00     0.001 A 
ATOM     65  C   UNL A   1      40.243  36.224  37.498  1.00  0.00     0.000 A 
ENDBRANCH  46  60
BRANCH  47  66
ATOM     66  C   UNL A   1      40.597  27.388  28.151  1.00  0.00    -0.014 A 
ATOM     67  C   UNL A   1      39.878  26.194  28.320  1.00  0.00     0.009 A 
ATOM     68  C   UNL A   1      41.329  27.569  26.967  1.00  0.00     0.009 A 
ATOM     69  C   UNL A   1      39.915  25.196  27.341  1.00  0.00     0.001 A 
ATOM     70  C   UNL A   1      41.338  26.585  25.976  1.00  0.00     0.001 A 
ATOM     71  C   UNL A   1      40.640  25.395  26.168  1.00  0.00     0.000 A 
ENDBRANCH  47  66
BRANCH  59  72
ATOM     72  C   UNL A   1      44.280  28.401  33.980  1.00  0.00    -0.014 A 
ATOM     73  C   UNL A   1      44.006  27.317  34.828  1.00  0.00     0.009 A 
ATOM     74  C   UNL A   1      45.617  28.722  33.694  1.00  0.00     0.009 A 
ATOM     75  C   UNL A   1      45.051  26.600  35.413  1.00  0.00     0.001 A 
ATOM     76  C   UNL A   1      46.658  27.978  34.247  1.00  0.00     0.001 A 
ATOM     77  C   UNL A   1      46.375  26.927  35.117  1.00  0.00     0.000 A 
ENDBRANCH  59  72
ENDBRANCH  33  34
ENDBRANCH  25  28
ENDBRANCH  23  24
ENDBRANCH  22  23
ENDBRANCH   1  22
TORSDOF 13
ENDMDL
MODEL 3
REMARK VINA RESULT:     -12.9      4.970      9.738
REMARK SMILES Cc1cccc(C[N@H+]2CC[C@@](C)(C(=O)NCCCCNC(=O)c3ccc(-c4c5nc(c(-c6ccccc6)c6ccc([nH]6)c(-c6ccccc6)c6nc(c(-c7ccccc7)c7ccc4[nH]7)C=C6)C=C5)cc3)C2)n1
REMARK SMILES IDX 17 1 16 2 15 3 13 4 14 5 11 7 8 8 9 9 71 10 10 12 12 13 7 14
REMARK SMILES IDX 6 15 1 16 2 17 3 18 72 19 4 20 5 21 18 22 19 23 20 24 21 25
REMARK SMILES IDX 22 27 23 28 24 29 70 30 25 31 69 32 26 33 27 34 28 35 63 36
REMARK SMILES IDX 29 37 68 38 62 39 64 40 30 41 67 42 61 43 60 44 31 46 53 47
REMARK SMILES IDX 38 48 52 49 39 50 42 51 51 52 65 53 40 54 41 55 50 57 66 58
REMARK SMILES IDX 43 59 32 60 33 61 37 62 34 63 36 64 35 65 54 66 55 67 59 68
REMARK SMILES IDX 56 69 58 70 57 71 44 72 45 73 49 74 46 75 48 76 47 77
REMARK H PARENT 15 6 8 11 20 26 64 45 42 56
REMARK Flexibility Score: inf
ROOT
ATOM      1  C   UNL A   1      36.572  20.707  24.865  1.00  0.00     0.023 C 
ENDROOT
BRANCH   1   2
ATOM      2  C   UNL A   1      35.735  22.309  26.091  1.00  0.00     0.116 C 
BRANCH   2   3
ATOM      3  N   UNL A   1      34.670  22.359  27.222  1.00  0.00    -0.355 N 
ATOM      4  C   UNL A   1      33.313  22.385  27.179  1.00  0.00     0.231 C 
ATOM      5  O   UNL A   1      32.787  22.440  28.300  1.00  0.00    -0.274 OA
ATOM      6  H   UNL A   1      35.046  22.374  28.132  1.00  0.00     0.163 HD
BRANCH   4   7
ATOM      7  C   UNL A   1      32.451  22.231  25.886  1.00  0.00     0.100 C 
ATOM      8  N   UNL A   1      30.931  23.983  25.066  1.00  0.00    -0.329 N 
ATOM      9  C   UNL A   1      32.221  24.189  24.403  1.00  0.00     0.263 C 
ATOM     10  C   UNL A   1      31.007  22.762  25.893  1.00  0.00     0.279 C 
ATOM     11  H   UNL A   1      30.240  23.845  24.328  1.00  0.00     0.348 HD
ATOM     12  C   UNL A   1      33.092  22.966  24.700  1.00  0.00     0.084 C 
ATOM     13  C   UNL A   1      32.416  20.705  25.603  1.00  0.00     0.028 C 
BRANCH   8  14
ATOM     14  C   UNL A   1      30.331  25.161  25.742  1.00  0.00     0.319 C 
BRANCH  14  15
ATOM     15  C   UNL A   1      31.021  26.505  25.463  1.00  0.00     0.095 A 
ATOM     16  C   UNL A   1      30.171  29.733  22.594  1.00  0.00     0.067 C 
ATOM     17  C   UNL A   1      30.639  29.093  23.862  1.00  0.00     0.038 A 
ATOM     18  C   UNL A   1      31.230  30.065  25.257  1.00  0.00     0.023 A 
ATOM     19  N   UNL A   1      30.486  27.349  24.002  1.00  0.00    -0.252 NA
ATOM     20  C   UNL A   1      31.816  29.213  26.734  1.00  0.00     0.004 A 
ATOM     21  C   UNL A   1      31.653  27.425  26.861  1.00  0.00     0.030 A 
ENDBRANCH  14  15
ENDBRANCH   8  14
ENDBRANCH   4   7
ENDBRANCH   2   3
ENDBRANCH   1   2
BRANCH   1  22
ATOM     22  C   UNL A   1      37.921  19.626  24.993  1.00  0.00     0.023 C 
BRANCH  22  23
ATOM     23  C   UNL A   1      39.132  19.987  25.846  1.00  0.00     0.116 C 
BRANCH  23  24
ATOM     24  N   UNL A   1      40.253  19.075  25.725  1.00  0.00    -0.352 N 
ATOM     25  C   UNL A   1      41.561  19.387  26.004  1.00  0.00     0.251 C 
ATOM     26  H   UNL A   1      40.061  18.160  25.420  1.00  0.00     0.163 HD
ATOM     27  O   UNL A   1      42.480  18.598  25.837  1.00  0.00    -0.269 OA
BRANCH  25  28
ATOM     28  C   UNL A   1      41.807  20.752  26.493  1.00  0.00     0.039 A 
ATOM     29  C   UNL A   1      42.056  20.940  27.851  1.00  0.00     0.014 A 
ATOM     30  C   UNL A   1      41.985  21.781  25.564  1.00  0.00     0.014 A 
ATOM     31  C   UNL A   1      42.483  22.189  28.285  1.00  0.00     0.010 A 
ATOM     32  C   UNL A   1      42.516  22.988  25.988  1.00  0.00     0.010 A 
ATOM     33  C   UNL A   1      42.720  23.218  27.356  1.00  0.00    -0.014 A 
BRANCH  33  34
ATOM     34  C   UNL A   1      43.057  24.578  27.829  1.00  0.00     0.031 A 
ATOM     35  C   UNL A   1      44.495  25.014  27.796  1.00  0.00     0.074 A 
ATOM     36  C   UNL A   1      42.084  25.410  28.244  1.00  0.00     0.049 A 
ATOM     37  N   UNL A   1      45.016  26.175  28.098  1.00  0.00    -0.248 NA
ATOM     38  C   UNL A   1      45.489  24.002  27.395  1.00  0.00     0.031 C 
ATOM     39  C   UNL A   1      40.660  25.072  28.332  1.00  0.00     0.029 A 
ATOM     40  N   UNL A   1      42.140  26.721  28.636  1.00  0.00    -0.354 N 
ATOM     41  C   UNL A   1      46.386  26.022  27.930  1.00  0.00     0.074 A 
ATOM     42  C   UNL A   1      46.628  24.639  27.599  1.00  0.00     0.031 C 
ATOM     43  C   UNL A   1      39.972  26.169  28.687  1.00  0.00     0.029 A 
ATOM     44  C   UNL A   1      40.907  27.271  28.890  1.00  0.00     0.049 A 
ATOM     45  H   UNL A   1      42.983  27.221  28.728  1.00  0.00     0.167 HD
ATOM     46  C   UNL A   1      47.359  26.960  28.001  1.00  0.00     0.031 A 
ATOM     47  C   UNL A   1      40.576  28.530  29.230  1.00  0.00     0.031 A 
ATOM     48  C   UNL A   1      47.100  28.332  28.330  1.00  0.00     0.049 A 
ATOM     49  C   UNL A   1      41.678  29.549  29.352  1.00  0.00     0.074 A 
ATOM     50  C   UNL A   1      47.992  29.384  28.419  1.00  0.00     0.029 A 
ATOM     51  N   UNL A   1      45.842  28.840  28.626  1.00  0.00    -0.354 N 
ATOM     52  N   UNL A   1      42.966  29.404  29.143  1.00  0.00    -0.248 NA
ATOM     53  C   UNL A   1      41.279  30.906  29.741  1.00  0.00     0.031 C 
ATOM     54  C   UNL A   1      47.282  30.515  28.836  1.00  0.00     0.029 A 
ATOM     55  C   UNL A   1      45.936  30.186  28.924  1.00  0.00     0.049 A 
ATOM     56  H   UNL A   1      45.007  28.318  28.624  1.00  0.00     0.167 HD
ATOM     57  C   UNL A   1      43.527  30.660  29.337  1.00  0.00     0.074 A 
ATOM     58  C   UNL A   1      42.433  31.553  29.666  1.00  0.00     0.031 C 
ATOM     59  C   UNL A   1      44.824  31.045  29.247  1.00  0.00     0.031 A 
BRANCH  46  60
ATOM     60  C   UNL A   1      48.770  26.506  27.738  1.00  0.00    -0.014 A 
ATOM     61  C   UNL A   1      49.308  26.495  26.438  1.00  0.00     0.009 A 
ATOM     62  C   UNL A   1      49.565  26.049  28.799  1.00  0.00     0.009 A 
ATOM     63  C   UNL A   1      50.584  25.979  26.201  1.00  0.00     0.001 A 
ATOM     64  C   UNL A   1      50.857  25.572  28.564  1.00  0.00     0.001 A 
ATOM     65  C   UNL A   1      51.358  25.521  27.265  1.00  0.00     0.000 A 
ENDBRANCH  46  60
BRANCH  47  66
ATOM     66  C   UNL A   1      39.151  28.905  29.437  1.00  0.00    -0.014 A 
ATOM     67  C   UNL A   1      38.373  29.385  28.372  1.00  0.00     0.009 A 
ATOM     68  C   UNL A   1      38.556  28.785  30.704  1.00  0.00     0.009 A 
ATOM     69  C   UNL A   1      37.042  29.763  28.576  1.00  0.00     0.001 A 
ATOM     70  C   UNL A   1      37.218  29.132  30.898  1.00  0.00     0.001 A 
ATOM     71  C   UNL A   1      36.465  29.630  29.837  1.00  0.00     0.000 A 
ENDBRANCH  47  66
BRANCH  59  72
ATOM     72  C   UNL A   1      45.119  32.505  29.455  1.00  0.00    -0.014 A 
ATOM     73  C   UNL A   1      45.441  33.020  30.720  1.00  0.00     0.009 A 
ATOM     74  C   UNL A   1      45.117  33.368  28.347  1.00  0.00     0.009 A 
ATOM     75  C   UNL A   1      45.709  34.381  30.877  1.00  0.00     0.001 A 
ATOM     76  C   UNL A   1      45.426  34.718  28.501  1.00  0.00     0.001 A 
ATOM     77  C   UNL A   1      45.708  35.227  29.767  1.00  0.00     0.000 A 
ENDBRANCH  59  72
ENDBRANCH  33  34
ENDBRANCH  25  28
ENDBRANCH  23  24
ENDBRANCH  22  23
ENDBRANCH   1  22
TORSDOF 13
ENDMDL
