MODEL 1
REMARK VINA RESULT:     -13.3      0.000      0.000
REMARK SMILES COc1ccc2[nH]cc([C@H](C(=O)NCCCCNC(=O)c3ccc(-c4c5nc(c(-c6ccccc6)c6ccc([nH]6)c(-c6ccccc6)c6nc(c(-c7ccccc7)c7ccc4[nH]7)C=C6)C=C5)cc3)[NH+]3CC[NH+](Cc4cccc5ccccc45)CC3)c2c1
REMARK SMILES IDX 15 1 14 2 13 3 11 4 12 5 10 7 9 8 3 9 4 10 87 11 5 12 86 13
REMARK SMILES IDX 6 14 7 15 8 16 2 18 1 19 69 20 70 21 85 22 71 24 84 25 72 26
REMARK SMILES IDX 73 28 74 29 75 30 83 31 76 32 78 33 82 34 77 35 79 36 81 37
REMARK SMILES IDX 80 38 16 39 17 40 18 41 19 42 20 44 21 45 22 46 68 47 23 48
REMARK SMILES IDX 67 49 24 50 25 51 26 52 61 53 27 54 66 55 60 56 62 57 28 58
REMARK SMILES IDX 65 59 59 60 58 61 29 63 51 64 36 65 50 66 37 67 40 68 49 69
REMARK SMILES IDX 63 70 38 71 39 72 48 74 64 75 41 76 30 77 31 78 35 79 32 80
REMARK SMILES IDX 34 81 33 82 52 83 53 84 57 85 54 86 56 87 55 88 42 89 43 90
REMARK SMILES IDX 47 91 44 92 46 93 45 94
REMARK H PARENT 13 6 7 17 69 23 72 27 18 43 62 62 40 73
REMARK Flexibility Score: inf
ROOT
ATOM      1  C   UNL A   1      31.650  30.800  26.122  1.00  0.00     0.023 C 
ENDROOT
BRANCH   1   2
ATOM      2  C   UNL A   1      31.797  29.610  27.102  1.00  0.00     0.116 C 
BRANCH   2   3
ATOM      3  N   UNL A   1      32.768  28.565  26.770  1.00  0.00    -0.351 N 
ATOM      4  C   UNL A   1      32.955  27.705  25.699  1.00  0.00     0.283 C 
ATOM      5  O   UNL A   1      34.134  27.357  25.582  1.00  0.00    -0.268 OA
ATOM      6  H   UNL A   1      33.448  28.444  27.472  1.00  0.00     0.163 HD
BRANCH   4   7
ATOM      7  C   UNL A   1      31.808  27.235  24.728  1.00  0.00     0.308 C 
BRANCH   7   8
ATOM      8  C   UNL A   1      31.436  28.119  23.549  1.00  0.00     0.045 A 
ATOM      9  C   UNL A   1      27.767  29.073  22.890  1.00  0.00     0.119 A 
ATOM     10  C   UNL A   1      28.029  30.054  21.942  1.00  0.00     0.048 A 
ATOM     11  C   UNL A   1      28.811  28.384  23.510  1.00  0.00     0.057 A 
ATOM     12  C   UNL A   1      29.341  30.334  21.554  1.00  0.00     0.030 A 
ATOM     13  C   UNL A   1      30.147  28.607  23.114  1.00  0.00     0.013 A 
ATOM     14  C   UNL A   1      30.372  29.589  22.144  1.00  0.00     0.046 A 
ATOM     15  N   UNL A   1      31.729  29.683  21.964  1.00  0.00    -0.361 N 
ATOM     16  C   UNL A   1      32.376  28.804  22.785  1.00  0.00     0.094 A 
ATOM     17  H   UNL A   1      32.173  30.297  21.335  1.00  0.00     0.166 HD
BRANCH   9  18
ATOM     18  O   UNL A   1      26.499  28.789  23.325  1.00  0.00    -0.497 OA
ATOM     19  C   UNL A   1      26.424  27.503  23.936  1.00  0.00     0.278 C 
ENDBRANCH   9  18
ENDBRANCH   7   8
BRANCH   7  20
ATOM     20  N   UNL A   1      31.933  25.858  24.213  1.00  0.00    -0.312 N 
ATOM     21  C   UNL A   1      32.917  25.359  23.252  1.00  0.00     0.325 C 
ATOM     22  C   UNL A   1      31.594  24.842  25.157  1.00  0.00     0.325 C 
ATOM     23  H   UNL A   1      31.235  26.095  23.509  1.00  0.00     0.349 HD
ATOM     24  C   UNL A   1      33.928  24.239  23.714  1.00  0.00     0.324 C 
ATOM     25  C   UNL A   1      32.843  24.253  25.842  1.00  0.00     0.324 C 
ATOM     26  N   UNL A   1      33.650  23.454  24.930  1.00  0.00    -0.322 N 
ATOM     27  H   UNL A   1      34.577  23.271  25.313  1.00  0.00     0.348 HD
BRANCH  26  28
ATOM     28  C   UNL A   1      33.201  22.048  24.816  1.00  0.00     0.300 C 
BRANCH  28  29
ATOM     29  C   UNL A   1      34.272  20.994  24.532  1.00  0.00     0.014 A 
ATOM     30  C   UNL A   1      35.628  21.325  24.771  1.00  0.00     0.010 A 
ATOM     31  C   UNL A   1      33.921  19.641  24.295  1.00  0.00    -0.010 A 
ATOM     32  C   UNL A   1      36.587  20.325  24.940  1.00  0.00     0.001 A 
ATOM     33  C   UNL A   1      34.880  18.632  24.571  1.00  0.00    -0.018 A 
ATOM     34  C   UNL A   1      32.640  19.245  23.870  1.00  0.00     0.009 A 
ATOM     35  C   UNL A   1      36.200  18.987  24.894  1.00  0.00     0.009 A 
ATOM     36  C   UNL A   1      34.479  17.286  24.570  1.00  0.00     0.009 A 
ATOM     37  C   UNL A   1      32.276  17.902  23.812  1.00  0.00     0.001 A 
ATOM     38  C   UNL A   1      33.182  16.926  24.202  1.00  0.00     0.001 A 
ENDBRANCH  28  29
ENDBRANCH  26  28
ENDBRANCH   7  20
ENDBRANCH   4   7
ENDBRANCH   2   3
ENDBRANCH   1   2
BRANCH   1  39
ATOM     39  C   UNL A   1      31.405  32.180  26.732  1.00  0.00     0.023 C 
BRANCH  39  40
ATOM     40  C   UNL A   1      32.662  32.827  27.262  1.00  0.00     0.116 C 
BRANCH  40  41
ATOM     41  N   UNL A   1      32.440  34.231  27.607  1.00  0.00    -0.352 N 
ATOM     42  C   UNL A   1      33.022  34.987  28.590  1.00  0.00     0.251 C 
ATOM     43  H   UNL A   1      31.778  34.701  27.051  1.00  0.00     0.163 HD
ATOM     44  O   UNL A   1      32.570  36.092  28.878  1.00  0.00    -0.269 OA
BRANCH  42  45
ATOM     45  C   UNL A   1      34.185  34.442  29.308  1.00  0.00     0.039 A 
ATOM     46  C   UNL A   1      33.992  33.738  30.498  1.00  0.00     0.014 A 
ATOM     47  C   UNL A   1      35.460  34.584  28.758  1.00  0.00     0.014 A 
ATOM     48  C   UNL A   1      35.081  33.110  31.098  1.00  0.00     0.010 A 
ATOM     49  C   UNL A   1      36.511  33.858  29.285  1.00  0.00     0.010 A 
ATOM     50  C   UNL A   1      36.335  33.131  30.470  1.00  0.00    -0.014 A 
BRANCH  50  51
ATOM     51  C   UNL A   1      37.504  32.423  31.032  1.00  0.00     0.031 A 
ATOM     52  C   UNL A   1      38.154  32.954  32.278  1.00  0.00     0.074 A 
ATOM     53  C   UNL A   1      38.027  31.375  30.369  1.00  0.00     0.049 A 
ATOM     54  N   UNL A   1      39.249  32.557  32.871  1.00  0.00    -0.248 NA
ATOM     55  C   UNL A   1      37.510  34.114  32.921  1.00  0.00     0.031 C 
ATOM     56  C   UNL A   1      37.504  30.809  29.123  1.00  0.00     0.029 A 
ATOM     57  N   UNL A   1      39.127  30.605  30.647  1.00  0.00    -0.354 N 
ATOM     58  C   UNL A   1      39.434  33.430  33.935  1.00  0.00     0.074 A 
ATOM     59  C   UNL A   1      38.382  34.417  33.868  1.00  0.00     0.031 C 
ATOM     60  C   UNL A   1      38.260  29.760  28.766  1.00  0.00     0.029 A 
ATOM     61  C   UNL A   1      39.350  29.613  29.724  1.00  0.00     0.049 A 
ATOM     62  H   UNL A   1      39.701  30.750  31.434  1.00  0.00     0.167 HD
ATOM     63  C   UNL A   1      40.381  33.394  34.899  1.00  0.00     0.031 A 
ATOM     64  C   UNL A   1      40.331  28.696  29.657  1.00  0.00     0.031 A 
ATOM     65  C   UNL A   1      41.416  32.399  34.960  1.00  0.00     0.049 A 
ATOM     66  C   UNL A   1      41.390  28.694  30.724  1.00  0.00     0.074 A 
ATOM     67  C   UNL A   1      42.392  32.227  35.923  1.00  0.00     0.029 A 
ATOM     68  N   UNL A   1      41.607  31.407  34.009  1.00  0.00    -0.354 N 
ATOM     69  N   UNL A   1      41.509  29.476  31.771  1.00  0.00    -0.248 NA
ATOM     70  C   UNL A   1      42.447  27.681  30.605  1.00  0.00     0.031 C 
ATOM     71  C   UNL A   1      43.212  31.168  35.522  1.00  0.00     0.029 A 
ATOM     72  C   UNL A   1      42.707  30.640  34.344  1.00  0.00     0.049 A 
ATOM     73  H   UNL A   1      41.042  31.270  33.214  1.00  0.00     0.167 HD
ATOM     74  C   UNL A   1      42.640  29.037  32.446  1.00  0.00     0.074 A 
ATOM     75  C   UNL A   1      43.157  27.907  31.700  1.00  0.00     0.031 C 
ATOM     76  C   UNL A   1      43.202  29.524  33.580  1.00  0.00     0.031 A 
BRANCH  63  77
ATOM     77  C   UNL A   1      40.338  34.468  35.952  1.00  0.00    -0.014 A 
ATOM     78  C   UNL A   1      41.068  35.660  35.808  1.00  0.00     0.009 A 
ATOM     79  C   UNL A   1      39.548  34.292  37.097  1.00  0.00     0.009 A 
ATOM     80  C   UNL A   1      41.044  36.632  36.812  1.00  0.00     0.001 A 
ATOM     81  C   UNL A   1      39.499  35.280  38.083  1.00  0.00     0.001 A 
ATOM     82  C   UNL A   1      40.255  36.442  37.945  1.00  0.00     0.000 A 
ENDBRANCH  63  77
BRANCH  64  83
ATOM     83  C   UNL A   1      40.350  27.703  28.551  1.00  0.00    -0.014 A 
ATOM     84  C   UNL A   1      39.689  26.473  28.692  1.00  0.00     0.009 A 
ATOM     85  C   UNL A   1      41.018  27.980  27.348  1.00  0.00     0.009 A 
ATOM     86  C   UNL A   1      39.716  25.532  27.660  1.00  0.00     0.001 A 
ATOM     87  C   UNL A   1      41.016  27.050  26.306  1.00  0.00     0.001 A 
ATOM     88  C   UNL A   1      40.375  25.823  26.465  1.00  0.00     0.000 A 
ENDBRANCH  64  83
BRANCH  76  89
ATOM     89  C   UNL A   1      44.426  28.822  34.094  1.00  0.00    -0.014 A 
ATOM     90  C   UNL A   1      44.323  27.719  34.955  1.00  0.00     0.009 A 
ATOM     91  C   UNL A   1      45.695  29.233  33.657  1.00  0.00     0.009 A 
ATOM     92  C   UNL A   1      45.473  27.056  35.389  1.00  0.00     0.001 A 
ATOM     93  C   UNL A   1      46.839  28.549  34.067  1.00  0.00     0.001 A 
ATOM     94  C   UNL A   1      46.728  27.467  34.939  1.00  0.00     0.000 A 
ENDBRANCH  76  89
ENDBRANCH  50  51
ENDBRANCH  42  45
ENDBRANCH  40  41
ENDBRANCH  39  40
ENDBRANCH   1  39
TORSDOF 16
ENDMDL
MODEL 2
REMARK VINA RESULT:     -13.2      2.980      4.454
REMARK SMILES COc1ccc2[nH]cc([C@H](C(=O)NCCCCNC(=O)c3ccc(-c4c5nc(c(-c6ccccc6)c6ccc([nH]6)c(-c6ccccc6)c6nc(c(-c7ccccc7)c7ccc4[nH]7)C=C6)C=C5)cc3)[NH+]3CC[NH+](Cc4cccc5ccccc45)CC3)c2c1
REMARK SMILES IDX 15 1 14 2 13 3 11 4 12 5 10 7 9 8 3 9 4 10 87 11 5 12 86 13
REMARK SMILES IDX 6 14 7 15 8 16 2 18 1 19 69 20 70 21 85 22 71 24 84 25 72 26
REMARK SMILES IDX 73 28 74 29 75 30 83 31 76 32 78 33 82 34 77 35 79 36 81 37
REMARK SMILES IDX 80 38 16 39 17 40 18 41 19 42 20 44 21 45 22 46 68 47 23 48
REMARK SMILES IDX 67 49 24 50 25 51 26 52 61 53 27 54 66 55 60 56 62 57 28 58
REMARK SMILES IDX 65 59 59 60 58 61 29 63 51 64 36 65 50 66 37 67 40 68 49 69
REMARK SMILES IDX 63 70 38 71 39 72 48 74 64 75 41 76 30 77 31 78 35 79 32 80
REMARK SMILES IDX 34 81 33 82 52 83 53 84 57 85 54 86 56 87 55 88 42 89 43 90
REMARK SMILES IDX 47 91 44 92 46 93 45 94
REMARK H PARENT 13 6 7 17 69 23 72 27 18 43 62 62 40 73
REMARK Flexibility Score: inf
ROOT
ATOM      1  C   UNL A   1      33.196  29.193  24.793  1.00  0.00     0.023 C 
ENDROOT
BRANCH   1   2
ATOM      2  C   UNL A   1      33.757  29.251  23.350  1.00  0.00     0.116 C 
BRANCH   2   3
ATOM      3  N   UNL A   1      33.517  28.101  22.475  1.00  0.00    -0.351 N 
ATOM      4  C   UNL A   1      32.588  27.073  22.440  1.00  0.00     0.283 C 
ATOM      5  O   UNL A   1      32.428  26.629  21.299  1.00  0.00    -0.268 OA
ATOM      6  H   UNL A   1      34.168  28.045  21.739  1.00  0.00     0.163 HD
BRANCH   4   7
ATOM      7  C   UNL A   1      31.809  26.539  23.700  1.00  0.00     0.308 C 
BRANCH   7   8
ATOM      8  C   UNL A   1      30.320  26.823  23.818  1.00  0.00     0.045 A 
ATOM      9  C   UNL A   1      28.875  30.215  22.721  1.00  0.00     0.119 A 
ATOM     10  C   UNL A   1      27.539  29.838  22.769  1.00  0.00     0.048 A 
ATOM     11  C   UNL A   1      29.885  29.300  23.021  1.00  0.00     0.057 A 
ATOM     12  C   UNL A   1      27.179  28.549  23.167  1.00  0.00     0.030 A 
ATOM     13  C   UNL A   1      29.561  28.001  23.469  1.00  0.00     0.013 A 
ATOM     14  C   UNL A   1      28.205  27.662  23.522  1.00  0.00     0.046 A 
ATOM     15  N   UNL A   1      28.127  26.349  23.914  1.00  0.00    -0.361 N 
ATOM     16  C   UNL A   1      29.379  25.840  24.108  1.00  0.00     0.094 A 
ATOM     17  H   UNL A   1      27.290  25.847  24.038  1.00  0.00     0.166 HD
BRANCH   9  18
ATOM     18  O   UNL A   1      29.274  31.458  22.304  1.00  0.00    -0.497 OA
ATOM     19  C   UNL A   1      28.480  32.491  22.883  1.00  0.00     0.278 C 
ENDBRANCH   9  18
ENDBRANCH   7   8
BRANCH   7  20
ATOM     20  N   UNL A   1      32.002  25.109  24.009  1.00  0.00    -0.312 N 
ATOM     21  C   UNL A   1      32.269  24.027  23.061  1.00  0.00     0.325 C 
ATOM     22  C   UNL A   1      32.654  24.858  25.254  1.00  0.00     0.325 C 
ATOM     23  H   UNL A   1      30.988  25.002  23.981  1.00  0.00     0.349 HD
ATOM     24  C   UNL A   1      33.629  23.235  23.177  1.00  0.00     0.324 C 
ATOM     25  C   UNL A   1      34.162  24.592  25.070  1.00  0.00     0.324 C 
ATOM     26  N   UNL A   1      34.423  23.316  24.416  1.00  0.00    -0.322 N 
ATOM     27  H   UNL A   1      35.385  23.255  24.086  1.00  0.00     0.348 HD
BRANCH  26  28
ATOM     28  C   UNL A   1      34.459  22.166  25.348  1.00  0.00     0.300 C 
BRANCH  28  29
ATOM     29  C   UNL A   1      35.177  20.903  24.871  1.00  0.00     0.014 A 
ATOM     30  C   UNL A   1      36.587  20.846  24.975  1.00  0.00     0.010 A 
ATOM     31  C   UNL A   1      34.455  19.717  24.582  1.00  0.00    -0.010 A 
ATOM     32  C   UNL A   1      37.254  19.620  24.961  1.00  0.00     0.001 A 
ATOM     33  C   UNL A   1      35.128  18.472  24.675  1.00  0.00    -0.018 A 
ATOM     34  C   UNL A   1      33.080  19.712  24.281  1.00  0.00     0.009 A 
ATOM     35  C   UNL A   1      36.520  18.439  24.868  1.00  0.00     0.009 A 
ATOM     36  C   UNL A   1      34.382  17.284  24.627  1.00  0.00     0.009 A 
ATOM     37  C   UNL A   1      32.365  18.522  24.172  1.00  0.00     0.001 A 
ATOM     38  C   UNL A   1      33.008  17.310  24.387  1.00  0.00     0.001 A 
ENDBRANCH  28  29
ENDBRANCH  26  28
ENDBRANCH   7  20
ENDBRANCH   4   7
ENDBRANCH   2   3
ENDBRANCH   1   2
BRANCH   1  39
ATOM     39  C   UNL A   1      34.030  28.450  25.836  1.00  0.00     0.023 C 
BRANCH  39  40
ATOM     40  C   UNL A   1      33.544  28.667  27.249  1.00  0.00     0.116 C 
BRANCH  40  41
ATOM     41  N   UNL A   1      33.600  30.078  27.628  1.00  0.00    -0.352 N 
ATOM     42  C   UNL A   1      34.603  30.771  28.253  1.00  0.00     0.251 C 
ATOM     43  H   UNL A   1      32.802  30.607  27.400  1.00  0.00     0.163 HD
ATOM     44  O   UNL A   1      34.404  31.904  28.685  1.00  0.00    -0.269 OA
BRANCH  42  45
ATOM     45  C   UNL A   1      35.916  30.126  28.415  1.00  0.00     0.039 A 
ATOM     46  C   UNL A   1      36.843  30.178  27.373  1.00  0.00     0.014 A 
ATOM     47  C   UNL A   1      36.238  29.523  29.632  1.00  0.00     0.014 A 
ATOM     48  C   UNL A   1      38.128  29.685  27.585  1.00  0.00     0.010 A 
ATOM     49  C   UNL A   1      37.546  29.151  29.880  1.00  0.00     0.010 A 
ATOM     50  C   UNL A   1      38.497  29.211  28.853  1.00  0.00    -0.014 A 
BRANCH  50  51
ATOM     51  C   UNL A   1      39.867  28.743  29.145  1.00  0.00     0.031 A 
ATOM     52  C   UNL A   1      40.842  29.683  29.797  1.00  0.00     0.074 A 
ATOM     53  C   UNL A   1      40.252  27.520  28.736  1.00  0.00     0.049 A 
ATOM     54  N   UNL A   1      42.115  29.517  30.036  1.00  0.00    -0.248 NA
ATOM     55  C   UNL A   1      40.323  31.005  30.196  1.00  0.00     0.031 C 
ATOM     56  C   UNL A   1      39.400  26.545  28.049  1.00  0.00     0.029 A 
ATOM     57  N   UNL A   1      41.467  26.892  28.829  1.00  0.00    -0.354 N 
ATOM     58  C   UNL A   1      42.550  30.715  30.587  1.00  0.00     0.074 A 
ATOM     59  C   UNL A   1      41.427  31.622  30.584  1.00  0.00     0.031 C 
ATOM     60  C   UNL A   1      40.109  25.429  27.818  1.00  0.00     0.029 A 
ATOM     61  C   UNL A   1      41.475  25.629  28.288  1.00  0.00     0.049 A 
ATOM     62  H   UNL A   1      42.258  27.306  29.244  1.00  0.00     0.167 HD
ATOM     63  C   UNL A   1      43.772  31.021  31.078  1.00  0.00     0.031 A 
ATOM     64  C   UNL A   1      42.477  24.740  28.178  1.00  0.00     0.031 A 
ATOM     65  C   UNL A   1      44.879  30.105  31.085  1.00  0.00     0.049 A 
ATOM     66  C   UNL A   1      43.834  25.113  28.705  1.00  0.00     0.074 A 
ATOM     67  C   UNL A   1      46.144  30.284  31.611  1.00  0.00     0.029 A 
ATOM     68  N   UNL A   1      44.847  28.833  30.532  1.00  0.00    -0.354 N 
ATOM     69  N   UNL A   1      44.214  26.221  29.297  1.00  0.00    -0.248 NA
ATOM     70  C   UNL A   1      44.900  24.115  28.554  1.00  0.00     0.031 C 
ATOM     71  C   UNL A   1      46.897  29.142  31.322  1.00  0.00     0.029 A 
ATOM     72  C   UNL A   1      46.082  28.228  30.674  1.00  0.00     0.049 A 
ATOM     73  H   UNL A   1      44.061  28.422  30.104  1.00  0.00     0.167 HD
ATOM     74  C   UNL A   1      45.555  26.045  29.608  1.00  0.00     0.074 A 
ATOM     75  C   UNL A   1      45.916  24.715  29.157  1.00  0.00     0.031 C 
ATOM     76  C   UNL A   1      46.413  26.904  30.211  1.00  0.00     0.031 A 
BRANCH  63  77
ATOM     77  C   UNL A   1      43.967  32.405  31.636  1.00  0.00    -0.014 A 
ATOM     78  C   UNL A   1      44.395  33.467  30.821  1.00  0.00     0.009 A 
ATOM     79  C   UNL A   1      43.707  32.655  32.991  1.00  0.00     0.009 A 
ATOM     80  C   UNL A   1      44.603  34.737  31.363  1.00  0.00     0.001 A 
ATOM     81  C   UNL A   1      43.884  33.933  33.523  1.00  0.00     0.001 A 
ATOM     82  C   UNL A   1      44.343  34.969  32.712  1.00  0.00     0.000 A 
ENDBRANCH  63  77
BRANCH  64  83
ATOM     83  C   UNL A   1      42.232  23.412  27.556  1.00  0.00    -0.014 A 
ATOM     84  C   UNL A   1      42.558  23.189  26.209  1.00  0.00     0.009 A 
ATOM     85  C   UNL A   1      41.681  22.359  28.302  1.00  0.00     0.009 A 
ATOM     86  C   UNL A   1      42.317  21.947  25.617  1.00  0.00     0.001 A 
ATOM     87  C   UNL A   1      41.469  21.108  27.716  1.00  0.00     0.001 A 
ATOM     88  C   UNL A   1      41.777  20.906  26.373  1.00  0.00     0.000 A 
ENDBRANCH  64  83
BRANCH  76  89
ATOM     89  C   UNL A   1      47.818  26.424  30.437  1.00  0.00    -0.014 A 
ATOM     90  C   UNL A   1      48.192  25.817  31.646  1.00  0.00     0.009 A 
ATOM     91  C   UNL A   1      48.761  26.523  29.402  1.00  0.00     0.009 A 
ATOM     92  C   UNL A   1      49.492  25.342  31.822  1.00  0.00     0.001 A 
ATOM     93  C   UNL A   1      50.050  26.018  29.569  1.00  0.00     0.001 A 
ATOM     94  C   UNL A   1      50.417  25.435  30.781  1.00  0.00     0.000 A 
ENDBRANCH  76  89
ENDBRANCH  50  51
ENDBRANCH  42  45
ENDBRANCH  40  41
ENDBRANCH  39  40
ENDBRANCH   1  39
TORSDOF 16
ENDMDL
MODEL 3
REMARK VINA RESULT:     -12.8      4.027      9.984
REMARK SMILES COc1ccc2[nH]cc([C@H](C(=O)NCCCCNC(=O)c3ccc(-c4c5nc(c(-c6ccccc6)c6ccc([nH]6)c(-c6ccccc6)c6nc(c(-c7ccccc7)c7ccc4[nH]7)C=C6)C=C5)cc3)[NH+]3CC[NH+](Cc4cccc5ccccc45)CC3)c2c1
REMARK SMILES IDX 15 1 14 2 13 3 11 4 12 5 10 7 9 8 3 9 4 10 87 11 5 12 86 13
REMARK SMILES IDX 6 14 7 15 8 16 2 18 1 19 69 20 70 21 85 22 71 24 84 25 72 26
REMARK SMILES IDX 73 28 74 29 75 30 83 31 76 32 78 33 82 34 77 35 79 36 81 37
REMARK SMILES IDX 80 38 16 39 17 40 18 41 19 42 20 44 21 45 22 46 68 47 23 48
REMARK SMILES IDX 67 49 24 50 25 51 26 52 61 53 27 54 66 55 60 56 62 57 28 58
REMARK SMILES IDX 65 59 59 60 58 61 29 63 51 64 36 65 50 66 37 67 40 68 49 69
REMARK SMILES IDX 63 70 38 71 39 72 48 74 64 75 41 76 30 77 31 78 35 79 32 80
REMARK SMILES IDX 34 81 33 82 52 83 53 84 57 85 54 86 56 87 55 88 42 89 43 90
REMARK SMILES IDX 47 91 44 92 46 93 45 94
REMARK H PARENT 13 6 7 17 69 23 72 27 18 43 62 62 40 73
REMARK Flexibility Score: inf
ROOT
ATOM      1  C   UNL A   1      38.105  21.243  25.297  1.00  0.00     0.023 C 
ENDROOT
BRANCH   1   2
ATOM      2  C   UNL A   1      36.614  21.217  24.878  1.00  0.00     0.116 C 
BRANCH   2   3
ATOM      3  N   UNL A   1      35.622  21.687  25.848  1.00  0.00    -0.351 N 
ATOM      4  C   UNL A   1      34.251  21.893  25.825  1.00  0.00     0.283 C 
ATOM      5  O   UNL A   1      33.749  21.806  26.951  1.00  0.00    -0.268 OA
ATOM      6  H   UNL A   1      36.021  21.908  26.720  1.00  0.00     0.163 HD
BRANCH   4   7
ATOM      7  C   UNL A   1      33.420  22.187  24.522  1.00  0.00     0.308 C 
BRANCH   7   8
ATOM      8  C   UNL A   1      33.020  21.024  23.628  1.00  0.00     0.045 A 
ATOM      9  C   UNL A   1      33.617  17.392  24.746  1.00  0.00     0.119 A 
ATOM     10  C   UNL A   1      32.851  16.795  23.753  1.00  0.00     0.048 A 
ATOM     11  C   UNL A   1      33.728  18.781  24.823  1.00  0.00     0.057 A 
ATOM     12  C   UNL A   1      32.216  17.574  22.783  1.00  0.00     0.030 A 
ATOM     13  C   UNL A   1      33.138  19.600  23.836  1.00  0.00     0.013 A 
ATOM     14  C   UNL A   1      32.388  18.964  22.841  1.00  0.00     0.046 A 
ATOM     15  N   UNL A   1      31.857  19.943  22.040  1.00  0.00    -0.361 N 
ATOM     16  C   UNL A   1      32.236  21.176  22.488  1.00  0.00     0.094 A 
ATOM     17  H   UNL A   1      31.286  19.780  21.255  1.00  0.00     0.166 HD
BRANCH   9  18
ATOM     18  O   UNL A   1      34.230  16.670  25.737  1.00  0.00    -0.497 OA
ATOM     19  C   UNL A   1      35.236  15.804  25.217  1.00  0.00     0.278 C 
ENDBRANCH   9  18
ENDBRANCH   7   8
BRANCH   7  20
ATOM     20  N   UNL A   1      32.218  23.023  24.708  1.00  0.00    -0.312 N 
ATOM     21  C   UNL A   1      31.049  22.721  25.535  1.00  0.00     0.325 C 
ATOM     22  C   UNL A   1      32.467  24.428  24.685  1.00  0.00     0.325 C 
ATOM     23  H   UNL A   1      31.836  22.601  23.861  1.00  0.00     0.349 HD
ATOM     24  C   UNL A   1      30.710  23.677  26.744  1.00  0.00     0.324 C 
ATOM     25  C   UNL A   1      32.583  25.015  26.106  1.00  0.00     0.324 C 
ATOM     26  N   UNL A   1      31.306  25.023  26.807  1.00  0.00    -0.322 N 
ATOM     27  H   UNL A   1      31.429  25.183  27.806  1.00  0.00     0.348 HD
BRANCH  26  28
ATOM     28  C   UNL A   1      30.476  26.214  26.517  1.00  0.00     0.300 C 
BRANCH  28  29
ATOM     29  C   UNL A   1      31.201  27.552  26.374  1.00  0.00     0.014 A 
ATOM     30  C   UNL A   1      31.732  28.162  27.536  1.00  0.00     0.010 A 
ATOM     31  C   UNL A   1      31.574  28.049  25.100  1.00  0.00    -0.010 A 
ATOM     32  C   UNL A   1      32.735  29.127  27.440  1.00  0.00     0.001 A 
ATOM     33  C   UNL A   1      32.665  28.952  25.015  1.00  0.00    -0.018 A 
ATOM     34  C   UNL A   1      30.960  27.631  23.905  1.00  0.00     0.009 A 
ATOM     35  C   UNL A   1      33.235  29.477  26.187  1.00  0.00     0.009 A 
ATOM     36  C   UNL A   1      33.197  29.268  23.755  1.00  0.00     0.009 A 
ATOM     37  C   UNL A   1      31.461  28.006  22.661  1.00  0.00     0.001 A 
ATOM     38  C   UNL A   1      32.604  28.790  22.586  1.00  0.00     0.001 A 
ENDBRANCH  28  29
ENDBRANCH  26  28
ENDBRANCH   7  20
ENDBRANCH   4   7
ENDBRANCH   2   3
ENDBRANCH   1   2
BRANCH   1  39
ATOM     39  C   UNL A   1      38.924  19.979  25.040  1.00  0.00     0.023 C 
BRANCH  39  40
ATOM     40  C   UNL A   1      39.653  19.484  26.266  1.00  0.00     0.116 C 
BRANCH  40  41
ATOM     41  N   UNL A   1      41.000  19.016  25.940  1.00  0.00    -0.352 N 
ATOM     42  C   UNL A   1      42.178  19.714  25.905  1.00  0.00     0.251 C 
ATOM     43  H   UNL A   1      41.070  18.060  25.714  1.00  0.00     0.163 HD
ATOM     44  O   UNL A   1      43.185  19.215  25.408  1.00  0.00    -0.269 OA
BRANCH  42  45
ATOM     45  C   UNL A   1      42.210  21.078  26.454  1.00  0.00     0.039 A 
ATOM     46  C   UNL A   1      42.179  21.266  27.837  1.00  0.00     0.014 A 
ATOM     47  C   UNL A   1      42.332  22.165  25.586  1.00  0.00     0.014 A 
ATOM     48  C   UNL A   1      42.347  22.550  28.350  1.00  0.00     0.010 A 
ATOM     49  C   UNL A   1      42.623  23.414  26.099  1.00  0.00     0.010 A 
ATOM     50  C   UNL A   1      42.614  23.621  27.484  1.00  0.00    -0.014 A 
BRANCH  50  51
ATOM     51  C   UNL A   1      42.868  24.988  27.986  1.00  0.00     0.031 A 
ATOM     52  C   UNL A   1      44.261  25.371  28.400  1.00  0.00     0.074 A 
ATOM     53  C   UNL A   1      41.835  25.834  28.158  1.00  0.00     0.049 A 
ATOM     54  N   UNL A   1      44.679  26.470  28.970  1.00  0.00    -0.248 NA
ATOM     55  C   UNL A   1      45.318  24.367  28.183  1.00  0.00     0.031 C 
ATOM     56  C   UNL A   1      40.435  25.545  27.835  1.00  0.00     0.029 A 
ATOM     57  N   UNL A   1      41.804  27.109  28.658  1.00  0.00    -0.354 N 
ATOM     58  C   UNL A   1      46.035  26.278  29.198  1.00  0.00     0.074 A 
ATOM     59  C   UNL A   1      46.356  24.937  28.772  1.00  0.00     0.031 C 
ATOM     60  C   UNL A   1      39.690  26.626  28.111  1.00  0.00     0.029 A 
ATOM     61  C   UNL A   1      40.546  27.661  28.679  1.00  0.00     0.049 A 
ATOM     62  H   UNL A   1      42.607  27.585  28.973  1.00  0.00     0.167 HD
ATOM     63  C   UNL A   1      46.938  27.154  29.694  1.00  0.00     0.031 A 
ATOM     64  C   UNL A   1      40.134  28.863  29.118  1.00  0.00     0.031 A 
ATOM     65  C   UNL A   1      46.606  28.491  30.105  1.00  0.00     0.049 A 
ATOM     66  C   UNL A   1      41.151  29.809  29.692  1.00  0.00     0.074 A 
ATOM     67  C   UNL A   1      47.448  29.486  30.564  1.00  0.00     0.029 A 
ATOM     68  N   UNL A   1      45.321  29.014  30.107  1.00  0.00    -0.354 N 
ATOM     69  N   UNL A   1      42.445  29.646  29.829  1.00  0.00    -0.248 NA
ATOM     70  C   UNL A   1      40.653  31.106  30.166  1.00  0.00     0.031 C 
ATOM     71  C   UNL A   1      46.663  30.592  30.902  1.00  0.00     0.029 A 
ATOM     72  C   UNL A   1      45.342  30.308  30.592  1.00  0.00     0.049 A 
ATOM     73  H   UNL A   1      44.516  28.535  29.806  1.00  0.00     0.167 HD
ATOM     74  C   UNL A   1      42.920  30.826  30.385  1.00  0.00     0.074 A 
ATOM     75  C   UNL A   1      41.776  31.702  30.540  1.00  0.00     0.031 C 
ATOM     76  C   UNL A   1      44.186  31.156  30.739  1.00  0.00     0.031 A 
BRANCH  63  77
ATOM     77  C   UNL A   1      48.361  26.682  29.823  1.00  0.00    -0.014 A 
ATOM     78  C   UNL A   1      48.808  26.020  30.979  1.00  0.00     0.009 A 
ATOM     79  C   UNL A   1      49.264  26.892  28.772  1.00  0.00     0.009 A 
ATOM     80  C   UNL A   1      50.141  25.620  31.097  1.00  0.00     0.001 A 
ATOM     81  C   UNL A   1      50.588  26.460  28.877  1.00  0.00     0.001 A 
ATOM     82  C   UNL A   1      51.028  25.836  30.043  1.00  0.00     0.000 A 
ENDBRANCH  63  77
BRANCH  64  83
ATOM     83  C   UNL A   1      38.699  29.241  29.020  1.00  0.00    -0.014 A 
ATOM     84  C   UNL A   1      37.846  29.075  30.122  1.00  0.00     0.009 A 
ATOM     85  C   UNL A   1      38.176  29.777  27.833  1.00  0.00     0.009 A 
ATOM     86  C   UNL A   1      36.494  29.417  30.030  1.00  0.00     0.001 A 
ATOM     87  C   UNL A   1      36.831  30.147  27.753  1.00  0.00     0.001 A 
ATOM     88  C   UNL A   1      35.989  29.957  28.848  1.00  0.00     0.000 A 
ENDBRANCH  64  83
BRANCH  76  89
ATOM     89  C   UNL A   1      44.404  32.529  31.305  1.00  0.00    -0.014 A 
ATOM     90  C   UNL A   1      44.652  33.629  30.469  1.00  0.00     0.009 A 
ATOM     91  C   UNL A   1      44.294  32.735  32.690  1.00  0.00     0.009 A 
ATOM     92  C   UNL A   1      44.812  34.905  31.014  1.00  0.00     0.001 A 
ATOM     93  C   UNL A   1      44.422  34.015  33.227  1.00  0.00     0.001 A 
ATOM     94  C   UNL A   1      44.689  35.097  32.390  1.00  0.00     0.000 A 
ENDBRANCH  76  89
ENDBRANCH  50  51
ENDBRANCH  42  45
ENDBRANCH  40  41
ENDBRANCH  39  40
ENDBRANCH   1  39
TORSDOF 16
ENDMDL
