MODEL 1
REMARK VINA RESULT:     -11.5      0.000      0.000
REMARK SMILES Cc1nc2nc(SCc3nc(-c4ccsc4)no3)nn2c(C)c1CC(=O)NCCCCNC(=O)c1ccc(-c2c3nc(c(-c4ccccc4)c4ccc([nH]4)c(-c4ccccc4)c4nc(c(-c5ccccc5)c5ccc2[nH]5)C=C4)C=C3)cc1
REMARK SMILES IDX 28 1 27 2 25 3 26 4 24 6 23 7 1 8 2 9 3 10 4 11 21 12 5 13
REMARK SMILES IDX 20 14 22 15 6 16 19 17 7 18 8 19 9 20 10 21 18 22 11 23
REMARK SMILES IDX 17 24 12 25 13 26 16 27 14 28 15 29 29 30 30 31 31 32 32 33
REMARK SMILES IDX 33 34 34 36 35 37 36 38 82 39 37 40 81 41 38 42 39 43 40 44
REMARK SMILES IDX 75 45 41 46 80 47 74 48 76 49 42 50 79 51 73 52 72 53 43 55
REMARK SMILES IDX 65 56 50 57 64 58 51 59 54 60 63 61 77 62 52 63 53 64 62 66
REMARK SMILES IDX 78 67 55 68 44 69 45 70 49 71 46 72 48 73 47 74 66 75 67 76
REMARK SMILES IDX 71 77 68 78 70 79 69 80 56 81 57 82 61 83 58 84 60 85 59 86
REMARK H PARENT 27 5 32 35 76 54 54 65
REMARK Flexibility Score: inf
ROOT
ATOM      1  C   UNL A   1      31.331  29.494  24.873  1.00  0.00     0.116 C 
ENDROOT
BRANCH   1   2
ATOM      2  N   UNL A   1      32.404  29.429  23.903  1.00  0.00    -0.356 N 
ATOM      3  C   UNL A   1      32.630  28.497  22.932  1.00  0.00     0.224 C 
ATOM      4  O   UNL A   1      33.554  28.693  22.140  1.00  0.00    -0.275 OA
ATOM      5  H   UNL A   1      33.063  30.159  23.950  1.00  0.00     0.163 HD
BRANCH   3   6
ATOM      6  C   UNL A   1      31.749  27.248  22.832  1.00  0.00     0.139 C 
BRANCH   6   7
ATOM      7  C   UNL A   1      32.544  25.977  22.975  1.00  0.00     0.004 A 
ATOM      8  C   UNL A   1      32.593  25.664  20.367  1.00  0.00     0.067 C 
ATOM      9  C   UNL A   1      32.866  25.118  21.757  1.00  0.00     0.047 A 
ATOM     10  N   UNL A   1      33.381  23.922  21.797  1.00  0.00    -0.216 NA
ATOM     11  C   UNL A   1      33.721  23.434  23.021  1.00  0.00     0.253 A 
ATOM     12  C   UNL A   1      32.974  25.468  24.155  1.00  0.00     0.049 A 
ATOM     13  N   UNL A   1      34.287  22.290  23.345  1.00  0.00    -0.183 NA
ATOM     14  N   UNL A   1      33.535  24.189  24.177  1.00  0.00    -0.200 N 
ATOM     15  C   UNL A   1      32.875  26.146  25.495  1.00  0.00     0.067 C 
ATOM     16  C   UNL A   1      34.429  22.379  24.695  1.00  0.00     0.211 A 
ATOM     17  N   UNL A   1      33.929  23.477  25.250  1.00  0.00    -0.138 NA
BRANCH  16  18
ATOM     18  S   UNL A   1      35.243  21.176  25.658  1.00  0.00    -0.074 SA
BRANCH  18  19
ATOM     19  C   UNL A   1      36.926  21.250  24.957  1.00  0.00     0.178 C 
BRANCH  19  20
ATOM     20  C   UNL A   1      37.905  22.124  25.670  1.00  0.00     0.237 A 
ATOM     21  N   UNL A   1      39.089  21.816  26.163  1.00  0.00    -0.190 NA
ATOM     22  O   UNL A   1      37.558  23.428  25.893  1.00  0.00    -0.338 OA
ATOM     23  C   UNL A   1      39.451  22.985  26.782  1.00  0.00     0.203 A 
ATOM     24  N   UNL A   1      38.574  23.987  26.665  1.00  0.00    -0.057 NA
BRANCH  23  25
ATOM     25  C   UNL A   1      40.697  23.100  27.532  1.00  0.00     0.033 A 
ATOM     26  C   UNL A   1      41.139  24.339  28.089  1.00  0.00     0.024 A 
ATOM     27  C   UNL A   1      41.595  22.080  27.757  1.00  0.00     0.077 A 
ATOM     28  C   UNL A   1      42.371  24.223  28.695  1.00  0.00     0.065 A 
ATOM     29  S   UNL A   1      42.984  22.626  28.601  1.00  0.00    -0.152 S 
ENDBRANCH  23  25
ENDBRANCH  19  20
ENDBRANCH  18  19
ENDBRANCH  16  18
ENDBRANCH   6   7
ENDBRANCH   3   6
ENDBRANCH   1   2
BRANCH   1  30
ATOM     30  C   UNL A   1      31.804  29.856  26.283  1.00  0.00     0.023 C 
BRANCH  30  31
ATOM     31  C   UNL A   1      33.284  29.592  26.586  1.00  0.00     0.023 C 
BRANCH  31  32
ATOM     32  C   UNL A   1      33.824  30.319  27.808  1.00  0.00     0.116 C 
BRANCH  32  33
ATOM     33  N   UNL A   1      34.290  31.678  27.524  1.00  0.00    -0.352 N 
ATOM     34  C   UNL A   1      35.490  32.247  27.912  1.00  0.00     0.251 C 
ATOM     35  H   UNL A   1      33.683  32.250  27.001  1.00  0.00     0.163 HD
ATOM     36  O   UNL A   1      35.631  33.468  27.985  1.00  0.00    -0.269 OA
BRANCH  34  37
ATOM     37  C   UNL A   1      36.617  31.352  28.206  1.00  0.00     0.039 A 
ATOM     38  C   UNL A   1      36.831  30.151  27.525  1.00  0.00     0.014 A 
ATOM     39  C   UNL A   1      37.509  31.791  29.180  1.00  0.00     0.014 A 
ATOM     40  C   UNL A   1      37.997  29.437  27.793  1.00  0.00     0.010 A 
ATOM     41  C   UNL A   1      38.737  31.205  29.288  1.00  0.00     0.010 A 
ATOM     42  C   UNL A   1      38.951  29.984  28.668  1.00  0.00    -0.014 A 
BRANCH  42  43
ATOM     43  C   UNL A   1      40.233  29.350  28.914  1.00  0.00     0.031 A 
ATOM     44  C   UNL A   1      40.470  28.956  30.321  1.00  0.00     0.074 A 
ATOM     45  C   UNL A   1      41.065  28.971  27.919  1.00  0.00     0.049 A 
ATOM     46  N   UNL A   1      41.276  29.530  31.146  1.00  0.00    -0.248 NA
ATOM     47  C   UNL A   1      39.634  27.910  30.927  1.00  0.00     0.031 C 
ATOM     48  C   UNL A   1      40.864  29.030  26.465  1.00  0.00     0.029 A 
ATOM     49  N   UNL A   1      42.265  28.348  28.023  1.00  0.00    -0.354 N 
ATOM     50  C   UNL A   1      41.204  28.806  32.328  1.00  0.00     0.074 A 
ATOM     51  C   UNL A   1      40.064  27.933  32.193  1.00  0.00     0.031 C 
ATOM     52  C   UNL A   1      41.797  28.270  25.844  1.00  0.00     0.029 A 
ATOM     53  C   UNL A   1      42.759  27.824  26.835  1.00  0.00     0.049 A 
ATOM     54  H   UNL A   1      42.750  28.271  28.877  1.00  0.00     0.167 HD
ATOM     55  C   UNL A   1      42.230  28.831  33.222  1.00  0.00     0.031 A 
ATOM     56  C   UNL A   1      43.886  27.083  26.690  1.00  0.00     0.031 A 
ATOM     57  C   UNL A   1      43.175  29.877  32.908  1.00  0.00     0.049 A 
ATOM     58  C   UNL A   1      44.748  27.379  27.858  1.00  0.00     0.074 A 
ATOM     59  C   UNL A   1      43.099  31.253  32.811  1.00  0.00     0.029 A 
ATOM     60  N   UNL A   1      44.298  29.512  32.202  1.00  0.00    -0.354 N 
ATOM     61  N   UNL A   1      45.298  28.544  28.046  1.00  0.00    -0.248 NA
ATOM     62  C   UNL A   1      44.606  26.554  29.046  1.00  0.00     0.031 C 
ATOM     63  C   UNL A   1      43.873  31.581  31.657  1.00  0.00     0.029 A 
ATOM     64  C   UNL A   1      44.449  30.405  31.171  1.00  0.00     0.049 A 
ATOM     65  H   UNL A   1      44.887  28.747  32.401  1.00  0.00     0.167 HD
ATOM     66  C   UNL A   1      45.138  28.788  29.403  1.00  0.00     0.074 A 
ATOM     67  C   UNL A   1      44.804  27.486  29.984  1.00  0.00     0.031 C 
ATOM     68  C   UNL A   1      45.001  30.062  29.878  1.00  0.00     0.031 A 
BRANCH  55  69
ATOM     69  C   UNL A   1      42.593  27.685  34.127  1.00  0.00    -0.014 A 
ATOM     70  C   UNL A   1      42.361  27.821  35.508  1.00  0.00     0.009 A 
ATOM     71  C   UNL A   1      43.395  26.603  33.722  1.00  0.00     0.009 A 
ATOM     72  C   UNL A   1      42.964  26.964  36.436  1.00  0.00     0.001 A 
ATOM     73  C   UNL A   1      43.967  25.721  34.644  1.00  0.00     0.001 A 
ATOM     74  C   UNL A   1      43.775  25.920  36.002  1.00  0.00     0.000 A 
ENDBRANCH  55  69
BRANCH  56  75
ATOM     75  C   UNL A   1      44.180  25.971  25.763  1.00  0.00    -0.014 A 
ATOM     76  C   UNL A   1      45.507  25.582  25.510  1.00  0.00     0.009 A 
ATOM     77  C   UNL A   1      43.155  25.092  25.374  1.00  0.00     0.009 A 
ATOM     78  C   UNL A   1      45.797  24.333  24.944  1.00  0.00     0.001 A 
ATOM     79  C   UNL A   1      43.446  23.844  24.808  1.00  0.00     0.001 A 
ATOM     80  C   UNL A   1      44.767  23.458  24.612  1.00  0.00     0.000 A 
ENDBRANCH  56  75
BRANCH  68  81
ATOM     81  C   UNL A   1      45.207  31.201  28.902  1.00  0.00    -0.014 A 
ATOM     82  C   UNL A   1      46.473  31.736  28.596  1.00  0.00     0.009 A 
ATOM     83  C   UNL A   1      44.106  31.656  28.164  1.00  0.00     0.009 A 
ATOM     84  C   UNL A   1      46.624  32.721  27.613  1.00  0.00     0.001 A 
ATOM     85  C   UNL A   1      44.258  32.624  27.167  1.00  0.00     0.001 A 
ATOM     86  C   UNL A   1      45.515  33.162  26.897  1.00  0.00     0.000 A 
ENDBRANCH  68  81
ENDBRANCH  42  43
ENDBRANCH  34  37
ENDBRANCH  32  33
ENDBRANCH  31  32
ENDBRANCH  30  31
ENDBRANCH   1  30
TORSDOF 16
ENDMDL
MODEL 2
REMARK VINA RESULT:     -11.3      3.000      6.422
REMARK SMILES Cc1nc2nc(SCc3nc(-c4ccsc4)no3)nn2c(C)c1CC(=O)NCCCCNC(=O)c1ccc(-c2c3nc(c(-c4ccccc4)c4ccc([nH]4)c(-c4ccccc4)c4nc(c(-c5ccccc5)c5ccc2[nH]5)C=C4)C=C3)cc1
REMARK SMILES IDX 28 1 27 2 25 3 26 4 24 6 23 7 1 8 2 9 3 10 4 11 21 12 5 13
REMARK SMILES IDX 20 14 22 15 6 16 19 17 7 18 8 19 9 20 10 21 18 22 11 23
REMARK SMILES IDX 17 24 12 25 13 26 16 27 14 28 15 29 29 30 30 31 31 32 32 33
REMARK SMILES IDX 33 34 34 36 35 37 36 38 82 39 37 40 81 41 38 42 39 43 40 44
REMARK SMILES IDX 75 45 41 46 80 47 74 48 76 49 42 50 79 51 73 52 72 53 43 55
REMARK SMILES IDX 65 56 50 57 64 58 51 59 54 60 63 61 77 62 52 63 53 64 62 66
REMARK SMILES IDX 78 67 55 68 44 69 45 70 49 71 46 72 48 73 47 74 66 75 67 76
REMARK SMILES IDX 71 77 68 78 70 79 69 80 56 81 57 82 61 83 58 84 60 85 59 86
REMARK H PARENT 27 5 32 35 76 54 54 65
REMARK Flexibility Score: inf
ROOT
ATOM      1  C   UNL A   1      35.978  33.770  32.031  1.00  0.00     0.116 C 
ENDROOT
BRANCH   1   2
ATOM      2  N   UNL A   1      35.916  32.325  32.074  1.00  0.00    -0.356 N 
ATOM      3  C   UNL A   1      36.193  31.422  31.087  1.00  0.00     0.224 C 
ATOM      4  O   UNL A   1      36.176  30.224  31.372  1.00  0.00    -0.275 OA
ATOM      5  H   UNL A   1      35.633  31.937  32.934  1.00  0.00     0.163 HD
BRANCH   3   6
ATOM      6  C   UNL A   1      36.524  31.898  29.669  1.00  0.00     0.139 C 
BRANCH   6   7
ATOM      7  C   UNL A   1      35.542  31.381  28.651  1.00  0.00     0.004 A 
ATOM      8  C   UNL A   1      34.077  33.547  28.904  1.00  0.00     0.067 C 
ATOM      9  C   UNL A   1      34.256  32.144  28.352  1.00  0.00     0.047 A 
ATOM     10  N   UNL A   1      33.266  31.694  27.635  1.00  0.00    -0.216 NA
ATOM     11  C   UNL A   1      33.427  30.476  27.051  1.00  0.00     0.253 A 
ATOM     12  C   UNL A   1      35.673  30.210  27.982  1.00  0.00     0.049 A 
ATOM     13  N   UNL A   1      32.618  29.809  26.254  1.00  0.00    -0.183 NA
ATOM     14  N   UNL A   1      34.606  29.750  27.207  1.00  0.00    -0.200 N 
ATOM     15  C   UNL A   1      36.876  29.306  28.016  1.00  0.00     0.067 C 
ATOM     16  C   UNL A   1      33.327  28.690  25.947  1.00  0.00     0.211 A 
ATOM     17  N   UNL A   1      34.505  28.577  26.552  1.00  0.00    -0.138 NA
BRANCH  16  18
ATOM     18  S   UNL A   1      32.783  27.487  24.811  1.00  0.00    -0.074 SA
BRANCH  18  19
ATOM     19  C   UNL A   1      31.558  26.585  25.818  1.00  0.00     0.178 C 
BRANCH  19  20
ATOM     20  C   UNL A   1      31.856  25.148  26.097  1.00  0.00     0.237 A 
ATOM     21  N   UNL A   1      32.502  24.273  25.351  1.00  0.00    -0.190 NA
ATOM     22  O   UNL A   1      31.387  24.611  27.264  1.00  0.00    -0.338 OA
ATOM     23  C   UNL A   1      32.356  23.119  26.078  1.00  0.00     0.203 A 
ATOM     24  N   UNL A   1      31.691  23.252  27.230  1.00  0.00    -0.057 NA
BRANCH  23  25
ATOM     25  C   UNL A   1      32.875  21.842  25.600  1.00  0.00     0.033 A 
ATOM     26  C   UNL A   1      34.275  21.565  25.537  1.00  0.00     0.024 A 
ATOM     27  C   UNL A   1      32.117  20.794  25.128  1.00  0.00     0.077 A 
ATOM     28  C   UNL A   1      34.532  20.325  24.992  1.00  0.00     0.065 A 
ATOM     29  S   UNL A   1      33.093  19.499  24.572  1.00  0.00    -0.152 S 
ENDBRANCH  23  25
ENDBRANCH  19  20
ENDBRANCH  18  19
ENDBRANCH  16  18
ENDBRANCH   6   7
ENDBRANCH   3   6
ENDBRANCH   1   2
BRANCH   1  30
ATOM     30  C   UNL A   1      37.407  34.319  31.998  1.00  0.00     0.023 C 
BRANCH  30  31
ATOM     31  C   UNL A   1      38.354  33.801  33.087  1.00  0.00     0.023 C 
BRANCH  31  32
ATOM     32  C   UNL A   1      39.830  34.044  32.817  1.00  0.00     0.116 C 
BRANCH  32  33
ATOM     33  N   UNL A   1      40.103  34.563  31.475  1.00  0.00    -0.352 N 
ATOM     34  C   UNL A   1      40.845  33.953  30.479  1.00  0.00     0.251 C 
ATOM     35  H   UNL A   1      39.717  35.442  31.257  1.00  0.00     0.163 HD
ATOM     36  O   UNL A   1      41.351  34.601  29.562  1.00  0.00    -0.269 OA
BRANCH  34  37
ATOM     37  C   UNL A   1      40.992  32.492  30.522  1.00  0.00     0.039 A 
ATOM     38  C   UNL A   1      39.914  31.616  30.372  1.00  0.00     0.014 A 
ATOM     39  C   UNL A   1      42.289  32.010  30.668  1.00  0.00     0.014 A 
ATOM     40  C   UNL A   1      40.176  30.249  30.302  1.00  0.00     0.010 A 
ATOM     41  C   UNL A   1      42.563  30.702  30.393  1.00  0.00     0.010 A 
ATOM     42  C   UNL A   1      41.510  29.806  30.300  1.00  0.00    -0.014 A 
BRANCH  42  43
ATOM     43  C   UNL A   1      41.863  28.409  30.123  1.00  0.00     0.031 A 
ATOM     44  C   UNL A   1      42.554  27.795  31.279  1.00  0.00     0.074 A 
ATOM     45  C   UNL A   1      41.430  27.671  29.078  1.00  0.00     0.049 A 
ATOM     46  N   UNL A   1      43.802  27.479  31.339  1.00  0.00    -0.248 NA
ATOM     47  C   UNL A   1      41.834  27.638  32.551  1.00  0.00     0.031 C 
ATOM     48  C   UNL A   1      40.512  28.041  27.993  1.00  0.00     0.029 A 
ATOM     49  N   UNL A   1      41.668  26.359  28.825  1.00  0.00    -0.354 N 
ATOM     50  C   UNL A   1      43.998  26.900  32.585  1.00  0.00     0.074 A 
ATOM     51  C   UNL A   1      42.804  27.177  33.346  1.00  0.00     0.031 C 
ATOM     52  C   UNL A   1      40.104  26.928  27.340  1.00  0.00     0.029 A 
ATOM     53  C   UNL A   1      40.865  25.798  27.840  1.00  0.00     0.049 A 
ATOM     54  H   UNL A   1      42.357  25.844  29.304  1.00  0.00     0.167 HD
ATOM     55  C   UNL A   1      45.038  26.049  32.801  1.00  0.00     0.031 A 
ATOM     56  C   UNL A   1      40.843  24.494  27.467  1.00  0.00     0.031 A 
ATOM     57  C   UNL A   1      45.984  26.088  31.711  1.00  0.00     0.049 A 
ATOM     58  C   UNL A   1      42.140  23.908  27.877  1.00  0.00     0.074 A 
ATOM     59  C   UNL A   1      46.780  27.071  31.154  1.00  0.00     0.029 A 
ATOM     60  N   UNL A   1      45.871  25.107  30.752  1.00  0.00    -0.354 N 
ATOM     61  N   UNL A   1      43.271  24.253  27.330  1.00  0.00    -0.248 NA
ATOM     62  C   UNL A   1      42.241  23.314  29.199  1.00  0.00     0.031 C 
ATOM     63  C   UNL A   1      46.682  26.864  29.745  1.00  0.00     0.029 A 
ATOM     64  C   UNL A   1      45.912  25.720  29.524  1.00  0.00     0.049 A 
ATOM     65  H   UNL A   1      45.779  24.140  30.917  1.00  0.00     0.167 HD
ATOM     66  C   UNL A   1      44.153  24.362  28.395  1.00  0.00     0.074 A 
ATOM     67  C   UNL A   1      43.494  23.669  29.504  1.00  0.00     0.031 C 
ATOM     68  C   UNL A   1      45.191  25.250  28.361  1.00  0.00     0.031 A 
BRANCH  55  69
ATOM     69  C   UNL A   1      45.007  24.905  33.778  1.00  0.00    -0.014 A 
ATOM     70  C   UNL A   1      46.217  24.262  34.097  1.00  0.00     0.009 A 
ATOM     71  C   UNL A   1      43.822  24.264  34.183  1.00  0.00     0.009 A 
ATOM     72  C   UNL A   1      46.234  23.008  34.718  1.00  0.00     0.001 A 
ATOM     73  C   UNL A   1      43.837  23.029  34.838  1.00  0.00     0.001 A 
ATOM     74  C   UNL A   1      45.042  22.388  35.080  1.00  0.00     0.000 A 
ENDBRANCH  55  69
BRANCH  56  75
ATOM     75  C   UNL A   1      39.718  23.655  27.005  1.00  0.00    -0.014 A 
ATOM     76  C   UNL A   1      38.498  24.240  26.624  1.00  0.00     0.009 A 
ATOM     77  C   UNL A   1      39.946  22.318  26.637  1.00  0.00     0.009 A 
ATOM     78  C   UNL A   1      37.567  23.530  25.853  1.00  0.00     0.001 A 
ATOM     79  C   UNL A   1      39.015  21.609  25.867  1.00  0.00     0.001 A 
ATOM     80  C   UNL A   1      37.836  22.222  25.459  1.00  0.00     0.000 A 
ENDBRANCH  56  75
BRANCH  68  81
ATOM     81  C   UNL A   1      45.451  25.978  27.059  1.00  0.00    -0.014 A 
ATOM     82  C   UNL A   1      44.721  27.110  26.649  1.00  0.00     0.009 A 
ATOM     83  C   UNL A   1      46.557  25.594  26.289  1.00  0.00     0.009 A 
ATOM     84  C   UNL A   1      45.064  27.809  25.485  1.00  0.00     0.001 A 
ATOM     85  C   UNL A   1      46.913  26.303  25.138  1.00  0.00     0.001 A 
ATOM     86  C   UNL A   1      46.163  27.405  24.732  1.00  0.00     0.000 A 
ENDBRANCH  68  81
ENDBRANCH  42  43
ENDBRANCH  34  37
ENDBRANCH  32  33
ENDBRANCH  31  32
ENDBRANCH  30  31
ENDBRANCH   1  30
TORSDOF 16
ENDMDL
MODEL 3
REMARK VINA RESULT:     -11.0      4.563     10.570
REMARK SMILES Cc1nc2nc(SCc3nc(-c4ccsc4)no3)nn2c(C)c1CC(=O)NCCCCNC(=O)c1ccc(-c2c3nc(c(-c4ccccc4)c4ccc([nH]4)c(-c4ccccc4)c4nc(c(-c5ccccc5)c5ccc2[nH]5)C=C4)C=C3)cc1
REMARK SMILES IDX 28 1 27 2 25 3 26 4 24 6 23 7 1 8 2 9 3 10 4 11 21 12 5 13
REMARK SMILES IDX 20 14 22 15 6 16 19 17 7 18 8 19 9 20 10 21 18 22 11 23
REMARK SMILES IDX 17 24 12 25 13 26 16 27 14 28 15 29 29 30 30 31 31 32 32 33
REMARK SMILES IDX 33 34 34 36 35 37 36 38 82 39 37 40 81 41 38 42 39 43 40 44
REMARK SMILES IDX 75 45 41 46 80 47 74 48 76 49 42 50 79 51 73 52 72 53 43 55
REMARK SMILES IDX 65 56 50 57 64 58 51 59 54 60 63 61 77 62 52 63 53 64 62 66
REMARK SMILES IDX 78 67 55 68 44 69 45 70 49 71 46 72 48 73 47 74 66 75 67 76
REMARK SMILES IDX 71 77 68 78 70 79 69 80 56 81 57 82 61 83 58 84 60 85 59 86
REMARK H PARENT 27 5 32 35 76 54 54 65
REMARK Flexibility Score: inf
ROOT
ATOM      1  C   UNL A   1      41.026  29.199  33.124  1.00  0.00     0.116 C 
ENDROOT
BRANCH   1   2
ATOM      2  N   UNL A   1      39.587  29.258  32.981  1.00  0.00    -0.356 N 
ATOM      3  C   UNL A   1      38.756  30.337  33.075  1.00  0.00     0.224 C 
ATOM      4  O   UNL A   1      37.564  30.179  32.812  1.00  0.00    -0.275 OA
ATOM      5  H   UNL A   1      39.144  28.399  32.790  1.00  0.00     0.163 HD
BRANCH   3   6
ATOM      6  C   UNL A   1      39.305  31.706  33.488  1.00  0.00     0.139 C 
BRANCH   6   7
ATOM      7  C   UNL A   1      38.208  32.697  33.774  1.00  0.00     0.004 A 
ATOM      8  C   UNL A   1      37.953  31.773  36.220  1.00  0.00     0.067 C 
ATOM      9  C   UNL A   1      37.447  32.657  35.095  1.00  0.00     0.047 A 
ATOM     10  N   UNL A   1      36.371  33.341  35.362  1.00  0.00    -0.216 NA
ATOM     11  C   UNL A   1      35.937  34.212  34.410  1.00  0.00     0.253 A 
ATOM     12  C   UNL A   1      37.771  33.635  32.899  1.00  0.00     0.049 A 
ATOM     13  N   UNL A   1      34.917  35.045  34.431  1.00  0.00    -0.183 NA
ATOM     14  N   UNL A   1      36.624  34.368  33.208  1.00  0.00    -0.200 N 
ATOM     15  C   UNL A   1      38.396  33.955  31.567  1.00  0.00     0.067 C 
ATOM     16  C   UNL A   1      35.010  35.687  33.235  1.00  0.00     0.211 A 
ATOM     17  N   UNL A   1      35.982  35.266  32.435  1.00  0.00    -0.138 NA
BRANCH  16  18
ATOM     18  S   UNL A   1      33.970  37.005  32.768  1.00  0.00    -0.074 SA
BRANCH  18  19
ATOM     19  C   UNL A   1      32.753  36.136  31.724  1.00  0.00     0.178 C 
BRANCH  19  20
ATOM     20  C   UNL A   1      33.294  35.411  30.536  1.00  0.00     0.237 A 
ATOM     21  N   UNL A   1      33.622  34.138  30.417  1.00  0.00    -0.190 NA
ATOM     22  O   UNL A   1      33.528  36.130  29.397  1.00  0.00    -0.338 OA
ATOM     23  C   UNL A   1      34.150  34.099  29.152  1.00  0.00     0.203 A 
ATOM     24  N   UNL A   1      34.131  35.261  28.490  1.00  0.00    -0.057 NA
BRANCH  23  25
ATOM     25  C   UNL A   1      34.711  32.874  28.594  1.00  0.00     0.033 A 
ATOM     26  C   UNL A   1      33.902  31.895  27.939  1.00  0.00     0.024 A 
ATOM     27  C   UNL A   1      36.034  32.495  28.658  1.00  0.00     0.077 A 
ATOM     28  C   UNL A   1      34.635  30.794  27.553  1.00  0.00     0.065 A 
ATOM     29  S   UNL A   1      36.289  30.947  27.968  1.00  0.00    -0.152 S 
ENDBRANCH  23  25
ENDBRANCH  19  20
ENDBRANCH  18  19
ENDBRANCH  16  18
ENDBRANCH   6   7
ENDBRANCH   3   6
ENDBRANCH   1   2
BRANCH   1  30
ATOM     30  C   UNL A   1      41.535  27.846  33.629  1.00  0.00     0.023 C 
BRANCH  30  31
ATOM     31  C   UNL A   1      41.898  27.776  35.118  1.00  0.00     0.023 C 
BRANCH  31  32
ATOM     32  C   UNL A   1      42.390  26.418  35.591  1.00  0.00     0.116 C 
BRANCH  32  33
ATOM     33  N   UNL A   1      43.673  26.471  36.296  1.00  0.00    -0.352 N 
ATOM     34  C   UNL A   1      44.877  25.931  35.880  1.00  0.00     0.251 C 
ATOM     35  H   UNL A   1      43.680  26.942  37.161  1.00  0.00     0.163 HD
ATOM     36  O   UNL A   1      45.778  25.672  36.678  1.00  0.00    -0.269 OA
BRANCH  34  37
ATOM     37  C   UNL A   1      45.072  25.701  34.442  1.00  0.00     0.039 A 
ATOM     38  C   UNL A   1      45.061  24.428  33.868  1.00  0.00     0.014 A 
ATOM     39  C   UNL A   1      45.218  26.840  33.655  1.00  0.00     0.014 A 
ATOM     40  C   UNL A   1      45.129  24.328  32.480  1.00  0.00     0.010 A 
ATOM     41  C   UNL A   1      45.076  26.751  32.300  1.00  0.00     0.010 A 
ATOM     42  C   UNL A   1      45.122  25.500  31.705  1.00  0.00    -0.014 A 
BRANCH  42  43
ATOM     43  C   UNL A   1      45.085  25.472  30.254  1.00  0.00     0.031 A 
ATOM     44  C   UNL A   1      46.189  26.204  29.593  1.00  0.00     0.074 A 
ATOM     45  C   UNL A   1      44.233  24.688  29.559  1.00  0.00     0.049 A 
ATOM     46  N   UNL A   1      46.092  27.329  28.973  1.00  0.00    -0.248 NA
ATOM     47  C   UNL A   1      47.568  25.720  29.746  1.00  0.00     0.031 C 
ATOM     48  C   UNL A   1      43.268  23.696  30.051  1.00  0.00     0.029 A 
ATOM     49  N   UNL A   1      44.127  24.556  28.213  1.00  0.00    -0.354 N 
ATOM     50  C   UNL A   1      47.359  27.614  28.482  1.00  0.00     0.074 A 
ATOM     51  C   UNL A   1      48.255  26.685  29.126  1.00  0.00     0.031 C 
ATOM     52  C   UNL A   1      42.847  22.920  29.025  1.00  0.00     0.029 A 
ATOM     53  C   UNL A   1      43.369  23.472  27.788  1.00  0.00     0.049 A 
ATOM     54  H   UNL A   1      44.556  25.180  27.584  1.00  0.00     0.167 HD
ATOM     55  C   UNL A   1      47.521  28.443  27.415  1.00  0.00     0.031 A 
ATOM     56  C   UNL A   1      43.187  23.071  26.506  1.00  0.00     0.031 A 
ATOM     57  C   UNL A   1      46.299  29.148  27.108  1.00  0.00     0.049 A 
ATOM     58  C   UNL A   1      43.461  24.246  25.646  1.00  0.00     0.074 A 
ATOM     59  C   UNL A   1      45.493  30.035  27.796  1.00  0.00     0.029 A 
ATOM     60  N   UNL A   1      45.513  28.628  26.104  1.00  0.00    -0.354 N 
ATOM     61  N   UNL A   1      42.699  25.302  25.636  1.00  0.00    -0.248 NA
ATOM     62  C   UNL A   1      44.819  24.451  25.171  1.00  0.00     0.031 C 
ATOM     63  C   UNL A   1      44.159  29.627  27.492  1.00  0.00     0.029 A 
ATOM     64  C   UNL A   1      44.223  28.581  26.569  1.00  0.00     0.049 A 
ATOM     65  H   UNL A   1      45.822  28.341  25.214  1.00  0.00     0.167 HD
ATOM     66  C   UNL A   1      43.585  26.369  25.612  1.00  0.00     0.074 A 
ATOM     67  C   UNL A   1      44.868  25.786  25.218  1.00  0.00     0.031 C 
ATOM     68  C   UNL A   1      43.265  27.563  26.195  1.00  0.00     0.031 A 
BRANCH  55  69
ATOM     69  C   UNL A   1      48.637  28.327  26.414  1.00  0.00    -0.014 A 
ATOM     70  C   UNL A   1      48.646  27.221  25.543  1.00  0.00     0.009 A 
ATOM     71  C   UNL A   1      49.812  29.097  26.470  1.00  0.00     0.009 A 
ATOM     72  C   UNL A   1      49.796  26.864  24.829  1.00  0.00     0.001 A 
ATOM     73  C   UNL A   1      50.950  28.766  25.729  1.00  0.00     0.001 A 
ATOM     74  C   UNL A   1      50.951  27.633  24.930  1.00  0.00     0.000 A 
ENDBRANCH  55  69
BRANCH  56  75
ATOM     75  C   UNL A   1      43.029  21.713  25.946  1.00  0.00    -0.014 A 
ATOM     76  C   UNL A   1      44.117  21.053  25.349  1.00  0.00     0.009 A 
ATOM     77  C   UNL A   1      41.900  20.944  26.279  1.00  0.00     0.009 A 
ATOM     78  C   UNL A   1      44.097  19.666  25.149  1.00  0.00     0.001 A 
ATOM     79  C   UNL A   1      41.882  19.559  26.079  1.00  0.00     0.001 A 
ATOM     80  C   UNL A   1      42.988  18.918  25.533  1.00  0.00     0.000 A 
ENDBRANCH  56  75
BRANCH  68  81
ATOM     81  C   UNL A   1      41.851  27.737  26.708  1.00  0.00    -0.014 A 
ATOM     82  C   UNL A   1      41.306  26.963  27.750  1.00  0.00     0.009 A 
ATOM     83  C   UNL A   1      41.091  28.809  26.218  1.00  0.00     0.009 A 
ATOM     84  C   UNL A   1      40.029  27.229  28.257  1.00  0.00     0.001 A 
ATOM     85  C   UNL A   1      39.824  29.088  26.738  1.00  0.00     0.001 A 
ATOM     86  C   UNL A   1      39.289  28.295  27.751  1.00  0.00     0.000 A 
ENDBRANCH  68  81
ENDBRANCH  42  43
ENDBRANCH  34  37
ENDBRANCH  32  33
ENDBRANCH  31  32
ENDBRANCH  30  31
ENDBRANCH   1  30
TORSDOF 16
ENDMDL
