MODEL 1
REMARK VINA RESULT:     -11.9      0.000      0.000
REMARK SMILES O=C(NCCCCNC(=O)c1ccccc1Nc1nc(Cl)nc(Nc2ccc(N3CCOCC3=O)cc2)n1)c1ccc(-c2c3nc(c(-c4ccccc4)c4ccc([nH]4)c(-c4ccccc4)c4nc(c(-c5ccccc5)c5ccc2[nH]5)C=C4)C=C3)cc1
REMARK SMILES IDX 7 1 6 2 5 3 4 4 3 5 1 6 2 7 39 9 40 10 86 11 41 12 85 13
REMARK SMILES IDX 42 14 43 15 44 16 79 17 45 18 84 19 78 20 80 21 46 22 83 23
REMARK SMILES IDX 77 24 76 25 47 27 69 28 54 29 68 30 55 31 58 32 67 33 81 34
REMARK SMILES IDX 56 35 57 36 66 38 82 39 59 40 48 41 49 42 53 43 50 44 52 45
REMARK SMILES IDX 51 46 70 47 71 48 75 49 72 50 74 51 73 52 60 53 61 54 65 55
REMARK SMILES IDX 62 56 64 57 63 58 8 59 9 60 10 62 11 63 12 64 16 65 13 66
REMARK SMILES IDX 15 67 14 68 17 69 18 71 19 72 38 73 20 74 23 75 21 76 22 77
REMARK SMILES IDX 24 78 25 80 26 81 37 82 27 83 36 84 28 85 29 86 30 87 34 88
REMARK SMILES IDX 31 89 33 90 35 91 32 92
REMARK H PARENT 3 8 80 26 58 37 8 61 17 70 24 79
REMARK Flexibility Score: inf
ROOT
ATOM      1  C   UNL A   1      34.354  25.831  25.540  1.00  0.00     0.116 C 
ENDROOT
BRANCH   1   2
ATOM      2  C   UNL A   1      34.876  24.493  25.025  1.00  0.00     0.023 C 
BRANCH   2   3
ATOM      3  C   UNL A   1      36.137  23.969  25.709  1.00  0.00     0.023 C 
BRANCH   3   4
ATOM      4  C   UNL A   1      37.277  23.577  24.777  1.00  0.00     0.116 C 
BRANCH   4   5
ATOM      5  N   UNL A   1      38.217  22.643  25.376  1.00  0.00    -0.352 N 
ATOM      6  O   UNL A   1      40.000  21.956  26.579  1.00  0.00    -0.269 OA
ATOM      7  C   UNL A   1      39.228  22.864  26.285  1.00  0.00     0.251 C 
ATOM      8  H   UNL A   1      38.114  21.706  25.089  1.00  0.00     0.163 HD
BRANCH   7   9
ATOM      9  C   UNL A   1      39.415  24.207  26.876  1.00  0.00     0.039 A 
ATOM     10  C   UNL A   1      40.106  25.204  26.188  1.00  0.00     0.014 A 
ATOM     11  C   UNL A   1      38.905  24.466  28.152  1.00  0.00     0.014 A 
ATOM     12  C   UNL A   1      40.459  26.378  26.846  1.00  0.00     0.010 A 
ATOM     13  C   UNL A   1      39.177  25.687  28.776  1.00  0.00     0.010 A 
ATOM     14  C   UNL A   1      40.006  26.631  28.151  1.00  0.00    -0.014 A 
BRANCH  14  15
ATOM     15  C   UNL A   1      40.417  27.888  28.833  1.00  0.00     0.031 A 
ATOM     16  C   UNL A   1      39.450  29.030  29.009  1.00  0.00     0.074 A 
ATOM     17  C   UNL A   1      41.658  27.977  29.350  1.00  0.00     0.049 A 
ATOM     18  N   UNL A   1      39.623  30.166  29.640  1.00  0.00    -0.248 NA
ATOM     19  C   UNL A   1      38.121  28.887  28.393  1.00  0.00     0.031 C 
ATOM     20  C   UNL A   1      42.691  26.943  29.248  1.00  0.00     0.029 A 
ATOM     21  N   UNL A   1      42.249  28.966  30.093  1.00  0.00    -0.354 N 
ATOM     22  C   UNL A   1      38.443  30.880  29.473  1.00  0.00     0.074 A 
ATOM     23  C   UNL A   1      37.567  30.061  28.664  1.00  0.00     0.031 C 
ATOM     24  C   UNL A   1      43.764  27.324  29.958  1.00  0.00     0.029 A 
ATOM     25  C   UNL A   1      43.517  28.649  30.515  1.00  0.00     0.049 A 
ATOM     26  H   UNL A   1      41.808  29.822  30.302  1.00  0.00     0.167 HD
ATOM     27  C   UNL A   1      38.115  32.105  29.952  1.00  0.00     0.031 A 
ATOM     28  C   UNL A   1      44.390  29.345  31.267  1.00  0.00     0.031 A 
ATOM     29  C   UNL A   1      38.975  32.916  30.773  1.00  0.00     0.049 A 
ATOM     30  C   UNL A   1      44.002  30.700  31.780  1.00  0.00     0.074 A 
ATOM     31  C   UNL A   1      38.712  34.152  31.339  1.00  0.00     0.029 A 
ATOM     32  N   UNL A   1      40.264  32.573  31.147  1.00  0.00    -0.354 N 
ATOM     33  N   UNL A   1      42.868  31.343  31.640  1.00  0.00    -0.248 NA
ATOM     34  C   UNL A   1      45.016  31.422  32.559  1.00  0.00     0.031 C 
ATOM     35  C   UNL A   1      39.860  34.577  32.017  1.00  0.00     0.029 A 
ATOM     36  C   UNL A   1      40.817  33.583  31.917  1.00  0.00     0.049 A 
ATOM     37  H   UNL A   1      40.720  31.736  30.900  1.00  0.00     0.167 HD
ATOM     38  C   UNL A   1      43.024  32.535  32.333  1.00  0.00     0.074 A 
ATOM     39  C   UNL A   1      44.354  32.518  32.906  1.00  0.00     0.031 C 
ATOM     40  C   UNL A   1      42.142  33.553  32.480  1.00  0.00     0.031 A 
BRANCH  27  41
ATOM     41  C   UNL A   1      36.768  32.659  29.576  1.00  0.00    -0.014 A 
ATOM     42  C   UNL A   1      36.572  33.355  28.372  1.00  0.00     0.009 A 
ATOM     43  C   UNL A   1      35.669  32.444  30.422  1.00  0.00     0.009 A 
ATOM     44  C   UNL A   1      35.307  33.851  28.041  1.00  0.00     0.001 A 
ATOM     45  C   UNL A   1      34.403  32.919  30.076  1.00  0.00     0.001 A 
ATOM     46  C   UNL A   1      34.225  33.630  28.890  1.00  0.00     0.000 A 
ENDBRANCH  27  41
BRANCH  28  47
ATOM     47  C   UNL A   1      45.716  28.760  31.588  1.00  0.00    -0.014 A 
ATOM     48  C   UNL A   1      46.807  28.953  30.727  1.00  0.00     0.009 A 
ATOM     49  C   UNL A   1      45.900  28.011  32.761  1.00  0.00     0.009 A 
ATOM     50  C   UNL A   1      48.051  28.394  31.026  1.00  0.00     0.001 A 
ATOM     51  C   UNL A   1      47.151  27.478  33.072  1.00  0.00     0.001 A 
ATOM     52  C   UNL A   1      48.223  27.662  32.201  1.00  0.00     0.000 A 
ENDBRANCH  28  47
BRANCH  40  53
ATOM     53  C   UNL A   1      42.578  34.712  33.329  1.00  0.00    -0.014 A 
ATOM     54  C   UNL A   1      42.375  34.717  34.718  1.00  0.00     0.009 A 
ATOM     55  C   UNL A   1      43.214  35.810  32.730  1.00  0.00     0.009 A 
ATOM     56  C   UNL A   1      42.767  35.816  35.485  1.00  0.00     0.001 A 
ATOM     57  C   UNL A   1      43.630  36.895  33.503  1.00  0.00     0.001 A 
ATOM     58  C   UNL A   1      43.396  36.902  34.877  1.00  0.00     0.000 A 
ENDBRANCH  40  53
ENDBRANCH  14  15
ENDBRANCH   7   9
ENDBRANCH   4   5
ENDBRANCH   3   4
ENDBRANCH   2   3
ENDBRANCH   1   2
BRANCH   1  59
ATOM     59  N   UNL A   1      32.977  25.771  26.006  1.00  0.00    -0.352 N 
ATOM     60  C   UNL A   1      32.211  26.790  26.521  1.00  0.00     0.253 C 
ATOM     61  H   UNL A   1      32.539  24.890  25.945  1.00  0.00     0.163 HD
ATOM     62  O   UNL A   1      31.049  26.591  26.861  1.00  0.00    -0.269 OA
BRANCH  60  63
ATOM     63  C   UNL A   1      32.811  28.127  26.701  1.00  0.00     0.063 A 
ATOM     64  C   UNL A   1      34.026  28.186  27.398  1.00  0.00     0.016 A 
ATOM     65  C   UNL A   1      32.220  29.284  26.159  1.00  0.00     0.054 A 
ATOM     66  C   UNL A   1      34.702  29.397  27.510  1.00  0.00     0.001 A 
ATOM     67  C   UNL A   1      32.947  30.480  26.242  1.00  0.00     0.027 A 
ATOM     68  C   UNL A   1      34.172  30.539  26.916  1.00  0.00     0.002 A 
BRANCH  65  69
ATOM     69  N   UNL A   1      30.956  29.244  25.548  1.00  0.00    -0.323 N 
ATOM     70  H   UNL A   1      30.192  29.329  26.163  1.00  0.00     0.170 HD
BRANCH  69  71
ATOM     71  C   UNL A   1      30.620  29.103  24.208  1.00  0.00     0.233 A 
ATOM     72  N   UNL A   1      29.669  29.862  23.689  1.00  0.00    -0.182 NA
ATOM     73  N   UNL A   1      31.309  28.199  23.521  1.00  0.00    -0.176 NA
ATOM     74  C   UNL A   1      29.467  29.650  22.400  1.00  0.00     0.228 A 
ATOM     75  C   UNL A   1      30.959  28.020  22.250  1.00  0.00     0.233 A 
ATOM     76  Cl  UNL A   1      28.268  30.616  21.662  1.00  0.00    -0.041 Cl
ATOM     77  N   UNL A   1      30.055  28.758  21.627  1.00  0.00    -0.182 NA
BRANCH  75  78
ATOM     78  N   UNL A   1      31.512  26.904  21.627  1.00  0.00    -0.324 N 
ATOM     79  H   UNL A   1      31.731  27.009  20.672  1.00  0.00     0.170 HD
BRANCH  78  80
ATOM     80  C   UNL A   1      31.796  25.654  22.183  1.00  0.00     0.041 A 
ATOM     81  C   UNL A   1      30.897  25.078  23.085  1.00  0.00     0.028 A 
ATOM     82  C   UNL A   1      32.904  24.908  21.778  1.00  0.00     0.028 A 
ATOM     83  C   UNL A   1      31.089  23.773  23.556  1.00  0.00     0.028 A 
ATOM     84  C   UNL A   1      33.131  23.627  22.291  1.00  0.00     0.028 A 
ATOM     85  C   UNL A   1      32.214  23.038  23.169  1.00  0.00     0.044 A 
BRANCH  85  86
ATOM     86  N   UNL A   1      32.394  21.694  23.613  1.00  0.00    -0.308 N 
ATOM     87  C   UNL A   1      32.603  21.496  25.053  1.00  0.00     0.154 C 
ATOM     88  C   UNL A   1      32.061  20.612  22.790  1.00  0.00     0.253 C 
ATOM     89  C   UNL A   1      33.061  20.087  25.409  1.00  0.00     0.183 C 
ATOM     90  C   UNL A   1      32.183  19.222  23.439  1.00  0.00     0.260 C 
ATOM     91  O   UNL A   1      31.788  20.701  21.591  1.00  0.00    -0.272 OA
ATOM     92  O   UNL A   1      32.153  19.141  24.854  1.00  0.00    -0.370 OA
ENDBRANCH  85  86
ENDBRANCH  78  80
ENDBRANCH  75  78
ENDBRANCH  69  71
ENDBRANCH  65  69
ENDBRANCH  60  63
ENDBRANCH   1  59
TORSDOF 16
ENDMDL
MODEL 2
REMARK VINA RESULT:     -11.7      1.478      5.640
REMARK SMILES O=C(NCCCCNC(=O)c1ccccc1Nc1nc(Cl)nc(Nc2ccc(N3CCOCC3=O)cc2)n1)c1ccc(-c2c3nc(c(-c4ccccc4)c4ccc([nH]4)c(-c4ccccc4)c4nc(c(-c5ccccc5)c5ccc2[nH]5)C=C4)C=C3)cc1
REMARK SMILES IDX 7 1 6 2 5 3 4 4 3 5 1 6 2 7 39 9 40 10 86 11 41 12 85 13
REMARK SMILES IDX 42 14 43 15 44 16 79 17 45 18 84 19 78 20 80 21 46 22 83 23
REMARK SMILES IDX 77 24 76 25 47 27 69 28 54 29 68 30 55 31 58 32 67 33 81 34
REMARK SMILES IDX 56 35 57 36 66 38 82 39 59 40 48 41 49 42 53 43 50 44 52 45
REMARK SMILES IDX 51 46 70 47 71 48 75 49 72 50 74 51 73 52 60 53 61 54 65 55
REMARK SMILES IDX 62 56 64 57 63 58 8 59 9 60 10 62 11 63 12 64 16 65 13 66
REMARK SMILES IDX 15 67 14 68 17 69 18 71 19 72 38 73 20 74 23 75 21 76 22 77
REMARK SMILES IDX 24 78 25 80 26 81 37 82 27 83 36 84 28 85 29 86 30 87 34 88
REMARK SMILES IDX 31 89 33 90 35 91 32 92
REMARK H PARENT 3 8 80 26 58 37 8 61 17 70 24 79
REMARK Flexibility Score: inf
ROOT
ATOM      1  C   UNL A   1      34.373  25.827  25.416  1.00  0.00     0.116 C 
ENDROOT
BRANCH   1   2
ATOM      2  C   UNL A   1      34.946  24.451  25.093  1.00  0.00     0.023 C 
BRANCH   2   3
ATOM      3  C   UNL A   1      36.168  24.037  25.911  1.00  0.00     0.023 C 
BRANCH   3   4
ATOM      4  C   UNL A   1      37.416  23.700  25.104  1.00  0.00     0.116 C 
BRANCH   4   5
ATOM      5  N   UNL A   1      38.150  22.558  25.628  1.00  0.00    -0.352 N 
ATOM      6  O   UNL A   1      39.848  21.438  26.608  1.00  0.00    -0.269 OA
ATOM      7  C   UNL A   1      39.314  22.516  26.363  1.00  0.00     0.251 C 
ATOM      8  H   UNL A   1      37.753  21.679  25.428  1.00  0.00     0.163 HD
BRANCH   7   9
ATOM      9  C   UNL A   1      39.950  23.770  26.822  1.00  0.00     0.039 A 
ATOM     10  C   UNL A   1      40.487  23.875  28.105  1.00  0.00     0.014 A 
ATOM     11  C   UNL A   1      39.992  24.868  25.956  1.00  0.00     0.014 A 
ATOM     12  C   UNL A   1      40.877  25.120  28.588  1.00  0.00     0.010 A 
ATOM     13  C   UNL A   1      40.478  26.096  26.413  1.00  0.00     0.010 A 
ATOM     14  C   UNL A   1      40.870  26.248  27.752  1.00  0.00    -0.014 A 
BRANCH  14  15
ATOM     15  C   UNL A   1      41.277  27.567  28.306  1.00  0.00     0.031 A 
ATOM     16  C   UNL A   1      42.722  27.993  28.320  1.00  0.00     0.074 A 
ATOM     17  C   UNL A   1      40.327  28.413  28.748  1.00  0.00     0.049 A 
ATOM     18  N   UNL A   1      43.240  29.135  28.701  1.00  0.00    -0.248 NA
ATOM     19  C   UNL A   1      43.717  27.013  27.856  1.00  0.00     0.031 C 
ATOM     20  C   UNL A   1      38.891  28.122  28.790  1.00  0.00     0.029 A 
ATOM     21  N   UNL A   1      40.419  29.700  29.213  1.00  0.00    -0.354 N 
ATOM     22  C   UNL A   1      44.615  29.001  28.550  1.00  0.00     0.074 A 
ATOM     23  C   UNL A   1      44.856  27.660  28.064  1.00  0.00     0.031 C 
ATOM     24  C   UNL A   1      38.233  29.220  29.192  1.00  0.00     0.029 A 
ATOM     25  C   UNL A   1      39.201  30.270  29.491  1.00  0.00     0.049 A 
ATOM     26  H   UNL A   1      41.276  30.169  29.336  1.00  0.00     0.167 HD
ATOM     27  C   UNL A   1      45.591  29.911  28.791  1.00  0.00     0.031 A 
ATOM     28  C   UNL A   1      38.892  31.501  29.938  1.00  0.00     0.031 A 
ATOM     29  C   UNL A   1      45.357  31.253  29.257  1.00  0.00     0.049 A 
ATOM     30  C   UNL A   1      39.991  32.486  30.201  1.00  0.00     0.074 A 
ATOM     31  C   UNL A   1      46.279  32.258  29.490  1.00  0.00     0.029 A 
ATOM     32  N   UNL A   1      44.110  31.777  29.561  1.00  0.00    -0.354 N 
ATOM     33  N   UNL A   1      41.282  32.351  30.020  1.00  0.00    -0.248 NA
ATOM     34  C   UNL A   1      39.587  33.797  30.727  1.00  0.00     0.031 C 
ATOM     35  C   UNL A   1      45.596  33.377  29.979  1.00  0.00     0.029 A 
ATOM     36  C   UNL A   1      44.242  33.085  30.000  1.00  0.00     0.049 A 
ATOM     37  H   UNL A   1      43.258  31.292  29.478  1.00  0.00     0.167 HD
ATOM     38  C   UNL A   1      41.843  33.566  30.386  1.00  0.00     0.074 A 
ATOM     39  C   UNL A   1      40.751  34.431  30.784  1.00  0.00     0.031 C 
ATOM     40  C   UNL A   1      43.147  33.933  30.393  1.00  0.00     0.031 A 
BRANCH  27  41
ATOM     41  C   UNL A   1      47.015  29.475  28.579  1.00  0.00    -0.014 A 
ATOM     42  C   UNL A   1      47.766  28.895  29.613  1.00  0.00     0.009 A 
ATOM     43  C   UNL A   1      47.598  29.609  27.309  1.00  0.00     0.009 A 
ATOM     44  C   UNL A   1      49.084  28.489  29.387  1.00  0.00     0.001 A 
ATOM     45  C   UNL A   1      48.906  29.180  27.080  1.00  0.00     0.001 A 
ATOM     46  C   UNL A   1      49.652  28.628  28.121  1.00  0.00     0.000 A 
ENDBRANCH  27  41
BRANCH  28  47
ATOM     47  C   UNL A   1      37.470  31.870  30.154  1.00  0.00    -0.014 A 
ATOM     48  C   UNL A   1      36.837  31.586  31.374  1.00  0.00     0.009 A 
ATOM     49  C   UNL A   1      36.740  32.516  29.144  1.00  0.00     0.009 A 
ATOM     50  C   UNL A   1      35.498  31.925  31.571  1.00  0.00     0.001 A 
ATOM     51  C   UNL A   1      35.410  32.880  29.354  1.00  0.00     0.001 A 
ATOM     52  C   UNL A   1      34.787  32.578  30.564  1.00  0.00     0.000 A 
ENDBRANCH  28  47
BRANCH  40  53
ATOM     53  C   UNL A   1      43.456  35.343  30.805  1.00  0.00    -0.014 A 
ATOM     54  C   UNL A   1      43.544  36.377  29.860  1.00  0.00     0.009 A 
ATOM     55  C   UNL A   1      43.646  35.643  32.163  1.00  0.00     0.009 A 
ATOM     56  C   UNL A   1      43.855  37.677  30.265  1.00  0.00     0.001 A 
ATOM     57  C   UNL A   1      43.929  36.948  32.567  1.00  0.00     0.001 A 
ATOM     58  C   UNL A   1      44.044  37.961  31.617  1.00  0.00     0.000 A 
ENDBRANCH  40  53
ENDBRANCH  14  15
ENDBRANCH   7   9
ENDBRANCH   4   5
ENDBRANCH   3   4
ENDBRANCH   2   3
ENDBRANCH   1   2
BRANCH   1  59
ATOM     59  N   UNL A   1      33.025  25.775  25.964  1.00  0.00    -0.352 N 
ATOM     60  C   UNL A   1      32.308  26.791  26.550  1.00  0.00     0.253 C 
ATOM     61  H   UNL A   1      32.570  24.903  25.908  1.00  0.00     0.163 HD
ATOM     62  O   UNL A   1      31.166  26.601  26.955  1.00  0.00    -0.269 OA
BRANCH  60  63
ATOM     63  C   UNL A   1      32.939  28.114  26.727  1.00  0.00     0.063 A 
ATOM     64  C   UNL A   1      34.168  28.143  27.402  1.00  0.00     0.016 A 
ATOM     65  C   UNL A   1      32.363  29.286  26.203  1.00  0.00     0.054 A 
ATOM     66  C   UNL A   1      34.871  29.339  27.510  1.00  0.00     0.001 A 
ATOM     67  C   UNL A   1      33.117  30.467  26.280  1.00  0.00     0.027 A 
ATOM     68  C   UNL A   1      34.355  30.496  26.931  1.00  0.00     0.002 A 
BRANCH  65  69
ATOM     69  N   UNL A   1      31.089  29.277  25.614  1.00  0.00    -0.323 N 
ATOM     70  H   UNL A   1      30.337  29.350  26.246  1.00  0.00     0.170 HD
BRANCH  69  71
ATOM     71  C   UNL A   1      30.727  29.182  24.277  1.00  0.00     0.233 A 
ATOM     72  N   UNL A   1      29.853  30.038  23.772  1.00  0.00    -0.182 NA
ATOM     73  N   UNL A   1      31.313  28.217  23.576  1.00  0.00    -0.176 NA
ATOM     74  C   UNL A   1      29.618  29.858  22.485  1.00  0.00     0.228 A 
ATOM     75  C   UNL A   1      30.934  28.085  22.309  1.00  0.00     0.233 A 
ATOM     76  Cl  UNL A   1      28.518  30.947  21.765  1.00  0.00    -0.041 Cl
ATOM     77  N   UNL A   1      30.105  28.915  21.700  1.00  0.00    -0.182 NA
BRANCH  75  78
ATOM     78  N   UNL A   1      31.364  26.922  21.672  1.00  0.00    -0.324 N 
ATOM     79  H   UNL A   1      31.462  26.979  20.694  1.00  0.00     0.170 HD
BRANCH  78  80
ATOM     80  C   UNL A   1      31.673  25.686  22.244  1.00  0.00     0.041 A 
ATOM     81  C   UNL A   1      30.744  25.059  23.081  1.00  0.00     0.028 A 
ATOM     82  C   UNL A   1      32.844  25.000  21.917  1.00  0.00     0.028 A 
ATOM     83  C   UNL A   1      30.971  23.763  23.561  1.00  0.00     0.028 A 
ATOM     84  C   UNL A   1      33.100  23.730  22.443  1.00  0.00     0.028 A 
ATOM     85  C   UNL A   1      32.157  23.089  23.253  1.00  0.00     0.044 A 
BRANCH  85  86
ATOM     86  N   UNL A   1      32.375  21.754  23.706  1.00  0.00    -0.308 N 
ATOM     87  C   UNL A   1      32.520  21.563  25.155  1.00  0.00     0.154 C 
ATOM     88  C   UNL A   1      32.134  20.660  22.868  1.00  0.00     0.253 C 
ATOM     89  C   UNL A   1      33.023  20.176  25.535  1.00  0.00     0.183 C 
ATOM     90  C   UNL A   1      32.286  19.276  23.522  1.00  0.00     0.260 C 
ATOM     91  O   UNL A   1      31.918  20.738  21.656  1.00  0.00    -0.272 OA
ATOM     92  O   UNL A   1      32.189  19.191  24.934  1.00  0.00    -0.370 OA
ENDBRANCH  85  86
ENDBRANCH  78  80
ENDBRANCH  75  78
ENDBRANCH  69  71
ENDBRANCH  65  69
ENDBRANCH  60  63
ENDBRANCH   1  59
TORSDOF 16
ENDMDL
MODEL 3
REMARK VINA RESULT:     -11.6      2.232      7.024
REMARK SMILES O=C(NCCCCNC(=O)c1ccccc1Nc1nc(Cl)nc(Nc2ccc(N3CCOCC3=O)cc2)n1)c1ccc(-c2c3nc(c(-c4ccccc4)c4ccc([nH]4)c(-c4ccccc4)c4nc(c(-c5ccccc5)c5ccc2[nH]5)C=C4)C=C3)cc1
REMARK SMILES IDX 7 1 6 2 5 3 4 4 3 5 1 6 2 7 39 9 40 10 86 11 41 12 85 13
REMARK SMILES IDX 42 14 43 15 44 16 79 17 45 18 84 19 78 20 80 21 46 22 83 23
REMARK SMILES IDX 77 24 76 25 47 27 69 28 54 29 68 30 55 31 58 32 67 33 81 34
REMARK SMILES IDX 56 35 57 36 66 38 82 39 59 40 48 41 49 42 53 43 50 44 52 45
REMARK SMILES IDX 51 46 70 47 71 48 75 49 72 50 74 51 73 52 60 53 61 54 65 55
REMARK SMILES IDX 62 56 64 57 63 58 8 59 9 60 10 62 11 63 12 64 16 65 13 66
REMARK SMILES IDX 15 67 14 68 17 69 18 71 19 72 38 73 20 74 23 75 21 76 22 77
REMARK SMILES IDX 24 78 25 80 26 81 37 82 27 83 36 84 28 85 29 86 30 87 34 88
REMARK SMILES IDX 31 89 33 90 35 91 32 92
REMARK H PARENT 3 8 80 26 58 37 8 61 17 70 24 79
REMARK Flexibility Score: inf
ROOT
ATOM      1  C   UNL A   1      31.634  29.043  26.209  1.00  0.00     0.116 C 
ENDROOT
BRANCH   1   2
ATOM      2  C   UNL A   1      32.090  30.138  27.168  1.00  0.00     0.023 C 
BRANCH   2   3
ATOM      3  C   UNL A   1      31.422  31.498  26.983  1.00  0.00     0.023 C 
BRANCH   3   4
ATOM      4  C   UNL A   1      32.333  32.618  26.495  1.00  0.00     0.116 C 
BRANCH   4   5
ATOM      5  N   UNL A   1      32.236  33.830  27.294  1.00  0.00    -0.352 N 
ATOM      6  O   UNL A   1      32.710  35.276  28.962  1.00  0.00    -0.269 OA
ATOM      7  C   UNL A   1      33.031  34.276  28.326  1.00  0.00     0.251 C 
ATOM      8  H   UNL A   1      31.486  34.424  27.060  1.00  0.00     0.163 HD
BRANCH   7   9
ATOM      9  C   UNL A   1      34.252  33.529  28.701  1.00  0.00     0.039 A 
ATOM     10  C   UNL A   1      34.220  32.561  29.704  1.00  0.00     0.014 A 
ATOM     11  C   UNL A   1      35.454  33.817  28.047  1.00  0.00     0.014 A 
ATOM     12  C   UNL A   1      35.412  32.032  30.189  1.00  0.00     0.010 A 
ATOM     13  C   UNL A   1      36.639  33.209  28.471  1.00  0.00     0.010 A 
ATOM     14  C   UNL A   1      36.638  32.356  29.585  1.00  0.00    -0.014 A 
BRANCH  14  15
ATOM     15  C   UNL A   1      37.895  31.787  30.140  1.00  0.00     0.031 A 
ATOM     16  C   UNL A   1      38.486  30.516  29.585  1.00  0.00     0.074 A 
ATOM     17  C   UNL A   1      38.542  32.454  31.115  1.00  0.00     0.049 A 
ATOM     18  N   UNL A   1      39.610  29.923  29.905  1.00  0.00    -0.248 NA
ATOM     19  C   UNL A   1      37.717  29.814  28.546  1.00  0.00     0.031 C 
ATOM     20  C   UNL A   1      38.077  33.695  31.740  1.00  0.00     0.029 A 
ATOM     21  N   UNL A   1      39.744  32.204  31.726  1.00  0.00    -0.354 N 
ATOM     22  C   UNL A   1      39.668  28.770  29.131  1.00  0.00     0.074 A 
ATOM     23  C   UNL A   1      38.457  28.734  28.341  1.00  0.00     0.031 C 
ATOM     24  C   UNL A   1      39.011  34.132  32.597  1.00  0.00     0.029 A 
ATOM     25  C   UNL A   1      40.112  33.175  32.626  1.00  0.00     0.049 A 
ATOM     26  H   UNL A   1      40.288  31.405  31.540  1.00  0.00     0.167 HD
ATOM     27  C   UNL A   1      40.642  27.829  29.079  1.00  0.00     0.031 A 
ATOM     28  C   UNL A   1      41.213  33.287  33.391  1.00  0.00     0.031 A 
ATOM     29  C   UNL A   1      41.857  27.869  29.848  1.00  0.00     0.049 A 
ATOM     30  C   UNL A   1      42.272  32.227  33.317  1.00  0.00     0.074 A 
ATOM     31  C   UNL A   1      42.919  26.981  29.831  1.00  0.00     0.029 A 
ATOM     32  N   UNL A   1      42.173  28.851  30.774  1.00  0.00    -0.354 N 
ATOM     33  N   UNL A   1      42.324  31.163  32.553  1.00  0.00    -0.248 NA
ATOM     34  C   UNL A   1      43.427  32.390  34.210  1.00  0.00     0.031 C 
ATOM     35  C   UNL A   1      43.858  27.401  30.780  1.00  0.00     0.029 A 
ATOM     36  C   UNL A   1      43.404  28.579  31.349  1.00  0.00     0.049 A 
ATOM     37  H   UNL A   1      41.607  29.626  30.991  1.00  0.00     0.167 HD
ATOM     38  C   UNL A   1      43.527  30.542  32.856  1.00  0.00     0.074 A 
ATOM     39  C   UNL A   1      44.181  31.356  33.859  1.00  0.00     0.031 C 
ATOM     40  C   UNL A   1      44.043  29.398  32.347  1.00  0.00     0.031 A 
BRANCH  27  41
ATOM     41  C   UNL A   1      40.419  26.650  28.170  1.00  0.00    -0.014 A 
ATOM     42  C   UNL A   1      39.665  25.540  28.581  1.00  0.00     0.009 A 
ATOM     43  C   UNL A   1      40.939  26.672  26.867  1.00  0.00     0.009 A 
ATOM     44  C   UNL A   1      39.464  24.462  27.714  1.00  0.00     0.001 A 
ATOM     45  C   UNL A   1      40.716  25.605  25.995  1.00  0.00     0.001 A 
ATOM     46  C   UNL A   1      39.986  24.497  26.422  1.00  0.00     0.000 A 
ENDBRANCH  27  41
BRANCH  28  47
ATOM     47  C   UNL A   1      41.370  34.460  34.289  1.00  0.00    -0.014 A 
ATOM     48  C   UNL A   1      40.862  34.428  35.597  1.00  0.00     0.009 A 
ATOM     49  C   UNL A   1      42.034  35.613  33.845  1.00  0.00     0.009 A 
ATOM     50  C   UNL A   1      41.002  35.535  36.436  1.00  0.00     0.001 A 
ATOM     51  C   UNL A   1      42.198  36.707  34.694  1.00  0.00     0.001 A 
ATOM     52  C   UNL A   1      41.675  36.671  35.986  1.00  0.00     0.000 A 
ENDBRANCH  28  47
BRANCH  40  53
ATOM     53  C   UNL A   1      45.400  28.984  32.840  1.00  0.00    -0.014 A 
ATOM     54  C   UNL A   1      46.572  29.427  32.207  1.00  0.00     0.009 A 
ATOM     55  C   UNL A   1      45.505  28.152  33.964  1.00  0.00     0.009 A 
ATOM     56  C   UNL A   1      47.822  29.012  32.669  1.00  0.00     0.001 A 
ATOM     57  C   UNL A   1      46.758  27.760  34.440  1.00  0.00     0.001 A 
ATOM     58  C   UNL A   1      47.914  28.182  33.786  1.00  0.00     0.000 A 
ENDBRANCH  40  53
ENDBRANCH  14  15
ENDBRANCH   7   9
ENDBRANCH   4   5
ENDBRANCH   3   4
ENDBRANCH   2   3
ENDBRANCH   1   2
BRANCH   1  59
ATOM     59  N   UNL A   1      32.342  29.061  24.936  1.00  0.00    -0.352 N 
ATOM     60  C   UNL A   1      31.824  29.276  23.681  1.00  0.00     0.253 C 
ATOM     61  H   UNL A   1      33.312  28.898  24.981  1.00  0.00     0.163 HD
ATOM     62  O   UNL A   1      32.552  29.277  22.694  1.00  0.00    -0.269 OA
BRANCH  60  63
ATOM     63  C   UNL A   1      30.369  29.469  23.521  1.00  0.00     0.063 A 
ATOM     64  C   UNL A   1      29.861  30.735  23.844  1.00  0.00     0.016 A 
ATOM     65  C   UNL A   1      29.537  28.450  23.022  1.00  0.00     0.054 A 
ATOM     66  C   UNL A   1      28.519  31.022  23.614  1.00  0.00     0.001 A 
ATOM     67  C   UNL A   1      28.201  28.782  22.752  1.00  0.00     0.027 A 
ATOM     68  C   UNL A   1      27.694  30.051  23.050  1.00  0.00     0.002 A 
BRANCH  65  69
ATOM     69  N   UNL A   1      30.023  27.153  22.791  1.00  0.00    -0.323 N 
ATOM     70  H   UNL A   1      30.252  26.954  21.854  1.00  0.00     0.170 HD
BRANCH  69  71
ATOM     71  C   UNL A   1      30.230  26.110  23.683  1.00  0.00     0.233 A 
ATOM     72  N   UNL A   1      29.594  26.105  24.843  1.00  0.00    -0.182 NA
ATOM     73  N   UNL A   1      31.066  25.156  23.288  1.00  0.00    -0.176 NA
ATOM     74  C   UNL A   1      29.856  25.043  25.586  1.00  0.00     0.228 A 
ATOM     75  C   UNL A   1      31.311  24.179  24.157  1.00  0.00     0.233 A 
ATOM     76  Cl  UNL A   1      29.046  24.962  27.088  1.00  0.00    -0.041 Cl
ATOM     77  N   UNL A   1      30.693  24.059  25.320  1.00  0.00    -0.182 NA
BRANCH  75  78
ATOM     78  N   UNL A   1      32.372  23.337  23.831  1.00  0.00    -0.324 N 
ATOM     79  H   UNL A   1      33.089  23.739  23.287  1.00  0.00     0.170 HD
BRANCH  78  80
ATOM     80  C   UNL A   1      32.550  21.996  24.176  1.00  0.00     0.041 A 
ATOM     81  C   UNL A   1      32.251  20.996  23.245  1.00  0.00     0.028 A 
ATOM     82  C   UNL A   1      33.127  21.623  25.391  1.00  0.00     0.028 A 
ATOM     83  C   UNL A   1      32.543  19.653  23.515  1.00  0.00     0.028 A 
ATOM     84  C   UNL A   1      33.366  20.277  25.687  1.00  0.00     0.028 A 
ATOM     85  C   UNL A   1      33.096  19.280  24.744  1.00  0.00     0.044 A 
BRANCH  85  86
ATOM     86  N   UNL A   1      33.434  17.919  25.008  1.00  0.00    -0.308 N 
ATOM     87  C   UNL A   1      32.317  16.994  25.241  1.00  0.00     0.154 C 
ATOM     88  C   UNL A   1      34.715  17.428  24.733  1.00  0.00     0.253 C 
ATOM     89  C   UNL A   1      32.756  15.642  25.786  1.00  0.00     0.183 C 
ATOM     90  C   UNL A   1      34.905  15.915  24.944  1.00  0.00     0.260 C 
ATOM     91  O   UNL A   1      35.688  18.128  24.445  1.00  0.00    -0.272 OA
ATOM     92  O   UNL A   1      33.753  15.090  24.932  1.00  0.00    -0.370 OA
ENDBRANCH  85  86
ENDBRANCH  78  80
ENDBRANCH  75  78
ENDBRANCH  69  71
ENDBRANCH  65  69
ENDBRANCH  60  63
ENDBRANCH   1  59
TORSDOF 16
ENDMDL
