MODEL 1
REMARK VINA RESULT:     -11.6      0.000      0.000
REMARK SMILES C[C@]1(C(=O)N2CCC(CC(=O)NCCCCNC(=O)c3ccc(-c4c5nc(c(-c6ccccc6)c6ccc([nH]6)c(-c6ccccc6)c6nc(c(-c7ccccc7)c7ccc4[nH]7)C=C6)C=C5)cc3)CC2)CCC[NH2+]C1
REMARK SMILES IDX 14 1 13 2 12 3 10 4 11 5 9 7 8 8 3 9 4 10 5 11 6 12 69 13
REMARK SMILES IDX 7 14 68 15 2 16 1 17 70 18 74 19 71 20 73 21 72 22 15 25
REMARK SMILES IDX 16 26 17 27 18 28 19 30 20 31 21 32 67 33 22 34 66 35 23 36
REMARK SMILES IDX 24 37 25 38 60 39 26 40 65 41 59 42 61 43 27 44 64 45 58 46
REMARK SMILES IDX 57 47 28 49 50 50 35 51 49 52 36 53 39 54 48 55 62 56 37 57
REMARK SMILES IDX 38 58 47 60 63 61 40 62 29 63 30 64 34 65 31 66 33 67 32 68
REMARK SMILES IDX 51 69 52 70 56 71 53 72 55 73 54 74 41 75 42 76 46 77 43 78
REMARK SMILES IDX 45 79 44 80
REMARK H PARENT 12 6 73 23 73 24 17 29 61 48 39 59
REMARK Flexibility Score: inf
ROOT
ATOM      1  C   UNL A   1      36.915  21.088  24.657  1.00  0.00     0.023 C 
ENDROOT
BRANCH   1   2
ATOM      2  C   UNL A   1      35.897  21.448  25.743  1.00  0.00     0.116 C 
BRANCH   2   3
ATOM      3  N   UNL A   1      34.762  20.546  25.701  1.00  0.00    -0.356 N 
ATOM      4  C   UNL A   1      33.558  20.675  25.075  1.00  0.00     0.220 C 
ATOM      5  O   UNL A   1      32.695  19.824  25.297  1.00  0.00    -0.275 OA
ATOM      6  H   UNL A   1      34.880  19.707  26.204  1.00  0.00     0.163 HD
BRANCH   4   7
ATOM      7  C   UNL A   1      33.296  21.821  24.112  1.00  0.00     0.103 C 
BRANCH   7   8
ATOM      8  C   UNL A   1      31.982  22.595  24.361  1.00  0.00     0.002 C 
ATOM      9  C   UNL A   1      30.734  26.654  24.757  1.00  0.00     0.234 C 
ATOM     10  O   UNL A   1      29.706  27.111  24.248  1.00  0.00    -0.274 OA
ATOM     11  N   UNL A   1      30.994  25.301  24.689  1.00  0.00    -0.342 N 
ATOM     12  C   UNL A   1      30.640  24.583  23.476  1.00  0.00     0.120 C 
ATOM     13  C   UNL A   1      31.008  24.469  25.867  1.00  0.00     0.120 C 
ATOM     14  C   UNL A   1      31.713  23.541  23.174  1.00  0.00     0.026 C 
ATOM     15  C   UNL A   1      32.019  23.349  25.701  1.00  0.00     0.026 C 
BRANCH   9  16
ATOM     16  C   UNL A   1      31.791  27.598  25.398  1.00  0.00     0.095 C 
ATOM     17  C   UNL A   1      31.518  27.610  26.915  1.00  0.00     0.028 C 
ATOM     18  C   UNL A   1      33.295  27.305  25.181  1.00  0.00     0.028 C 
ATOM     19  C   UNL A   1      31.499  29.013  24.821  1.00  0.00     0.277 C 
ATOM     20  C   UNL A   1      33.765  27.564  23.752  1.00  0.00     0.063 C 
ATOM     21  N   UNL A   1      31.930  29.166  23.424  1.00  0.00    -0.345 N 
ATOM     22  C   UNL A   1      33.365  28.955  23.275  1.00  0.00     0.260 C 
ATOM     23  H   UNL A   1      31.434  28.485  22.849  1.00  0.00     0.346 HD
ATOM     24  H   UNL A   1      31.717  30.120  23.129  1.00  0.00     0.346 HD
ENDBRANCH   9  16
ENDBRANCH   7   8
ENDBRANCH   4   7
ENDBRANCH   2   3
ENDBRANCH   1   2
BRANCH   1  25
ATOM     25  C   UNL A   1      37.824  19.915  24.981  1.00  0.00     0.023 C 
BRANCH  25  26
ATOM     26  C   UNL A   1      38.984  20.263  25.887  1.00  0.00     0.116 C 
BRANCH  26  27
ATOM     27  N   UNL A   1      40.104  19.340  25.772  1.00  0.00    -0.352 N 
ATOM     28  C   UNL A   1      41.437  19.572  26.024  1.00  0.00     0.251 C 
ATOM     29  H   UNL A   1      39.877  18.430  25.474  1.00  0.00     0.163 HD
ATOM     30  O   UNL A   1      42.276  18.727  25.764  1.00  0.00    -0.269 OA
BRANCH  28  31
ATOM     31  C   UNL A   1      41.832  20.881  26.584  1.00  0.00     0.039 A 
ATOM     32  C   UNL A   1      42.217  21.903  25.715  1.00  0.00     0.014 A 
ATOM     33  C   UNL A   1      41.763  21.109  27.960  1.00  0.00     0.014 A 
ATOM     34  C   UNL A   1      42.480  23.172  26.230  1.00  0.00     0.010 A 
ATOM     35  C   UNL A   1      41.897  22.397  28.451  1.00  0.00     0.010 A 
ATOM     36  C   UNL A   1      42.293  23.434  27.598  1.00  0.00    -0.014 A 
BRANCH  36  37
ATOM     37  C   UNL A   1      42.568  24.774  28.168  1.00  0.00     0.031 A 
ATOM     38  C   UNL A   1      43.971  25.131  28.580  1.00  0.00     0.074 A 
ATOM     39  C   UNL A   1      41.559  25.645  28.353  1.00  0.00     0.049 A 
ATOM     40  N   UNL A   1      44.421  26.243  29.102  1.00  0.00    -0.248 NA
ATOM     41  C   UNL A   1      45.001  24.089  28.419  1.00  0.00     0.031 C 
ATOM     42  C   UNL A   1      40.148  25.391  28.054  1.00  0.00     0.029 A 
ATOM     43  N   UNL A   1      41.571  26.929  28.832  1.00  0.00    -0.354 N 
ATOM     44  C   UNL A   1      45.771  26.024  29.347  1.00  0.00     0.074 A 
ATOM     45  C   UNL A   1      46.052  24.653  28.992  1.00  0.00     0.031 C 
ATOM     46  C   UNL A   1      39.438  26.502  28.309  1.00  0.00     0.029 A 
ATOM     47  C   UNL A   1      40.336  27.533  28.819  1.00  0.00     0.049 A 
ATOM     48  H   UNL A   1      42.386  27.378  29.154  1.00  0.00     0.167 HD
ATOM     49  C   UNL A   1      46.706  26.894  29.795  1.00  0.00     0.031 A 
ATOM     50  C   UNL A   1      39.977  28.781  29.166  1.00  0.00     0.031 A 
ATOM     51  C   UNL A   1      46.428  28.265  30.123  1.00  0.00     0.049 A 
ATOM     52  C   UNL A   1      41.035  29.738  29.638  1.00  0.00     0.074 A 
ATOM     53  C   UNL A   1      47.310  29.252  30.526  1.00  0.00     0.029 A 
ATOM     54  N   UNL A   1      45.169  28.842  30.078  1.00  0.00    -0.354 N 
ATOM     55  N   UNL A   1      42.323  29.539  29.789  1.00  0.00    -0.248 NA
ATOM     56  C   UNL A   1      40.592  31.099  29.967  1.00  0.00     0.031 C 
ATOM     57  C   UNL A   1      46.575  30.416  30.771  1.00  0.00     0.029 A 
ATOM     58  C   UNL A   1      45.245  30.168  30.464  1.00  0.00     0.049 A 
ATOM     59  H   UNL A   1      44.343  28.377  29.811  1.00  0.00     0.167 HD
ATOM     60  C   UNL A   1      42.848  30.757  30.203  1.00  0.00     0.074 A 
ATOM     61  C   UNL A   1      41.742  31.692  30.255  1.00  0.00     0.031 C 
ATOM     62  C   UNL A   1      44.129  31.077  30.514  1.00  0.00     0.031 A 
BRANCH  49  63
ATOM     63  C   UNL A   1      48.110  26.377  29.946  1.00  0.00    -0.014 A 
ATOM     64  C   UNL A   1      49.029  26.440  28.885  1.00  0.00     0.009 A 
ATOM     65  C   UNL A   1      48.524  25.826  31.168  1.00  0.00     0.009 A 
ATOM     66  C   UNL A   1      50.317  25.921  29.030  1.00  0.00     0.001 A 
ATOM     67  C   UNL A   1      49.823  25.337  31.321  1.00  0.00     0.001 A 
ATOM     68  C   UNL A   1      50.714  25.375  30.248  1.00  0.00     0.000 A 
ENDBRANCH  49  63
BRANCH  50  69
ATOM     69  C   UNL A   1      38.560  29.215  29.040  1.00  0.00    -0.014 A 
ATOM     70  C   UNL A   1      38.067  29.688  27.814  1.00  0.00     0.009 A 
ATOM     71  C   UNL A   1      37.696  29.169  30.144  1.00  0.00     0.009 A 
ATOM     72  C   UNL A   1      36.749  30.136  27.704  1.00  0.00     0.001 A 
ATOM     73  C   UNL A   1      36.369  29.589  30.025  1.00  0.00     0.001 A 
ATOM     74  C   UNL A   1      35.900  30.083  28.809  1.00  0.00     0.000 A 
ENDBRANCH  50  69
BRANCH  62  75
ATOM     75  C   UNL A   1      44.397  32.502  30.905  1.00  0.00    -0.014 A 
ATOM     76  C   UNL A   1      44.347  32.914  32.246  1.00  0.00     0.009 A 
ATOM     77  C   UNL A   1      44.723  33.442  29.915  1.00  0.00     0.009 A 
ATOM     78  C   UNL A   1      44.569  34.250  32.581  1.00  0.00     0.001 A 
ATOM     79  C   UNL A   1      44.978  34.770  30.257  1.00  0.00     0.001 A 
ATOM     80  C   UNL A   1      44.887  35.176  31.588  1.00  0.00     0.000 A 
ENDBRANCH  62  75
ENDBRANCH  36  37
ENDBRANCH  28  31
ENDBRANCH  26  27
ENDBRANCH  25  26
ENDBRANCH   1  25
TORSDOF 13
ENDMDL
MODEL 2
REMARK VINA RESULT:     -11.4      2.983      8.903
REMARK SMILES C[C@]1(C(=O)N2CCC(CC(=O)NCCCCNC(=O)c3ccc(-c4c5nc(c(-c6ccccc6)c6ccc([nH]6)c(-c6ccccc6)c6nc(c(-c7ccccc7)c7ccc4[nH]7)C=C6)C=C5)cc3)CC2)CCC[NH2+]C1
REMARK SMILES IDX 14 1 13 2 12 3 10 4 11 5 9 7 8 8 3 9 4 10 5 11 6 12 69 13
REMARK SMILES IDX 7 14 68 15 2 16 1 17 70 18 74 19 71 20 73 21 72 22 15 25
REMARK SMILES IDX 16 26 17 27 18 28 19 30 20 31 21 32 67 33 22 34 66 35 23 36
REMARK SMILES IDX 24 37 25 38 60 39 26 40 65 41 59 42 61 43 27 44 64 45 58 46
REMARK SMILES IDX 57 47 28 49 50 50 35 51 49 52 36 53 39 54 48 55 62 56 37 57
REMARK SMILES IDX 38 58 47 60 63 61 40 62 29 63 30 64 34 65 31 66 33 67 32 68
REMARK SMILES IDX 51 69 52 70 56 71 53 72 55 73 54 74 41 75 42 76 46 77 43 78
REMARK SMILES IDX 45 79 44 80
REMARK H PARENT 12 6 73 23 73 24 17 29 61 48 39 59
REMARK Flexibility Score: inf
ROOT
ATOM      1  C   UNL A   1      31.829  30.088  26.832  1.00  0.00     0.023 C 
ENDROOT
BRANCH   1   2
ATOM      2  C   UNL A   1      32.585  29.503  25.636  1.00  0.00     0.116 C 
BRANCH   2   3
ATOM      3  N   UNL A   1      31.795  29.614  24.425  1.00  0.00    -0.356 N 
ATOM      4  C   UNL A   1      31.022  28.687  23.790  1.00  0.00     0.220 C 
ATOM      5  O   UNL A   1      30.546  28.982  22.693  1.00  0.00    -0.275 OA
ATOM      6  H   UNL A   1      31.820  30.498  23.993  1.00  0.00     0.163 HD
BRANCH   4   7
ATOM      7  C   UNL A   1      30.734  27.339  24.430  1.00  0.00     0.103 C 
BRANCH   7   8
ATOM      8  C   UNL A   1      30.988  26.117  23.519  1.00  0.00     0.002 C 
ATOM      9  C   UNL A   1      33.278  22.521  23.623  1.00  0.00     0.234 C 
ATOM     10  O   UNL A   1      32.855  21.424  23.244  1.00  0.00    -0.274 OA
ATOM     11  N   UNL A   1      32.518  23.655  23.431  1.00  0.00    -0.342 N 
ATOM     12  C   UNL A   1      31.076  23.562  23.586  1.00  0.00     0.120 C 
ATOM     13  C   UNL A   1      32.935  24.710  22.540  1.00  0.00     0.120 C 
ATOM     14  C   UNL A   1      30.556  24.832  24.253  1.00  0.00     0.026 C 
ATOM     15  C   UNL A   1      32.454  26.051  23.061  1.00  0.00     0.026 C 
BRANCH   9  16
ATOM     16  C   UNL A   1      34.622  22.630  24.398  1.00  0.00     0.095 C 
ATOM     17  C   UNL A   1      35.695  23.051  23.374  1.00  0.00     0.028 C 
ATOM     18  C   UNL A   1      34.717  23.581  25.614  1.00  0.00     0.028 C 
ATOM     19  C   UNL A   1      34.939  21.191  24.898  1.00  0.00     0.277 C 
ATOM     20  C   UNL A   1      33.927  23.097  26.828  1.00  0.00     0.063 C 
ATOM     21  N   UNL A   1      34.100  20.778  26.033  1.00  0.00    -0.345 N 
ATOM     22  C   UNL A   1      34.274  21.657  27.183  1.00  0.00     0.260 C 
ATOM     23  H   UNL A   1      33.121  20.800  25.744  1.00  0.00     0.346 HD
ATOM     24  H   UNL A   1      34.379  19.836  26.307  1.00  0.00     0.346 HD
ENDBRANCH   9  16
ENDBRANCH   7   8
ENDBRANCH   4   7
ENDBRANCH   2   3
ENDBRANCH   1   2
BRANCH   1  25
ATOM     25  C   UNL A   1      31.584  31.585  26.777  1.00  0.00     0.023 C 
BRANCH  25  26
ATOM     26  C   UNL A   1      32.809  32.424  27.069  1.00  0.00     0.116 C 
BRANCH  26  27
ATOM     27  N   UNL A   1      32.495  33.723  27.646  1.00  0.00    -0.352 N 
ATOM     28  C   UNL A   1      33.193  34.432  28.597  1.00  0.00     0.251 C 
ATOM     29  H   UNL A   1      31.674  34.152  27.310  1.00  0.00     0.163 HD
ATOM     30  O   UNL A   1      32.736  35.459  29.069  1.00  0.00    -0.269 OA
BRANCH  28  31
ATOM     31  C   UNL A   1      34.493  33.902  29.059  1.00  0.00     0.039 A 
ATOM     32  C   UNL A   1      34.525  33.054  30.166  1.00  0.00     0.014 A 
ATOM     33  C   UNL A   1      35.664  34.201  28.360  1.00  0.00     0.014 A 
ATOM     34  C   UNL A   1      35.733  32.461  30.535  1.00  0.00     0.010 A 
ATOM     35  C   UNL A   1      36.831  33.512  28.648  1.00  0.00     0.010 A 
ATOM     36  C   UNL A   1      36.888  32.664  29.760  1.00  0.00    -0.014 A 
BRANCH  36  37
ATOM     37  C   UNL A   1      38.181  32.046  30.133  1.00  0.00     0.031 A 
ATOM     38  C   UNL A   1      39.078  32.743  31.123  1.00  0.00     0.074 A 
ATOM     39  C   UNL A   1      38.567  30.893  29.558  1.00  0.00     0.049 A 
ATOM     40  N   UNL A   1      40.248  32.376  31.578  1.00  0.00    -0.248 NA
ATOM     41  C   UNL A   1      38.617  34.043  31.643  1.00  0.00     0.031 C 
ATOM     42  C   UNL A   1      37.815  30.157  28.538  1.00  0.00     0.029 A 
ATOM     43  N   UNL A   1      39.689  30.131  29.757  1.00  0.00    -0.354 N 
ATOM     44  C   UNL A   1      40.665  33.404  32.414  1.00  0.00     0.074 A 
ATOM     45  C   UNL A   1      39.664  34.443  32.346  1.00  0.00     0.031 C 
ATOM     46  C   UNL A   1      38.474  29.025  28.239  1.00  0.00     0.029 A 
ATOM     47  C   UNL A   1      39.705  28.972  29.019  1.00  0.00     0.049 A 
ATOM     48  H   UNL A   1      40.414  30.389  30.371  1.00  0.00     0.167 HD
ATOM     49  C   UNL A   1      41.764  33.468  33.201  1.00  0.00     0.031 A 
ATOM     50  C   UNL A   1      40.608  27.975  28.990  1.00  0.00     0.031 A 
ATOM     51  C   UNL A   1      42.745  32.422  33.287  1.00  0.00     0.049 A 
ATOM     52  C   UNL A   1      41.810  28.056  29.888  1.00  0.00     0.074 A 
ATOM     53  C   UNL A   1      43.865  32.353  34.095  1.00  0.00     0.029 A 
ATOM     54  N   UNL A   1      42.716  31.256  32.538  1.00  0.00    -0.354 N 
ATOM     55  N   UNL A   1      42.149  28.998  30.734  1.00  0.00    -0.248 NA
ATOM     56  C   UNL A   1      42.741  26.921  29.843  1.00  0.00     0.031 C 
ATOM     57  C   UNL A   1      44.540  31.164  33.800  1.00  0.00     0.029 A 
ATOM     58  C   UNL A   1      43.809  30.467  32.851  1.00  0.00     0.049 A 
ATOM     59  H   UNL A   1      42.021  31.023  31.880  1.00  0.00     0.167 HD
ATOM     60  C   UNL A   1      43.319  28.558  31.342  1.00  0.00     0.074 A 
ATOM     61  C   UNL A   1      43.613  27.254  30.783  1.00  0.00     0.031 C 
ATOM     62  C   UNL A   1      44.084  29.176  32.276  1.00  0.00     0.031 A 
BRANCH  49  63
ATOM     63  C   UNL A   1      41.949  34.711  34.025  1.00  0.00    -0.014 A 
ATOM     64  C   UNL A   1      42.667  35.814  33.532  1.00  0.00     0.009 A 
ATOM     65  C   UNL A   1      41.394  34.786  35.311  1.00  0.00     0.009 A 
ATOM     66  C   UNL A   1      42.864  36.946  34.326  1.00  0.00     0.001 A 
ATOM     67  C   UNL A   1      41.563  35.933  36.091  1.00  0.00     0.001 A 
ATOM     68  C   UNL A   1      42.307  37.006  35.602  1.00  0.00     0.000 A 
ENDBRANCH  49  63
BRANCH  50  69
ATOM     69  C   UNL A   1      40.390  26.794  28.113  1.00  0.00    -0.014 A 
ATOM     70  C   UNL A   1      39.668  25.685  28.578  1.00  0.00     0.009 A 
ATOM     71  C   UNL A   1      40.911  26.765  26.810  1.00  0.00     0.009 A 
ATOM     72  C   UNL A   1      39.500  24.558  27.771  1.00  0.00     0.001 A 
ATOM     73  C   UNL A   1      40.715  25.648  25.993  1.00  0.00     0.001 A 
ATOM     74  C   UNL A   1      40.020  24.541  26.478  1.00  0.00     0.000 A 
ENDBRANCH  50  69
BRANCH  62  75
ATOM     75  C   UNL A   1      45.289  28.428  32.770  1.00  0.00    -0.014 A 
ATOM     76  C   UNL A   1      46.545  28.582  32.162  1.00  0.00     0.009 A 
ATOM     77  C   UNL A   1      45.167  27.568  33.873  1.00  0.00     0.009 A 
ATOM     78  C   UNL A   1      47.643  27.852  32.619  1.00  0.00     0.001 A 
ATOM     79  C   UNL A   1      46.274  26.865  34.348  1.00  0.00     0.001 A 
ATOM     80  C   UNL A   1      47.507  26.997  33.712  1.00  0.00     0.000 A 
ENDBRANCH  62  75
ENDBRANCH  36  37
ENDBRANCH  28  31
ENDBRANCH  26  27
ENDBRANCH  25  26
ENDBRANCH   1  25
TORSDOF 13
ENDMDL
MODEL 3
REMARK VINA RESULT:     -11.3      0.565      5.997
REMARK SMILES C[C@]1(C(=O)N2CCC(CC(=O)NCCCCNC(=O)c3ccc(-c4c5nc(c(-c6ccccc6)c6ccc([nH]6)c(-c6ccccc6)c6nc(c(-c7ccccc7)c7ccc4[nH]7)C=C6)C=C5)cc3)CC2)CCC[NH2+]C1
REMARK SMILES IDX 14 1 13 2 12 3 10 4 11 5 9 7 8 8 3 9 4 10 5 11 6 12 69 13
REMARK SMILES IDX 7 14 68 15 2 16 1 17 70 18 74 19 71 20 73 21 72 22 15 25
REMARK SMILES IDX 16 26 17 27 18 28 19 30 20 31 21 32 67 33 22 34 66 35 23 36
REMARK SMILES IDX 24 37 25 38 60 39 26 40 65 41 59 42 61 43 27 44 64 45 58 46
REMARK SMILES IDX 57 47 28 49 50 50 35 51 49 52 36 53 39 54 48 55 62 56 37 57
REMARK SMILES IDX 38 58 47 60 63 61 40 62 29 63 30 64 34 65 31 66 33 67 32 68
REMARK SMILES IDX 51 69 52 70 56 71 53 72 55 73 54 74 41 75 42 76 46 77 43 78
REMARK SMILES IDX 45 79 44 80
REMARK H PARENT 12 6 73 23 73 24 17 29 61 48 39 59
REMARK Flexibility Score: inf
ROOT
ATOM      1  C   UNL A   1      36.567  19.860  24.935  1.00  0.00     0.023 C 
ENDROOT
BRANCH   1   2
ATOM      2  C   UNL A   1      35.447  20.792  25.404  1.00  0.00     0.116 C 
BRANCH   2   3
ATOM      3  N   UNL A   1      34.162  20.124  25.337  1.00  0.00    -0.356 N 
ATOM      4  C   UNL A   1      32.972  20.553  24.828  1.00  0.00     0.220 C 
ATOM      5  O   UNL A   1      31.977  19.849  25.006  1.00  0.00    -0.275 OA
ATOM      6  H   UNL A   1      34.146  19.216  25.719  1.00  0.00     0.163 HD
BRANCH   4   7
ATOM      7  C   UNL A   1      32.880  21.850  24.041  1.00  0.00     0.103 C 
BRANCH   7   8
ATOM      8  C   UNL A   1      31.615  22.694  24.319  1.00  0.00     0.002 C 
ATOM      9  C   UNL A   1      30.595  26.813  24.737  1.00  0.00     0.234 C 
ATOM     10  O   UNL A   1      29.581  27.324  24.251  1.00  0.00    -0.274 OA
ATOM     11  N   UNL A   1      30.780  25.449  24.666  1.00  0.00    -0.342 N 
ATOM     12  C   UNL A   1      30.361  24.751  23.462  1.00  0.00     0.120 C 
ATOM     13  C   UNL A   1      30.777  24.617  25.844  1.00  0.00     0.120 C 
ATOM     14  C   UNL A   1      31.371  23.653  23.137  1.00  0.00     0.026 C 
ATOM     15  C   UNL A   1      31.722  23.445  25.656  1.00  0.00     0.026 C 
BRANCH   9  16
ATOM     16  C   UNL A   1      31.715  27.700  25.353  1.00  0.00     0.095 C 
ATOM     17  C   UNL A   1      31.470  27.736  26.875  1.00  0.00     0.028 C 
ATOM     18  C   UNL A   1      33.195  27.321  25.112  1.00  0.00     0.028 C 
ATOM     19  C   UNL A   1      31.492  29.125  24.772  1.00  0.00     0.277 C 
ATOM     20  C   UNL A   1      33.654  27.544  23.673  1.00  0.00     0.063 C 
ATOM     21  N   UNL A   1      31.907  29.246  23.366  1.00  0.00    -0.345 N 
ATOM     22  C   UNL A   1      33.324  28.953  23.193  1.00  0.00     0.260 C 
ATOM     23  H   UNL A   1      31.363  28.591  22.804  1.00  0.00     0.346 HD
ATOM     24  H   UNL A   1      31.742  30.208  23.068  1.00  0.00     0.346 HD
ENDBRANCH   9  16
ENDBRANCH   7   8
ENDBRANCH   4   7
ENDBRANCH   2   3
ENDBRANCH   1   2
BRANCH   1  25
ATOM     25  C   UNL A   1      37.890  20.538  24.626  1.00  0.00     0.023 C 
BRANCH  25  26
ATOM     26  C   UNL A   1      38.832  20.624  25.807  1.00  0.00     0.116 C 
BRANCH  26  27
ATOM     27  N   UNL A   1      39.836  19.569  25.824  1.00  0.00    -0.352 N 
ATOM     28  C   UNL A   1      41.175  19.663  26.125  1.00  0.00     0.251 C 
ATOM     29  H   UNL A   1      39.512  18.669  25.588  1.00  0.00     0.163 HD
ATOM     30  O   UNL A   1      41.915  18.706  25.977  1.00  0.00    -0.269 OA
BRANCH  28  31
ATOM     31  C   UNL A   1      41.703  20.959  26.600  1.00  0.00     0.039 A 
ATOM     32  C   UNL A   1      42.143  21.896  25.664  1.00  0.00     0.014 A 
ATOM     33  C   UNL A   1      41.704  21.263  27.963  1.00  0.00     0.014 A 
ATOM     34  C   UNL A   1      42.533  23.162  26.100  1.00  0.00     0.010 A 
ATOM     35  C   UNL A   1      41.967  22.559  28.377  1.00  0.00     0.010 A 
ATOM     36  C   UNL A   1      42.420  23.511  27.456  1.00  0.00    -0.014 A 
BRANCH  36  37
ATOM     37  C   UNL A   1      42.830  24.849  27.943  1.00  0.00     0.031 A 
ATOM     38  C   UNL A   1      41.782  25.900  28.195  1.00  0.00     0.074 A 
ATOM     39  C   UNL A   1      44.135  25.130  28.115  1.00  0.00     0.049 A 
ATOM     40  N   UNL A   1      41.930  27.130  28.616  1.00  0.00    -0.248 NA
ATOM     41  C   UNL A   1      40.385  25.534  27.903  1.00  0.00     0.031 C 
ATOM     42  C   UNL A   1      45.247  24.216  27.842  1.00  0.00     0.029 A 
ATOM     43  N   UNL A   1      44.746  26.269  28.571  1.00  0.00    -0.354 N 
ATOM     44  C   UNL A   1      40.656  27.683  28.616  1.00  0.00     0.074 A 
ATOM     45  C   UNL A   1      39.758  26.685  28.083  1.00  0.00     0.031 C 
ATOM     46  C   UNL A   1      46.401  24.815  28.184  1.00  0.00     0.029 A 
ATOM     47  C   UNL A   1      46.112  26.160  28.669  1.00  0.00     0.049 A 
ATOM     48  H   UNL A   1      44.253  27.088  28.809  1.00  0.00     0.167 HD
ATOM     49  C   UNL A   1      40.257  28.899  29.054  1.00  0.00     0.031 A 
ATOM     50  C   UNL A   1      47.024  27.043  29.112  1.00  0.00     0.031 A 
ATOM     51  C   UNL A   1      41.149  29.880  29.608  1.00  0.00     0.049 A 
ATOM     52  C   UNL A   1      46.556  28.380  29.616  1.00  0.00     0.074 A 
ATOM     53  C   UNL A   1      40.846  31.120  30.140  1.00  0.00     0.029 A 
ATOM     54  N   UNL A   1      42.523  29.723  29.706  1.00  0.00    -0.354 N 
ATOM     55  N   UNL A   1      45.337  28.858  29.684  1.00  0.00    -0.248 NA
ATOM     56  C   UNL A   1      47.591  29.290  30.124  1.00  0.00     0.031 C 
ATOM     57  C   UNL A   1      42.044  31.735  30.517  1.00  0.00     0.029 A 
ATOM     58  C   UNL A   1      43.086  30.852  30.273  1.00  0.00     0.049 A 
ATOM     59  H   UNL A   1      43.024  28.927  29.415  1.00  0.00     0.167 HD
ATOM     60  C   UNL A   1      45.455  30.113  30.269  1.00  0.00     0.074 A 
ATOM     61  C   UNL A   1      46.862  30.308  30.557  1.00  0.00     0.031 C 
ATOM     62  C   UNL A   1      44.489  31.026  30.543  1.00  0.00     0.031 A 
BRANCH  49  63
ATOM     63  C   UNL A   1      38.792  29.222  28.949  1.00  0.00    -0.014 A 
ATOM     64  C   UNL A   1      37.930  29.061  30.047  1.00  0.00     0.009 A 
ATOM     65  C   UNL A   1      38.266  29.700  27.740  1.00  0.00     0.009 A 
ATOM     66  C   UNL A   1      36.564  29.328  29.922  1.00  0.00     0.001 A 
ATOM     67  C   UNL A   1      36.906  29.998  27.627  1.00  0.00     0.001 A 
ATOM     68  C   UNL A   1      36.055  29.801  28.715  1.00  0.00     0.000 A 
ENDBRANCH  49  63
BRANCH  50  69
ATOM     69  C   UNL A   1      48.465  26.680  29.143  1.00  0.00    -0.014 A 
ATOM     70  C   UNL A   1      49.300  26.985  28.057  1.00  0.00     0.009 A 
ATOM     71  C   UNL A   1      49.013  26.018  30.253  1.00  0.00     0.009 A 
ATOM     72  C   UNL A   1      50.644  26.606  28.066  1.00  0.00     0.001 A 
ATOM     73  C   UNL A   1      50.366  25.667  30.273  1.00  0.00     0.001 A 
ATOM     74  C   UNL A   1      51.177  25.950  29.175  1.00  0.00     0.000 A 
ENDBRANCH  50  69
BRANCH  62  75
ATOM     75  C   UNL A   1      44.926  32.296  31.215  1.00  0.00    -0.014 A 
ATOM     76  C   UNL A   1      45.292  33.428  30.470  1.00  0.00     0.009 A 
ATOM     77  C   UNL A   1      44.954  32.365  32.616  1.00  0.00     0.009 A 
ATOM     78  C   UNL A   1      45.725  34.587  31.115  1.00  0.00     0.001 A 
ATOM     79  C   UNL A   1      45.356  33.535  33.260  1.00  0.00     0.001 A 
ATOM     80  C   UNL A   1      45.754  34.641  32.509  1.00  0.00     0.000 A 
ENDBRANCH  62  75
ENDBRANCH  36  37
ENDBRANCH  28  31
ENDBRANCH  26  27
ENDBRANCH  25  26
ENDBRANCH   1  25
TORSDOF 13
ENDMDL
