MODEL 1
REMARK VINA RESULT:     -10.9      0.000      0.000
REMARK SMILES C[C@H]1[C@@H](C(=O)NCCCCNC(=O)c2ccc(-c3c4nc(c(-c5ccccc5)c5ccc([nH]5)c(-c5ccccc5)c5nc(c(-c6ccccc6)c6ccc3[nH]6)C=C5)C=C4)cc2)CCN1C(=O)NC1CCCCC1
REMARK SMILES IDX 8 1 7 2 6 3 4 4 5 5 3 7 1 8 2 9 64 10 62 11 63 12 65 13
REMARK SMILES IDX 66 14 67 15 68 17 69 18 73 19 70 20 72 21 71 22 9 23 10 24
REMARK SMILES IDX 11 25 12 26 13 28 14 29 15 30 61 31 16 32 60 33 17 34 18 35
REMARK SMILES IDX 19 36 54 37 20 38 59 39 53 40 55 41 21 42 58 43 52 44 51 45
REMARK SMILES IDX 22 47 44 48 29 49 43 50 30 51 33 52 42 53 56 54 31 55 32 56
REMARK SMILES IDX 41 58 57 59 34 60 23 61 24 62 28 63 25 64 27 65 26 66 45 67
REMARK SMILES IDX 46 68 50 69 47 70 49 71 48 72 35 73 36 74 40 75 37 76 39 77
REMARK SMILES IDX 38 78
REMARK H PARENT 6 6 67 16 11 27 55 46 33 57
REMARK Flexibility Score: inf
ROOT
ATOM      1  C   UNL A   1      32.163  30.110  27.217  1.00  0.00     0.023 C 
ENDROOT
BRANCH   1   2
ATOM      2  C   UNL A   1      33.538  30.062  26.547  1.00  0.00     0.116 C 
BRANCH   2   3
ATOM      3  N   UNL A   1      34.035  28.701  26.477  1.00  0.00    -0.356 N 
ATOM      4  C   UNL A   1      33.622  27.646  25.716  1.00  0.00     0.225 C 
ATOM      5  O   UNL A   1      34.210  26.575  25.876  1.00  0.00    -0.275 OA
ATOM      6  H   UNL A   1      34.792  28.507  27.075  1.00  0.00     0.163 HD
BRANCH   4   7
ATOM      7  C   UNL A   1      32.547  27.827  24.656  1.00  0.00     0.102 C 
ATOM      8  C   UNL A   1      30.764  26.496  26.059  1.00  0.00     0.032 C 
ATOM      9  C   UNL A   1      31.084  27.616  25.068  1.00  0.00     0.096 C 
ATOM     10  N   UNL A   1      30.438  27.320  23.809  1.00  0.00    -0.321 N 
ATOM     11  C   UNL A   1      32.731  26.923  23.415  1.00  0.00     0.037 C 
ATOM     12  C   UNL A   1      31.327  26.472  23.032  1.00  0.00     0.122 C 
BRANCH  10  13
ATOM     13  C   UNL A   1      29.141  27.436  23.460  1.00  0.00     0.317 C 
ATOM     14  O   UNL A   1      28.352  26.501  23.629  1.00  0.00    -0.249 OA
ATOM     15  N   UNL A   1      28.616  28.535  22.908  1.00  0.00    -0.335 N 
ATOM     16  H   UNL A   1      27.640  28.424  22.833  1.00  0.00     0.165 HD
BRANCH  15  17
ATOM     17  C   UNL A   1      28.994  29.861  22.369  1.00  0.00     0.083 C 
ATOM     18  C   UNL A   1      28.092  30.375  21.226  1.00  0.00     0.025 C 
ATOM     19  C   UNL A   1      28.937  30.828  23.581  1.00  0.00     0.025 C 
ATOM     20  C   UNL A   1      28.222  31.875  20.946  1.00  0.00     0.002 C 
ATOM     21  C   UNL A   1      29.050  32.306  23.244  1.00  0.00     0.002 C 
ATOM     22  C   UNL A   1      28.017  32.700  22.203  1.00  0.00     0.000 C 
ENDBRANCH  15  17
ENDBRANCH  10  13
ENDBRANCH   4   7
ENDBRANCH   2   3
ENDBRANCH   1   2
BRANCH   1  23
ATOM     23  C   UNL A   1      31.394  31.402  26.993  1.00  0.00     0.023 C 
BRANCH  23  24
ATOM     24  C   UNL A   1      32.255  32.548  26.502  1.00  0.00     0.116 C 
BRANCH  24  25
ATOM     25  N   UNL A   1      32.124  33.761  27.303  1.00  0.00    -0.352 N 
ATOM     26  C   UNL A   1      32.973  34.264  28.264  1.00  0.00     0.251 C 
ATOM     27  H   UNL A   1      31.314  34.295  27.133  1.00  0.00     0.163 HD
ATOM     28  O   UNL A   1      32.664  35.259  28.913  1.00  0.00    -0.269 OA
BRANCH  26  29
ATOM     29  C   UNL A   1      34.240  33.556  28.541  1.00  0.00     0.039 A 
ATOM     30  C   UNL A   1      35.437  34.074  28.042  1.00  0.00     0.014 A 
ATOM     31  C   UNL A   1      34.247  32.448  29.387  1.00  0.00     0.014 A 
ATOM     32  C   UNL A   1      36.650  33.545  28.489  1.00  0.00     0.010 A 
ATOM     33  C   UNL A   1      35.448  32.016  29.929  1.00  0.00     0.010 A 
ATOM     34  C   UNL A   1      36.665  32.553  29.484  1.00  0.00    -0.014 A 
BRANCH  34  35
ATOM     35  C   UNL A   1      37.930  32.044  30.070  1.00  0.00     0.031 A 
ATOM     36  C   UNL A   1      38.535  30.771  29.539  1.00  0.00     0.074 A 
ATOM     37  C   UNL A   1      38.482  32.662  31.134  1.00  0.00     0.049 A 
ATOM     38  N   UNL A   1      39.566  30.098  29.982  1.00  0.00    -0.248 NA
ATOM     39  C   UNL A   1      37.863  30.147  28.387  1.00  0.00     0.031 C 
ATOM     40  C   UNL A   1      37.962  33.865  31.789  1.00  0.00     0.029 A 
ATOM     41  N   UNL A   1      39.608  32.356  31.857  1.00  0.00    -0.354 N 
ATOM     42  C   UNL A   1      39.636  28.959  29.190  1.00  0.00     0.074 A 
ATOM     43  C   UNL A   1      38.510  28.997  28.286  1.00  0.00     0.031 C 
ATOM     44  C   UNL A   1      38.788  34.217  32.787  1.00  0.00     0.029 A 
ATOM     45  C   UNL A   1      39.872  33.243  32.872  1.00  0.00     0.049 A 
ATOM     46  H   UNL A   1      40.173  31.572  31.667  1.00  0.00     0.167 HD
ATOM     47  C   UNL A   1      40.572  27.981  29.190  1.00  0.00     0.031 A 
ATOM     48  C   UNL A   1      40.876  33.271  33.769  1.00  0.00     0.031 A 
ATOM     49  C   UNL A   1      41.719  27.967  30.054  1.00  0.00     0.049 A 
ATOM     50  C   UNL A   1      41.925  32.194  33.725  1.00  0.00     0.074 A 
ATOM     51  C   UNL A   1      42.768  27.067  30.079  1.00  0.00     0.029 A 
ATOM     52  N   UNL A   1      41.969  28.908  31.040  1.00  0.00    -0.354 N 
ATOM     53  N   UNL A   1      42.016  31.163  32.922  1.00  0.00    -0.248 NA
ATOM     54  C   UNL A   1      43.014  32.293  34.707  1.00  0.00     0.031 C 
ATOM     55  C   UNL A   1      43.637  27.443  31.108  1.00  0.00     0.029 A 
ATOM     56  C   UNL A   1      43.152  28.603  31.690  1.00  0.00     0.049 A 
ATOM     57  H   UNL A   1      41.391  29.679  31.246  1.00  0.00     0.167 HD
ATOM     58  C   UNL A   1      43.186  30.506  33.281  1.00  0.00     0.074 A 
ATOM     59  C   UNL A   1      43.776  31.264  34.365  1.00  0.00     0.031 C 
ATOM     60  C   UNL A   1      43.722  29.375  32.763  1.00  0.00     0.031 A 
BRANCH  47  61
ATOM     61  C   UNL A   1      40.389  26.855  28.210  1.00  0.00    -0.014 A 
ATOM     62  C   UNL A   1      40.924  26.927  26.912  1.00  0.00     0.009 A 
ATOM     63  C   UNL A   1      39.682  25.706  28.590  1.00  0.00     0.009 A 
ATOM     64  C   UNL A   1      40.712  25.891  26.002  1.00  0.00     0.001 A 
ATOM     65  C   UNL A   1      39.500  24.656  27.687  1.00  0.00     0.001 A 
ATOM     66  C   UNL A   1      40.005  24.754  26.391  1.00  0.00     0.000 A 
ENDBRANCH  47  61
BRANCH  48  67
ATOM     67  C   UNL A   1      40.963  34.373  34.762  1.00  0.00    -0.014 A 
ATOM     68  C   UNL A   1      41.644  35.560  34.445  1.00  0.00     0.009 A 
ATOM     69  C   UNL A   1      40.378  34.247  36.030  1.00  0.00     0.009 A 
ATOM     70  C   UNL A   1      41.761  36.584  35.387  1.00  0.00     0.001 A 
ATOM     71  C   UNL A   1      40.473  35.285  36.961  1.00  0.00     0.001 A 
ATOM     72  C   UNL A   1      41.172  36.448  36.642  1.00  0.00     0.000 A 
ENDBRANCH  48  67
BRANCH  60  73
ATOM     73  C   UNL A   1      45.030  28.910  33.336  1.00  0.00    -0.014 A 
ATOM     74  C   UNL A   1      45.073  28.017  34.416  1.00  0.00     0.009 A 
ATOM     75  C   UNL A   1      46.233  29.337  32.753  1.00  0.00     0.009 A 
ATOM     76  C   UNL A   1      46.299  27.582  34.921  1.00  0.00     0.001 A 
ATOM     77  C   UNL A   1      47.457  28.879  33.241  1.00  0.00     0.001 A 
ATOM     78  C   UNL A   1      47.489  28.009  34.330  1.00  0.00     0.000 A 
ENDBRANCH  60  73
ENDBRANCH  34  35
ENDBRANCH  26  29
ENDBRANCH  24  25
ENDBRANCH  23  24
ENDBRANCH   1  23
TORSDOF 13
ENDMDL
MODEL 2
REMARK VINA RESULT:     -10.7      2.339      7.180
REMARK SMILES C[C@H]1[C@@H](C(=O)NCCCCNC(=O)c2ccc(-c3c4nc(c(-c5ccccc5)c5ccc([nH]5)c(-c5ccccc5)c5nc(c(-c6ccccc6)c6ccc3[nH]6)C=C5)C=C4)cc2)CCN1C(=O)NC1CCCCC1
REMARK SMILES IDX 8 1 7 2 6 3 4 4 5 5 3 7 1 8 2 9 64 10 62 11 63 12 65 13
REMARK SMILES IDX 66 14 67 15 68 17 69 18 73 19 70 20 72 21 71 22 9 23 10 24
REMARK SMILES IDX 11 25 12 26 13 28 14 29 15 30 61 31 16 32 60 33 17 34 18 35
REMARK SMILES IDX 19 36 54 37 20 38 59 39 53 40 55 41 21 42 58 43 52 44 51 45
REMARK SMILES IDX 22 47 44 48 29 49 43 50 30 51 33 52 42 53 56 54 31 55 32 56
REMARK SMILES IDX 41 58 57 59 34 60 23 61 24 62 28 63 25 64 27 65 26 66 45 67
REMARK SMILES IDX 46 68 50 69 47 70 49 71 48 72 35 73 36 74 40 75 37 76 39 77
REMARK SMILES IDX 38 78
REMARK H PARENT 6 6 67 16 11 27 55 46 33 57
REMARK Flexibility Score: inf
ROOT
ATOM      1  C   UNL A   1      34.862  30.683  27.720  1.00  0.00     0.023 C 
ENDROOT
BRANCH   1   2
ATOM      2  C   UNL A   1      34.395  29.289  27.294  1.00  0.00     0.116 C 
BRANCH   2   3
ATOM      3  N   UNL A   1      33.036  29.039  27.737  1.00  0.00    -0.356 N 
ATOM      4  C   UNL A   1      32.152  28.064  27.374  1.00  0.00     0.225 C 
ATOM      5  O   UNL A   1      31.035  28.100  27.892  1.00  0.00    -0.275 OA
ATOM      6  H   UNL A   1      32.696  29.675  28.407  1.00  0.00     0.163 HD
BRANCH   4   7
ATOM      7  C   UNL A   1      32.577  26.939  26.444  1.00  0.00     0.102 C 
ATOM      8  C   UNL A   1      32.115  28.378  24.291  1.00  0.00     0.032 C 
ATOM      9  C   UNL A   1      32.935  27.297  24.995  1.00  0.00     0.096 C 
ATOM     10  N   UNL A   1      32.744  26.042  24.301  1.00  0.00    -0.321 N 
ATOM     11  C   UNL A   1      31.532  25.806  26.312  1.00  0.00     0.037 C 
ATOM     12  C   UNL A   1      31.558  25.401  24.844  1.00  0.00     0.122 C 
BRANCH  10  13
ATOM     13  C   UNL A   1      33.264  25.620  23.132  1.00  0.00     0.317 C 
ATOM     14  O   UNL A   1      32.920  26.132  22.061  1.00  0.00    -0.249 OA
ATOM     15  N   UNL A   1      34.160  24.631  23.032  1.00  0.00    -0.335 N 
ATOM     16  H   UNL A   1      34.465  24.567  22.097  1.00  0.00     0.165 HD
BRANCH  15  17
ATOM     17  C   UNL A   1      34.850  23.601  23.839  1.00  0.00     0.083 C 
ATOM     18  C   UNL A   1      36.107  22.996  23.177  1.00  0.00     0.025 C 
ATOM     19  C   UNL A   1      35.225  24.305  25.169  1.00  0.00     0.025 C 
ATOM     20  C   UNL A   1      37.031  22.248  24.142  1.00  0.00     0.002 C 
ATOM     21  C   UNL A   1      36.161  23.527  26.081  1.00  0.00     0.002 C 
ATOM     22  C   UNL A   1      37.414  23.108  25.332  1.00  0.00     0.000 C 
ENDBRANCH  15  17
ENDBRANCH  10  13
ENDBRANCH   4   7
ENDBRANCH   2   3
ENDBRANCH   1   2
BRANCH   1  23
ATOM     23  C   UNL A   1      33.745  31.698  27.900  1.00  0.00     0.023 C 
BRANCH  23  24
ATOM     24  C   UNL A   1      34.215  33.138  27.847  1.00  0.00     0.116 C 
BRANCH  24  25
ATOM     25  N   UNL A   1      33.528  34.011  28.795  1.00  0.00    -0.352 N 
ATOM     26  C   UNL A   1      33.822  34.261  30.117  1.00  0.00     0.251 C 
ATOM     27  H   UNL A   1      32.743  34.487  28.439  1.00  0.00     0.163 HD
ATOM     28  O   UNL A   1      33.081  34.959  30.802  1.00  0.00    -0.269 OA
BRANCH  26  29
ATOM     29  C   UNL A   1      35.018  33.632  30.714  1.00  0.00     0.039 A 
ATOM     30  C   UNL A   1      34.876  32.465  31.467  1.00  0.00     0.014 A 
ATOM     31  C   UNL A   1      36.286  34.139  30.430  1.00  0.00     0.014 A 
ATOM     32  C   UNL A   1      36.013  31.745  31.836  1.00  0.00     0.010 A 
ATOM     33  C   UNL A   1      37.403  33.355  30.681  1.00  0.00     0.010 A 
ATOM     34  C   UNL A   1      37.282  32.152  31.391  1.00  0.00    -0.014 A 
BRANCH  34  35
ATOM     35  C   UNL A   1      38.506  31.355  31.663  1.00  0.00     0.031 A 
ATOM     36  C   UNL A   1      39.355  31.684  32.862  1.00  0.00     0.074 A 
ATOM     37  C   UNL A   1      38.906  30.408  30.790  1.00  0.00     0.049 A 
ATOM     38  N   UNL A   1      40.514  31.190  33.214  1.00  0.00    -0.248 NA
ATOM     39  C   UNL A   1      38.858  32.742  33.757  1.00  0.00     0.031 C 
ATOM     40  C   UNL A   1      38.212  30.036  29.554  1.00  0.00     0.029 A 
ATOM     41  N   UNL A   1      40.006  29.587  30.809  1.00  0.00    -0.354 N 
ATOM     42  C   UNL A   1      40.897  31.905  34.343  1.00  0.00     0.074 A 
ATOM     43  C   UNL A   1      39.883  32.907  34.576  1.00  0.00     0.031 C 
ATOM     44  C   UNL A   1      38.879  29.033  28.959  1.00  0.00     0.029 A 
ATOM     45  C   UNL A   1      40.068  28.721  29.744  1.00  0.00     0.049 A 
ATOM     46  H   UNL A   1      40.688  29.616  31.519  1.00  0.00     0.167 HD
ATOM     47  C   UNL A   1      41.979  31.725  35.136  1.00  0.00     0.031 A 
ATOM     48  C   UNL A   1      40.979  27.779  29.437  1.00  0.00     0.031 A 
ATOM     49  C   UNL A   1      42.961  30.697  34.933  1.00  0.00     0.049 A 
ATOM     50  C   UNL A   1      42.154  27.572  30.353  1.00  0.00     0.074 A 
ATOM     51  C   UNL A   1      44.049  30.377  35.722  1.00  0.00     0.029 A 
ATOM     52  N   UNL A   1      42.963  29.815  33.864  1.00  0.00    -0.354 N 
ATOM     53  N   UNL A   1      42.463  28.208  31.457  1.00  0.00    -0.248 NA
ATOM     54  C   UNL A   1      43.099  26.509  29.985  1.00  0.00     0.031 C 
ATOM     55  C   UNL A   1      44.734  29.322  35.111  1.00  0.00     0.029 A 
ATOM     56  C   UNL A   1      44.044  28.957  33.966  1.00  0.00     0.049 A 
ATOM     57  H   UNL A   1      42.294  29.800  33.140  1.00  0.00     0.167 HD
ATOM     58  C   UNL A   1      43.621  27.605  31.930  1.00  0.00     0.074 A 
ATOM     59  C   UNL A   1      43.950  26.543  31.000  1.00  0.00     0.031 C 
ATOM     60  C   UNL A   1      44.348  27.904  33.032  1.00  0.00     0.031 A 
BRANCH  47  61
ATOM     61  C   UNL A   1      42.139  32.660  36.302  1.00  0.00    -0.014 A 
ATOM     62  C   UNL A   1      41.582  32.359  37.557  1.00  0.00     0.009 A 
ATOM     63  C   UNL A   1      42.862  33.851  36.149  1.00  0.00     0.009 A 
ATOM     64  C   UNL A   1      41.706  33.256  38.619  1.00  0.00     0.001 A 
ATOM     65  C   UNL A   1      43.013  34.731  37.223  1.00  0.00     0.001 A 
ATOM     66  C   UNL A   1      42.425  34.438  38.453  1.00  0.00     0.000 A 
ENDBRANCH  47  61
BRANCH  48  67
ATOM     67  C   UNL A   1      40.804  26.932  28.228  1.00  0.00    -0.014 A 
ATOM     68  C   UNL A   1      40.044  25.752  28.294  1.00  0.00     0.009 A 
ATOM     69  C   UNL A   1      41.396  27.288  27.008  1.00  0.00     0.009 A 
ATOM     70  C   UNL A   1      39.906  24.934  27.171  1.00  0.00     0.001 A 
ATOM     71  C   UNL A   1      41.233  26.480  25.878  1.00  0.00     0.001 A 
ATOM     72  C   UNL A   1      40.496  25.301  25.963  1.00  0.00     0.000 A 
ENDBRANCH  48  67
BRANCH  60  73
ATOM     73  C   UNL A   1      45.550  27.050  33.315  1.00  0.00    -0.014 A 
ATOM     74  C   UNL A   1      46.822  27.406  32.843  1.00  0.00     0.009 A 
ATOM     75  C   UNL A   1      45.412  25.898  34.104  1.00  0.00     0.009 A 
ATOM     76  C   UNL A   1      47.929  26.608  33.134  1.00  0.00     0.001 A 
ATOM     77  C   UNL A   1      46.525  25.117  34.417  1.00  0.00     0.001 A 
ATOM     78  C   UNL A   1      47.780  25.467  33.924  1.00  0.00     0.000 A 
ENDBRANCH  60  73
ENDBRANCH  34  35
ENDBRANCH  26  29
ENDBRANCH  24  25
ENDBRANCH  23  24
ENDBRANCH   1  23
TORSDOF 13
ENDMDL
MODEL 3
REMARK VINA RESULT:     -10.6      3.668      8.489
REMARK SMILES C[C@H]1[C@@H](C(=O)NCCCCNC(=O)c2ccc(-c3c4nc(c(-c5ccccc5)c5ccc([nH]5)c(-c5ccccc5)c5nc(c(-c6ccccc6)c6ccc3[nH]6)C=C5)C=C4)cc2)CCN1C(=O)NC1CCCCC1
REMARK SMILES IDX 8 1 7 2 6 3 4 4 5 5 3 7 1 8 2 9 64 10 62 11 63 12 65 13
REMARK SMILES IDX 66 14 67 15 68 17 69 18 73 19 70 20 72 21 71 22 9 23 10 24
REMARK SMILES IDX 11 25 12 26 13 28 14 29 15 30 61 31 16 32 60 33 17 34 18 35
REMARK SMILES IDX 19 36 54 37 20 38 59 39 53 40 55 41 21 42 58 43 52 44 51 45
REMARK SMILES IDX 22 47 44 48 29 49 43 50 30 51 33 52 42 53 56 54 31 55 32 56
REMARK SMILES IDX 41 58 57 59 34 60 23 61 24 62 28 63 25 64 27 65 26 66 45 67
REMARK SMILES IDX 46 68 50 69 47 70 49 71 48 72 35 73 36 74 40 75 37 76 39 77
REMARK SMILES IDX 38 78
REMARK H PARENT 6 6 67 16 11 27 55 46 33 57
REMARK Flexibility Score: inf
ROOT
ATOM      1  C   UNL A   1      36.967  22.471  24.273  1.00  0.00     0.023 C 
ENDROOT
BRANCH   1   2
ATOM      2  C   UNL A   1      36.819  23.640  25.248  1.00  0.00     0.116 C 
BRANCH   2   3
ATOM      3  N   UNL A   1      35.691  23.435  26.139  1.00  0.00    -0.356 N 
ATOM      4  C   UNL A   1      34.350  23.543  25.909  1.00  0.00     0.225 C 
ATOM      5  O   UNL A   1      33.599  23.338  26.864  1.00  0.00    -0.275 OA
ATOM      6  H   UNL A   1      35.933  23.177  27.057  1.00  0.00     0.163 HD
BRANCH   4   7
ATOM      7  C   UNL A   1      33.822  23.812  24.508  1.00  0.00     0.102 C 
ATOM      8  C   UNL A   1      33.543  26.386  24.974  1.00  0.00     0.032 C 
ATOM      9  C   UNL A   1      33.852  25.257  23.991  1.00  0.00     0.096 C 
ATOM     10  N   UNL A   1      32.838  25.247  22.960  1.00  0.00    -0.321 N 
ATOM     11  C   UNL A   1      32.361  23.357  24.291  1.00  0.00     0.037 C 
ATOM     12  C   UNL A   1      31.723  24.440  23.430  1.00  0.00     0.122 C 
BRANCH  10  13
ATOM     13  C   UNL A   1      32.678  26.069  21.904  1.00  0.00     0.317 C 
ATOM     14  O   UNL A   1      33.310  25.891  20.858  1.00  0.00    -0.249 OA
ATOM     15  N   UNL A   1      31.854  27.123  21.904  1.00  0.00    -0.335 N 
ATOM     16  H   UNL A   1      31.829  27.512  20.999  1.00  0.00     0.165 HD
BRANCH  15  17
ATOM     17  C   UNL A   1      30.968  27.909  22.792  1.00  0.00     0.083 C 
ATOM     18  C   UNL A   1      30.685  29.349  22.313  1.00  0.00     0.025 C 
ATOM     19  C   UNL A   1      29.649  27.097  22.878  1.00  0.00     0.025 C 
ATOM     20  C   UNL A   1      29.483  30.014  22.990  1.00  0.00     0.002 C 
ATOM     21  C   UNL A   1      28.482  27.812  23.540  1.00  0.00     0.002 C 
ATOM     22  C   UNL A   1      28.234  29.159  22.883  1.00  0.00     0.000 C 
ENDBRANCH  15  17
ENDBRANCH  10  13
ENDBRANCH   4   7
ENDBRANCH   2   3
ENDBRANCH   1   2
BRANCH   1  23
ATOM     23  C   UNL A   1      37.402  21.163  24.913  1.00  0.00     0.023 C 
BRANCH  23  24
ATOM     24  C   UNL A   1      38.675  21.277  25.729  1.00  0.00     0.116 C 
BRANCH  24  25
ATOM     25  N   UNL A   1      39.518  20.087  25.662  1.00  0.00    -0.352 N 
ATOM     26  C   UNL A   1      40.846  19.943  25.996  1.00  0.00     0.251 C 
ATOM     27  H   UNL A   1      39.075  19.273  25.330  1.00  0.00     0.163 HD
ATOM     28  O   UNL A   1      41.432  18.884  25.792  1.00  0.00    -0.269 OA
BRANCH  26  29
ATOM     29  C   UNL A   1      41.572  21.102  26.557  1.00  0.00     0.039 A 
ATOM     30  C   UNL A   1      42.062  22.086  25.697  1.00  0.00     0.014 A 
ATOM     31  C   UNL A   1      41.663  21.263  27.940  1.00  0.00     0.014 A 
ATOM     32  C   UNL A   1      42.539  23.285  26.230  1.00  0.00     0.010 A 
ATOM     33  C   UNL A   1      42.011  22.501  28.458  1.00  0.00     0.010 A 
ATOM     34  C   UNL A   1      42.459  23.526  27.612  1.00  0.00    -0.014 A 
BRANCH  34  35
ATOM     35  C   UNL A   1      42.848  24.829  28.209  1.00  0.00     0.031 A 
ATOM     36  C   UNL A   1      41.797  25.880  28.445  1.00  0.00     0.074 A 
ATOM     37  C   UNL A   1      44.146  25.105  28.446  1.00  0.00     0.049 A 
ATOM     38  N   UNL A   1      41.940  27.117  28.847  1.00  0.00    -0.248 NA
ATOM     39  C   UNL A   1      40.404  25.507  28.144  1.00  0.00     0.031 C 
ATOM     40  C   UNL A   1      45.273  24.201  28.200  1.00  0.00     0.029 A 
ATOM     41  N   UNL A   1      44.739  26.238  28.948  1.00  0.00    -0.354 N 
ATOM     42  C   UNL A   1      40.667  27.673  28.807  1.00  0.00     0.074 A 
ATOM     43  C   UNL A   1      39.778  26.664  28.279  1.00  0.00     0.031 C 
ATOM     44  C   UNL A   1      46.411  24.798  28.589  1.00  0.00     0.029 A 
ATOM     45  C   UNL A   1      46.103  26.139  29.073  1.00  0.00     0.049 A 
ATOM     46  H   UNL A   1      44.233  27.046  29.194  1.00  0.00     0.167 HD
ATOM     47  C   UNL A   1      40.265  28.903  29.202  1.00  0.00     0.031 A 
ATOM     48  C   UNL A   1      47.005  27.030  29.528  1.00  0.00     0.031 A 
ATOM     49  C   UNL A   1      41.139  29.889  29.773  1.00  0.00     0.049 A 
ATOM     50  C   UNL A   1      46.529  28.377  29.997  1.00  0.00     0.074 A 
ATOM     51  C   UNL A   1      40.819  31.134  30.281  1.00  0.00     0.029 A 
ATOM     52  N   UNL A   1      42.508  29.732  29.919  1.00  0.00    -0.354 N 
ATOM     53  N   UNL A   1      45.311  28.861  30.020  1.00  0.00    -0.248 NA
ATOM     54  C   UNL A   1      47.553  29.296  30.513  1.00  0.00     0.031 C 
ATOM     55  C   UNL A   1      42.002  31.748  30.702  1.00  0.00     0.029 A 
ATOM     56  C   UNL A   1      43.051  30.866  30.498  1.00  0.00     0.049 A 
ATOM     57  H   UNL A   1      43.018  28.933  29.651  1.00  0.00     0.167 HD
ATOM     58  C   UNL A   1      45.418  30.128  30.577  1.00  0.00     0.074 A 
ATOM     59  C   UNL A   1      46.818  30.331  30.892  1.00  0.00     0.031 C 
ATOM     60  C   UNL A   1      44.446  31.043  30.807  1.00  0.00     0.031 A 
BRANCH  47  61
ATOM     61  C   UNL A   1      38.807  29.234  29.039  1.00  0.00    -0.014 A 
ATOM     62  C   UNL A   1      37.903  29.080  30.103  1.00  0.00     0.009 A 
ATOM     63  C   UNL A   1      38.333  29.714  27.809  1.00  0.00     0.009 A 
ATOM     64  C   UNL A   1      36.546  29.355  29.924  1.00  0.00     0.001 A 
ATOM     65  C   UNL A   1      36.981  30.020  27.643  1.00  0.00     0.001 A 
ATOM     66  C   UNL A   1      36.087  29.829  28.696  1.00  0.00     0.000 A 
ENDBRANCH  47  61
BRANCH  48  67
ATOM     67  C   UNL A   1      48.445  26.669  29.598  1.00  0.00    -0.014 A 
ATOM     68  C   UNL A   1      48.955  26.009  30.728  1.00  0.00     0.009 A 
ATOM     69  C   UNL A   1      49.319  26.985  28.548  1.00  0.00     0.009 A 
ATOM     70  C   UNL A   1      50.314  25.700  30.816  1.00  0.00     0.001 A 
ATOM     71  C   UNL A   1      50.673  26.649  28.627  1.00  0.00     0.001 A 
ATOM     72  C   UNL A   1      51.171  26.016  29.764  1.00  0.00     0.000 A 
ENDBRANCH  48  67
BRANCH  60  73
ATOM     73  C   UNL A   1      44.855  32.331  31.461  1.00  0.00    -0.014 A 
ATOM     74  C   UNL A   1      45.335  33.410  30.704  1.00  0.00     0.009 A 
ATOM     75  C   UNL A   1      44.713  32.480  32.849  1.00  0.00     0.009 A 
ATOM     76  C   UNL A   1      45.692  34.605  31.329  1.00  0.00     0.001 A 
ATOM     77  C   UNL A   1      45.044  33.685  33.468  1.00  0.00     0.001 A 
ATOM     78  C   UNL A   1      45.541  34.743  32.710  1.00  0.00     0.000 A 
ENDBRANCH  60  73
ENDBRANCH  34  35
ENDBRANCH  26  29
ENDBRANCH  24  25
ENDBRANCH  23  24
ENDBRANCH   1  23
TORSDOF 13
ENDMDL
