MODEL 1
REMARK VINA RESULT:     -10.1      0.000      0.000
REMARK SMILES N#C[C@@H]1CN(C(=O)NCCCC(=O)NCCCCNC(=O)c2ccc(-c3c4nc(c(-c5ccccc5)c5ccc([nH]5)c(-c5ccccc5)c5nc(c(-c6ccccc6)c6ccc3[nH]6)C=C5)C=C4)cc2)CCO1
REMARK SMILES IDX 15 1 14 2 12 3 13 4 11 6 10 7 9 8 8 9 6 10 7 11 5 13 3 14
REMARK SMILES IDX 4 15 72 16 71 17 70 18 2 19 1 20 16 21 17 22 18 23 19 24
REMARK SMILES IDX 20 25 21 27 22 28 23 29 69 30 24 31 68 32 25 33 26 34 27 35
REMARK SMILES IDX 62 36 28 37 67 38 61 39 63 40 29 41 66 42 60 43 59 44 30 46
REMARK SMILES IDX 52 47 37 48 51 49 38 50 41 51 50 52 64 53 39 54 40 55 49 57
REMARK SMILES IDX 65 58 42 59 31 60 32 61 36 62 33 63 35 64 34 65 53 66 54 67
REMARK SMILES IDX 58 68 55 69 57 70 56 71 43 72 44 73 48 74 45 75 47 76 46 77
REMARK H PARENT 14 5 8 12 19 26 63 45 41 56
REMARK Flexibility Score: inf
ROOT
ATOM      1  C   UNL A   1      32.685  29.703  25.628  1.00  0.00     0.116 C 
ENDROOT
BRANCH   1   2
ATOM      2  N   UNL A   1      31.968  29.687  24.365  1.00  0.00    -0.356 N 
ATOM      3  C   UNL A   1      31.173  28.725  23.825  1.00  0.00     0.220 C 
ATOM      4  O   UNL A   1      30.817  28.850  22.652  1.00  0.00    -0.275 OA
ATOM      5  H   UNL A   1      32.074  30.496  23.816  1.00  0.00     0.163 HD
BRANCH   3   6
ATOM      6  C   UNL A   1      30.730  27.532  24.649  1.00  0.00     0.102 C 
BRANCH   6   7
ATOM      7  C   UNL A   1      29.849  26.554  23.868  1.00  0.00     0.031 C 
BRANCH   7   8
ATOM      8  C   UNL A   1      30.575  25.327  23.321  1.00  0.00     0.118 C 
BRANCH   8   9
ATOM      9  N   UNL A   1      31.680  25.668  22.441  1.00  0.00    -0.338 N 
ATOM     10  C   UNL A   1      33.011  25.468  22.468  1.00  0.00     0.317 C 
ATOM     11  O   UNL A   1      33.653  26.100  21.625  1.00  0.00    -0.249 OA
ATOM     12  H   UNL A   1      31.386  26.159  21.639  1.00  0.00     0.165 HD
BRANCH  10  13
ATOM     13  N   UNL A   1      33.619  24.650  23.372  1.00  0.00    -0.319 N 
ATOM     14  C   UNL A   1      33.999  24.107  25.780  1.00  0.00     0.240 C 
ATOM     15  C   UNL A   1      34.341  25.019  24.593  1.00  0.00     0.169 C 
ATOM     16  O   UNL A   1      34.179  22.719  25.427  1.00  0.00    -0.360 OA
ATOM     17  C   UNL A   1      33.355  22.345  24.310  1.00  0.00     0.183 C 
ATOM     18  C   UNL A   1      33.647  23.206  23.079  1.00  0.00     0.150 C 
BRANCH  14  19
ATOM     19  C   UNL A   1      32.591  24.373  26.284  1.00  0.00     0.096 C 
ATOM     20  N   UNL A   1      31.422  24.594  26.703  1.00  0.00    -0.195 NA
ENDBRANCH  14  19
ENDBRANCH  10  13
ENDBRANCH   8   9
ENDBRANCH   7   8
ENDBRANCH   6   7
ENDBRANCH   3   6
ENDBRANCH   1   2
BRANCH   1  21
ATOM     21  C   UNL A   1      31.808  30.294  26.727  1.00  0.00     0.023 C 
BRANCH  21  22
ATOM     22  C   UNL A   1      31.613  31.808  26.629  1.00  0.00     0.023 C 
BRANCH  22  23
ATOM     23  C   UNL A   1      32.759  32.631  27.203  1.00  0.00     0.116 C 
BRANCH  23  24
ATOM     24  N   UNL A   1      32.389  33.976  27.618  1.00  0.00    -0.352 N 
ATOM     25  C   UNL A   1      32.995  34.806  28.532  1.00  0.00     0.251 C 
ATOM     26  H   UNL A   1      31.587  34.345  27.182  1.00  0.00     0.163 HD
ATOM     27  O   UNL A   1      32.529  35.906  28.805  1.00  0.00    -0.269 OA
BRANCH  25  28
ATOM     28  C   UNL A   1      34.181  34.314  29.257  1.00  0.00     0.039 A 
ATOM     29  C   UNL A   1      33.981  33.549  30.410  1.00  0.00     0.014 A 
ATOM     30  C   UNL A   1      35.465  34.519  28.752  1.00  0.00     0.014 A 
ATOM     31  C   UNL A   1      35.070  32.921  31.015  1.00  0.00     0.010 A 
ATOM     32  C   UNL A   1      36.531  33.820  29.300  1.00  0.00     0.010 A 
ATOM     33  C   UNL A   1      36.344  33.017  30.436  1.00  0.00    -0.014 A 
BRANCH  33  34
ATOM     34  C   UNL A   1      37.508  32.302  31.007  1.00  0.00     0.031 A 
ATOM     35  C   UNL A   1      38.143  32.811  32.270  1.00  0.00     0.074 A 
ATOM     36  C   UNL A   1      38.042  31.253  30.351  1.00  0.00     0.049 A 
ATOM     37  N   UNL A   1      39.227  32.398  32.875  1.00  0.00    -0.248 NA
ATOM     38  C   UNL A   1      37.493  33.962  32.919  1.00  0.00     0.031 C 
ATOM     39  C   UNL A   1      37.546  30.693  29.091  1.00  0.00     0.029 A 
ATOM     40  N   UNL A   1      39.131  30.475  30.654  1.00  0.00    -0.354 N 
ATOM     41  C   UNL A   1      39.404  33.257  33.951  1.00  0.00     0.074 A 
ATOM     42  C   UNL A   1      38.349  34.243  33.890  1.00  0.00     0.031 C 
ATOM     43  C   UNL A   1      38.311  29.645  28.746  1.00  0.00     0.029 A 
ATOM     44  C   UNL A   1      39.371  29.483  29.735  1.00  0.00     0.049 A 
ATOM     45  H   UNL A   1      39.688  30.616  31.453  1.00  0.00     0.167 HD
ATOM     46  C   UNL A   1      40.350  33.218  34.918  1.00  0.00     0.031 A 
ATOM     47  C   UNL A   1      40.339  28.549  29.697  1.00  0.00     0.031 A 
ATOM     48  C   UNL A   1      41.378  32.217  34.997  1.00  0.00     0.049 A 
ATOM     49  C   UNL A   1      41.363  28.510  30.795  1.00  0.00     0.074 A 
ATOM     50  C   UNL A   1      42.344  32.048  35.974  1.00  0.00     0.029 A 
ATOM     51  N   UNL A   1      41.566  31.208  34.066  1.00  0.00    -0.354 N 
ATOM     52  N   UNL A   1      41.484  29.294  31.839  1.00  0.00    -0.248 NA
ATOM     53  C   UNL A   1      42.377  27.449  30.716  1.00  0.00     0.031 C 
ATOM     54  C   UNL A   1      43.139  30.955  35.614  1.00  0.00     0.029 A 
ATOM     55  C   UNL A   1      42.641  30.420  34.437  1.00  0.00     0.049 A 
ATOM     56  H   UNL A   1      41.017  31.073  33.261  1.00  0.00     0.167 HD
ATOM     57  C   UNL A   1      42.570  28.807  32.553  1.00  0.00     0.074 A 
ATOM     58  C   UNL A   1      43.064  27.652  31.832  1.00  0.00     0.031 C 
ATOM     59  C   UNL A   1      43.111  29.273  33.705  1.00  0.00     0.031 A 
BRANCH  46  60
ATOM     60  C   UNL A   1      40.307  34.295  35.964  1.00  0.00    -0.014 A 
ATOM     61  C   UNL A   1      41.054  35.476  35.821  1.00  0.00     0.009 A 
ATOM     62  C   UNL A   1      39.502  34.132  37.101  1.00  0.00     0.009 A 
ATOM     63  C   UNL A   1      41.028  36.453  36.817  1.00  0.00     0.001 A 
ATOM     64  C   UNL A   1      39.455  35.124  38.081  1.00  0.00     0.001 A 
ATOM     65  C   UNL A   1      40.225  36.278  37.945  1.00  0.00     0.000 A 
ENDBRANCH  46  60
BRANCH  47  66
ATOM     66  C   UNL A   1      40.372  27.554  28.594  1.00  0.00    -0.014 A 
ATOM     67  C   UNL A   1      41.091  27.825  27.419  1.00  0.00     0.009 A 
ATOM     68  C   UNL A   1      39.686  26.336  28.705  1.00  0.00     0.009 A 
ATOM     69  C   UNL A   1      41.100  26.907  26.367  1.00  0.00     0.001 A 
ATOM     70  C   UNL A   1      39.717  25.408  27.660  1.00  0.00     0.001 A 
ATOM     71  C   UNL A   1      40.417  25.698  26.491  1.00  0.00     0.000 A 
ENDBRANCH  47  66
BRANCH  59  72
ATOM     72  C   UNL A   1      44.276  28.514  34.270  1.00  0.00    -0.014 A 
ATOM     73  C   UNL A   1      44.083  27.434  35.145  1.00  0.00     0.009 A 
ATOM     74  C   UNL A   1      45.580  28.858  33.884  1.00  0.00     0.009 A 
ATOM     75  C   UNL A   1      45.180  26.731  35.645  1.00  0.00     0.001 A 
ATOM     76  C   UNL A   1      46.673  28.138  34.368  1.00  0.00     0.001 A 
ATOM     77  C   UNL A   1      46.472  27.081  35.253  1.00  0.00     0.000 A 
ENDBRANCH  59  72
ENDBRANCH  33  34
ENDBRANCH  25  28
ENDBRANCH  23  24
ENDBRANCH  22  23
ENDBRANCH  21  22
ENDBRANCH   1  21
TORSDOF 16
ENDMDL
MODEL 2
REMARK VINA RESULT:     -10.0      0.636      6.082
REMARK SMILES N#C[C@@H]1CN(C(=O)NCCCC(=O)NCCCCNC(=O)c2ccc(-c3c4nc(c(-c5ccccc5)c5ccc([nH]5)c(-c5ccccc5)c5nc(c(-c6ccccc6)c6ccc3[nH]6)C=C5)C=C4)cc2)CCO1
REMARK SMILES IDX 15 1 14 2 12 3 13 4 11 6 10 7 9 8 8 9 6 10 7 11 5 13 3 14
REMARK SMILES IDX 4 15 72 16 71 17 70 18 2 19 1 20 16 21 17 22 18 23 19 24
REMARK SMILES IDX 20 25 21 27 22 28 23 29 69 30 24 31 68 32 25 33 26 34 27 35
REMARK SMILES IDX 62 36 28 37 67 38 61 39 63 40 29 41 66 42 60 43 59 44 30 46
REMARK SMILES IDX 52 47 37 48 51 49 38 50 41 51 50 52 64 53 39 54 40 55 49 57
REMARK SMILES IDX 65 58 42 59 31 60 32 61 36 62 33 63 35 64 34 65 53 66 54 67
REMARK SMILES IDX 58 68 55 69 57 70 56 71 43 72 44 73 48 74 45 75 47 76 46 77
REMARK H PARENT 14 5 8 12 19 26 63 45 41 56
REMARK Flexibility Score: inf
ROOT
ATOM      1  C   UNL A   1      32.744  29.748  25.440  1.00  0.00     0.116 C 
ENDROOT
BRANCH   1   2
ATOM      2  N   UNL A   1      31.742  29.754  24.388  1.00  0.00    -0.356 N 
ATOM      3  C   UNL A   1      30.972  28.741  23.910  1.00  0.00     0.220 C 
ATOM      4  O   UNL A   1      30.321  28.936  22.881  1.00  0.00    -0.275 OA
ATOM      5  H   UNL A   1      31.600  30.626  23.955  1.00  0.00     0.163 HD
BRANCH   3   6
ATOM      6  C   UNL A   1      30.911  27.408  24.627  1.00  0.00     0.102 C 
BRANCH   6   7
ATOM      7  C   UNL A   1      29.973  26.402  23.953  1.00  0.00     0.031 C 
BRANCH   7   8
ATOM      8  C   UNL A   1      30.667  25.190  23.334  1.00  0.00     0.118 C 
BRANCH   8   9
ATOM      9  N   UNL A   1      31.778  25.552  22.472  1.00  0.00    -0.338 N 
ATOM     10  C   UNL A   1      33.114  25.395  22.528  1.00  0.00     0.317 C 
ATOM     11  O   UNL A   1      33.754  26.033  21.689  1.00  0.00    -0.249 OA
ATOM     12  H   UNL A   1      31.487  26.022  21.656  1.00  0.00     0.165 HD
BRANCH  10  13
ATOM     13  N   UNL A   1      33.728  24.609  23.457  1.00  0.00    -0.319 N 
ATOM     14  C   UNL A   1      34.071  24.111  25.880  1.00  0.00     0.240 C 
ATOM     15  C   UNL A   1      34.409  25.018  24.688  1.00  0.00     0.169 C 
ATOM     16  O   UNL A   1      34.305  22.725  25.551  1.00  0.00    -0.360 OA
ATOM     17  C   UNL A   1      33.518  22.309  24.422  1.00  0.00     0.183 C 
ATOM     18  C   UNL A   1      33.810  23.163  23.185  1.00  0.00     0.150 C 
BRANCH  14  19
ATOM     19  C   UNL A   1      32.643  24.337  26.350  1.00  0.00     0.096 C 
ATOM     20  N   UNL A   1      31.459  24.524  26.739  1.00  0.00    -0.195 NA
ENDBRANCH  14  19
ENDBRANCH  10  13
ENDBRANCH   8   9
ENDBRANCH   7   8
ENDBRANCH   6   7
ENDBRANCH   3   6
ENDBRANCH   1   2
BRANCH   1  21
ATOM     21  C   UNL A   1      32.132  30.218  26.756  1.00  0.00     0.023 C 
BRANCH  21  22
ATOM     22  C   UNL A   1      31.769  31.703  26.783  1.00  0.00     0.023 C 
BRANCH  22  23
ATOM     23  C   UNL A   1      32.847  32.607  27.366  1.00  0.00     0.116 C 
BRANCH  23  24
ATOM     24  N   UNL A   1      32.409  33.966  27.652  1.00  0.00    -0.352 N 
ATOM     25  C   UNL A   1      32.962  34.904  28.491  1.00  0.00     0.251 C 
ATOM     26  H   UNL A   1      31.597  34.254  27.175  1.00  0.00     0.163 HD
ATOM     27  O   UNL A   1      32.442  36.001  28.656  1.00  0.00    -0.269 OA
BRANCH  25  28
ATOM     28  C   UNL A   1      34.159  34.538  29.270  1.00  0.00     0.039 A 
ATOM     29  C   UNL A   1      33.978  33.995  30.546  1.00  0.00     0.014 A 
ATOM     30  C   UNL A   1      35.434  34.634  28.712  1.00  0.00     0.014 A 
ATOM     31  C   UNL A   1      35.074  33.475  31.233  1.00  0.00     0.010 A 
ATOM     32  C   UNL A   1      36.506  34.034  29.357  1.00  0.00     0.010 A 
ATOM     33  C   UNL A   1      36.337  33.452  30.623  1.00  0.00    -0.014 A 
BRANCH  33  34
ATOM     34  C   UNL A   1      37.507  32.839  31.291  1.00  0.00     0.031 A 
ATOM     35  C   UNL A   1      38.183  31.654  30.662  1.00  0.00     0.074 A 
ATOM     36  C   UNL A   1      37.908  33.292  32.496  1.00  0.00     0.049 A 
ATOM     37  N   UNL A   1      39.150  30.908  31.132  1.00  0.00    -0.248 NA
ATOM     38  C   UNL A   1      37.679  31.227  29.346  1.00  0.00     0.031 C 
ATOM     39  C   UNL A   1      37.304  34.405  33.232  1.00  0.00     0.029 A 
ATOM     40  N   UNL A   1      38.918  32.860  33.317  1.00  0.00    -0.354 N 
ATOM     41  C   UNL A   1      39.343  29.910  30.187  1.00  0.00     0.074 A 
ATOM     42  C   UNL A   1      38.365  30.113  29.143  1.00  0.00     0.031 C 
ATOM     43  C   UNL A   1      37.975  34.585  34.382  1.00  0.00     0.029 A 
ATOM     44  C   UNL A   1      39.027  33.580  34.481  1.00  0.00     0.049 A 
ATOM     45  H   UNL A   1      39.509  32.104  33.094  1.00  0.00     0.167 HD
ATOM     46  C   UNL A   1      40.268  28.922  30.177  1.00  0.00     0.031 A 
ATOM     47  C   UNL A   1      39.880  33.443  35.512  1.00  0.00     0.031 A 
ATOM     48  C   UNL A   1      41.263  28.741  31.198  1.00  0.00     0.049 A 
ATOM     49  C   UNL A   1      40.915  32.354  35.467  1.00  0.00     0.074 A 
ATOM     50  C   UNL A   1      42.289  27.813  31.249  1.00  0.00     0.029 A 
ATOM     51  N   UNL A   1      41.362  29.514  32.344  1.00  0.00    -0.354 N 
ATOM     52  N   UNL A   1      41.124  31.453  34.538  1.00  0.00    -0.248 NA
ATOM     53  C   UNL A   1      41.838  32.272  36.607  1.00  0.00     0.031 C 
ATOM     54  C   UNL A   1      42.987  28.003  32.445  1.00  0.00     0.029 A 
ATOM     55  C   UNL A   1      42.423  29.076  33.116  1.00  0.00     0.049 A 
ATOM     56  H   UNL A   1      40.765  30.262  32.574  1.00  0.00     0.167 HD
ATOM     57  C   UNL A   1      42.217  30.713  34.970  1.00  0.00     0.074 A 
ATOM     58  C   UNL A   1      42.635  31.280  36.235  1.00  0.00     0.031 C 
ATOM     59  C   UNL A   1      42.822  29.658  34.371  1.00  0.00     0.031 A 
BRANCH  46  60
ATOM     60  C   UNL A   1      40.238  27.965  29.020  1.00  0.00    -0.014 A 
ATOM     61  C   UNL A   1      39.530  26.753  29.097  1.00  0.00     0.009 A 
ATOM     62  C   UNL A   1      40.916  28.282  27.834  1.00  0.00     0.009 A 
ATOM     63  C   UNL A   1      39.538  25.861  28.025  1.00  0.00     0.001 A 
ATOM     64  C   UNL A   1      40.897  27.400  26.751  1.00  0.00     0.001 A 
ATOM     65  C   UNL A   1      40.219  26.186  26.851  1.00  0.00     0.000 A 
ENDBRANCH  46  60
BRANCH  47  66
ATOM     66  C   UNL A   1      39.813  34.377  36.666  1.00  0.00    -0.014 A 
ATOM     67  C   UNL A   1      40.474  35.614  36.613  1.00  0.00     0.009 A 
ATOM     68  C   UNL A   1      39.095  34.039  37.822  1.00  0.00     0.009 A 
ATOM     69  C   UNL A   1      40.439  36.483  37.705  1.00  0.00     0.001 A 
ATOM     70  C   UNL A   1      39.041  34.921  38.905  1.00  0.00     0.001 A 
ATOM     71  C   UNL A   1      39.719  36.137  38.849  1.00  0.00     0.000 A 
ENDBRANCH  47  66
BRANCH  59  72
ATOM     72  C   UNL A   1      44.018  29.074  35.063  1.00  0.00    -0.014 A 
ATOM     73  C   UNL A   1      45.311  29.560  34.815  1.00  0.00     0.009 A 
ATOM     74  C   UNL A   1      43.841  28.052  36.008  1.00  0.00     0.009 A 
ATOM     75  C   UNL A   1      46.408  29.012  35.482  1.00  0.00     0.001 A 
ATOM     76  C   UNL A   1      44.937  27.523  36.691  1.00  0.00     0.001 A 
ATOM     77  C   UNL A   1      46.220  27.999  36.421  1.00  0.00     0.000 A 
ENDBRANCH  59  72
ENDBRANCH  33  34
ENDBRANCH  25  28
ENDBRANCH  23  24
ENDBRANCH  22  23
ENDBRANCH  21  22
ENDBRANCH   1  21
TORSDOF 16
ENDMDL
MODEL 3
REMARK VINA RESULT:     -10.0      3.434      5.111
REMARK SMILES N#C[C@@H]1CN(C(=O)NCCCC(=O)NCCCCNC(=O)c2ccc(-c3c4nc(c(-c5ccccc5)c5ccc([nH]5)c(-c5ccccc5)c5nc(c(-c6ccccc6)c6ccc3[nH]6)C=C5)C=C4)cc2)CCO1
REMARK SMILES IDX 15 1 14 2 12 3 13 4 11 6 10 7 9 8 8 9 6 10 7 11 5 13 3 14
REMARK SMILES IDX 4 15 72 16 71 17 70 18 2 19 1 20 16 21 17 22 18 23 19 24
REMARK SMILES IDX 20 25 21 27 22 28 23 29 69 30 24 31 68 32 25 33 26 34 27 35
REMARK SMILES IDX 62 36 28 37 67 38 61 39 63 40 29 41 66 42 60 43 59 44 30 46
REMARK SMILES IDX 52 47 37 48 51 49 38 50 41 51 50 52 64 53 39 54 40 55 49 57
REMARK SMILES IDX 65 58 42 59 31 60 32 61 36 62 33 63 35 64 34 65 53 66 54 67
REMARK SMILES IDX 58 68 55 69 57 70 56 71 43 72 44 73 48 74 45 75 47 76 46 77
REMARK H PARENT 14 5 8 12 19 26 63 45 41 56
REMARK Flexibility Score: inf
ROOT
ATOM      1  C   UNL A   1      31.753  27.577  24.441  1.00  0.00     0.116 C 
ENDROOT
BRANCH   1   2
ATOM      2  N   UNL A   1      32.705  27.428  23.354  1.00  0.00    -0.356 N 
ATOM      3  C   UNL A   1      32.821  26.442  22.424  1.00  0.00     0.220 C 
ATOM      4  O   UNL A   1      33.824  26.428  21.708  1.00  0.00    -0.275 OA
ATOM      5  H   UNL A   1      33.367  28.152  23.279  1.00  0.00     0.163 HD
BRANCH   3   6
ATOM      6  C   UNL A   1      31.740  25.392  22.269  1.00  0.00     0.102 C 
BRANCH   6   7
ATOM      7  C   UNL A   1      32.196  23.990  22.685  1.00  0.00     0.031 C 
BRANCH   7   8
ATOM      8  C   UNL A   1      31.220  23.236  23.585  1.00  0.00     0.118 C 
BRANCH   8   9
ATOM      9  N   UNL A   1      30.660  24.067  24.637  1.00  0.00    -0.338 N 
ATOM     10  C   UNL A   1      30.990  24.331  25.915  1.00  0.00     0.317 C 
ATOM     11  O   UNL A   1      30.135  24.940  26.563  1.00  0.00    -0.249 OA
ATOM     12  H   UNL A   1      29.851  24.549  24.347  1.00  0.00     0.165 HD
BRANCH  10  13
ATOM     13  N   UNL A   1      32.170  23.938  26.472  1.00  0.00    -0.319 N 
ATOM     14  C   UNL A   1      33.657  22.030  27.095  1.00  0.00     0.240 C 
ATOM     15  C   UNL A   1      32.407  22.856  27.432  1.00  0.00     0.169 C 
ATOM     16  O   UNL A   1      34.807  22.887  26.928  1.00  0.00    -0.360 OA
ATOM     17  C   UNL A   1      34.601  23.853  25.884  1.00  0.00     0.183 C 
ATOM     18  C   UNL A   1      33.373  24.727  26.156  1.00  0.00     0.150 C 
BRANCH  14  19
ATOM     19  C   UNL A   1      33.426  21.168  25.865  1.00  0.00     0.096 C 
ATOM     20  N   UNL A   1      33.233  20.452  24.845  1.00  0.00    -0.195 NA
ENDBRANCH  14  19
ENDBRANCH  10  13
ENDBRANCH   8   9
ENDBRANCH   7   8
ENDBRANCH   6   7
ENDBRANCH   3   6
ENDBRANCH   1   2
BRANCH   1  21
ATOM     21  C   UNL A   1      32.024  28.867  25.209  1.00  0.00     0.023 C 
BRANCH  21  22
ATOM     22  C   UNL A   1      33.462  29.007  25.711  1.00  0.00     0.023 C 
BRANCH  22  23
ATOM     23  C   UNL A   1      33.606  28.988  27.227  1.00  0.00     0.116 C 
BRANCH  23  24
ATOM     24  N   UNL A   1      33.671  30.304  27.847  1.00  0.00    -0.352 N 
ATOM     25  C   UNL A   1      34.731  30.929  28.460  1.00  0.00     0.251 C 
ATOM     26  H   UNL A   1      32.833  30.821  27.823  1.00  0.00     0.163 HD
ATOM     27  O   UNL A   1      34.609  32.034  28.976  1.00  0.00    -0.269 OA
BRANCH  25  28
ATOM     28  C   UNL A   1      36.012  30.207  28.569  1.00  0.00     0.039 A 
ATOM     29  C   UNL A   1      36.904  30.278  27.495  1.00  0.00     0.014 A 
ATOM     30  C   UNL A   1      36.368  29.556  29.750  1.00  0.00     0.014 A 
ATOM     31  C   UNL A   1      38.191  29.759  27.636  1.00  0.00     0.010 A 
ATOM     32  C   UNL A   1      37.676  29.124  29.920  1.00  0.00     0.010 A 
ATOM     33  C   UNL A   1      38.598  29.219  28.866  1.00  0.00    -0.014 A 
BRANCH  33  34
ATOM     34  C   UNL A   1      39.979  28.729  29.075  1.00  0.00     0.031 A 
ATOM     35  C   UNL A   1      41.013  29.654  29.652  1.00  0.00     0.074 A 
ATOM     36  C   UNL A   1      40.322  27.490  28.673  1.00  0.00     0.049 A 
ATOM     37  N   UNL A   1      42.296  29.459  29.818  1.00  0.00    -0.248 NA
ATOM     38  C   UNL A   1      40.550  30.990  30.064  1.00  0.00     0.031 C 
ATOM     39  C   UNL A   1      39.420  26.514  28.055  1.00  0.00     0.029 A 
ATOM     40  N   UNL A   1      41.531  26.843  28.717  1.00  0.00    -0.354 N 
ATOM     41  C   UNL A   1      42.793  30.655  30.318  1.00  0.00     0.074 A 
ATOM     42  C   UNL A   1      41.689  31.584  30.384  1.00  0.00     0.031 C 
ATOM     43  C   UNL A   1      40.102  25.384  27.806  1.00  0.00     0.029 A 
ATOM     44  C   UNL A   1      41.492  25.568  28.208  1.00  0.00     0.049 A 
ATOM     45  H   UNL A   1      42.349  27.254  29.078  1.00  0.00     0.167 HD
ATOM     46  C   UNL A   1      44.056  30.948  30.709  1.00  0.00     0.031 A 
ATOM     47  C   UNL A   1      42.469  24.653  28.081  1.00  0.00     0.031 A 
ATOM     48  C   UNL A   1      45.146  30.013  30.676  1.00  0.00     0.049 A 
ATOM     49  C   UNL A   1      43.857  24.993  28.546  1.00  0.00     0.074 A 
ATOM     50  C   UNL A   1      46.448  30.189  31.112  1.00  0.00     0.029 A 
ATOM     51  N   UNL A   1      45.057  28.720  30.186  1.00  0.00    -0.354 N 
ATOM     52  N   UNL A   1      44.301  26.109  29.072  1.00  0.00    -0.248 NA
ATOM     53  C   UNL A   1      44.876  23.943  28.409  1.00  0.00     0.031 C 
ATOM     54  C   UNL A   1      47.156  29.011  30.854  1.00  0.00     0.029 A 
ATOM     55  C   UNL A   1      46.284  28.089  30.296  1.00  0.00     0.049 A 
ATOM     56  H   UNL A   1      44.243  28.310  29.814  1.00  0.00     0.167 HD
ATOM     57  C   UNL A   1      45.643  25.887  29.352  1.00  0.00     0.074 A 
ATOM     58  C   UNL A   1      45.936  24.526  28.951  1.00  0.00     0.031 C 
ATOM     59  C   UNL A   1      46.551  26.734  29.894  1.00  0.00     0.031 A 
BRANCH  46  60
ATOM     60  C   UNL A   1      44.314  32.342  31.205  1.00  0.00    -0.014 A 
ATOM     61  C   UNL A   1      44.180  32.665  32.566  1.00  0.00     0.009 A 
ATOM     62  C   UNL A   1      44.705  33.342  30.303  1.00  0.00     0.009 A 
ATOM     63  C   UNL A   1      44.393  33.972  33.006  1.00  0.00     0.001 A 
ATOM     64  C   UNL A   1      44.945  34.643  30.751  1.00  0.00     0.001 A 
ATOM     65  C   UNL A   1      44.778  34.959  32.098  1.00  0.00     0.000 A 
ENDBRANCH  46  60
BRANCH  47  66
ATOM     66  C   UNL A   1      42.167  23.313  27.513  1.00  0.00    -0.014 A 
ATOM     67  C   UNL A   1      41.512  22.346  28.292  1.00  0.00     0.009 A 
ATOM     68  C   UNL A   1      42.532  22.992  26.198  1.00  0.00     0.009 A 
ATOM     69  C   UNL A   1      41.253  21.076  27.773  1.00  0.00     0.001 A 
ATOM     70  C   UNL A   1      42.250  21.728  25.673  1.00  0.00     0.001 A 
ATOM     71  C   UNL A   1      41.618  20.770  26.463  1.00  0.00     0.000 A 
ENDBRANCH  47  66
BRANCH  59  72
ATOM     72  C   UNL A   1      47.936  26.200  30.114  1.00  0.00    -0.014 A 
ATOM     73  C   UNL A   1      48.883  26.188  29.078  1.00  0.00     0.009 A 
ATOM     74  C   UNL A   1      48.309  25.743  31.387  1.00  0.00     0.009 A 
ATOM     75  C   UNL A   1      50.171  25.702  29.309  1.00  0.00     0.001 A 
ATOM     76  C   UNL A   1      49.604  25.279  31.620  1.00  0.00     0.001 A 
ATOM     77  C   UNL A   1      50.531  25.252  30.579  1.00  0.00     0.000 A 
ENDBRANCH  59  72
ENDBRANCH  33  34
ENDBRANCH  25  28
ENDBRANCH  23  24
ENDBRANCH  22  23
ENDBRANCH  21  22
ENDBRANCH   1  21
TORSDOF 16
ENDMDL
