MODEL 1
REMARK VINA RESULT:     -10.1      0.000      0.000
REMARK SMILES O=C(COc1cccc(/C=C2\SC(=O)N(c3cccc(Cl)c3)C2=O)c1)NCCCCNC(=O)c1ccc(-c2c3nc(c(-c4ccccc4)c4ccc([nH]4)c(-c4ccccc4)c4nc(c(-c5ccccc5)c5ccc2[nH]5)C=C4)C=C3)cc1
REMARK SMILES IDX 27 1 26 2 1 3 2 4 3 6 4 7 5 8 6 9 25 10 7 11 9 12 8 13 10 14
REMARK SMILES IDX 11 15 12 16 23 17 13 18 15 19 24 20 14 21 16 22 17 23 22 24
REMARK SMILES IDX 18 25 20 26 19 27 21 28 28 29 29 30 30 31 31 32 32 33 33 35
REMARK SMILES IDX 34 36 35 37 81 38 36 39 80 40 37 41 38 42 39 43 74 44 40 45
REMARK SMILES IDX 79 46 73 47 75 48 41 49 78 50 72 51 71 52 42 54 64 55 49 56
REMARK SMILES IDX 63 57 50 58 53 59 62 60 76 61 51 62 52 63 61 65 77 66 54 67
REMARK SMILES IDX 43 68 44 69 48 70 45 71 47 72 46 73 65 74 66 75 70 76 67 77
REMARK SMILES IDX 69 78 68 79 55 80 56 81 60 82 57 83 59 84 58 85
REMARK H PARENT 26 5 31 34 75 53 53 64
REMARK Flexibility Score: inf
ROOT
ATOM      1  C   UNL A   1      33.318  35.307  30.397  1.00  0.00     0.116 C 
ENDROOT
BRANCH   1   2
ATOM      2  N   UNL A   1      33.886  34.318  31.293  1.00  0.00    -0.353 N 
ATOM      3  O   UNL A   1      34.061  35.724  33.100  1.00  0.00    -0.271 OA
ATOM      4  C   UNL A   1      34.111  34.592  32.629  1.00  0.00     0.257 C 
ATOM      5  H   UNL A   1      34.118  33.429  30.940  1.00  0.00     0.163 HD
BRANCH   4   6
ATOM      6  C   UNL A   1      34.395  33.358  33.504  1.00  0.00     0.329 C 
BRANCH   6   7
ATOM      7  O   UNL A   1      35.238  33.520  34.642  1.00  0.00    -0.484 OA
BRANCH   7   8
ATOM      8  C   UNL A   1      36.581  33.410  34.395  1.00  0.00     0.120 A 
ATOM      9  C   UNL A   1      37.291  34.578  34.125  1.00  0.00     0.046 A 
ATOM     10  C   UNL A   1      37.223  32.185  34.255  1.00  0.00     0.054 A 
ATOM     11  C   UNL A   1      38.636  34.511  33.738  1.00  0.00     0.004 A 
ATOM     12  C   UNL A   1      38.546  32.103  33.802  1.00  0.00    -0.021 A 
ATOM     13  C   UNL A   1      39.264  33.274  33.566  1.00  0.00     0.008 A 
BRANCH  12  14
ATOM     14  C   UNL A   1      39.092  30.767  33.541  1.00  0.00     0.029 C 
ATOM     15  C   UNL A   1      40.028  30.190  34.312  1.00  0.00     0.083 C 
ATOM     16  S   UNL A   1      40.627  30.753  35.821  1.00  0.00    -0.022 SA
ATOM     17  C   UNL A   1      40.741  28.949  33.905  1.00  0.00     0.272 C 
ATOM     18  C   UNL A   1      41.816  29.469  35.930  1.00  0.00     0.298 C 
ATOM     19  N   UNL A   1      41.713  28.625  34.842  1.00  0.00    -0.236 N 
ATOM     20  O   UNL A   1      40.448  28.344  32.882  1.00  0.00    -0.268 OA
ATOM     21  O   UNL A   1      42.629  29.458  36.840  1.00  0.00    -0.260 OA
BRANCH  19  22
ATOM     22  C   UNL A   1      42.567  27.492  34.689  1.00  0.00     0.054 A 
ATOM     23  C   UNL A   1      43.876  27.636  34.202  1.00  0.00     0.027 A 
ATOM     24  C   UNL A   1      42.116  26.203  35.010  1.00  0.00     0.047 A 
ATOM     25  C   UNL A   1      44.710  26.525  34.036  1.00  0.00     0.004 A 
ATOM     26  C   UNL A   1      42.939  25.093  34.808  1.00  0.00     0.043 A 
ATOM     27  C   UNL A   1      44.236  25.249  34.328  1.00  0.00     0.020 A 
ATOM     28  Cl  UNL A   1      42.333  23.514  35.126  1.00  0.00    -0.084 Cl
ENDBRANCH  19  22
ENDBRANCH  12  14
ENDBRANCH   7   8
ENDBRANCH   6   7
ENDBRANCH   4   6
ENDBRANCH   1   2
BRANCH   1  29
ATOM     29  C   UNL A   1      33.280  34.867  28.939  1.00  0.00     0.023 C 
BRANCH  29  30
ATOM     30  C   UNL A   1      34.650  34.738  28.270  1.00  0.00     0.023 C 
BRANCH  30  31
ATOM     31  C   UNL A   1      35.228  33.325  28.206  1.00  0.00     0.116 C 
BRANCH  31  32
ATOM     32  N   UNL A   1      34.220  32.299  27.994  1.00  0.00    -0.352 N 
ATOM     33  C   UNL A   1      34.354  30.930  27.957  1.00  0.00     0.251 C 
ATOM     34  H   UNL A   1      33.304  32.634  27.857  1.00  0.00     0.163 HD
ATOM     35  O   UNL A   1      33.400  30.231  27.629  1.00  0.00    -0.269 OA
BRANCH  33  36
ATOM     36  C   UNL A   1      35.658  30.295  28.259  1.00  0.00     0.039 A 
ATOM     37  C   UNL A   1      36.617  30.219  27.244  1.00  0.00     0.014 A 
ATOM     38  C   UNL A   1      35.944  29.777  29.525  1.00  0.00     0.014 A 
ATOM     39  C   UNL A   1      37.886  29.704  27.520  1.00  0.00     0.010 A 
ATOM     40  C   UNL A   1      37.233  29.329  29.818  1.00  0.00     0.010 A 
ATOM     41  C   UNL A   1      38.220  29.295  28.821  1.00  0.00    -0.014 A 
BRANCH  41  42
ATOM     42  C   UNL A   1      39.598  28.850  29.160  1.00  0.00     0.031 A 
ATOM     43  C   UNL A   1      40.548  29.778  29.868  1.00  0.00     0.074 A 
ATOM     44  C   UNL A   1      40.021  27.631  28.772  1.00  0.00     0.049 A 
ATOM     45  N   UNL A   1      41.805  29.587  30.185  1.00  0.00    -0.248 NA
ATOM     46  C   UNL A   1      40.026  31.098  30.249  1.00  0.00     0.031 C 
ATOM     47  C   UNL A   1      39.217  26.644  28.046  1.00  0.00     0.029 A 
ATOM     48  N   UNL A   1      41.239  27.015  28.929  1.00  0.00    -0.354 N 
ATOM     49  C   UNL A   1      42.225  30.766  30.786  1.00  0.00     0.074 A 
ATOM     50  C   UNL A   1      41.106  31.682  30.749  1.00  0.00     0.031 C 
ATOM     51  C   UNL A   1      39.956  25.542  27.842  1.00  0.00     0.029 A 
ATOM     52  C   UNL A   1      41.294  25.755  28.384  1.00  0.00     0.049 A 
ATOM     53  H   UNL A   1      42.001  27.437  29.387  1.00  0.00     0.167 HD
ATOM     54  C   UNL A   1      43.429  31.058  31.337  1.00  0.00     0.031 A 
ATOM     55  C   UNL A   1      42.308  24.872  28.318  1.00  0.00     0.031 A 
ATOM     56  C   UNL A   1      44.544  30.150  31.385  1.00  0.00     0.049 A 
ATOM     57  C   UNL A   1      43.638  25.223  28.923  1.00  0.00     0.074 A 
ATOM     58  C   UNL A   1      45.785  30.340  31.968  1.00  0.00     0.029 A 
ATOM     59  N   UNL A   1      44.554  28.880  30.829  1.00  0.00    -0.354 N 
ATOM     60  N   UNL A   1      43.999  26.321  29.541  1.00  0.00    -0.248 NA
ATOM     61  C   UNL A   1      44.697  24.209  28.828  1.00  0.00     0.031 C 
ATOM     62  C   UNL A   1      46.563  29.203  31.724  1.00  0.00     0.029 A 
ATOM     63  C   UNL A   1      45.788  28.284  31.036  1.00  0.00     0.049 A 
ATOM     64  H   UNL A   1      43.797  28.465  30.357  1.00  0.00     0.167 HD
ATOM     65  C   UNL A   1      45.316  26.119  29.931  1.00  0.00     0.074 A 
ATOM     66  C   UNL A   1      45.686  24.789  29.494  1.00  0.00     0.031 C 
ATOM     67  C   UNL A   1      46.145  26.962  30.595  1.00  0.00     0.031 A 
BRANCH  54  68
ATOM     68  C   UNL A   1      43.603  32.430  31.927  1.00  0.00    -0.014 A 
ATOM     69  C   UNL A   1      44.134  33.485  31.168  1.00  0.00     0.009 A 
ATOM     70  C   UNL A   1      43.198  32.679  33.248  1.00  0.00     0.009 A 
ATOM     71  C   UNL A   1      44.293  34.752  31.733  1.00  0.00     0.001 A 
ATOM     72  C   UNL A   1      43.331  33.954  33.801  1.00  0.00     0.001 A 
ATOM     73  C   UNL A   1      43.887  34.987  33.047  1.00  0.00     0.000 A 
ENDBRANCH  54  68
BRANCH  55  74
ATOM     74  C   UNL A   1      42.104  23.554  27.660  1.00  0.00    -0.014 A 
ATOM     75  C   UNL A   1      42.443  23.373  26.310  1.00  0.00     0.009 A 
ATOM     76  C   UNL A   1      41.564  22.474  28.376  1.00  0.00     0.009 A 
ATOM     77  C   UNL A   1      42.222  22.144  25.684  1.00  0.00     0.001 A 
ATOM     78  C   UNL A   1      41.371  21.239  27.754  1.00  0.00     0.001 A 
ATOM     79  C   UNL A   1      41.691  21.078  26.408  1.00  0.00     0.000 A 
ENDBRANCH  55  74
BRANCH  67  80
ATOM     80  C   UNL A   1      47.522  26.458  30.918  1.00  0.00    -0.014 A 
ATOM     81  C   UNL A   1      47.824  25.920  32.179  1.00  0.00     0.009 A 
ATOM     82  C   UNL A   1      48.522  26.486  29.933  1.00  0.00     0.009 A 
ATOM     83  C   UNL A   1      49.110  25.451  32.455  1.00  0.00     0.001 A 
ATOM     84  C   UNL A   1      49.798  25.992  30.204  1.00  0.00     0.001 A 
ATOM     85  C   UNL A   1      50.094  25.482  31.467  1.00  0.00     0.000 A 
ENDBRANCH  67  80
ENDBRANCH  41  42
ENDBRANCH  33  36
ENDBRANCH  31  32
ENDBRANCH  30  31
ENDBRANCH  29  30
ENDBRANCH   1  29
TORSDOF 15
ENDMDL
MODEL 2
REMARK VINA RESULT:      -9.8      5.257      8.523
REMARK SMILES O=C(COc1cccc(/C=C2\SC(=O)N(c3cccc(Cl)c3)C2=O)c1)NCCCCNC(=O)c1ccc(-c2c3nc(c(-c4ccccc4)c4ccc([nH]4)c(-c4ccccc4)c4nc(c(-c5ccccc5)c5ccc2[nH]5)C=C4)C=C3)cc1
REMARK SMILES IDX 27 1 26 2 1 3 2 4 3 6 4 7 5 8 6 9 25 10 7 11 9 12 8 13 10 14
REMARK SMILES IDX 11 15 12 16 23 17 13 18 15 19 24 20 14 21 16 22 17 23 22 24
REMARK SMILES IDX 18 25 20 26 19 27 21 28 28 29 29 30 30 31 31 32 32 33 33 35
REMARK SMILES IDX 34 36 35 37 81 38 36 39 80 40 37 41 38 42 39 43 74 44 40 45
REMARK SMILES IDX 79 46 73 47 75 48 41 49 78 50 72 51 71 52 42 54 64 55 49 56
REMARK SMILES IDX 63 57 50 58 53 59 62 60 76 61 51 62 52 63 61 65 77 66 54 67
REMARK SMILES IDX 43 68 44 69 48 70 45 71 47 72 46 73 65 74 66 75 70 76 67 77
REMARK SMILES IDX 69 78 68 79 55 80 56 81 60 82 57 83 59 84 58 85
REMARK H PARENT 26 5 31 34 75 53 53 64
REMARK Flexibility Score: inf
ROOT
ATOM      1  C   UNL A   1      34.539  32.385  28.365  1.00  0.00     0.116 C 
ENDROOT
BRANCH   1   2
ATOM      2  N   UNL A   1      33.378  31.900  27.645  1.00  0.00    -0.353 N 
ATOM      3  O   UNL A   1      34.231  29.811  27.223  1.00  0.00    -0.271 OA
ATOM      4  C   UNL A   1      33.281  30.588  27.222  1.00  0.00     0.257 C 
ATOM      5  H   UNL A   1      32.640  32.522  27.451  1.00  0.00     0.163 HD
BRANCH   4   6
ATOM      6  C   UNL A   1      31.873  30.153  26.779  1.00  0.00     0.329 C 
BRANCH   6   7
ATOM      7  O   UNL A   1      31.434  30.521  25.474  1.00  0.00    -0.484 OA
BRANCH   7   8
ATOM      8  C   UNL A   1      30.985  29.488  24.695  1.00  0.00     0.120 A 
ATOM      9  C   UNL A   1      30.129  29.793  23.638  1.00  0.00     0.046 A 
ATOM     10  C   UNL A   1      31.222  28.153  25.005  1.00  0.00     0.054 A 
ATOM     11  C   UNL A   1      29.537  28.765  22.892  1.00  0.00     0.004 A 
ATOM     12  C   UNL A   1      30.582  27.119  24.310  1.00  0.00    -0.021 A 
ATOM     13  C   UNL A   1      29.754  27.426  23.232  1.00  0.00     0.008 A 
BRANCH  12  14
ATOM     14  C   UNL A   1      30.775  25.751  24.801  1.00  0.00     0.029 C 
ATOM     15  C   UNL A   1      31.721  24.924  24.327  1.00  0.00     0.083 C 
ATOM     16  S   UNL A   1      32.995  25.312  23.242  1.00  0.00    -0.022 SA
ATOM     17  C   UNL A   1      31.752  23.474  24.660  1.00  0.00     0.272 C 
ATOM     18  C   UNL A   1      33.545  23.650  23.150  1.00  0.00     0.298 C 
ATOM     19  N   UNL A   1      32.777  22.845  23.967  1.00  0.00    -0.236 N 
ATOM     20  O   UNL A   1      30.963  22.979  25.454  1.00  0.00    -0.268 OA
ATOM     21  O   UNL A   1      34.440  23.338  22.381  1.00  0.00    -0.260 OA
BRANCH  19  22
ATOM     22  C   UNL A   1      33.019  21.443  24.078  1.00  0.00     0.054 A 
ATOM     23  C   UNL A   1      33.885  20.936  25.061  1.00  0.00     0.027 A 
ATOM     24  C   UNL A   1      32.408  20.535  23.200  1.00  0.00     0.047 A 
ATOM     25  C   UNL A   1      34.136  19.563  25.163  1.00  0.00     0.004 A 
ATOM     26  C   UNL A   1      32.691  19.170  23.282  1.00  0.00     0.043 A 
ATOM     27  C   UNL A   1      33.547  18.680  24.263  1.00  0.00     0.020 A 
ATOM     28  Cl  UNL A   1      31.999  18.086  22.138  1.00  0.00    -0.084 Cl
ENDBRANCH  19  22
ENDBRANCH  12  14
ENDBRANCH   7   8
ENDBRANCH   6   7
ENDBRANCH   4   6
ENDBRANCH   1   2
BRANCH   1  29
ATOM     29  C   UNL A   1      34.398  33.817  28.867  1.00  0.00     0.023 C 
BRANCH  29  30
ATOM     30  C   UNL A   1      34.435  33.972  30.388  1.00  0.00     0.023 C 
BRANCH  30  31
ATOM     31  C   UNL A   1      34.502  32.673  31.188  1.00  0.00     0.116 C 
BRANCH  31  32
ATOM     32  N   UNL A   1      34.960  32.861  32.554  1.00  0.00    -0.352 N 
ATOM     33  C   UNL A   1      36.121  32.437  33.159  1.00  0.00     0.251 C 
ATOM     34  H   UNL A   1      34.347  33.367  33.136  1.00  0.00     0.163 HD
ATOM     35  O   UNL A   1      36.268  32.579  34.370  1.00  0.00    -0.269 OA
BRANCH  33  36
ATOM     36  C   UNL A   1      37.177  31.762  32.368  1.00  0.00     0.039 A 
ATOM     37  C   UNL A   1      37.247  32.014  30.993  1.00  0.00     0.014 A 
ATOM     38  C   UNL A   1      38.093  30.890  32.962  1.00  0.00     0.014 A 
ATOM     39  C   UNL A   1      38.282  31.460  30.234  1.00  0.00     0.010 A 
ATOM     40  C   UNL A   1      39.166  30.397  32.219  1.00  0.00     0.010 A 
ATOM     41  C   UNL A   1      39.276  30.683  30.849  1.00  0.00    -0.014 A 
BRANCH  41  42
ATOM     42  C   UNL A   1      40.446  30.180  30.080  1.00  0.00     0.031 A 
ATOM     43  C   UNL A   1      41.631  31.071  29.822  1.00  0.00     0.074 A 
ATOM     44  C   UNL A   1      40.418  28.940  29.556  1.00  0.00     0.049 A 
ATOM     45  N   UNL A   1      42.709  30.827  29.118  1.00  0.00    -0.248 NA
ATOM     46  C   UNL A   1      41.590  32.417  30.412  1.00  0.00     0.031 C 
ATOM     47  C   UNL A   1      39.317  27.982  29.696  1.00  0.00     0.029 A 
ATOM     48  N   UNL A   1      41.342  28.271  28.789  1.00  0.00    -0.354 N 
ATOM     49  C   UNL A   1      43.463  31.992  29.168  1.00  0.00     0.074 A 
ATOM     50  C   UNL A   1      42.701  32.957  29.931  1.00  0.00     0.031 C 
ATOM     51  C   UNL A   1      39.640  26.846  29.057  1.00  0.00     0.029 A 
ATOM     52  C   UNL A   1      40.947  27.004  28.431  1.00  0.00     0.049 A 
ATOM     53  H   UNL A   1      42.203  28.663  28.521  1.00  0.00     0.167 HD
ATOM     54  C   UNL A   1      44.688  32.235  28.642  1.00  0.00     0.031 A 
ATOM     55  C   UNL A   1      41.563  26.076  27.674  1.00  0.00     0.031 A 
ATOM     56  C   UNL A   1      45.456  31.279  27.890  1.00  0.00     0.049 A 
ATOM     57  C   UNL A   1      42.915  26.374  27.089  1.00  0.00     0.074 A 
ATOM     58  C   UNL A   1      46.728  31.419  27.362  1.00  0.00     0.029 A 
ATOM     59  N   UNL A   1      45.024  30.005  27.557  1.00  0.00    -0.354 N 
ATOM     60  N   UNL A   1      43.640  27.461  27.197  1.00  0.00    -0.248 NA
ATOM     61  C   UNL A   1      43.537  25.312  26.286  1.00  0.00     0.031 C 
ATOM     62  C   UNL A   1      47.047  30.246  26.670  1.00  0.00     0.029 A 
ATOM     63  C   UNL A   1      45.995  29.356  26.812  1.00  0.00     0.049 A 
ATOM     64  H   UNL A   1      44.155  29.619  27.812  1.00  0.00     0.167 HD
ATOM     65  C   UNL A   1      44.812  27.204  26.499  1.00  0.00     0.074 A 
ATOM     66  C   UNL A   1      44.709  25.854  25.984  1.00  0.00     0.031 C 
ATOM     67  C   UNL A   1      45.880  28.014  26.304  1.00  0.00     0.031 A 
BRANCH  54  68
ATOM     68  C   UNL A   1      45.273  33.604  28.859  1.00  0.00    -0.014 A 
ATOM     69  C   UNL A   1      45.046  34.643  27.942  1.00  0.00     0.009 A 
ATOM     70  C   UNL A   1      46.030  33.867  30.010  1.00  0.00     0.009 A 
ATOM     71  C   UNL A   1      45.599  35.907  28.156  1.00  0.00     0.001 A 
ATOM     72  C   UNL A   1      46.558  35.139  30.236  1.00  0.00     0.001 A 
ATOM     73  C   UNL A   1      46.351  36.155  29.304  1.00  0.00     0.000 A 
ENDBRANCH  54  68
BRANCH  55  74
ATOM     74  C   UNL A   1      40.910  24.763  27.433  1.00  0.00    -0.014 A 
ATOM     75  C   UNL A   1      41.384  23.605  28.069  1.00  0.00     0.009 A 
ATOM     76  C   UNL A   1      39.815  24.659  26.561  1.00  0.00     0.009 A 
ATOM     77  C   UNL A   1      40.790  22.366  27.818  1.00  0.00     0.001 A 
ATOM     78  C   UNL A   1      39.206  23.423  26.333  1.00  0.00     0.001 A 
ATOM     79  C   UNL A   1      39.700  22.277  26.954  1.00  0.00     0.000 A 
ENDBRANCH  55  74
BRANCH  67  80
ATOM     80  C   UNL A   1      47.037  27.452  25.527  1.00  0.00    -0.014 A 
ATOM     81  C   UNL A   1      47.170  27.682  24.149  1.00  0.00     0.009 A 
ATOM     82  C   UNL A   1      48.028  26.714  26.193  1.00  0.00     0.009 A 
ATOM     83  C   UNL A   1      48.258  27.156  23.449  1.00  0.00     0.001 A 
ATOM     84  C   UNL A   1      49.127  26.213  25.496  1.00  0.00     0.001 A 
ATOM     85  C   UNL A   1      49.237  26.426  24.123  1.00  0.00     0.000 A 
ENDBRANCH  67  80
ENDBRANCH  41  42
ENDBRANCH  33  36
ENDBRANCH  31  32
ENDBRANCH  30  31
ENDBRANCH  29  30
ENDBRANCH   1  29
TORSDOF 15
ENDMDL
MODEL 3
REMARK VINA RESULT:      -9.7      5.090      9.281
REMARK SMILES O=C(COc1cccc(/C=C2\SC(=O)N(c3cccc(Cl)c3)C2=O)c1)NCCCCNC(=O)c1ccc(-c2c3nc(c(-c4ccccc4)c4ccc([nH]4)c(-c4ccccc4)c4nc(c(-c5ccccc5)c5ccc2[nH]5)C=C4)C=C3)cc1
REMARK SMILES IDX 27 1 26 2 1 3 2 4 3 6 4 7 5 8 6 9 25 10 7 11 9 12 8 13 10 14
REMARK SMILES IDX 11 15 12 16 23 17 13 18 15 19 24 20 14 21 16 22 17 23 22 24
REMARK SMILES IDX 18 25 20 26 19 27 21 28 28 29 29 30 30 31 31 32 32 33 33 35
REMARK SMILES IDX 34 36 35 37 81 38 36 39 80 40 37 41 38 42 39 43 74 44 40 45
REMARK SMILES IDX 79 46 73 47 75 48 41 49 78 50 72 51 71 52 42 54 64 55 49 56
REMARK SMILES IDX 63 57 50 58 53 59 62 60 76 61 51 62 52 63 61 65 77 66 54 67
REMARK SMILES IDX 43 68 44 69 48 70 45 71 47 72 46 73 65 74 66 75 70 76 67 77
REMARK SMILES IDX 69 78 68 79 55 80 56 81 60 82 57 83 59 84 58 85
REMARK H PARENT 26 5 31 34 75 53 53 64
REMARK Flexibility Score: inf
ROOT
ATOM      1  C   UNL A   1      35.085  33.041  28.943  1.00  0.00     0.116 C 
ENDROOT
BRANCH   1   2
ATOM      2  N   UNL A   1      34.465  32.018  28.123  1.00  0.00    -0.353 N 
ATOM      3  O   UNL A   1      36.392  30.825  27.754  1.00  0.00    -0.271 OA
ATOM      4  C   UNL A   1      35.170  30.915  27.681  1.00  0.00     0.257 C 
ATOM      5  H   UNL A   1      33.517  32.113  27.873  1.00  0.00     0.163 HD
BRANCH   4   6
ATOM      6  C   UNL A   1      34.303  29.775  27.118  1.00  0.00     0.329 C 
BRANCH   6   7
ATOM      7  O   UNL A   1      32.888  29.952  27.100  1.00  0.00    -0.484 OA
BRANCH   7   8
ATOM      8  C   UNL A   1      32.226  29.276  26.110  1.00  0.00     0.120 A 
ATOM      9  C   UNL A   1      31.498  30.021  25.185  1.00  0.00     0.046 A 
ATOM     10  C   UNL A   1      32.129  27.888  26.081  1.00  0.00     0.054 A 
ATOM     11  C   UNL A   1      30.699  29.377  24.233  1.00  0.00     0.004 A 
ATOM     12  C   UNL A   1      31.280  27.237  25.178  1.00  0.00    -0.021 A 
ATOM     13  C   UNL A   1      30.580  27.983  24.233  1.00  0.00     0.008 A 
BRANCH  12  14
ATOM     14  C   UNL A   1      31.126  25.785  25.319  1.00  0.00     0.029 C 
ATOM     15  C   UNL A   1      31.926  24.897  24.706  1.00  0.00     0.083 C 
ATOM     16  S   UNL A   1      33.365  25.223  23.827  1.00  0.00    -0.022 SA
ATOM     17  C   UNL A   1      31.615  23.441  24.664  1.00  0.00     0.272 C 
ATOM     18  C   UNL A   1      33.562  23.547  23.350  1.00  0.00     0.298 C 
ATOM     19  N   UNL A   1      32.556  22.773  23.894  1.00  0.00    -0.236 N 
ATOM     20  O   UNL A   1      30.657  22.970  25.262  1.00  0.00    -0.268 OA
ATOM     21  O   UNL A   1      34.452  23.226  22.580  1.00  0.00    -0.260 OA
BRANCH  19  22
ATOM     22  C   UNL A   1      32.486  21.366  23.662  1.00  0.00     0.054 A 
ATOM     23  C   UNL A   1      32.167  20.859  22.392  1.00  0.00     0.027 A 
ATOM     24  C   UNL A   1      32.721  20.454  24.702  1.00  0.00     0.047 A 
ATOM     25  C   UNL A   1      32.082  19.481  22.166  1.00  0.00     0.004 A 
ATOM     26  C   UNL A   1      32.599  19.080  24.480  1.00  0.00     0.043 A 
ATOM     27  C   UNL A   1      32.287  18.590  23.216  1.00  0.00     0.020 A 
ATOM     28  Cl  UNL A   1      32.806  17.984  25.791  1.00  0.00    -0.084 Cl
ENDBRANCH  19  22
ENDBRANCH  12  14
ENDBRANCH   7   8
ENDBRANCH   6   7
ENDBRANCH   4   6
ENDBRANCH   1   2
BRANCH   1  29
ATOM     29  C   UNL A   1      35.094  34.423  28.301  1.00  0.00     0.023 C 
BRANCH  29  30
ATOM     30  C   UNL A   1      34.075  35.407  28.878  1.00  0.00     0.023 C 
BRANCH  30  31
ATOM     31  C   UNL A   1      32.937  34.788  29.687  1.00  0.00     0.116 C 
BRANCH  31  32
ATOM     32  N   UNL A   1      32.434  35.660  30.735  1.00  0.00    -0.352 N 
ATOM     33  C   UNL A   1      32.861  35.811  32.034  1.00  0.00     0.251 C 
ATOM     34  H   UNL A   1      31.672  36.229  30.476  1.00  0.00     0.163 HD
ATOM     35  O   UNL A   1      32.217  36.508  32.813  1.00  0.00    -0.269 OA
BRANCH  33  36
ATOM     36  C   UNL A   1      34.067  35.097  32.515  1.00  0.00     0.039 A 
ATOM     37  C   UNL A   1      33.919  33.803  33.026  1.00  0.00     0.014 A 
ATOM     38  C   UNL A   1      35.334  35.685  32.468  1.00  0.00     0.014 A 
ATOM     39  C   UNL A   1      35.046  33.071  33.408  1.00  0.00     0.010 A 
ATOM     40  C   UNL A   1      36.463  34.928  32.783  1.00  0.00     0.010 A 
ATOM     41  C   UNL A   1      36.332  33.611  33.248  1.00  0.00    -0.014 A 
BRANCH  41  42
ATOM     42  C   UNL A   1      37.548  32.805  33.543  1.00  0.00     0.031 A 
ATOM     43  C   UNL A   1      38.326  33.032  34.811  1.00  0.00     0.074 A 
ATOM     44  C   UNL A   1      37.992  31.911  32.639  1.00  0.00     0.049 A 
ATOM     45  N   UNL A   1      39.443  32.472  35.204  1.00  0.00    -0.248 NA
ATOM     46  C   UNL A   1      37.793  34.032  35.746  1.00  0.00     0.031 C 
ATOM     47  C   UNL A   1      37.356  31.616  31.352  1.00  0.00     0.029 A 
ATOM     48  N   UNL A   1      39.092  31.088  32.661  1.00  0.00    -0.354 N 
ATOM     49  C   UNL A   1      39.752  33.063  36.422  1.00  0.00     0.074 A 
ATOM     50  C   UNL A   1      38.732  34.056  36.681  1.00  0.00     0.031 C 
ATOM     51  C   UNL A   1      38.063  30.665  30.720  1.00  0.00     0.029 A 
ATOM     52  C   UNL A   1      39.220  30.310  31.534  1.00  0.00     0.049 A 
ATOM     53  H   UNL A   1      39.727  31.058  33.411  1.00  0.00     0.167 HD
ATOM     54  C   UNL A   1      40.783  32.794  37.260  1.00  0.00     0.031 A 
ATOM     55  C   UNL A   1      40.167  29.418  31.189  1.00  0.00     0.031 A 
ATOM     56  C   UNL A   1      41.796  31.803  37.014  1.00  0.00     0.049 A 
ATOM     57  C   UNL A   1      41.308  29.147  32.129  1.00  0.00     0.074 A 
ATOM     58  C   UNL A   1      42.849  31.425  37.830  1.00  0.00     0.029 A 
ATOM     59  N   UNL A   1      41.884  31.032  35.866  1.00  0.00    -0.354 N 
ATOM     60  N   UNL A   1      41.553  29.673  33.305  1.00  0.00    -0.248 NA
ATOM     61  C   UNL A   1      42.300  28.151  31.697  1.00  0.00     0.031 C 
ATOM     62  C   UNL A   1      43.601  30.458  37.156  1.00  0.00     0.029 A 
ATOM     63  C   UNL A   1      42.987  30.196  35.942  1.00  0.00     0.049 A 
ATOM     64  H   UNL A   1      41.257  31.073  35.109  1.00  0.00     0.167 HD
ATOM     65  C   UNL A   1      42.708  29.054  33.763  1.00  0.00     0.074 A 
ATOM     66  C   UNL A   1      43.108  28.103  32.747  1.00  0.00     0.031 C 
ATOM     67  C   UNL A   1      43.376  29.256  34.924  1.00  0.00     0.031 A 
BRANCH  54  68
ATOM     68  C   UNL A   1      40.868  33.598  38.529  1.00  0.00    -0.014 A 
ATOM     69  C   UNL A   1      40.247  33.158  39.709  1.00  0.00     0.009 A 
ATOM     70  C   UNL A   1      41.605  34.792  38.552  1.00  0.00     0.009 A 
ATOM     71  C   UNL A   1      40.332  33.918  40.877  1.00  0.00     0.001 A 
ATOM     72  C   UNL A   1      41.712  35.535  39.729  1.00  0.00     0.001 A 
ATOM     73  C   UNL A   1      41.068  35.103  40.888  1.00  0.00     0.000 A 
ENDBRANCH  54  68
BRANCH  55  74
ATOM     74  C   UNL A   1      40.074  28.700  29.891  1.00  0.00    -0.014 A 
ATOM     75  C   UNL A   1      39.432  27.454  29.812  1.00  0.00     0.009 A 
ATOM     76  C   UNL A   1      40.631  29.253  28.728  1.00  0.00     0.009 A 
ATOM     77  C   UNL A   1      39.372  26.765  28.598  1.00  0.00     0.001 A 
ATOM     78  C   UNL A   1      40.544  28.574  27.510  1.00  0.00     0.001 A 
ATOM     79  C   UNL A   1      39.923  27.328  27.449  1.00  0.00     0.000 A 
ENDBRANCH  55  74
BRANCH  67  80
ATOM     80  C   UNL A   1      44.591  28.409  35.174  1.00  0.00    -0.014 A 
ATOM     81  C   UNL A   1      45.872  28.842  34.796  1.00  0.00     0.009 A 
ATOM     82  C   UNL A   1      44.457  27.176  35.831  1.00  0.00     0.009 A 
ATOM     83  C   UNL A   1      46.989  28.042  35.044  1.00  0.00     0.001 A 
ATOM     84  C   UNL A   1      45.577  26.391  36.102  1.00  0.00     0.001 A 
ATOM     85  C   UNL A   1      46.842  26.820  35.700  1.00  0.00     0.000 A 
ENDBRANCH  67  80
ENDBRANCH  41  42
ENDBRANCH  33  36
ENDBRANCH  31  32
ENDBRANCH  30  31
ENDBRANCH  29  30
ENDBRANCH   1  29
TORSDOF 15
ENDMDL
