MODEL 1
REMARK VINA RESULT:     -11.8      0.000      0.000
REMARK SMILES C=CCN1C(=O)/C(=C/c2ccccn2)S/C1=[NH+]\c1ccc(C(=O)NCCCCNC(=O)c2ccc(-c3c4nc(c(-c5ccccc5)c5ccc([nH]5)c(-c5ccccc5)c5nc(c(-c6ccccc6)c6ccc3[nH]6)C=C5)C=C4)cc2)cc1
REMARK SMILES IDX 26 1 25 2 24 3 22 4 23 5 21 7 18 8 19 9 81 10 20 11 80 12
REMARK SMILES IDX 17 13 4 14 5 15 16 16 6 17 7 18 15 19 8 20 3 22 2 23 1 24
REMARK SMILES IDX 9 25 10 26 14 27 11 28 13 29 12 30 27 31 28 32 29 33 30 34
REMARK SMILES IDX 31 36 32 37 33 38 79 39 34 40 78 41 35 42 36 43 37 44 72 45
REMARK SMILES IDX 38 46 77 47 71 48 73 49 39 50 76 51 70 52 69 53 40 55 62 56
REMARK SMILES IDX 47 57 61 58 48 59 51 60 60 61 74 62 49 63 50 64 59 66 75 67
REMARK SMILES IDX 52 68 41 69 42 70 46 71 43 72 45 73 44 74 63 75 64 76 68 77
REMARK SMILES IDX 65 78 67 79 66 80 53 81 54 82 58 83 55 84 57 85 56 86
REMARK H PARENT 24 6 17 21 29 35 73 54 51 65
REMARK Flexibility Score: inf
ROOT
ATOM      1  C   UNL A   1      32.542  35.506  28.658  1.00  0.00     0.023 C 
ENDROOT
BRANCH   1   2
ATOM      2  C   UNL A   1      32.939  34.085  28.253  1.00  0.00     0.116 C 
BRANCH   2   3
ATOM      3  N   UNL A   1      34.381  33.939  28.262  1.00  0.00    -0.352 N 
ATOM      4  C   UNL A   1      35.191  32.855  28.028  1.00  0.00     0.251 C 
ATOM      5  O   UNL A   1      36.409  33.031  28.068  1.00  0.00    -0.269 OA
ATOM      6  H   UNL A   1      34.869  34.767  28.475  1.00  0.00     0.163 HD
BRANCH   4   7
ATOM      7  C   UNL A   1      34.662  31.508  27.674  1.00  0.00     0.040 A 
ATOM      8  C   UNL A   1      33.836  28.922  26.912  1.00  0.00     0.125 A 
ATOM      9  C   UNL A   1      35.167  29.161  27.253  1.00  0.00     0.052 A 
ATOM     10  C   UNL A   1      32.910  29.959  27.039  1.00  0.00     0.052 A 
ATOM     11  C   UNL A   1      35.578  30.447  27.626  1.00  0.00     0.018 A 
ATOM     12  C   UNL A   1      33.315  31.236  27.430  1.00  0.00     0.018 A 
BRANCH   8  13
ATOM     13  N   UNL A   1      33.413  27.645  26.529  1.00  0.00    -0.234 N 
ATOM     14  N   UNL A   1      31.920  26.278  25.366  1.00  0.00    -0.182 N 
ATOM     15  C   UNL A   1      30.827  26.265  24.526  1.00  0.00     0.349 C 
ATOM     16  C   UNL A   1      32.450  27.504  25.678  1.00  0.00     0.324 C 
ATOM     17  O   UNL A   1      30.217  25.276  24.139  1.00  0.00    -0.240 OA
ATOM     18  C   UNL A   1      30.487  27.652  24.113  1.00  0.00     0.111 C 
ATOM     19  S   UNL A   1      31.618  28.759  24.786  1.00  0.00     0.007 SA
ATOM     20  C   UNL A   1      29.426  27.931  23.346  1.00  0.00     0.052 C 
ATOM     21  H   UNL A   1      33.851  26.850  26.910  1.00  0.00     0.313 HD
BRANCH  14  22
ATOM     22  C   UNL A   1      32.455  25.045  25.909  1.00  0.00     0.275 C 
BRANCH  22  23
ATOM     23  C   UNL A   1      33.605  24.587  25.058  1.00  0.00     0.011 C 
ATOM     24  C   UNL A   1      34.805  24.237  25.541  1.00  0.00     0.008 C 
ENDBRANCH  22  23
ENDBRANCH  14  22
BRANCH  20  25
ATOM     25  C   UNL A   1      29.052  29.260  22.865  1.00  0.00     0.064 A 
ATOM     26  C   UNL A   1      28.178  30.071  23.584  1.00  0.00     0.028 A 
ATOM     27  N   UNL A   1      29.640  29.653  21.715  1.00  0.00    -0.257 NA
ATOM     28  C   UNL A   1      27.861  31.328  23.079  1.00  0.00     0.004 A 
ATOM     29  C   UNL A   1      29.312  30.878  21.246  1.00  0.00     0.111 A 
ATOM     30  C   UNL A   1      28.433  31.740  21.883  1.00  0.00     0.020 A 
ENDBRANCH  20  25
ENDBRANCH   8  13
ENDBRANCH   4   7
ENDBRANCH   2   3
ENDBRANCH   1   2
BRANCH   1  31
ATOM     31  C   UNL A   1      33.725  36.402  29.035  1.00  0.00     0.023 C 
BRANCH  31  32
ATOM     32  C   UNL A   1      33.644  37.014  30.428  1.00  0.00     0.116 C 
BRANCH  32  33
ATOM     33  N   UNL A   1      32.493  36.552  31.189  1.00  0.00    -0.352 N 
ATOM     34  C   UNL A   1      32.435  35.558  32.135  1.00  0.00     0.251 C 
ATOM     35  H   UNL A   1      31.644  37.013  31.002  1.00  0.00     0.163 HD
ATOM     36  O   UNL A   1      31.358  35.203  32.600  1.00  0.00    -0.269 OA
BRANCH  34  37
ATOM     37  C   UNL A   1      33.683  34.894  32.560  1.00  0.00     0.039 A 
ATOM     38  C   UNL A   1      33.633  33.554  32.948  1.00  0.00     0.014 A 
ATOM     39  C   UNL A   1      34.899  35.582  32.546  1.00  0.00     0.014 A 
ATOM     40  C   UNL A   1      34.815  32.886  33.265  1.00  0.00     0.010 A 
ATOM     41  C   UNL A   1      36.084  34.893  32.784  1.00  0.00     0.010 A 
ATOM     42  C   UNL A   1      36.054  33.540  33.151  1.00  0.00    -0.014 A 
BRANCH  42  43
ATOM     43  C   UNL A   1      37.324  32.819  33.411  1.00  0.00     0.031 A 
ATOM     44  C   UNL A   1      38.093  33.072  34.677  1.00  0.00     0.074 A 
ATOM     45  C   UNL A   1      37.807  31.967  32.485  1.00  0.00     0.049 A 
ATOM     46  N   UNL A   1      39.227  32.549  35.072  1.00  0.00    -0.248 NA
ATOM     47  C   UNL A   1      37.531  34.060  35.613  1.00  0.00     0.031 C 
ATOM     48  C   UNL A   1      37.175  31.668  31.197  1.00  0.00     0.029 A 
ATOM     49  N   UNL A   1      38.940  31.195  32.486  1.00  0.00    -0.354 N 
ATOM     50  C   UNL A   1      39.514  33.148  36.292  1.00  0.00     0.074 A 
ATOM     51  C   UNL A   1      38.472  34.117  36.543  1.00  0.00     0.031 C 
ATOM     52  C   UNL A   1      37.910  30.747  30.553  1.00  0.00     0.029 A 
ATOM     53  C   UNL A   1      39.083  30.424  31.359  1.00  0.00     0.049 A 
ATOM     54  H   UNL A   1      39.590  31.194  33.226  1.00  0.00     0.167 HD
ATOM     55  C   UNL A   1      40.541  32.898  37.139  1.00  0.00     0.031 A 
ATOM     56  C   UNL A   1      40.050  29.555  31.010  1.00  0.00     0.031 A 
ATOM     57  C   UNL A   1      41.578  31.934  36.889  1.00  0.00     0.049 A 
ATOM     58  C   UNL A   1      41.194  29.317  31.957  1.00  0.00     0.074 A 
ATOM     59  C   UNL A   1      42.636  31.572  37.705  1.00  0.00     0.029 A 
ATOM     60  N   UNL A   1      41.692  31.181  35.729  1.00  0.00    -0.354 N 
ATOM     61  N   UNL A   1      41.413  29.838  33.140  1.00  0.00    -0.248 NA
ATOM     62  C   UNL A   1      42.219  28.357  31.523  1.00  0.00     0.031 C 
ATOM     63  C   UNL A   1      43.424  30.647  37.015  1.00  0.00     0.029 A 
ATOM     64  C   UNL A   1      42.819  30.377  35.798  1.00  0.00     0.049 A 
ATOM     65  H   UNL A   1      41.066  31.213  34.971  1.00  0.00     0.167 HD
ATOM     66  C   UNL A   1      42.581  29.246  33.604  1.00  0.00     0.074 A 
ATOM     67  C   UNL A   1      43.012  28.313  32.584  1.00  0.00     0.031 C 
ATOM     68  C   UNL A   1      43.237  29.456  34.773  1.00  0.00     0.031 A 
BRANCH  55  69
ATOM     69  C   UNL A   1      40.591  33.690  38.417  1.00  0.00    -0.014 A 
ATOM     70  C   UNL A   1      39.960  33.233  39.586  1.00  0.00     0.009 A 
ATOM     71  C   UNL A   1      41.307  34.898  38.464  1.00  0.00     0.009 A 
ATOM     72  C   UNL A   1      40.011  33.985  40.761  1.00  0.00     0.001 A 
ATOM     73  C   UNL A   1      41.384  35.631  39.649  1.00  0.00     0.001 A 
ATOM     74  C   UNL A   1      40.727  35.181  40.794  1.00  0.00     0.000 A 
ENDBRANCH  55  69
BRANCH  56  75
ATOM     75  C   UNL A   1      39.974  28.831  29.714  1.00  0.00    -0.014 A 
ATOM     76  C   UNL A   1      39.444  27.532  29.653  1.00  0.00     0.009 A 
ATOM     77  C   UNL A   1      40.444  29.426  28.533  1.00  0.00     0.009 A 
ATOM     78  C   UNL A   1      39.416  26.834  28.443  1.00  0.00     0.001 A 
ATOM     79  C   UNL A   1      40.383  28.739  27.319  1.00  0.00     0.001 A 
ATOM     80  C   UNL A   1      39.882  27.440  27.276  1.00  0.00     0.000 A 
ENDBRANCH  56  75
BRANCH  68  81
ATOM     81  C   UNL A   1      44.468  28.631  35.025  1.00  0.00    -0.014 A 
ATOM     82  C   UNL A   1      45.745  29.084  34.655  1.00  0.00     0.009 A 
ATOM     83  C   UNL A   1      44.350  27.391  35.673  1.00  0.00     0.009 A 
ATOM     84  C   UNL A   1      46.871  28.292  34.891  1.00  0.00     0.001 A 
ATOM     85  C   UNL A   1      45.481  26.618  35.938  1.00  0.00     0.001 A 
ATOM     86  C   UNL A   1      46.738  27.063  35.536  1.00  0.00     0.000 A 
ENDBRANCH  68  81
ENDBRANCH  42  43
ENDBRANCH  34  37
ENDBRANCH  32  33
ENDBRANCH  31  32
ENDBRANCH   1  31
TORSDOF 15
ENDMDL
MODEL 2
REMARK VINA RESULT:     -11.5      1.379      3.633
REMARK SMILES C=CCN1C(=O)/C(=C/c2ccccn2)S/C1=[NH+]\c1ccc(C(=O)NCCCCNC(=O)c2ccc(-c3c4nc(c(-c5ccccc5)c5ccc([nH]5)c(-c5ccccc5)c5nc(c(-c6ccccc6)c6ccc3[nH]6)C=C5)C=C4)cc2)cc1
REMARK SMILES IDX 26 1 25 2 24 3 22 4 23 5 21 7 18 8 19 9 81 10 20 11 80 12
REMARK SMILES IDX 17 13 4 14 5 15 16 16 6 17 7 18 15 19 8 20 3 22 2 23 1 24
REMARK SMILES IDX 9 25 10 26 14 27 11 28 13 29 12 30 27 31 28 32 29 33 30 34
REMARK SMILES IDX 31 36 32 37 33 38 79 39 34 40 78 41 35 42 36 43 37 44 72 45
REMARK SMILES IDX 38 46 77 47 71 48 73 49 39 50 76 51 70 52 69 53 40 55 62 56
REMARK SMILES IDX 47 57 61 58 48 59 51 60 60 61 74 62 49 63 50 64 59 66 75 67
REMARK SMILES IDX 52 68 41 69 42 70 46 71 43 72 45 73 44 74 63 75 64 76 68 77
REMARK SMILES IDX 65 78 67 79 66 80 53 81 54 82 58 83 55 84 57 85 56 86
REMARK H PARENT 24 6 17 21 29 35 73 54 51 65
REMARK Flexibility Score: inf
ROOT
ATOM      1  C   UNL A   1      34.802  33.688  28.761  1.00  0.00     0.023 C 
ENDROOT
BRANCH   1   2
ATOM      2  C   UNL A   1      34.720  32.597  27.692  1.00  0.00     0.116 C 
BRANCH   2   3
ATOM      3  N   UNL A   1      35.709  31.567  27.943  1.00  0.00    -0.352 N 
ATOM      4  C   UNL A   1      35.705  30.217  27.689  1.00  0.00     0.251 C 
ATOM      5  O   UNL A   1      36.716  29.577  27.982  1.00  0.00    -0.269 OA
ATOM      6  H   UNL A   1      36.531  31.893  28.374  1.00  0.00     0.163 HD
BRANCH   4   7
ATOM      7  C   UNL A   1      34.567  29.518  27.030  1.00  0.00     0.040 A 
ATOM      8  C   UNL A   1      32.400  28.077  25.945  1.00  0.00     0.125 A 
ATOM      9  C   UNL A   1      32.457  28.332  27.314  1.00  0.00     0.052 A 
ATOM     10  C   UNL A   1      33.383  28.621  25.115  1.00  0.00     0.052 A 
ATOM     11  C   UNL A   1      33.536  29.042  27.854  1.00  0.00     0.018 A 
ATOM     12  C   UNL A   1      34.448  29.346  25.650  1.00  0.00     0.018 A 
BRANCH   8  13
ATOM     13  N   UNL A   1      31.332  27.361  25.394  1.00  0.00    -0.234 N 
ATOM     14  N   UNL A   1      30.531  25.472  24.280  1.00  0.00    -0.182 N 
ATOM     15  C   UNL A   1      30.876  24.247  23.749  1.00  0.00     0.349 C 
ATOM     16  C   UNL A   1      31.514  26.164  24.938  1.00  0.00     0.324 C 
ATOM     17  O   UNL A   1      30.143  23.489  23.127  1.00  0.00    -0.240 OA
ATOM     18  C   UNL A   1      32.298  23.941  24.061  1.00  0.00     0.111 C 
ATOM     19  S   UNL A   1      32.972  25.199  25.021  1.00  0.00     0.007 SA
ATOM     20  C   UNL A   1      32.909  22.839  23.608  1.00  0.00     0.052 C 
ATOM     21  H   UNL A   1      30.438  27.770  25.351  1.00  0.00     0.313 HD
BRANCH  14  22
ATOM     22  C   UNL A   1      29.192  26.001  24.116  1.00  0.00     0.275 C 
BRANCH  22  23
ATOM     23  C   UNL A   1      29.266  27.326  23.412  1.00  0.00     0.011 C 
ATOM     24  C   UNL A   1      28.200  28.086  23.127  1.00  0.00     0.008 C 
ENDBRANCH  22  23
ENDBRANCH  14  22
BRANCH  20  25
ATOM     25  C   UNL A   1      34.286  22.450  23.906  1.00  0.00     0.064 A 
ATOM     26  C   UNL A   1      35.366  23.078  23.291  1.00  0.00     0.028 A 
ATOM     27  N   UNL A   1      34.432  21.482  24.837  1.00  0.00    -0.257 NA
ATOM     28  C   UNL A   1      36.654  22.667  23.617  1.00  0.00     0.004 A 
ATOM     29  C   UNL A   1      35.695  21.101  25.131  1.00  0.00     0.111 A 
ATOM     30  C   UNL A   1      36.826  21.654  24.551  1.00  0.00     0.020 A 
ENDBRANCH  20  25
ENDBRANCH   8  13
ENDBRANCH   4   7
ENDBRANCH   2   3
ENDBRANCH   1   2
BRANCH   1  31
ATOM     31  C   UNL A   1      33.441  34.228  29.208  1.00  0.00     0.023 C 
BRANCH  31  32
ATOM     32  C   UNL A   1      33.423  35.715  29.541  1.00  0.00     0.116 C 
BRANCH  32  33
ATOM     33  N   UNL A   1      32.525  36.045  30.637  1.00  0.00    -0.352 N 
ATOM     34  C   UNL A   1      32.642  35.720  31.966  1.00  0.00     0.251 C 
ATOM     35  H   UNL A   1      31.729  36.570  30.395  1.00  0.00     0.163 HD
ATOM     36  O   UNL A   1      31.732  35.968  32.750  1.00  0.00    -0.269 OA
BRANCH  34  37
ATOM     37  C   UNL A   1      33.862  35.035  32.437  1.00  0.00     0.039 A 
ATOM     38  C   UNL A   1      33.759  33.723  32.901  1.00  0.00     0.014 A 
ATOM     39  C   UNL A   1      35.103  35.674  32.390  1.00  0.00     0.014 A 
ATOM     40  C   UNL A   1      34.914  33.029  33.263  1.00  0.00     0.010 A 
ATOM     41  C   UNL A   1      36.260  34.955  32.674  1.00  0.00     0.010 A 
ATOM     42  C   UNL A   1      36.177  33.628  33.118  1.00  0.00    -0.014 A 
BRANCH  42  43
ATOM     43  C   UNL A   1      37.417  32.875  33.427  1.00  0.00     0.031 A 
ATOM     44  C   UNL A   1      38.168  33.143  34.702  1.00  0.00     0.074 A 
ATOM     45  C   UNL A   1      37.892  31.982  32.538  1.00  0.00     0.049 A 
ATOM     46  N   UNL A   1      39.276  32.596  35.137  1.00  0.00    -0.248 NA
ATOM     47  C   UNL A   1      37.619  34.175  35.595  1.00  0.00     0.031 C 
ATOM     48  C   UNL A   1      37.278  31.663  31.246  1.00  0.00     0.029 A 
ATOM     49  N   UNL A   1      38.999  31.174  32.586  1.00  0.00    -0.354 N 
ATOM     50  C   UNL A   1      39.557  33.222  36.344  1.00  0.00     0.074 A 
ATOM     51  C   UNL A   1      38.541  34.231  36.543  1.00  0.00     0.031 C 
ATOM     52  C   UNL A   1      37.995  30.700  30.645  1.00  0.00     0.029 A 
ATOM     53  C   UNL A   1      39.140  30.366  31.485  1.00  0.00     0.049 A 
ATOM     54  H   UNL A   1      39.634  31.175  33.339  1.00  0.00     0.167 HD
ATOM     55  C   UNL A   1      40.557  32.966  37.220  1.00  0.00     0.031 A 
ATOM     56  C   UNL A   1      40.086  29.456  31.183  1.00  0.00     0.031 A 
ATOM     57  C   UNL A   1      41.568  31.962  37.021  1.00  0.00     0.049 A 
ATOM     58  C   UNL A   1      41.202  29.211  32.161  1.00  0.00     0.074 A 
ATOM     59  C   UNL A   1      42.596  31.593  37.870  1.00  0.00     0.029 A 
ATOM     60  N   UNL A   1      41.681  31.171  35.887  1.00  0.00    -0.354 N 
ATOM     61  N   UNL A   1      41.413  29.760  33.333  1.00  0.00    -0.248 NA
ATOM     62  C   UNL A   1      42.204  28.206  31.778  1.00  0.00     0.031 C 
ATOM     63  C   UNL A   1      43.368  30.622  37.225  1.00  0.00     0.029 A 
ATOM     64  C   UNL A   1      42.780  30.335  36.004  1.00  0.00     0.049 A 
ATOM     65  H   UNL A   1      41.073  31.200  35.114  1.00  0.00     0.167 HD
ATOM     66  C   UNL A   1      42.551  29.146  33.840  1.00  0.00     0.074 A 
ATOM     67  C   UNL A   1      42.973  28.170  32.858  1.00  0.00     0.031 C 
ATOM     68  C   UNL A   1      43.190  29.371  35.015  1.00  0.00     0.031 A 
BRANCH  55  69
ATOM     69  C   UNL A   1      40.607  33.795  38.475  1.00  0.00    -0.014 A 
ATOM     70  C   UNL A   1      39.945  33.388  39.645  1.00  0.00     0.009 A 
ATOM     71  C   UNL A   1      41.352  34.984  38.499  1.00  0.00     0.009 A 
ATOM     72  C   UNL A   1      39.995  34.174  40.798  1.00  0.00     0.001 A 
ATOM     73  C   UNL A   1      41.428  35.751  39.663  1.00  0.00     0.001 A 
ATOM     74  C   UNL A   1      40.742  35.351  40.809  1.00  0.00     0.000 A 
ENDBRANCH  55  69
BRANCH  56  75
ATOM     75  C   UNL A   1      40.014  28.696  29.908  1.00  0.00    -0.014 A 
ATOM     76  C   UNL A   1      40.593  29.209  28.737  1.00  0.00     0.009 A 
ATOM     77  C   UNL A   1      39.353  27.459  29.850  1.00  0.00     0.009 A 
ATOM     78  C   UNL A   1      40.484  28.515  27.529  1.00  0.00     0.001 A 
ATOM     79  C   UNL A   1      39.276  26.751  28.649  1.00  0.00     0.001 A 
ATOM     80  C   UNL A   1      39.829  27.285  27.487  1.00  0.00     0.000 A 
ENDBRANCH  56  75
BRANCH  68  81
ATOM     81  C   UNL A   1      44.388  28.515  35.319  1.00  0.00    -0.014 A 
ATOM     82  C   UNL A   1      45.686  28.917  34.967  1.00  0.00     0.009 A 
ATOM     83  C   UNL A   1      44.216  27.298  35.997  1.00  0.00     0.009 A 
ATOM     84  C   UNL A   1      46.781  28.098  35.250  1.00  0.00     0.001 A 
ATOM     85  C   UNL A   1      45.316  26.497  36.309  1.00  0.00     0.001 A 
ATOM     86  C   UNL A   1      46.595  26.892  35.925  1.00  0.00     0.000 A 
ENDBRANCH  68  81
ENDBRANCH  42  43
ENDBRANCH  34  37
ENDBRANCH  32  33
ENDBRANCH  31  32
ENDBRANCH   1  31
TORSDOF 15
ENDMDL
MODEL 3
REMARK VINA RESULT:     -11.5      0.819      5.753
REMARK SMILES C=CCN1C(=O)/C(=C/c2ccccn2)S/C1=[NH+]\c1ccc(C(=O)NCCCCNC(=O)c2ccc(-c3c4nc(c(-c5ccccc5)c5ccc([nH]5)c(-c5ccccc5)c5nc(c(-c6ccccc6)c6ccc3[nH]6)C=C5)C=C4)cc2)cc1
REMARK SMILES IDX 26 1 25 2 24 3 22 4 23 5 21 7 18 8 19 9 81 10 20 11 80 12
REMARK SMILES IDX 17 13 4 14 5 15 16 16 6 17 7 18 15 19 8 20 3 22 2 23 1 24
REMARK SMILES IDX 9 25 10 26 14 27 11 28 13 29 12 30 27 31 28 32 29 33 30 34
REMARK SMILES IDX 31 36 32 37 33 38 79 39 34 40 78 41 35 42 36 43 37 44 72 45
REMARK SMILES IDX 38 46 77 47 71 48 73 49 39 50 76 51 70 52 69 53 40 55 62 56
REMARK SMILES IDX 47 57 61 58 48 59 51 60 60 61 74 62 49 63 50 64 59 66 75 67
REMARK SMILES IDX 52 68 41 69 42 70 46 71 43 72 45 73 44 74 63 75 64 76 68 77
REMARK SMILES IDX 65 78 67 79 66 80 53 81 54 82 58 83 55 84 57 85 56 86
REMARK H PARENT 24 6 17 21 29 35 73 54 51 65
REMARK Flexibility Score: inf
ROOT
ATOM      1  C   UNL A   1      32.879  34.876  28.364  1.00  0.00     0.023 C 
ENDROOT
BRANCH   1   2
ATOM      2  C   UNL A   1      33.059  33.447  27.849  1.00  0.00     0.116 C 
BRANCH   2   3
ATOM      3  N   UNL A   1      34.432  33.014  28.024  1.00  0.00    -0.352 N 
ATOM      4  C   UNL A   1      35.029  31.787  27.873  1.00  0.00     0.251 C 
ATOM      5  O   UNL A   1      36.244  31.715  28.057  1.00  0.00    -0.269 OA
ATOM      6  H   UNL A   1      35.048  33.729  28.303  1.00  0.00     0.163 HD
BRANCH   4   7
ATOM      7  C   UNL A   1      34.285  30.570  27.443  1.00  0.00     0.040 A 
ATOM      8  C   UNL A   1      33.013  28.244  26.481  1.00  0.00     0.125 A 
ATOM      9  C   UNL A   1      34.402  28.353  26.436  1.00  0.00     0.052 A 
ATOM     10  C   UNL A   1      32.275  29.262  27.089  1.00  0.00     0.052 A 
ATOM     11  C   UNL A   1      35.034  29.511  26.908  1.00  0.00     0.018 A 
ATOM     12  C   UNL A   1      32.906  30.408  27.578  1.00  0.00     0.018 A 
BRANCH   8  13
ATOM     13  N   UNL A   1      32.369  27.097  26.005  1.00  0.00    -0.234 N 
ATOM     14  N   UNL A   1      30.650  26.116  24.768  1.00  0.00    -0.182 N 
ATOM     15  C   UNL A   1      29.565  26.365  23.953  1.00  0.00     0.349 C 
ATOM     16  C   UNL A   1      31.389  27.199  25.167  1.00  0.00     0.324 C 
ATOM     17  O   UNL A   1      28.787  25.534  23.501  1.00  0.00    -0.240 OA
ATOM     18  C   UNL A   1      29.472  27.820  23.662  1.00  0.00     0.111 C 
ATOM     19  S   UNL A   1      30.786  28.652  24.399  1.00  0.00     0.007 SA
ATOM     20  C   UNL A   1      28.471  28.344  22.944  1.00  0.00     0.052 C 
ATOM     21  H   UNL A   1      32.662  26.209  26.310  1.00  0.00     0.313 HD
BRANCH  14  22
ATOM     22  C   UNL A   1      30.962  24.767  25.197  1.00  0.00     0.275 C 
BRANCH  22  23
ATOM     23  C   UNL A   1      31.861  24.120  24.181  1.00  0.00     0.011 C 
ATOM     24  C   UNL A   1      31.461  23.183  23.312  1.00  0.00     0.008 C 
ENDBRANCH  22  23
ENDBRANCH  14  22
BRANCH  20  25
ATOM     25  C   UNL A   1      28.334  29.754  22.582  1.00  0.00     0.064 A 
ATOM     26  C   UNL A   1      27.857  30.693  23.492  1.00  0.00     0.028 A 
ATOM     27  N   UNL A   1      28.738  30.079  21.335  1.00  0.00    -0.257 NA
ATOM     28  C   UNL A   1      27.752  32.021  23.092  1.00  0.00     0.004 A 
ATOM     29  C   UNL A   1      28.621  31.376  20.972  1.00  0.00     0.111 A 
ATOM     30  C   UNL A   1      28.135  32.372  21.804  1.00  0.00     0.020 A 
ENDBRANCH  20  25
ENDBRANCH   8  13
ENDBRANCH   4   7
ENDBRANCH   2   3
ENDBRANCH   1   2
BRANCH   1  31
ATOM     31  C   UNL A   1      33.991  35.346  29.305  1.00  0.00     0.023 C 
BRANCH  31  32
ATOM     32  C   UNL A   1      33.654  36.588  30.122  1.00  0.00     0.116 C 
BRANCH  32  33
ATOM     33  N   UNL A   1      32.530  36.391  31.023  1.00  0.00    -0.352 N 
ATOM     34  C   UNL A   1      32.472  35.633  32.168  1.00  0.00     0.251 C 
ATOM     35  H   UNL A   1      31.700  36.863  30.782  1.00  0.00     0.163 HD
ATOM     36  O   UNL A   1      31.408  35.470  32.753  1.00  0.00    -0.269 OA
BRANCH  34  37
ATOM     37  C   UNL A   1      33.702  34.985  32.666  1.00  0.00     0.039 A 
ATOM     38  C   UNL A   1      33.651  33.640  33.034  1.00  0.00     0.014 A 
ATOM     39  C   UNL A   1      34.903  35.695  32.739  1.00  0.00     0.014 A 
ATOM     40  C   UNL A   1      34.822  32.989  33.420  1.00  0.00     0.010 A 
ATOM     41  C   UNL A   1      36.083  35.024  33.045  1.00  0.00     0.010 A 
ATOM     42  C   UNL A   1      36.053  33.665  33.394  1.00  0.00    -0.014 A 
BRANCH  42  43
ATOM     43  C   UNL A   1      37.316  32.963  33.728  1.00  0.00     0.031 A 
ATOM     44  C   UNL A   1      37.902  31.961  32.772  1.00  0.00     0.074 A 
ATOM     45  C   UNL A   1      37.913  33.196  34.913  1.00  0.00     0.049 A 
ATOM     46  N   UNL A   1      38.988  31.241  32.896  1.00  0.00    -0.248 NA
ATOM     47  C   UNL A   1      37.161  31.719  31.523  1.00  0.00     0.031 C 
ATOM     48  C   UNL A   1      37.421  34.113  35.945  1.00  0.00     0.029 A 
ATOM     49  N   UNL A   1      39.066  32.681  35.449  1.00  0.00    -0.354 N 
ATOM     50  C   UNL A   1      39.054  30.457  31.751  1.00  0.00     0.074 A 
ATOM     51  C   UNL A   1      37.869  30.744  30.974  1.00  0.00     0.031 C 
ATOM     52  C   UNL A   1      38.288  34.125  36.970  1.00  0.00     0.029 A 
ATOM     53  C   UNL A   1      39.370  33.187  36.689  1.00  0.00     0.049 A 
ATOM     54  H   UNL A   1      39.622  32.012  34.989  1.00  0.00     0.167 HD
ATOM     55  C   UNL A   1      40.024  29.593  31.368  1.00  0.00     0.031 A 
ATOM     56  C   UNL A   1      40.404  32.925  37.511  1.00  0.00     0.031 A 
ATOM     57  C   UNL A   1      41.202  29.307  32.142  1.00  0.00     0.049 A 
ATOM     58  C   UNL A   1      41.453  31.940  37.074  1.00  0.00     0.074 A 
ATOM     59  C   UNL A   1      42.267  28.483  31.821  1.00  0.00     0.029 A 
ATOM     60  N   UNL A   1      41.468  29.833  33.398  1.00  0.00    -0.354 N 
ATOM     61  N   UNL A   1      41.538  31.263  35.955  1.00  0.00    -0.248 NA
ATOM     62  C   UNL A   1      42.559  31.696  38.012  1.00  0.00     0.031 C 
ATOM     63  C   UNL A   1      43.146  28.462  32.908  1.00  0.00     0.029 A 
ATOM     64  C   UNL A   1      42.666  29.328  33.876  1.00  0.00     0.049 A 
ATOM     65  H   UNL A   1      40.890  30.469  33.878  1.00  0.00     0.167 HD
ATOM     66  C   UNL A   1      42.720  30.537  36.041  1.00  0.00     0.074 A 
ATOM     67  C   UNL A   1      43.327  30.873  37.311  1.00  0.00     0.031 C 
ATOM     68  C   UNL A   1      43.255  29.670  35.145  1.00  0.00     0.031 A 
BRANCH  55  69
ATOM     69  C   UNL A   1      39.843  28.889  30.051  1.00  0.00    -0.014 A 
ATOM     70  C   UNL A   1      39.424  27.550  29.991  1.00  0.00     0.009 A 
ATOM     71  C   UNL A   1      40.063  29.583  28.850  1.00  0.00     0.009 A 
ATOM     72  C   UNL A   1      39.268  26.910  28.760  1.00  0.00     0.001 A 
ATOM     73  C   UNL A   1      39.875  28.950  27.620  1.00  0.00     0.001 A 
ATOM     74  C   UNL A   1      39.488  27.611  27.575  1.00  0.00     0.000 A 
ENDBRANCH  55  69
BRANCH  56  75
ATOM     75  C   UNL A   1      40.512  33.617  38.822  1.00  0.00    -0.014 A 
ATOM     76  C   UNL A   1      39.893  33.084  39.964  1.00  0.00     0.009 A 
ATOM     77  C   UNL A   1      41.222  34.822  38.939  1.00  0.00     0.009 A 
ATOM     78  C   UNL A   1      39.955  33.758  41.186  1.00  0.00     0.001 A 
ATOM     79  C   UNL A   1      41.312  35.476  40.169  1.00  0.00     0.001 A 
ATOM     80  C   UNL A   1      40.669  34.952  41.288  1.00  0.00     0.000 A 
ENDBRANCH  56  75
BRANCH  68  81
ATOM     81  C   UNL A   1      44.584  29.057  35.494  1.00  0.00    -0.014 A 
ATOM     82  C   UNL A   1      44.672  27.834  36.177  1.00  0.00     0.009 A 
ATOM     83  C   UNL A   1      45.767  29.703  35.105  1.00  0.00     0.009 A 
ATOM     84  C   UNL A   1      45.918  27.293  36.500  1.00  0.00     0.001 A 
ATOM     85  C   UNL A   1      47.011  29.143  35.398  1.00  0.00     0.001 A 
ATOM     86  C   UNL A   1      47.085  27.945  36.105  1.00  0.00     0.000 A 
ENDBRANCH  68  81
ENDBRANCH  42  43
ENDBRANCH  34  37
ENDBRANCH  32  33
ENDBRANCH  31  32
ENDBRANCH   1  31
TORSDOF 15
ENDMDL
