MODEL 1
REMARK VINA RESULT:     -11.5      0.000      0.000
REMARK SMILES CC[C@@H](C)[C@@H](C(=O)NCCCCNC(=O)c1ccc(-c2c3nc(c(-c4ccccc4)c4ccc([nH]4)c(-c4ccccc4)c4nc(c(-c5ccccc5)c5ccc2[nH]5)C=C4)C=C3)cc1)N1C(=O)/C(=C/c2ccc(O)cc2)SC1=S
REMARK SMILES IDX 10 1 9 2 8 3 6 4 7 5 5 7 3 8 4 9 2 10 1 11 64 12 65 13 77 14
REMARK SMILES IDX 66 15 67 16 76 17 78 18 68 19 69 20 70 21 75 22 71 23 74 24
REMARK SMILES IDX 72 25 73 26 11 28 12 29 13 30 14 31 15 33 16 34 17 35 63 36
REMARK SMILES IDX 18 37 62 38 19 39 20 40 21 41 56 42 22 43 61 44 55 45 57 46
REMARK SMILES IDX 23 47 60 48 54 49 53 50 24 52 46 53 31 54 45 55 32 56 35 57
REMARK SMILES IDX 44 58 58 59 33 60 34 61 43 63 59 64 36 65 25 66 26 67 30 68
REMARK SMILES IDX 27 69 29 70 28 71 47 72 48 73 52 74 49 75 51 76 50 77 37 78
REMARK SMILES IDX 38 79 42 80 39 81 41 82 40 83
REMARK H PARENT 8 6 73 27 13 32 57 51 35 62
REMARK Flexibility Score: inf
ROOT
ATOM      1  C   UNL A   1      32.798  28.869  24.892  1.00  0.00     0.023 C 
ENDROOT
BRANCH   1   2
ATOM      2  C   UNL A   1      33.723  27.678  25.183  1.00  0.00     0.116 C 
BRANCH   2   3
ATOM      3  N   UNL A   1      33.001  26.618  25.866  1.00  0.00    -0.354 N 
ATOM      4  C   UNL A   1      32.652  25.356  25.465  1.00  0.00     0.243 C 
ATOM      5  O   UNL A   1      31.939  24.710  26.236  1.00  0.00    -0.273 OA
ATOM      6  H   UNL A   1      32.710  26.847  26.779  1.00  0.00     0.163 HD
BRANCH   4   7
ATOM      7  C   UNL A   1      33.184  24.749  24.134  1.00  0.00     0.184 C 
BRANCH   7   8
ATOM      8  C   UNL A   1      32.243  24.917  22.887  1.00  0.00     0.018 C 
ATOM      9  C   UNL A   1      33.026  25.468  21.688  1.00  0.00     0.010 C 
BRANCH   8  10
ATOM     10  C   UNL A   1      31.014  25.786  23.154  1.00  0.00     0.002 C 
ATOM     11  C   UNL A   1      30.947  27.100  22.392  1.00  0.00     0.004 C 
ENDBRANCH   8  10
ENDBRANCH   7   8
BRANCH   7  12
ATOM     12  N   UNL A   1      33.503  23.319  24.454  1.00  0.00    -0.280 N 
ATOM     13  C   UNL A   1      32.548  22.328  24.310  1.00  0.00     0.266 C 
ATOM     14  C   UNL A   1      34.681  22.905  25.053  1.00  0.00     0.149 C 
ATOM     15  O   UNL A   1      31.368  22.455  24.009  1.00  0.00    -0.268 OA
ATOM     16  C   UNL A   1      33.134  20.994  24.561  1.00  0.00     0.081 C 
ATOM     17  S   UNL A   1      34.658  21.154  25.309  1.00  0.00    -0.054 SA
ATOM     18  S   UNL A   1      35.996  23.836  25.496  1.00  0.00    -0.052 S 
ATOM     19  C   UNL A   1      32.473  19.901  24.163  1.00  0.00     0.029 C 
BRANCH  19  20
ATOM     20  C   UNL A   1      32.824  18.505  24.411  1.00  0.00    -0.024 A 
ATOM     21  C   UNL A   1      32.502  17.892  25.627  1.00  0.00     0.012 A 
ATOM     22  C   UNL A   1      33.613  17.827  23.476  1.00  0.00     0.012 A 
ATOM     23  C   UNL A   1      32.975  16.608  25.903  1.00  0.00     0.047 A 
ATOM     24  C   UNL A   1      34.091  16.547  23.755  1.00  0.00     0.047 A 
ATOM     25  C   UNL A   1      33.772  15.951  24.971  1.00  0.00     0.115 A 
BRANCH  25  26
ATOM     26  O   UNL A   1      34.245  14.715  25.295  1.00  0.00    -0.508 OA
ATOM     27  H   UNL A   1      33.885  14.253  26.026  1.00  0.00     0.293 HD
ENDBRANCH  25  26
ENDBRANCH  19  20
ENDBRANCH   7  12
ENDBRANCH   4   7
ENDBRANCH   2   3
ENDBRANCH   1   2
BRANCH   1  28
ATOM     28  C   UNL A   1      32.513  29.769  26.081  1.00  0.00     0.023 C 
BRANCH  28  29
ATOM     29  C   UNL A   1      33.520  29.635  27.206  1.00  0.00     0.116 C 
BRANCH  29  30
ATOM     30  N   UNL A   1      33.674  30.860  27.984  1.00  0.00    -0.352 N 
ATOM     31  C   UNL A   1      34.730  31.263  28.768  1.00  0.00     0.251 C 
ATOM     32  H   UNL A   1      32.916  31.487  27.941  1.00  0.00     0.163 HD
ATOM     33  O   UNL A   1      34.650  32.267  29.466  1.00  0.00    -0.269 OA
BRANCH  31  34
ATOM     34  C   UNL A   1      35.948  30.432  28.787  1.00  0.00     0.039 A 
ATOM     35  C   UNL A   1      36.824  30.484  27.702  1.00  0.00     0.014 A 
ATOM     36  C   UNL A   1      36.272  29.705  29.933  1.00  0.00     0.014 A 
ATOM     37  C   UNL A   1      38.085  29.897  27.817  1.00  0.00     0.010 A 
ATOM     38  C   UNL A   1      37.563  29.222  30.087  1.00  0.00     0.010 A 
ATOM     39  C   UNL A   1      38.485  29.321  29.034  1.00  0.00    -0.014 A 
BRANCH  39  40
ATOM     40  C   UNL A   1      39.868  28.830  29.248  1.00  0.00     0.031 A 
ATOM     41  C   UNL A   1      40.908  29.757  29.809  1.00  0.00     0.074 A 
ATOM     42  C   UNL A   1      40.209  27.589  28.845  1.00  0.00     0.049 A 
ATOM     43  N   UNL A   1      42.192  29.560  29.965  1.00  0.00    -0.248 NA
ATOM     44  C   UNL A   1      40.453  31.098  30.216  1.00  0.00     0.031 C 
ATOM     45  C   UNL A   1      39.302  26.611  28.237  1.00  0.00     0.029 A 
ATOM     46  N   UNL A   1      41.418  26.942  28.873  1.00  0.00    -0.354 N 
ATOM     47  C   UNL A   1      42.697  30.753  30.462  1.00  0.00     0.074 A 
ATOM     48  C   UNL A   1      41.596  31.689  30.529  1.00  0.00     0.031 C 
ATOM     49  C   UNL A   1      39.981  25.483  27.977  1.00  0.00     0.029 A 
ATOM     50  C   UNL A   1      41.378  25.672  28.352  1.00  0.00     0.049 A 
ATOM     51  H   UNL A   1      42.239  27.351  29.233  1.00  0.00     0.167 HD
ATOM     52  C   UNL A   1      43.961  31.042  30.849  1.00  0.00     0.031 A 
ATOM     53  C   UNL A   1      42.359  24.766  28.180  1.00  0.00     0.031 A 
ATOM     54  C   UNL A   1      45.049  30.104  30.800  1.00  0.00     0.049 A 
ATOM     55  C   UNL A   1      43.760  25.117  28.600  1.00  0.00     0.074 A 
ATOM     56  C   UNL A   1      46.349  30.273  31.240  1.00  0.00     0.029 A 
ATOM     57  N   UNL A   1      44.964  28.825  30.274  1.00  0.00    -0.354 N 
ATOM     58  N   UNL A   1      44.204  26.222  29.147  1.00  0.00    -0.248 NA
ATOM     59  C   UNL A   1      44.793  24.095  28.381  1.00  0.00     0.031 C 
ATOM     60  C   UNL A   1      47.067  29.115  30.927  1.00  0.00     0.029 A 
ATOM     61  C   UNL A   1      46.199  28.205  30.345  1.00  0.00     0.049 A 
ATOM     62  H   UNL A   1      44.146  28.418  29.905  1.00  0.00     0.167 HD
ATOM     63  C   UNL A   1      45.563  26.022  29.355  1.00  0.00     0.074 A 
ATOM     64  C   UNL A   1      45.865  24.682  28.895  1.00  0.00     0.031 C 
ATOM     65  C   UNL A   1      46.480  26.873  29.877  1.00  0.00     0.031 A 
BRANCH  52  66
ATOM     66  C   UNL A   1      44.232  32.430  31.356  1.00  0.00    -0.014 A 
ATOM     67  C   UNL A   1      44.613  33.463  30.484  1.00  0.00     0.009 A 
ATOM     68  C   UNL A   1      44.075  32.716  32.720  1.00  0.00     0.009 A 
ATOM     69  C   UNL A   1      44.864  34.746  30.974  1.00  0.00     0.001 A 
ATOM     70  C   UNL A   1      44.298  34.007  33.203  1.00  0.00     0.001 A 
ATOM     71  C   UNL A   1      44.701  35.017  32.332  1.00  0.00     0.000 A 
ENDBRANCH  52  66
BRANCH  53  72
ATOM     72  C   UNL A   1      42.057  23.439  27.579  1.00  0.00    -0.014 A 
ATOM     73  C   UNL A   1      41.581  22.388  28.377  1.00  0.00     0.009 A 
ATOM     74  C   UNL A   1      42.252  23.214  26.207  1.00  0.00     0.009 A 
ATOM     75  C   UNL A   1      41.333  21.131  27.819  1.00  0.00     0.001 A 
ATOM     76  C   UNL A   1      41.974  21.964  25.646  1.00  0.00     0.001 A 
ATOM     77  C   UNL A   1      41.525  20.922  26.454  1.00  0.00     0.000 A 
ENDBRANCH  53  72
BRANCH  65  78
ATOM     78  C   UNL A   1      47.892  26.376  29.994  1.00  0.00    -0.014 A 
ATOM     79  C   UNL A   1      48.369  25.829  31.195  1.00  0.00     0.009 A 
ATOM     80  C   UNL A   1      48.734  26.400  28.873  1.00  0.00     0.009 A 
ATOM     81  C   UNL A   1      49.673  25.336  31.275  1.00  0.00     0.001 A 
ATOM     82  C   UNL A   1      50.026  25.880  28.948  1.00  0.00     0.001 A 
ATOM     83  C   UNL A   1      50.497  25.356  30.150  1.00  0.00     0.000 A 
ENDBRANCH  65  78
ENDBRANCH  39  40
ENDBRANCH  31  34
ENDBRANCH  29  30
ENDBRANCH  28  29
ENDBRANCH   1  28
TORSDOF 16
ENDMDL
MODEL 2
REMARK VINA RESULT:     -11.5      2.280      6.592
REMARK SMILES CC[C@@H](C)[C@@H](C(=O)NCCCCNC(=O)c1ccc(-c2c3nc(c(-c4ccccc4)c4ccc([nH]4)c(-c4ccccc4)c4nc(c(-c5ccccc5)c5ccc2[nH]5)C=C4)C=C3)cc1)N1C(=O)/C(=C/c2ccc(O)cc2)SC1=S
REMARK SMILES IDX 10 1 9 2 8 3 6 4 7 5 5 7 3 8 4 9 2 10 1 11 64 12 65 13 77 14
REMARK SMILES IDX 66 15 67 16 76 17 78 18 68 19 69 20 70 21 75 22 71 23 74 24
REMARK SMILES IDX 72 25 73 26 11 28 12 29 13 30 14 31 15 33 16 34 17 35 63 36
REMARK SMILES IDX 18 37 62 38 19 39 20 40 21 41 56 42 22 43 61 44 55 45 57 46
REMARK SMILES IDX 23 47 60 48 54 49 53 50 24 52 46 53 31 54 45 55 32 56 35 57
REMARK SMILES IDX 44 58 58 59 33 60 34 61 43 63 59 64 36 65 25 66 26 67 30 68
REMARK SMILES IDX 27 69 29 70 28 71 47 72 48 73 52 74 49 75 51 76 50 77 37 78
REMARK SMILES IDX 38 79 42 80 39 81 41 82 40 83
REMARK H PARENT 8 6 73 27 13 32 57 51 35 62
REMARK Flexibility Score: inf
ROOT
ATOM      1  C   UNL A   1      32.164  28.830  27.279  1.00  0.00     0.023 C 
ENDROOT
BRANCH   1   2
ATOM      2  C   UNL A   1      32.376  27.629  26.346  1.00  0.00     0.116 C 
BRANCH   2   3
ATOM      3  N   UNL A   1      31.935  26.398  26.980  1.00  0.00    -0.354 N 
ATOM      4  C   UNL A   1      31.720  25.145  26.471  1.00  0.00     0.243 C 
ATOM      5  O   UNL A   1      31.240  24.312  27.244  1.00  0.00    -0.273 OA
ATOM      6  H   UNL A   1      31.760  26.479  27.946  1.00  0.00     0.163 HD
BRANCH   4   7
ATOM      7  C   UNL A   1      32.121  24.778  25.013  1.00  0.00     0.184 C 
BRANCH   7   8
ATOM      8  C   UNL A   1      30.967  24.861  23.950  1.00  0.00     0.018 C 
ATOM      9  C   UNL A   1      31.531  25.203  22.565  1.00  0.00     0.010 C 
BRANCH   8  10
ATOM     10  C   UNL A   1      29.856  25.843  24.320  1.00  0.00     0.002 C 
ATOM     11  C   UNL A   1      29.810  27.134  23.517  1.00  0.00     0.004 C 
ENDBRANCH   8  10
ENDBRANCH   7   8
BRANCH   7  12
ATOM     12  N   UNL A   1      32.750  23.419  25.109  1.00  0.00    -0.280 N 
ATOM     13  C   UNL A   1      31.971  22.275  25.122  1.00  0.00     0.266 C 
ATOM     14  C   UNL A   1      34.097  23.206  25.347  1.00  0.00     0.149 C 
ATOM     15  O   UNL A   1      30.750  22.194  25.146  1.00  0.00    -0.268 OA
ATOM     16  C   UNL A   1      32.818  21.064  25.092  1.00  0.00     0.081 C 
ATOM     17  S   UNL A   1      34.438  21.472  25.438  1.00  0.00    -0.054 SA
ATOM     18  S   UNL A   1      35.307  24.345  25.524  1.00  0.00    -0.052 S 
ATOM     19  C   UNL A   1      32.268  19.886  24.777  1.00  0.00     0.029 C 
BRANCH  19  20
ATOM     20  C   UNL A   1      32.901  18.570  24.798  1.00  0.00    -0.024 A 
ATOM     21  C   UNL A   1      32.500  17.598  25.721  1.00  0.00     0.012 A 
ATOM     22  C   UNL A   1      34.012  18.338  23.980  1.00  0.00     0.012 A 
ATOM     23  C   UNL A   1      33.215  16.404  25.825  1.00  0.00     0.047 A 
ATOM     24  C   UNL A   1      34.730  17.148  24.089  1.00  0.00     0.047 A 
ATOM     25  C   UNL A   1      34.328  16.192  25.017  1.00  0.00     0.115 A 
BRANCH  25  26
ATOM     26  O   UNL A   1      35.020  15.030  25.176  1.00  0.00    -0.508 OA
ATOM     27  H   UNL A   1      35.946  15.052  25.317  1.00  0.00     0.293 HD
ENDBRANCH  25  26
ENDBRANCH  19  20
ENDBRANCH   7  12
ENDBRANCH   4   7
ENDBRANCH   2   3
ENDBRANCH   1   2
BRANCH   1  28
ATOM     28  C   UNL A   1      32.175  30.186  26.596  1.00  0.00     0.023 C 
BRANCH  28  29
ATOM     29  C   UNL A   1      33.172  31.163  27.187  1.00  0.00     0.116 C 
BRANCH  29  30
ATOM     30  N   UNL A   1      32.618  32.499  27.377  1.00  0.00    -0.352 N 
ATOM     31  C   UNL A   1      33.112  33.545  28.123  1.00  0.00     0.251 C 
ATOM     32  H   UNL A   1      31.773  32.679  26.905  1.00  0.00     0.163 HD
ATOM     33  O   UNL A   1      32.457  34.567  28.287  1.00  0.00    -0.269 OA
BRANCH  31  34
ATOM     34  C   UNL A   1      34.432  33.390  28.761  1.00  0.00     0.039 A 
ATOM     35  C   UNL A   1      34.523  32.719  29.982  1.00  0.00     0.014 A 
ATOM     36  C   UNL A   1      35.581  33.800  28.084  1.00  0.00     0.014 A 
ATOM     37  C   UNL A   1      35.780  32.356  30.467  1.00  0.00     0.010 A 
ATOM     38  C   UNL A   1      36.819  33.341  28.509  1.00  0.00     0.010 A 
ATOM     39  C   UNL A   1      36.930  32.607  29.700  1.00  0.00    -0.014 A 
BRANCH  39  40
ATOM     40  C   UNL A   1      38.264  32.098  30.102  1.00  0.00     0.031 A 
ATOM     41  C   UNL A   1      38.746  30.776  29.574  1.00  0.00     0.074 A 
ATOM     42  C   UNL A   1      38.991  32.772  31.015  1.00  0.00     0.049 A 
ATOM     43  N   UNL A   1      39.823  30.105  29.891  1.00  0.00    -0.248 NA
ATOM     44  C   UNL A   1      37.886  30.101  28.588  1.00  0.00     0.031 C 
ATOM     45  C   UNL A   1      38.608  34.041  31.642  1.00  0.00     0.029 A 
ATOM     46  N   UNL A   1      40.202  32.475  31.588  1.00  0.00    -0.354 N 
ATOM     47  C   UNL A   1      39.756  28.925  29.163  1.00  0.00     0.074 A 
ATOM     48  C   UNL A   1      38.508  28.943  28.434  1.00  0.00     0.031 C 
ATOM     49  C   UNL A   1      39.577  34.424  32.488  1.00  0.00     0.029 A 
ATOM     50  C   UNL A   1      40.625  33.409  32.503  1.00  0.00     0.049 A 
ATOM     51  H   UNL A   1      40.720  31.668  31.363  1.00  0.00     0.167 HD
ATOM     52  C   UNL A   1      40.662  27.923  29.091  1.00  0.00     0.031 A 
ATOM     53  C   UNL A   1      41.725  33.437  33.279  1.00  0.00     0.031 A 
ATOM     54  C   UNL A   1      41.911  27.916  29.802  1.00  0.00     0.049 A 
ATOM     55  C   UNL A   1      42.707  32.302  33.195  1.00  0.00     0.074 A 
ATOM     56  C   UNL A   1      42.932  26.986  29.738  1.00  0.00     0.029 A 
ATOM     57  N   UNL A   1      42.305  28.885  30.712  1.00  0.00    -0.354 N 
ATOM     58  N   UNL A   1      42.669  31.233  32.437  1.00  0.00    -0.248 NA
ATOM     59  C   UNL A   1      43.885  32.379  34.071  1.00  0.00     0.031 C 
ATOM     60  C   UNL A   1      43.920  27.361  30.653  1.00  0.00     0.029 A 
ATOM     61  C   UNL A   1      43.539  28.556  31.243  1.00  0.00     0.049 A 
ATOM     62  H   UNL A   1      41.784  29.688  30.943  1.00  0.00     0.167 HD
ATOM     63  C   UNL A   1      43.824  30.520  32.731  1.00  0.00     0.074 A 
ATOM     64  C   UNL A   1      44.553  31.288  33.719  1.00  0.00     0.031 C 
ATOM     65  C   UNL A   1      44.244  29.332  32.230  1.00  0.00     0.031 A 
BRANCH  52  66
ATOM     66  C   UNL A   1      40.331  26.749  28.213  1.00  0.00    -0.014 A 
ATOM     67  C   UNL A   1      39.550  25.682  28.688  1.00  0.00     0.009 A 
ATOM     68  C   UNL A   1      40.779  26.725  26.884  1.00  0.00     0.009 A 
ATOM     69  C   UNL A   1      39.255  24.598  27.859  1.00  0.00     0.001 A 
ATOM     70  C   UNL A   1      40.457  25.654  26.048  1.00  0.00     0.001 A 
ATOM     71  C   UNL A   1      39.705  24.588  26.538  1.00  0.00     0.000 A 
ENDBRANCH  52  66
BRANCH  53  72
ATOM     72  C   UNL A   1      41.958  34.575  34.207  1.00  0.00    -0.014 A 
ATOM     73  C   UNL A   1      41.481  34.527  35.526  1.00  0.00     0.009 A 
ATOM     74  C   UNL A   1      42.648  35.720  33.778  1.00  0.00     0.009 A 
ATOM     75  C   UNL A   1      41.668  35.611  36.387  1.00  0.00     0.001 A 
ATOM     76  C   UNL A   1      42.860  36.790  34.650  1.00  0.00     0.001 A 
ATOM     77  C   UNL A   1      42.361  36.739  35.950  1.00  0.00     0.000 A 
ENDBRANCH  53  72
BRANCH  65  78
ATOM     78  C   UNL A   1      45.556  28.799  32.728  1.00  0.00    -0.014 A 
ATOM     79  C   UNL A   1      45.613  27.927  33.826  1.00  0.00     0.009 A 
ATOM     80  C   UNL A   1      46.742  29.124  32.053  1.00  0.00     0.009 A 
ATOM     81  C   UNL A   1      46.839  27.410  34.252  1.00  0.00     0.001 A 
ATOM     82  C   UNL A   1      47.960  28.583  32.462  1.00  0.00     0.001 A 
ATOM     83  C   UNL A   1      48.009  27.732  33.565  1.00  0.00     0.000 A 
ENDBRANCH  65  78
ENDBRANCH  39  40
ENDBRANCH  31  34
ENDBRANCH  29  30
ENDBRANCH  28  29
ENDBRANCH   1  28
TORSDOF 16
ENDMDL
MODEL 3
REMARK VINA RESULT:     -11.3      2.498      8.438
REMARK SMILES CC[C@@H](C)[C@@H](C(=O)NCCCCNC(=O)c1ccc(-c2c3nc(c(-c4ccccc4)c4ccc([nH]4)c(-c4ccccc4)c4nc(c(-c5ccccc5)c5ccc2[nH]5)C=C4)C=C3)cc1)N1C(=O)/C(=C/c2ccc(O)cc2)SC1=S
REMARK SMILES IDX 10 1 9 2 8 3 6 4 7 5 5 7 3 8 4 9 2 10 1 11 64 12 65 13 77 14
REMARK SMILES IDX 66 15 67 16 76 17 78 18 68 19 69 20 70 21 75 22 71 23 74 24
REMARK SMILES IDX 72 25 73 26 11 28 12 29 13 30 14 31 15 33 16 34 17 35 63 36
REMARK SMILES IDX 18 37 62 38 19 39 20 40 21 41 56 42 22 43 61 44 55 45 57 46
REMARK SMILES IDX 23 47 60 48 54 49 53 50 24 52 46 53 31 54 45 55 32 56 35 57
REMARK SMILES IDX 44 58 58 59 33 60 34 61 43 63 59 64 36 65 25 66 26 67 30 68
REMARK SMILES IDX 27 69 29 70 28 71 47 72 48 73 52 74 49 75 51 76 50 77 37 78
REMARK SMILES IDX 38 79 42 80 39 81 41 82 40 83
REMARK H PARENT 8 6 73 27 13 32 57 51 35 62
REMARK Flexibility Score: inf
ROOT
ATOM      1  C   UNL A   1      36.921  22.676  24.175  1.00  0.00     0.023 C 
ENDROOT
BRANCH   1   2
ATOM      2  C   UNL A   1      35.481  23.186  24.329  1.00  0.00     0.116 C 
BRANCH   2   3
ATOM      3  N   UNL A   1      35.112  24.039  23.213  1.00  0.00    -0.354 N 
ATOM      4  C   UNL A   1      33.933  24.659  22.898  1.00  0.00     0.243 C 
ATOM      5  O   UNL A   1      33.891  25.245  21.813  1.00  0.00    -0.273 OA
ATOM      6  H   UNL A   1      35.839  24.200  22.568  1.00  0.00     0.163 HD
BRANCH   4   7
ATOM      7  C   UNL A   1      32.732  24.677  23.889  1.00  0.00     0.184 C 
BRANCH   7   8
ATOM      8  C   UNL A   1      31.609  23.614  23.612  1.00  0.00     0.018 C 
ATOM      9  C   UNL A   1      30.846  23.286  24.902  1.00  0.00     0.010 C 
BRANCH   8  10
ATOM     10  C   UNL A   1      32.121  22.328  22.965  1.00  0.00     0.002 C 
ATOM     11  C   UNL A   1      32.544  21.222  23.919  1.00  0.00     0.004 C 
ENDBRANCH   8  10
ENDBRANCH   7   8
BRANCH   7  12
ATOM     12  N   UNL A   1      32.234  26.092  23.876  1.00  0.00    -0.280 N 
ATOM     13  C   UNL A   1      31.366  26.531  22.892  1.00  0.00     0.266 C 
ATOM     14  C   UNL A   1      32.705  27.085  24.717  1.00  0.00     0.149 C 
ATOM     15  O   UNL A   1      30.968  25.920  21.908  1.00  0.00    -0.268 OA
ATOM     16  C   UNL A   1      30.919  27.914  23.165  1.00  0.00     0.081 C 
ATOM     17  S   UNL A   1      31.905  28.623  24.362  1.00  0.00    -0.054 SA
ATOM     18  S   UNL A   1      33.848  26.954  25.931  1.00  0.00    -0.052 S 
ATOM     19  C   UNL A   1      29.849  28.397  22.525  1.00  0.00     0.029 C 
BRANCH  19  20
ATOM     20  C   UNL A   1      29.318  29.756  22.571  1.00  0.00    -0.024 A 
ATOM     21  C   UNL A   1      28.896  30.399  21.402  1.00  0.00     0.012 A 
ATOM     22  C   UNL A   1      29.367  30.464  23.776  1.00  0.00     0.012 A 
ATOM     23  C   UNL A   1      28.533  31.746  21.444  1.00  0.00     0.047 A 
ATOM     24  C   UNL A   1      29.011  31.811  23.816  1.00  0.00     0.047 A 
ATOM     25  C   UNL A   1      28.603  32.443  22.646  1.00  0.00     0.115 A 
BRANCH  25  26
ATOM     26  O   UNL A   1      28.276  33.765  22.637  1.00  0.00    -0.508 OA
ATOM     27  H   UNL A   1      27.759  34.115  21.937  1.00  0.00     0.293 HD
ENDBRANCH  25  26
ENDBRANCH  19  20
ENDBRANCH   7  12
ENDBRANCH   4   7
ENDBRANCH   2   3
ENDBRANCH   1   2
BRANCH   1  28
ATOM     28  C   UNL A   1      37.219  21.364  24.880  1.00  0.00     0.023 C 
BRANCH  28  29
ATOM     29  C   UNL A   1      38.457  21.404  25.753  1.00  0.00     0.116 C 
BRANCH  29  30
ATOM     30  N   UNL A   1      39.228  20.167  25.707  1.00  0.00    -0.352 N 
ATOM     31  C   UNL A   1      40.552  19.958  26.018  1.00  0.00     0.251 C 
ATOM     32  H   UNL A   1      38.732  19.369  25.414  1.00  0.00     0.163 HD
ATOM     33  O   UNL A   1      41.088  18.877  25.801  1.00  0.00    -0.269 OA
BRANCH  31  34
ATOM     34  C   UNL A   1      41.328  21.080  26.577  1.00  0.00     0.039 A 
ATOM     35  C   UNL A   1      41.849  22.044  25.712  1.00  0.00     0.014 A 
ATOM     36  C   UNL A   1      41.425  21.234  27.960  1.00  0.00     0.014 A 
ATOM     37  C   UNL A   1      42.367  23.226  26.244  1.00  0.00     0.010 A 
ATOM     38  C   UNL A   1      41.835  22.452  28.480  1.00  0.00     0.010 A 
ATOM     39  C   UNL A   1      42.301  23.464  27.626  1.00  0.00    -0.014 A 
BRANCH  39  40
ATOM     40  C   UNL A   1      42.693  24.768  28.214  1.00  0.00     0.031 A 
ATOM     41  C   UNL A   1      41.653  25.831  28.426  1.00  0.00     0.074 A 
ATOM     42  C   UNL A   1      43.993  25.029  28.460  1.00  0.00     0.049 A 
ATOM     43  N   UNL A   1      41.807  27.070  28.817  1.00  0.00    -0.248 NA
ATOM     44  C   UNL A   1      40.259  25.466  28.124  1.00  0.00     0.031 C 
ATOM     45  C   UNL A   1      45.105  24.098  28.246  1.00  0.00     0.029 A 
ATOM     46  N   UNL A   1      44.602  26.165  28.930  1.00  0.00    -0.354 N 
ATOM     47  C   UNL A   1      40.539  27.633  28.784  1.00  0.00     0.074 A 
ATOM     48  C   UNL A   1      39.635  26.623  28.281  1.00  0.00     0.031 C 
ATOM     49  C   UNL A   1      46.252  24.691  28.611  1.00  0.00     0.029 A 
ATOM     50  C   UNL A   1      45.967  26.057  29.036  1.00  0.00     0.049 A 
ATOM     51  H   UNL A   1      44.106  26.981  29.170  1.00  0.00     0.167 HD
ATOM     52  C   UNL A   1      40.155  28.875  29.158  1.00  0.00     0.031 A 
ATOM     53  C   UNL A   1      46.889  26.962  29.418  1.00  0.00     0.031 A 
ATOM     54  C   UNL A   1      41.052  29.872  29.677  1.00  0.00     0.049 A 
ATOM     55  C   UNL A   1      46.440  28.342  29.810  1.00  0.00     0.074 A 
ATOM     56  C   UNL A   1      40.752  31.133  30.156  1.00  0.00     0.029 A 
ATOM     57  N   UNL A   1      42.426  29.719  29.776  1.00  0.00    -0.354 N 
ATOM     58  N   UNL A   1      45.225  28.832  29.854  1.00  0.00    -0.248 NA
ATOM     59  C   UNL A   1      47.487  29.291  30.209  1.00  0.00     0.031 C 
ATOM     60  C   UNL A   1      41.952  31.767  30.492  1.00  0.00     0.029 A 
ATOM     61  C   UNL A   1      42.993  30.878  30.276  1.00  0.00     0.049 A 
ATOM     62  H   UNL A   1      42.924  28.906  29.528  1.00  0.00     0.167 HD
ATOM     63  C   UNL A   1      45.360  30.140  30.302  1.00  0.00     0.074 A 
ATOM     64  C   UNL A   1      46.772  30.359  30.537  1.00  0.00     0.031 C 
ATOM     65  C   UNL A   1      44.401  31.078  30.497  1.00  0.00     0.031 A 
BRANCH  52  66
ATOM     66  C   UNL A   1      38.700  29.225  29.017  1.00  0.00    -0.014 A 
ATOM     67  C   UNL A   1      37.808  29.073  30.091  1.00  0.00     0.009 A 
ATOM     68  C   UNL A   1      38.223  29.742  27.804  1.00  0.00     0.009 A 
ATOM     69  C   UNL A   1      36.459  29.400  29.941  1.00  0.00     0.001 A 
ATOM     70  C   UNL A   1      36.879  30.096  27.666  1.00  0.00     0.001 A 
ATOM     71  C   UNL A   1      35.997  29.916  28.730  1.00  0.00     0.000 A 
ENDBRANCH  52  66
BRANCH  53  72
ATOM     72  C   UNL A   1      48.330  26.597  29.445  1.00  0.00    -0.014 A 
ATOM     73  C   UNL A   1      48.871  25.908  30.541  1.00  0.00     0.009 A 
ATOM     74  C   UNL A   1      49.177  26.944  28.379  1.00  0.00     0.009 A 
ATOM     75  C   UNL A   1      50.232  25.598  30.583  1.00  0.00     0.001 A 
ATOM     76  C   UNL A   1      50.532  26.606  28.410  1.00  0.00     0.001 A 
ATOM     77  C   UNL A   1      51.060  25.943  29.516  1.00  0.00     0.000 A 
ENDBRANCH  53  72
BRANCH  65  78
ATOM     78  C   UNL A   1      44.843  32.419  31.006  1.00  0.00    -0.014 A 
ATOM     79  C   UNL A   1      44.964  32.668  32.382  1.00  0.00     0.009 A 
ATOM     80  C   UNL A   1      45.202  33.425  30.096  1.00  0.00     0.009 A 
ATOM     81  C   UNL A   1      45.413  33.910  32.835  1.00  0.00     0.001 A 
ATOM     82  C   UNL A   1      45.680  34.654  30.552  1.00  0.00     0.001 A 
ATOM     83  C   UNL A   1      45.778  34.898  31.920  1.00  0.00     0.000 A 
ENDBRANCH  65  78
ENDBRANCH  39  40
ENDBRANCH  31  34
ENDBRANCH  29  30
ENDBRANCH  28  29
ENDBRANCH   1  28
TORSDOF 16
ENDMDL
