MODEL 1
REMARK VINA RESULT:     -11.4      0.000      0.000
REMARK SMILES CC(C)c1ccc(NC(=O)C[C@H]2SC[C@@H](C(=O)NCCCCNC(=O)c3ccc(-c4c5nc(c(-c6ccccc6)c6ccc([nH]6)c(-c6ccccc6)c6nc(c(-c7ccccc7)c7ccc4[nH]7)C=C6)C=C5)cc3)NC2=O)cc1
REMARK SMILES IDX 19 1 18 2 16 3 17 4 15 6 12 7 13 8 75 9 14 10 74 11 76 12
REMARK SMILES IDX 11 14 9 15 8 16 10 18 7 19 4 20 5 21 78 22 6 23 77 24 2 25
REMARK SMILES IDX 1 26 3 27 20 28 21 29 22 30 23 31 24 32 25 34 26 35 27 36
REMARK SMILES IDX 73 37 28 38 72 39 29 40 30 41 31 42 66 43 32 44 71 45 65 46
REMARK SMILES IDX 67 47 33 48 70 49 64 50 63 51 34 53 56 54 41 55 55 56 42 57
REMARK SMILES IDX 45 58 54 59 68 60 43 61 44 62 53 64 69 65 46 66 35 67 36 68
REMARK SMILES IDX 40 69 37 70 39 71 38 72 57 73 58 74 62 75 59 76 61 77 60 78
REMARK SMILES IDX 47 79 48 80 52 81 49 82 51 83 50 84
REMARK H PARENT 18 5 74 13 8 17 23 33 67 52 45 63
REMARK Flexibility Score: inf
ROOT
ATOM      1  C   UNL A   1      34.692  32.046  28.496  1.00  0.00     0.116 C 
ENDROOT
BRANCH   1   2
ATOM      2  N   UNL A   1      33.433  31.678  27.887  1.00  0.00    -0.354 N 
ATOM      3  C   UNL A   1      33.206  30.682  26.979  1.00  0.00     0.243 C 
ATOM      4  O   UNL A   1      32.233  30.813  26.236  1.00  0.00    -0.273 OA
ATOM      5  H   UNL A   1      32.648  32.208  28.158  1.00  0.00     0.163 HD
BRANCH   3   6
ATOM      6  C   UNL A   1      33.986  29.359  27.131  1.00  0.00     0.181 C 
ATOM      7  C   UNL A   1      32.014  27.201  26.233  1.00  0.00     0.145 C 
ATOM      8  S   UNL A   1      32.975  27.994  24.870  1.00  0.00    -0.145 SA
ATOM      9  C   UNL A   1      31.944  28.064  27.501  1.00  0.00     0.234 C 
ATOM     10  C   UNL A   1      34.358  28.692  25.816  1.00  0.00     0.105 C 
ATOM     11  N   UNL A   1      33.127  28.560  27.992  1.00  0.00    -0.343 N 
ATOM     12  O   UNL A   1      30.948  28.255  28.192  1.00  0.00    -0.274 OA
ATOM     13  H   UNL A   1      33.392  28.377  28.923  1.00  0.00     0.164 HD
BRANCH   7  14
ATOM     14  C   UNL A   1      30.695  26.685  25.637  1.00  0.00     0.124 C 
BRANCH  14  15
ATOM     15  C   UNL A   1      30.691  25.997  24.286  1.00  0.00     0.226 C 
ATOM     16  N   UNL A   1      30.290  26.599  23.133  1.00  0.00    -0.326 N 
ATOM     17  H   UNL A   1      30.357  26.022  22.337  1.00  0.00     0.169 HD
ATOM     18  O   UNL A   1      31.057  24.817  24.207  1.00  0.00    -0.275 OA
BRANCH  16  19
ATOM     19  C   UNL A   1      29.803  27.881  22.865  1.00  0.00     0.041 A 
ATOM     20  C   UNL A   1      28.597  30.335  22.194  1.00  0.00    -0.045 A 
ATOM     21  C   UNL A   1      29.961  30.115  21.960  1.00  0.00     0.006 A 
ATOM     22  C   UNL A   1      27.855  29.328  22.824  1.00  0.00     0.006 A 
ATOM     23  C   UNL A   1      30.561  28.900  22.302  1.00  0.00     0.026 A 
ATOM     24  C   UNL A   1      28.458  28.119  23.169  1.00  0.00     0.026 A 
BRANCH  20  25
ATOM     25  C   UNL A   1      27.928  31.650  21.841  1.00  0.00     0.013 C 
ATOM     26  C   UNL A   1      28.610  32.795  22.591  1.00  0.00     0.012 C 
ATOM     27  C   UNL A   1      27.901  31.916  20.333  1.00  0.00     0.012 C 
ENDBRANCH  20  25
ENDBRANCH  16  19
ENDBRANCH  14  15
ENDBRANCH   7  14
ENDBRANCH   3   6
ENDBRANCH   1   2
BRANCH   1  28
ATOM     28  C   UNL A   1      34.750  33.564  28.667  1.00  0.00     0.023 C 
BRANCH  28  29
ATOM     29  C   UNL A   1      33.417  34.188  29.099  1.00  0.00     0.023 C 
BRANCH  29  30
ATOM     30  C   UNL A   1      33.475  35.683  29.392  1.00  0.00     0.116 C 
BRANCH  30  31
ATOM     31  N   UNL A   1      32.582  36.070  30.474  1.00  0.00    -0.352 N 
ATOM     32  C   UNL A   1      32.656  35.757  31.808  1.00  0.00     0.251 C 
ATOM     33  H   UNL A   1      31.820  36.635  30.213  1.00  0.00     0.163 HD
ATOM     34  O   UNL A   1      31.726  36.032  32.560  1.00  0.00    -0.269 OA
BRANCH  32  35
ATOM     35  C   UNL A   1      33.849  35.059  32.324  1.00  0.00     0.039 A 
ATOM     36  C   UNL A   1      33.703  33.774  32.847  1.00  0.00     0.014 A 
ATOM     37  C   UNL A   1      35.109  35.662  32.264  1.00  0.00     0.014 A 
ATOM     38  C   UNL A   1      34.835  33.061  33.246  1.00  0.00     0.010 A 
ATOM     39  C   UNL A   1      36.240  34.924  32.592  1.00  0.00     0.010 A 
ATOM     40  C   UNL A   1      36.115  33.615  33.082  1.00  0.00    -0.014 A 
BRANCH  40  41
ATOM     41  C   UNL A   1      37.336  32.834  33.399  1.00  0.00     0.031 A 
ATOM     42  C   UNL A   1      38.089  33.088  34.676  1.00  0.00     0.074 A 
ATOM     43  C   UNL A   1      37.806  31.942  32.505  1.00  0.00     0.049 A 
ATOM     44  N   UNL A   1      39.206  32.551  35.095  1.00  0.00    -0.248 NA
ATOM     45  C   UNL A   1      37.523  34.093  35.590  1.00  0.00     0.031 C 
ATOM     46  C   UNL A   1      37.189  31.628  31.215  1.00  0.00     0.029 A 
ATOM     47  N   UNL A   1      38.918  31.139  32.543  1.00  0.00    -0.354 N 
ATOM     48  C   UNL A   1      39.482  33.161  36.312  1.00  0.00     0.074 A 
ATOM     49  C   UNL A   1      38.445  34.143  36.540  1.00  0.00     0.031 C 
ATOM     50  C   UNL A   1      37.913  30.681  30.599  1.00  0.00     0.029 A 
ATOM     51  C   UNL A   1      39.070  30.354  31.427  1.00  0.00     0.049 A 
ATOM     52  H   UNL A   1      39.548  31.127  33.301  1.00  0.00     0.167 HD
ATOM     53  C   UNL A   1      40.497  32.912  37.173  1.00  0.00     0.031 A 
ATOM     54  C   UNL A   1      40.038  29.478  31.099  1.00  0.00     0.031 A 
ATOM     55  C   UNL A   1      41.529  31.935  36.947  1.00  0.00     0.049 A 
ATOM     56  C   UNL A   1      41.175  29.248  32.054  1.00  0.00     0.074 A 
ATOM     57  C   UNL A   1      42.573  31.575  37.782  1.00  0.00     0.029 A 
ATOM     58  N   UNL A   1      41.652  31.168  35.799  1.00  0.00    -0.354 N 
ATOM     59  N   UNL A   1      41.385  29.783  33.233  1.00  0.00    -0.248 NA
ATOM     60  C   UNL A   1      42.207  28.288  31.637  1.00  0.00     0.031 C 
ATOM     61  C   UNL A   1      43.361  30.633  37.114  1.00  0.00     0.029 A 
ATOM     62  C   UNL A   1      42.771  30.357  35.891  1.00  0.00     0.049 A 
ATOM     63  H   UNL A   1      41.036  31.195  35.032  1.00  0.00     0.167 HD
ATOM     64  C   UNL A   1      42.554  29.203  33.709  1.00  0.00     0.074 A 
ATOM     65  C   UNL A   1      42.997  28.264  32.700  1.00  0.00     0.031 C 
ATOM     66  C   UNL A   1      43.201  29.428  34.879  1.00  0.00     0.031 A 
BRANCH  53  67
ATOM     67  C   UNL A   1      40.545  33.722  38.440  1.00  0.00    -0.014 A 
ATOM     68  C   UNL A   1      39.893  33.290  39.606  1.00  0.00     0.009 A 
ATOM     69  C   UNL A   1      41.282  34.915  38.479  1.00  0.00     0.009 A 
ATOM     70  C   UNL A   1      39.946  34.055  40.773  1.00  0.00     0.001 A 
ATOM     71  C   UNL A   1      41.359  35.664  39.656  1.00  0.00     0.001 A 
ATOM     72  C   UNL A   1      40.682  35.238  40.798  1.00  0.00     0.000 A 
ENDBRANCH  53  67
BRANCH  54  73
ATOM     73  C   UNL A   1      39.973  28.742  29.808  1.00  0.00    -0.014 A 
ATOM     74  C   UNL A   1      40.410  29.349  28.621  1.00  0.00     0.009 A 
ATOM     75  C   UNL A   1      39.465  27.435  29.753  1.00  0.00     0.009 A 
ATOM     76  C   UNL A   1      40.312  28.673  27.402  1.00  0.00     0.001 A 
ATOM     77  C   UNL A   1      39.397  26.750  28.538  1.00  0.00     0.001 A 
ATOM     78  C   UNL A   1      39.811  27.373  27.363  1.00  0.00     0.000 A 
ENDBRANCH  54  73
BRANCH  66  79
ATOM     79  C   UNL A   1      44.438  28.617  35.149  1.00  0.00    -0.014 A 
ATOM     80  C   UNL A   1      45.713  29.087  34.795  1.00  0.00     0.009 A 
ATOM     81  C   UNL A   1      44.328  27.384  35.810  1.00  0.00     0.009 A 
ATOM     82  C   UNL A   1      46.847  28.322  35.070  1.00  0.00     0.001 A 
ATOM     83  C   UNL A   1      45.466  26.636  36.113  1.00  0.00     0.001 A 
ATOM     84  C   UNL A   1      46.724  27.101  35.733  1.00  0.00     0.000 A 
ENDBRANCH  66  79
ENDBRANCH  40  41
ENDBRANCH  32  35
ENDBRANCH  30  31
ENDBRANCH  29  30
ENDBRANCH  28  29
ENDBRANCH   1  28
TORSDOF 15
ENDMDL
MODEL 2
REMARK VINA RESULT:     -11.4      7.415     12.540
REMARK SMILES CC(C)c1ccc(NC(=O)C[C@H]2SC[C@@H](C(=O)NCCCCNC(=O)c3ccc(-c4c5nc(c(-c6ccccc6)c6ccc([nH]6)c(-c6ccccc6)c6nc(c(-c7ccccc7)c7ccc4[nH]7)C=C6)C=C5)cc3)NC2=O)cc1
REMARK SMILES IDX 19 1 18 2 16 3 17 4 15 6 12 7 13 8 75 9 14 10 74 11 76 12
REMARK SMILES IDX 11 14 9 15 8 16 10 18 7 19 4 20 5 21 78 22 6 23 77 24 2 25
REMARK SMILES IDX 1 26 3 27 20 28 21 29 22 30 23 31 24 32 25 34 26 35 27 36
REMARK SMILES IDX 73 37 28 38 72 39 29 40 30 41 31 42 66 43 32 44 71 45 65 46
REMARK SMILES IDX 67 47 33 48 70 49 64 50 63 51 34 53 56 54 41 55 55 56 42 57
REMARK SMILES IDX 45 58 54 59 68 60 43 61 44 62 53 64 69 65 46 66 35 67 36 68
REMARK SMILES IDX 40 69 37 70 39 71 38 72 57 73 58 74 62 75 59 76 61 77 60 78
REMARK SMILES IDX 47 79 48 80 52 81 49 82 51 83 50 84
REMARK H PARENT 18 5 74 13 8 17 23 33 67 52 45 63
REMARK Flexibility Score: inf
ROOT
ATOM      1  C   UNL A   1      40.245  22.134  26.593  1.00  0.00     0.116 C 
ENDROOT
BRANCH   1   2
ATOM      2  N   UNL A   1      39.304  21.478  25.712  1.00  0.00    -0.354 N 
ATOM      3  C   UNL A   1      37.962  21.716  25.601  1.00  0.00     0.243 C 
ATOM      4  O   UNL A   1      37.263  20.791  25.187  1.00  0.00    -0.273 OA
ATOM      5  H   UNL A   1      39.672  20.780  25.125  1.00  0.00     0.163 HD
BRANCH   3   6
ATOM      6  C   UNL A   1      37.462  23.171  25.721  1.00  0.00     0.181 C 
ATOM      7  C   UNL A   1      35.015  23.292  23.891  1.00  0.00     0.145 C 
ATOM      8  S   UNL A   1      34.678  22.687  25.604  1.00  0.00    -0.145 SA
ATOM      9  C   UNL A   1      36.486  23.142  23.478  1.00  0.00     0.234 C 
ATOM     10  C   UNL A   1      36.144  23.326  26.464  1.00  0.00     0.105 C 
ATOM     11  N   UNL A   1      37.436  23.632  24.341  1.00  0.00    -0.343 N 
ATOM     12  O   UNL A   1      36.895  22.736  22.395  1.00  0.00    -0.274 OA
ATOM     13  H   UNL A   1      38.097  24.290  24.027  1.00  0.00     0.164 HD
BRANCH   7  14
ATOM     14  C   UNL A   1      33.941  22.699  22.966  1.00  0.00     0.124 C 
BRANCH  14  15
ATOM     15  C   UNL A   1      32.484  22.713  23.387  1.00  0.00     0.226 C 
ATOM     16  N   UNL A   1      31.796  21.602  23.764  1.00  0.00    -0.326 N 
ATOM     17  H   UNL A   1      30.861  21.778  24.019  1.00  0.00     0.169 HD
ATOM     18  O   UNL A   1      31.865  23.785  23.383  1.00  0.00    -0.275 OA
BRANCH  16  19
ATOM     19  C   UNL A   1      32.165  20.257  23.857  1.00  0.00     0.041 A 
ATOM     20  C   UNL A   1      33.141  17.637  24.193  1.00  0.00    -0.045 A 
ATOM     21  C   UNL A   1      32.711  18.090  22.938  1.00  0.00     0.006 A 
ATOM     22  C   UNL A   1      33.021  18.497  25.292  1.00  0.00     0.006 A 
ATOM     23  C   UNL A   1      32.217  19.387  22.775  1.00  0.00     0.026 A 
ATOM     24  C   UNL A   1      32.523  19.789  25.125  1.00  0.00     0.026 A 
BRANCH  20  25
ATOM     25  C   UNL A   1      33.669  16.229  24.396  1.00  0.00     0.013 C 
ATOM     26  C   UNL A   1      35.080  16.287  24.981  1.00  0.00     0.012 C 
ATOM     27  C   UNL A   1      32.745  15.370  25.265  1.00  0.00     0.012 C 
ENDBRANCH  20  25
ENDBRANCH  16  19
ENDBRANCH  14  15
ENDBRANCH   7  14
ENDBRANCH   3   6
ENDBRANCH   1   2
BRANCH   1  28
ATOM     28  C   UNL A   1      41.639  21.546  26.375  1.00  0.00     0.023 C 
BRANCH  28  29
ATOM     29  C   UNL A   1      41.628  20.072  25.948  1.00  0.00     0.023 C 
BRANCH  29  30
ATOM     30  C   UNL A   1      42.876  19.286  26.333  1.00  0.00     0.116 C 
BRANCH  30  31
ATOM     31  N   UNL A   1      43.643  18.862  25.171  1.00  0.00    -0.352 N 
ATOM     32  C   UNL A   1      44.471  19.603  24.366  1.00  0.00     0.251 C 
ATOM     33  H   UNL A   1      43.556  17.912  24.929  1.00  0.00     0.163 HD
ATOM     34  O   UNL A   1      44.914  19.124  23.327  1.00  0.00    -0.269 OA
BRANCH  32  35
ATOM     35  C   UNL A   1      44.799  20.991  24.745  1.00  0.00     0.039 A 
ATOM     36  C   UNL A   1      44.449  22.026  23.877  1.00  0.00     0.014 A 
ATOM     37  C   UNL A   1      45.423  21.268  25.964  1.00  0.00     0.014 A 
ATOM     38  C   UNL A   1      44.659  23.350  24.265  1.00  0.00     0.010 A 
ATOM     39  C   UNL A   1      45.564  22.587  26.380  1.00  0.00     0.010 A 
ATOM     40  C   UNL A   1      45.180  23.641  25.537  1.00  0.00    -0.014 A 
BRANCH  40  41
ATOM     41  C   UNL A   1      45.313  25.041  26.010  1.00  0.00     0.031 A 
ATOM     42  C   UNL A   1      46.647  25.732  25.970  1.00  0.00     0.074 A 
ATOM     43  C   UNL A   1      44.244  25.667  26.540  1.00  0.00     0.049 A 
ATOM     44  N   UNL A   1      46.970  26.927  26.396  1.00  0.00    -0.248 NA
ATOM     45  C   UNL A   1      47.770  24.973  25.396  1.00  0.00     0.031 C 
ATOM     46  C   UNL A   1      42.902  25.095  26.668  1.00  0.00     0.029 A 
ATOM     47  N   UNL A   1      44.120  26.924  27.076  1.00  0.00    -0.354 N 
ATOM     48  C   UNL A   1      48.332  27.056  26.154  1.00  0.00     0.074 A 
ATOM     49  C   UNL A   1      48.784  25.802  25.592  1.00  0.00     0.031 C 
ATOM     50  C   UNL A   1      42.085  26.008  27.219  1.00  0.00     0.029 A 
ATOM     51  C   UNL A   1      42.853  27.210  27.524  1.00  0.00     0.049 A 
ATOM     52  H   UNL A   1      44.869  27.562  27.133  1.00  0.00     0.167 HD
ATOM     53  C   UNL A   1      49.131  28.130  26.362  1.00  0.00     0.031 A 
ATOM     54  C   UNL A   1      42.366  28.311  28.126  1.00  0.00     0.031 A 
ATOM     55  C   UNL A   1      48.681  29.377  26.921  1.00  0.00     0.049 A 
ATOM     56  C   UNL A   1      43.283  29.474  28.382  1.00  0.00     0.074 A 
ATOM     57  C   UNL A   1      49.404  30.540  27.126  1.00  0.00     0.029 A 
ATOM     58  N   UNL A   1      47.393  29.621  27.371  1.00  0.00    -0.354 N 
ATOM     59  N   UNL A   1      44.553  29.607  28.085  1.00  0.00    -0.248 NA
ATOM     60  C   UNL A   1      42.696  30.644  29.051  1.00  0.00     0.031 C 
ATOM     61  C   UNL A   1      48.568  31.468  27.754  1.00  0.00     0.029 A 
ATOM     62  C   UNL A   1      47.307  30.907  27.880  1.00  0.00     0.049 A 
ATOM     63  H   UNL A   1      46.649  28.978  27.334  1.00  0.00     0.167 HD
ATOM     64  C   UNL A   1      44.909  30.883  28.503  1.00  0.00     0.074 A 
ATOM     65  C   UNL A   1      43.717  31.489  29.059  1.00  0.00     0.031 C 
ATOM     66  C   UNL A   1      46.115  31.497  28.431  1.00  0.00     0.031 A 
BRANCH  53  67
ATOM     67  C   UNL A   1      50.583  27.995  25.991  1.00  0.00    -0.014 A 
ATOM     68  C   UNL A   1      51.531  27.531  26.916  1.00  0.00     0.009 A 
ATOM     69  C   UNL A   1      51.002  28.301  24.687  1.00  0.00     0.009 A 
ATOM     70  C   UNL A   1      52.875  27.414  26.556  1.00  0.00     0.001 A 
ATOM     71  C   UNL A   1      52.341  28.154  24.320  1.00  0.00     0.001 A 
ATOM     72  C   UNL A   1      53.277  27.720  25.257  1.00  0.00     0.000 A 
ENDBRANCH  53  67
BRANCH  54  73
ATOM     73  C   UNL A   1      40.935  28.373  28.524  1.00  0.00    -0.014 A 
ATOM     74  C   UNL A   1      39.987  28.970  27.677  1.00  0.00     0.009 A 
ATOM     75  C   UNL A   1      40.508  27.847  29.753  1.00  0.00     0.009 A 
ATOM     76  C   UNL A   1      38.649  29.064  28.068  1.00  0.00     0.001 A 
ATOM     77  C   UNL A   1      39.165  27.914  30.126  1.00  0.00     0.001 A 
ATOM     78  C   UNL A   1      38.238  28.532  29.289  1.00  0.00     0.000 A 
ENDBRANCH  54  73
BRANCH  66  79
ATOM     79  C   UNL A   1      46.198  32.912  28.932  1.00  0.00    -0.014 A 
ATOM     80  C   UNL A   1      46.493  33.197  30.275  1.00  0.00     0.009 A 
ATOM     81  C   UNL A   1      46.025  33.977  28.034  1.00  0.00     0.009 A 
ATOM     82  C   UNL A   1      46.580  34.520  30.712  1.00  0.00     0.001 A 
ATOM     83  C   UNL A   1      46.145  35.298  28.467  1.00  0.00     0.001 A 
ATOM     84  C   UNL A   1      46.411  35.568  29.808  1.00  0.00     0.000 A 
ENDBRANCH  66  79
ENDBRANCH  40  41
ENDBRANCH  32  35
ENDBRANCH  30  31
ENDBRANCH  29  30
ENDBRANCH  28  29
ENDBRANCH   1  28
TORSDOF 15
ENDMDL
MODEL 3
REMARK VINA RESULT:     -11.1      5.144     10.062
REMARK SMILES CC(C)c1ccc(NC(=O)C[C@H]2SC[C@@H](C(=O)NCCCCNC(=O)c3ccc(-c4c5nc(c(-c6ccccc6)c6ccc([nH]6)c(-c6ccccc6)c6nc(c(-c7ccccc7)c7ccc4[nH]7)C=C6)C=C5)cc3)NC2=O)cc1
REMARK SMILES IDX 19 1 18 2 16 3 17 4 15 6 12 7 13 8 75 9 14 10 74 11 76 12
REMARK SMILES IDX 11 14 9 15 8 16 10 18 7 19 4 20 5 21 78 22 6 23 77 24 2 25
REMARK SMILES IDX 1 26 3 27 20 28 21 29 22 30 23 31 24 32 25 34 26 35 27 36
REMARK SMILES IDX 73 37 28 38 72 39 29 40 30 41 31 42 66 43 32 44 71 45 65 46
REMARK SMILES IDX 67 47 33 48 70 49 64 50 63 51 34 53 56 54 41 55 55 56 42 57
REMARK SMILES IDX 45 58 54 59 68 60 43 61 44 62 53 64 69 65 46 66 35 67 36 68
REMARK SMILES IDX 40 69 37 70 39 71 38 72 57 73 58 74 62 75 59 76 61 77 60 78
REMARK SMILES IDX 47 79 48 80 52 81 49 82 51 83 50 84
REMARK H PARENT 18 5 74 13 8 17 23 33 67 52 45 63
REMARK Flexibility Score: inf
ROOT
ATOM      1  C   UNL A   1      37.758  22.212  25.461  1.00  0.00     0.116 C 
ENDROOT
BRANCH   1   2
ATOM      2  N   UNL A   1      37.194  22.925  24.336  1.00  0.00    -0.354 N 
ATOM      3  C   UNL A   1      35.985  22.709  23.736  1.00  0.00     0.243 C 
ATOM      4  O   UNL A   1      35.877  23.050  22.558  1.00  0.00    -0.273 OA
ATOM      5  H   UNL A   1      37.745  23.648  23.959  1.00  0.00     0.163 HD
BRANCH   3   6
ATOM      6  C   UNL A   1      34.780  22.332  24.624  1.00  0.00     0.181 C 
ATOM      7  C   UNL A   1      32.524  24.163  23.672  1.00  0.00     0.145 C 
ATOM      8  S   UNL A   1      32.720  22.601  22.706  1.00  0.00    -0.145 SA
ATOM      9  C   UNL A   1      33.795  24.563  24.435  1.00  0.00     0.234 C 
ATOM     10  C   UNL A   1      33.662  21.604  23.895  1.00  0.00     0.105 C 
ATOM     11  N   UNL A   1      34.390  23.602  25.217  1.00  0.00    -0.343 N 
ATOM     12  O   UNL A   1      34.266  25.693  24.513  1.00  0.00    -0.274 OA
ATOM     13  H   UNL A   1      34.552  23.773  26.173  1.00  0.00     0.164 HD
BRANCH   7  14
ATOM     14  C   UNL A   1      31.877  25.206  22.748  1.00  0.00     0.124 C 
BRANCH  14  15
ATOM     15  C   UNL A   1      32.744  26.052  21.835  1.00  0.00     0.226 C 
ATOM     16  N   UNL A   1      33.037  27.360  22.071  1.00  0.00    -0.326 N 
ATOM     17  H   UNL A   1      33.622  27.767  21.391  1.00  0.00     0.169 HD
ATOM     18  O   UNL A   1      33.210  25.547  20.807  1.00  0.00    -0.275 OA
BRANCH  16  19
ATOM     19  C   UNL A   1      32.667  28.234  23.097  1.00  0.00     0.041 A 
ATOM     20  C   UNL A   1      32.071  29.825  25.342  1.00  0.00    -0.045 A 
ATOM     21  C   UNL A   1      31.064  29.435  24.448  1.00  0.00     0.006 A 
ATOM     22  C   UNL A   1      33.392  29.454  25.065  1.00  0.00     0.006 A 
ATOM     23  C   UNL A   1      31.363  28.654  23.328  1.00  0.00     0.026 A 
ATOM     24  C   UNL A   1      33.687  28.679  23.943  1.00  0.00     0.026 A 
BRANCH  20  25
ATOM     25  C   UNL A   1      31.772  30.682  26.557  1.00  0.00     0.013 C 
ATOM     26  C   UNL A   1      33.067  30.977  27.313  1.00  0.00     0.012 C 
ATOM     27  C   UNL A   1      31.032  31.976  26.202  1.00  0.00     0.012 C 
ENDBRANCH  20  25
ENDBRANCH  16  19
ENDBRANCH  14  15
ENDBRANCH   7  14
ENDBRANCH   3   6
ENDBRANCH   1   2
BRANCH   1  28
ATOM     28  C   UNL A   1      37.657  20.708  25.213  1.00  0.00     0.023 C 
BRANCH  28  29
ATOM     29  C   UNL A   1      39.010  20.030  24.962  1.00  0.00     0.023 C 
BRANCH  29  30
ATOM     30  C   UNL A   1      39.659  19.420  26.200  1.00  0.00     0.116 C 
BRANCH  30  31
ATOM     31  N   UNL A   1      40.993  18.906  25.929  1.00  0.00    -0.352 N 
ATOM     32  C   UNL A   1      42.195  19.567  25.957  1.00  0.00     0.251 C 
ATOM     33  H   UNL A   1      41.040  17.952  25.692  1.00  0.00     0.163 HD
ATOM     34  O   UNL A   1      43.212  19.020  25.541  1.00  0.00    -0.269 OA
BRANCH  32  35
ATOM     35  C   UNL A   1      42.250  20.952  26.463  1.00  0.00     0.039 A 
ATOM     36  C   UNL A   1      42.124  21.174  27.835  1.00  0.00     0.014 A 
ATOM     37  C   UNL A   1      42.454  22.022  25.587  1.00  0.00     0.014 A 
ATOM     38  C   UNL A   1      42.275  22.466  28.340  1.00  0.00     0.010 A 
ATOM     39  C   UNL A   1      42.678  23.296  26.098  1.00  0.00     0.010 A 
ATOM     40  C   UNL A   1      42.595  23.529  27.480  1.00  0.00    -0.014 A 
BRANCH  40  41
ATOM     41  C   UNL A   1      42.864  24.890  28.008  1.00  0.00     0.031 A 
ATOM     42  C   UNL A   1      44.255  25.280  28.424  1.00  0.00     0.074 A 
ATOM     43  C   UNL A   1      41.842  25.752  28.176  1.00  0.00     0.049 A 
ATOM     44  N   UNL A   1      44.671  26.398  28.964  1.00  0.00    -0.248 NA
ATOM     45  C   UNL A   1      45.312  24.275  28.229  1.00  0.00     0.031 C 
ATOM     46  C   UNL A   1      40.441  25.483  27.843  1.00  0.00     0.029 A 
ATOM     47  N   UNL A   1      41.824  27.030  28.675  1.00  0.00    -0.354 N 
ATOM     48  C   UNL A   1      46.031  26.225  29.183  1.00  0.00     0.074 A 
ATOM     49  C   UNL A   1      46.361  24.879  28.767  1.00  0.00     0.031 C 
ATOM     50  C   UNL A   1      39.707  26.572  28.121  1.00  0.00     0.029 A 
ATOM     51  C   UNL A   1      40.573  27.597  28.692  1.00  0.00     0.049 A 
ATOM     52  H   UNL A   1      42.633  27.496  28.990  1.00  0.00     0.167 HD
ATOM     53  C   UNL A   1      46.931  27.113  29.670  1.00  0.00     0.031 A 
ATOM     54  C   UNL A   1      40.166  28.803  29.131  1.00  0.00     0.031 A 
ATOM     55  C   UNL A   1      46.603  28.452  30.084  1.00  0.00     0.049 A 
ATOM     56  C   UNL A   1      41.177  29.756  29.704  1.00  0.00     0.074 A 
ATOM     57  C   UNL A   1      47.452  29.443  30.544  1.00  0.00     0.029 A 
ATOM     58  N   UNL A   1      45.323  28.983  30.095  1.00  0.00    -0.354 N 
ATOM     59  N   UNL A   1      42.472  29.603  29.841  1.00  0.00    -0.248 NA
ATOM     60  C   UNL A   1      40.671  31.053  30.175  1.00  0.00     0.031 C 
ATOM     61  C   UNL A   1      46.678  30.555  30.890  1.00  0.00     0.029 A 
ATOM     62  C   UNL A   1      45.355  30.279  30.582  1.00  0.00     0.049 A 
ATOM     63  H   UNL A   1      44.512  28.511  29.800  1.00  0.00     0.167 HD
ATOM     64  C   UNL A   1      42.939  30.792  30.386  1.00  0.00     0.074 A 
ATOM     65  C   UNL A   1      41.791  31.662  30.538  1.00  0.00     0.031 C 
ATOM     66  C   UNL A   1      44.205  31.134  30.729  1.00  0.00     0.031 A 
BRANCH  53  67
ATOM     67  C   UNL A   1      48.359  26.657  29.790  1.00  0.00    -0.014 A 
ATOM     68  C   UNL A   1      48.839  26.068  30.971  1.00  0.00     0.009 A 
ATOM     69  C   UNL A   1      49.228  26.785  28.695  1.00  0.00     0.009 A 
ATOM     70  C   UNL A   1      50.169  25.652  31.066  1.00  0.00     0.001 A 
ATOM     71  C   UNL A   1      50.549  26.340  28.782  1.00  0.00     0.001 A 
ATOM     72  C   UNL A   1      51.021  25.784  29.970  1.00  0.00     0.000 A 
ENDBRANCH  53  67
BRANCH  54  73
ATOM     73  C   UNL A   1      38.732  29.185  29.041  1.00  0.00    -0.014 A 
ATOM     74  C   UNL A   1      38.219  29.746  27.861  1.00  0.00     0.009 A 
ATOM     75  C   UNL A   1      37.870  29.000  30.133  1.00  0.00     0.009 A 
ATOM     76  C   UNL A   1      36.881  30.142  27.789  1.00  0.00     0.001 A 
ATOM     77  C   UNL A   1      36.526  29.368  30.047  1.00  0.00     0.001 A 
ATOM     78  C   UNL A   1      36.035  29.947  28.880  1.00  0.00     0.000 A 
ENDBRANCH  54  73
BRANCH  66  79
ATOM     79  C   UNL A   1      44.423  32.520  31.267  1.00  0.00    -0.014 A 
ATOM     80  C   UNL A   1      44.390  32.784  32.645  1.00  0.00     0.009 A 
ATOM     81  C   UNL A   1      44.714  33.569  30.381  1.00  0.00     0.009 A 
ATOM     82  C   UNL A   1      44.611  34.077  33.121  1.00  0.00     0.001 A 
ATOM     83  C   UNL A   1      44.966  34.855  30.862  1.00  0.00     0.001 A 
ATOM     84  C   UNL A   1      44.904  35.110  32.230  1.00  0.00     0.000 A 
ENDBRANCH  66  79
ENDBRANCH  40  41
ENDBRANCH  32  35
ENDBRANCH  30  31
ENDBRANCH  29  30
ENDBRANCH  28  29
ENDBRANCH   1  28
TORSDOF 15
ENDMDL
