MODEL 1
REMARK VINA RESULT:     -10.6      0.000      0.000
REMARK SMILES C[NH2+][C@@H](C)c1ccc(SCc2ccc(C(=O)NCCCCNC(=O)c3ccc(-c4c5nc(c(-c6ccccc6)c6ccc([nH]6)c(-c6ccccc6)c6nc(c(-c7ccccc7)c7ccc4[nH]7)C=C6)C=C5)cc3)cc2)cc1
REMARK SMILES IDX 18 1 17 2 15 3 16 4 14 6 11 7 12 8 74 9 13 10 73 11 10 12
REMARK SMILES IDX 9 13 8 14 5 15 6 16 76 17 7 18 75 19 3 20 4 21 2 22 1 23
REMARK SMILES IDX 19 26 20 27 21 28 22 29 23 30 24 32 25 33 26 34 72 35 27 36
REMARK SMILES IDX 71 37 28 38 29 39 30 40 65 41 31 42 70 43 64 44 66 45 32 46
REMARK SMILES IDX 69 47 63 48 62 49 33 51 55 52 40 53 54 54 41 55 44 56 53 57
REMARK SMILES IDX 67 58 42 59 43 60 52 62 68 63 45 64 34 65 35 66 39 67 36 68
REMARK SMILES IDX 38 69 37 70 56 71 57 72 61 73 58 74 60 75 59 76 46 77 47 78
REMARK SMILES IDX 51 79 48 80 50 81 49 82
REMARK H PARENT 17 5 2 24 2 25 22 31 66 50 44 61
REMARK Flexibility Score: inf
ROOT
ATOM      1  C   UNL A   1      39.024  24.449  26.256  1.00  0.00     0.116 C 
ENDROOT
BRANCH   1   2
ATOM      2  N   UNL A   1      39.035  23.000  26.146  1.00  0.00    -0.352 N 
ATOM      3  C   UNL A   1      38.089  22.141  25.640  1.00  0.00     0.251 C 
ATOM      4  O   UNL A   1      38.361  20.948  25.534  1.00  0.00    -0.269 OA
ATOM      5  H   UNL A   1      39.849  22.565  26.488  1.00  0.00     0.163 HD
BRANCH   3   6
ATOM      6  C   UNL A   1      36.773  22.636  25.167  1.00  0.00     0.039 A 
ATOM      7  C   UNL A   1      34.370  23.692  24.150  1.00  0.00    -0.038 A 
ATOM      8  C   UNL A   1      35.265  23.015  23.308  1.00  0.00     0.005 A 
ATOM      9  C   UNL A   1      34.649  23.740  25.523  1.00  0.00     0.005 A 
ATOM     10  C   UNL A   1      36.458  22.489  23.813  1.00  0.00     0.014 A 
ATOM     11  C   UNL A   1      35.836  23.208  26.028  1.00  0.00     0.014 A 
BRANCH   7  12
ATOM     12  C   UNL A   1      33.120  24.340  23.607  1.00  0.00     0.110 C 
BRANCH  12  13
ATOM     13  S   UNL A   1      31.577  23.417  23.951  1.00  0.00    -0.121 SA
BRANCH  13  14
ATOM     14  C   UNL A   1      32.059  21.695  24.004  1.00  0.00     0.008 A 
ATOM     15  C   UNL A   1      32.882  18.983  24.283  1.00  0.00     0.009 A 
ATOM     16  C   UNL A   1      32.712  19.807  25.405  1.00  0.00     0.011 A 
ATOM     17  C   UNL A   1      32.573  19.523  23.027  1.00  0.00     0.011 A 
ATOM     18  C   UNL A   1      32.315  21.144  25.265  1.00  0.00     0.015 A 
ATOM     19  C   UNL A   1      32.156  20.856  22.894  1.00  0.00     0.015 A 
BRANCH  15  20
ATOM     20  C   UNL A   1      33.336  17.539  24.478  1.00  0.00     0.210 C 
ATOM     21  C   UNL A   1      33.939  16.921  23.207  1.00  0.00     0.081 C 
BRANCH  20  22
ATOM     22  N   UNL A   1      32.217  16.760  25.021  1.00  0.00    -0.343 N 
ATOM     23  C   UNL A   1      32.590  15.428  25.472  1.00  0.00     0.331 C 
ATOM     24  H   UNL A   1      31.825  17.269  25.813  1.00  0.00     0.346 HD
ATOM     25  H   UNL A   1      31.545  16.638  24.262  1.00  0.00     0.346 HD
ENDBRANCH  20  22
ENDBRANCH  15  20
ENDBRANCH  13  14
ENDBRANCH  12  13
ENDBRANCH   7  12
ENDBRANCH   3   6
ENDBRANCH   1   2
BRANCH   1  26
ATOM     26  C   UNL A   1      39.598  24.909  27.597  1.00  0.00     0.023 C 
BRANCH  26  27
ATOM     27  C   UNL A   1      41.111  25.132  27.600  1.00  0.00     0.023 C 
BRANCH  27  28
ATOM     28  C   UNL A   1      41.893  24.243  28.560  1.00  0.00     0.116 C 
BRANCH  28  29
ATOM     29  N   UNL A   1      42.632  23.184  27.891  1.00  0.00    -0.352 N 
ATOM     30  C   UNL A   1      43.771  23.283  27.123  1.00  0.00     0.251 C 
ATOM     31  H   UNL A   1      42.270  22.275  28.002  1.00  0.00     0.163 HD
ATOM     32  O   UNL A   1      44.214  22.306  26.542  1.00  0.00    -0.269 OA
BRANCH  30  33
ATOM     33  C   UNL A   1      44.429  24.601  26.977  1.00  0.00     0.039 A 
ATOM     34  C   UNL A   1      45.133  25.123  28.065  1.00  0.00     0.014 A 
ATOM     35  C   UNL A   1      44.378  25.297  25.767  1.00  0.00     0.014 A 
ATOM     36  C   UNL A   1      45.846  26.315  27.916  1.00  0.00     0.010 A 
ATOM     37  C   UNL A   1      45.144  26.446  25.601  1.00  0.00     0.010 A 
ATOM     38  C   UNL A   1      45.886  26.966  26.672  1.00  0.00    -0.014 A 
BRANCH  38  39
ATOM     39  C   UNL A   1      46.698  28.190  26.467  1.00  0.00     0.031 A 
ATOM     40  C   UNL A   1      48.178  28.081  26.229  1.00  0.00     0.074 A 
ATOM     41  C   UNL A   1      46.118  29.402  26.568  1.00  0.00     0.049 A 
ATOM     42  N   UNL A   1      49.066  29.034  26.105  1.00  0.00    -0.248 NA
ATOM     43  C   UNL A   1      48.738  26.722  26.146  1.00  0.00     0.031 C 
ATOM     44  C   UNL A   1      44.699  29.645  26.836  1.00  0.00     0.029 A 
ATOM     45  N   UNL A   1      46.657  30.660  26.467  1.00  0.00    -0.354 N 
ATOM     46  C   UNL A   1      50.288  28.393  25.949  1.00  0.00     0.074 A 
ATOM     47  C   UNL A   1      50.035  26.971  26.042  1.00  0.00     0.031 C 
ATOM     48  C   UNL A   1      44.476  30.970  26.854  1.00  0.00     0.029 A 
ATOM     49  C   UNL A   1      45.738  31.668  26.640  1.00  0.00     0.049 A 
ATOM     50  H   UNL A   1      47.611  30.825  26.289  1.00  0.00     0.167 HD
ATOM     51  C   UNL A   1      51.510  28.935  25.731  1.00  0.00     0.031 A 
ATOM     52  C   UNL A   1      45.898  33.005  26.632  1.00  0.00     0.031 A 
ATOM     53  C   UNL A   1      51.761  30.346  25.625  1.00  0.00     0.049 A 
ATOM     54  C   UNL A   1      47.265  33.582  26.395  1.00  0.00     0.074 A 
ATOM     55  C   UNL A   1      52.955  30.991  25.349  1.00  0.00     0.029 A 
ATOM     56  N   UNL A   1      50.802  31.333  25.789  1.00  0.00    -0.354 N 
ATOM     57  N   UNL A   1      48.400  32.959  26.186  1.00  0.00    -0.248 NA
ATOM     58  C   UNL A   1      47.371  35.048  26.384  1.00  0.00     0.031 C 
ATOM     59  C   UNL A   1      52.726  32.370  25.390  1.00  0.00     0.029 A 
ATOM     60  C   UNL A   1      51.380  32.581  25.640  1.00  0.00     0.049 A 
ATOM     61  H   UNL A   1      49.851  31.169  25.984  1.00  0.00     0.167 HD
ATOM     62  C   UNL A   1      49.347  33.955  25.986  1.00  0.00     0.074 A 
ATOM     63  C   UNL A   1      48.651  35.223  26.088  1.00  0.00     0.031 C 
ATOM     64  C   UNL A   1      50.674  33.832  25.740  1.00  0.00     0.031 A 
BRANCH  51  65
ATOM     65  C   UNL A   1      52.671  27.990  25.597  1.00  0.00    -0.014 A 
ATOM     66  C   UNL A   1      53.075  27.509  24.340  1.00  0.00     0.009 A 
ATOM     67  C   UNL A   1      53.391  27.600  26.736  1.00  0.00     0.009 A 
ATOM     68  C   UNL A   1      54.152  26.628  24.233  1.00  0.00     0.001 A 
ATOM     69  C   UNL A   1      54.486  26.741  26.623  1.00  0.00     0.001 A 
ATOM     70  C   UNL A   1      54.859  26.249  25.373  1.00  0.00     0.000 A 
ENDBRANCH  51  65
BRANCH  52  71
ATOM     71  C   UNL A   1      44.727  33.896  26.839  1.00  0.00    -0.014 A 
ATOM     72  C   UNL A   1      44.345  34.275  28.136  1.00  0.00     0.009 A 
ATOM     73  C   UNL A   1      43.978  34.361  25.748  1.00  0.00     0.009 A 
ATOM     74  C   UNL A   1      43.222  35.080  28.335  1.00  0.00     0.001 A 
ATOM     75  C   UNL A   1      42.872  35.189  25.949  1.00  0.00     0.001 A 
ATOM     76  C   UNL A   1      42.488  35.539  27.243  1.00  0.00     0.000 A 
ENDBRANCH  52  71
BRANCH  64  77
ATOM     77  C   UNL A   1      51.453  35.097  25.521  1.00  0.00    -0.014 A 
ATOM     78  C   UNL A   1      51.623  35.637  24.237  1.00  0.00     0.009 A 
ATOM     79  C   UNL A   1      51.988  35.781  26.625  1.00  0.00     0.009 A 
ATOM     80  C   UNL A   1      52.339  36.823  24.061  1.00  0.00     0.001 A 
ATOM     81  C   UNL A   1      52.679  36.979  26.448  1.00  0.00     0.001 A 
ATOM     82  C   UNL A   1      52.862  37.495  25.166  1.00  0.00     0.000 A 
ENDBRANCH  64  77
ENDBRANCH  38  39
ENDBRANCH  30  33
ENDBRANCH  28  29
ENDBRANCH  27  28
ENDBRANCH  26  27
ENDBRANCH   1  26
TORSDOF 16
ENDMDL
MODEL 2
REMARK VINA RESULT:     -10.4      3.171      7.359
REMARK SMILES C[NH2+][C@@H](C)c1ccc(SCc2ccc(C(=O)NCCCCNC(=O)c3ccc(-c4c5nc(c(-c6ccccc6)c6ccc([nH]6)c(-c6ccccc6)c6nc(c(-c7ccccc7)c7ccc4[nH]7)C=C6)C=C5)cc3)cc2)cc1
REMARK SMILES IDX 18 1 17 2 15 3 16 4 14 6 11 7 12 8 74 9 13 10 73 11 10 12
REMARK SMILES IDX 9 13 8 14 5 15 6 16 76 17 7 18 75 19 3 20 4 21 2 22 1 23
REMARK SMILES IDX 19 26 20 27 21 28 22 29 23 30 24 32 25 33 26 34 72 35 27 36
REMARK SMILES IDX 71 37 28 38 29 39 30 40 65 41 31 42 70 43 64 44 66 45 32 46
REMARK SMILES IDX 69 47 63 48 62 49 33 51 55 52 40 53 54 54 41 55 44 56 53 57
REMARK SMILES IDX 67 58 42 59 43 60 52 62 68 63 45 64 34 65 35 66 39 67 36 68
REMARK SMILES IDX 38 69 37 70 56 71 57 72 61 73 58 74 60 75 59 76 46 77 47 78
REMARK SMILES IDX 51 79 48 80 50 81 49 82
REMARK H PARENT 17 5 2 24 2 25 22 31 66 50 44 61
REMARK Flexibility Score: inf
ROOT
ATOM      1  C   UNL A   1      38.470  20.965  25.460  1.00  0.00     0.116 C 
ENDROOT
BRANCH   1   2
ATOM      2  N   UNL A   1      38.815  22.304  25.907  1.00  0.00    -0.352 N 
ATOM      3  C   UNL A   1      38.102  23.477  25.826  1.00  0.00     0.251 C 
ATOM      4  O   UNL A   1      38.540  24.481  26.383  1.00  0.00    -0.269 OA
ATOM      5  H   UNL A   1      39.698  22.384  26.333  1.00  0.00     0.163 HD
BRANCH   3   6
ATOM      6  C   UNL A   1      36.793  23.538  25.133  1.00  0.00     0.039 A 
ATOM      7  C   UNL A   1      34.393  23.752  23.677  1.00  0.00    -0.038 A 
ATOM      8  C   UNL A   1      35.501  23.085  23.132  1.00  0.00     0.005 A 
ATOM      9  C   UNL A   1      34.474  24.217  24.996  1.00  0.00     0.005 A 
ATOM     10  C   UNL A   1      36.693  22.977  23.856  1.00  0.00     0.014 A 
ATOM     11  C   UNL A   1      35.661  24.103  25.721  1.00  0.00     0.014 A 
BRANCH   7  12
ATOM     12  C   UNL A   1      33.129  23.953  22.877  1.00  0.00     0.110 C 
BRANCH  12  13
ATOM     13  S   UNL A   1      31.650  23.133  23.580  1.00  0.00    -0.121 SA
BRANCH  13  14
ATOM     14  C   UNL A   1      32.173  21.465  23.962  1.00  0.00     0.008 A 
ATOM     15  C   UNL A   1      32.930  18.754  24.390  1.00  0.00     0.009 A 
ATOM     16  C   UNL A   1      32.560  19.210  23.116  1.00  0.00     0.011 A 
ATOM     17  C   UNL A   1      32.973  19.693  25.430  1.00  0.00     0.011 A 
ATOM     18  C   UNL A   1      32.180  20.543  22.909  1.00  0.00     0.015 A 
ATOM     19  C   UNL A   1      32.611  21.030  25.213  1.00  0.00     0.015 A 
BRANCH  15  20
ATOM     20  C   UNL A   1      33.317  17.289  24.575  1.00  0.00     0.210 C 
ATOM     21  C   UNL A   1      34.013  16.691  23.343  1.00  0.00     0.081 C 
BRANCH  20  22
ATOM     22  N   UNL A   1      32.128  16.534  24.988  1.00  0.00    -0.343 N 
ATOM     23  C   UNL A   1      32.429  15.243  25.587  1.00  0.00     0.331 C 
ATOM     24  H   UNL A   1      31.613  17.091  25.669  1.00  0.00     0.346 HD
ATOM     25  H   UNL A   1      31.587  16.348  24.143  1.00  0.00     0.346 HD
ENDBRANCH  20  22
ENDBRANCH  15  20
ENDBRANCH  13  14
ENDBRANCH  12  13
ENDBRANCH   7  12
ENDBRANCH   3   6
ENDBRANCH   1   2
BRANCH   1  26
ATOM     26  C   UNL A   1      39.602  19.976  25.743  1.00  0.00     0.023 C 
BRANCH  26  27
ATOM     27  C   UNL A   1      40.926  20.623  26.154  1.00  0.00     0.023 C 
BRANCH  27  28
ATOM     28  C   UNL A   1      42.062  19.647  26.436  1.00  0.00     0.116 C 
BRANCH  28  29
ATOM     29  N   UNL A   1      43.019  19.548  25.345  1.00  0.00    -0.352 N 
ATOM     30  C   UNL A   1      43.840  20.526  24.829  1.00  0.00     0.251 C 
ATOM     31  H   UNL A   1      43.089  18.664  24.918  1.00  0.00     0.163 HD
ATOM     32  O   UNL A   1      44.517  20.308  23.838  1.00  0.00    -0.269 OA
BRANCH  30  33
ATOM     33  C   UNL A   1      43.860  21.861  25.469  1.00  0.00     0.039 A 
ATOM     34  C   UNL A   1      44.245  21.957  26.808  1.00  0.00     0.014 A 
ATOM     35  C   UNL A   1      43.532  23.008  24.742  1.00  0.00     0.014 A 
ATOM     36  C   UNL A   1      44.369  23.216  27.401  1.00  0.00     0.010 A 
ATOM     37  C   UNL A   1      43.722  24.262  25.313  1.00  0.00     0.010 A 
ATOM     38  C   UNL A   1      44.144  24.379  26.646  1.00  0.00    -0.014 A 
BRANCH  38  39
ATOM     39  C   UNL A   1      44.344  25.728  27.229  1.00  0.00     0.031 A 
ATOM     40  C   UNL A   1      43.160  26.535  27.686  1.00  0.00     0.074 A 
ATOM     41  C   UNL A   1      45.582  26.258  27.280  1.00  0.00     0.049 A 
ATOM     42  N   UNL A   1      43.124  27.758  28.149  1.00  0.00    -0.248 NA
ATOM     43  C   UNL A   1      41.840  25.891  27.584  1.00  0.00     0.031 C 
ATOM     44  C   UNL A   1      46.808  25.595  26.833  1.00  0.00     0.029 A 
ATOM     45  N   UNL A   1      46.009  27.484  27.724  1.00  0.00    -0.354 N 
ATOM     46  C   UNL A   1      41.782  28.037  28.374  1.00  0.00     0.074 A 
ATOM     47  C   UNL A   1      41.031  26.873  27.953  1.00  0.00     0.031 C 
ATOM     48  C   UNL A   1      47.853  26.413  27.047  1.00  0.00     0.029 A 
ATOM     49  C   UNL A   1      47.366  27.669  27.608  1.00  0.00     0.049 A 
ATOM     50  H   UNL A   1      45.402  28.167  28.090  1.00  0.00     0.167 HD
ATOM     51  C   UNL A   1      41.223  29.152  28.900  1.00  0.00     0.031 A 
ATOM     52  C   UNL A   1      48.131  28.734  27.914  1.00  0.00     0.031 A 
ATOM     53  C   UNL A   1      41.969  30.304  29.331  1.00  0.00     0.049 A 
ATOM     54  C   UNL A   1      47.487  29.963  28.490  1.00  0.00     0.074 A 
ATOM     55  C   UNL A   1      41.497  31.461  29.929  1.00  0.00     0.029 A 
ATOM     56  N   UNL A   1      43.342  30.445  29.212  1.00  0.00    -0.354 N 
ATOM     57  N   UNL A   1      46.222  30.185  28.756  1.00  0.00    -0.248 NA
ATOM     58  C   UNL A   1      48.378  31.086  28.816  1.00  0.00     0.031 C 
ATOM     59  C   UNL A   1      42.582  32.320  30.130  1.00  0.00     0.029 A 
ATOM     60  C   UNL A   1      43.734  31.676  29.706  1.00  0.00     0.049 A 
ATOM     61  H   UNL A   1      43.948  29.769  28.831  1.00  0.00     0.167 HD
ATOM     62  C   UNL A   1      46.170  31.457  29.310  1.00  0.00     0.074 A 
ATOM     63  C   UNL A   1      47.531  31.953  29.352  1.00  0.00     0.031 C 
ATOM     64  C   UNL A   1      45.092  32.153  29.746  1.00  0.00     0.031 A 
BRANCH  51  65
ATOM     65  C   UNL A   1      39.727  29.179  29.032  1.00  0.00    -0.014 A 
ATOM     66  C   UNL A   1      39.096  28.782  30.223  1.00  0.00     0.009 A 
ATOM     67  C   UNL A   1      38.937  29.636  27.966  1.00  0.00     0.009 A 
ATOM     68  C   UNL A   1      37.704  28.808  30.329  1.00  0.00     0.001 A 
ATOM     69  C   UNL A   1      37.548  29.687  28.084  1.00  0.00     0.001 A 
ATOM     70  C   UNL A   1      36.932  29.264  29.262  1.00  0.00     0.000 A 
ENDBRANCH  51  65
BRANCH  52  71
ATOM     71  C   UNL A   1      49.601  28.681  27.698  1.00  0.00    -0.014 A 
ATOM     72  C   UNL A   1      50.151  29.063  26.464  1.00  0.00     0.009 A 
ATOM     73  C   UNL A   1      50.460  28.239  28.716  1.00  0.00     0.009 A 
ATOM     74  C   UNL A   1      51.527  28.977  26.246  1.00  0.00     0.001 A 
ATOM     75  C   UNL A   1      51.839  28.181  28.504  1.00  0.00     0.001 A 
ATOM     76  C   UNL A   1      52.370  28.540  27.266  1.00  0.00     0.000 A 
ENDBRANCH  52  71
BRANCH  64  77
ATOM     77  C   UNL A   1      45.343  33.507  30.344  1.00  0.00    -0.014 A 
ATOM     78  C   UNL A   1      45.625  33.660  31.711  1.00  0.00     0.009 A 
ATOM     79  C   UNL A   1      45.340  34.642  29.517  1.00  0.00     0.009 A 
ATOM     80  C   UNL A   1      45.870  34.928  32.241  1.00  0.00     0.001 A 
ATOM     81  C   UNL A   1      45.613  35.903  30.046  1.00  0.00     0.001 A 
ATOM     82  C   UNL A   1      45.868  36.047  31.408  1.00  0.00     0.000 A 
ENDBRANCH  64  77
ENDBRANCH  38  39
ENDBRANCH  30  33
ENDBRANCH  28  29
ENDBRANCH  27  28
ENDBRANCH  26  27
ENDBRANCH   1  26
TORSDOF 16
ENDMDL
MODEL 3
REMARK VINA RESULT:     -10.4      6.946     12.173
REMARK SMILES C[NH2+][C@@H](C)c1ccc(SCc2ccc(C(=O)NCCCCNC(=O)c3ccc(-c4c5nc(c(-c6ccccc6)c6ccc([nH]6)c(-c6ccccc6)c6nc(c(-c7ccccc7)c7ccc4[nH]7)C=C6)C=C5)cc3)cc2)cc1
REMARK SMILES IDX 18 1 17 2 15 3 16 4 14 6 11 7 12 8 74 9 13 10 73 11 10 12
REMARK SMILES IDX 9 13 8 14 5 15 6 16 76 17 7 18 75 19 3 20 4 21 2 22 1 23
REMARK SMILES IDX 19 26 20 27 21 28 22 29 23 30 24 32 25 33 26 34 72 35 27 36
REMARK SMILES IDX 71 37 28 38 29 39 30 40 65 41 31 42 70 43 64 44 66 45 32 46
REMARK SMILES IDX 69 47 63 48 62 49 33 51 55 52 40 53 54 54 41 55 44 56 53 57
REMARK SMILES IDX 67 58 42 59 43 60 52 62 68 63 45 64 34 65 35 66 39 67 36 68
REMARK SMILES IDX 38 69 37 70 56 71 57 72 61 73 58 74 60 75 59 76 46 77 47 78
REMARK SMILES IDX 51 79 48 80 50 81 49 82
REMARK H PARENT 17 5 2 24 2 25 22 31 66 50 44 61
REMARK Flexibility Score: inf
ROOT
ATOM      1  C   UNL A   1      35.639  34.334  32.972  1.00  0.00     0.116 C 
ENDROOT
BRANCH   1   2
ATOM      2  N   UNL A   1      36.683  34.812  32.081  1.00  0.00    -0.352 N 
ATOM      3  C   UNL A   1      37.951  34.329  31.860  1.00  0.00     0.251 C 
ATOM      4  O   UNL A   1      38.630  34.823  30.962  1.00  0.00    -0.269 OA
ATOM      5  H   UNL A   1      36.445  35.608  31.554  1.00  0.00     0.163 HD
BRANCH   3   6
ATOM      6  C   UNL A   1      38.489  33.189  32.641  1.00  0.00     0.039 A 
ATOM      7  C   UNL A   1      39.677  31.049  34.031  1.00  0.00    -0.038 A 
ATOM      8  C   UNL A   1      40.193  32.348  34.146  1.00  0.00     0.005 A 
ATOM      9  C   UNL A   1      38.500  30.859  33.294  1.00  0.00     0.005 A 
ATOM     10  C   UNL A   1      39.602  33.412  33.457  1.00  0.00     0.014 A 
ATOM     11  C   UNL A   1      37.906  31.922  32.612  1.00  0.00     0.014 A 
BRANCH   7  12
ATOM     12  C   UNL A   1      40.352  29.876  34.699  1.00  0.00     0.110 C 
BRANCH  12  13
ATOM     13  S   UNL A   1      42.099  30.168  35.160  1.00  0.00    -0.121 SA
BRANCH  13  14
ATOM     14  C   UNL A   1      42.955  28.652  34.749  1.00  0.00     0.008 A 
ATOM     15  C   UNL A   1      44.180  26.140  34.205  1.00  0.00     0.009 A 
ATOM     16  C   UNL A   1      42.888  26.214  34.747  1.00  0.00     0.011 A 
ATOM     17  C   UNL A   1      44.820  27.344  33.884  1.00  0.00     0.011 A 
ATOM     18  C   UNL A   1      42.290  27.451  35.022  1.00  0.00     0.015 A 
ATOM     19  C   UNL A   1      44.209  28.580  34.142  1.00  0.00     0.015 A 
BRANCH  15  20
ATOM     20  C   UNL A   1      44.801  24.771  33.941  1.00  0.00     0.210 C 
ATOM     21  C   UNL A   1      44.464  24.216  32.548  1.00  0.00     0.081 C 
BRANCH  20  22
ATOM     22  N   UNL A   1      44.424  23.861  35.029  1.00  0.00    -0.343 N 
ATOM     23  C   UNL A   1      44.012  22.541  34.578  1.00  0.00     0.331 C 
ATOM     24  H   UNL A   1      45.226  23.752  35.650  1.00  0.00     0.346 HD
ATOM     25  H   UNL A   1      43.619  24.278  35.498  1.00  0.00     0.346 HD
ENDBRANCH  20  22
ENDBRANCH  15  20
ENDBRANCH  13  14
ENDBRANCH  12  13
ENDBRANCH   7  12
ENDBRANCH   3   6
ENDBRANCH   1   2
BRANCH   1  26
ATOM     26  C   UNL A   1      34.617  33.479  32.222  1.00  0.00     0.023 C 
BRANCH  26  27
ATOM     27  C   UNL A   1      34.454  33.831  30.742  1.00  0.00     0.023 C 
BRANCH  27  28
ATOM     28  C   UNL A   1      35.194  32.913  29.776  1.00  0.00     0.116 C 
BRANCH  28  29
ATOM     29  N   UNL A   1      34.305  32.091  28.970  1.00  0.00    -0.352 N 
ATOM     30  C   UNL A   1      34.573  30.895  28.342  1.00  0.00     0.251 C 
ATOM     31  H   UNL A   1      33.390  32.435  28.858  1.00  0.00     0.163 HD
ATOM     32  O   UNL A   1      33.742  30.378  27.613  1.00  0.00    -0.269 OA
BRANCH  30  33
ATOM     33  C   UNL A   1      35.898  30.263  28.530  1.00  0.00     0.039 A 
ATOM     34  C   UNL A   1      36.812  30.294  27.474  1.00  0.00     0.014 A 
ATOM     35  C   UNL A   1      36.244  29.676  29.749  1.00  0.00     0.014 A 
ATOM     36  C   UNL A   1      38.102  29.794  27.665  1.00  0.00     0.010 A 
ATOM     37  C   UNL A   1      37.549  29.242  29.958  1.00  0.00     0.010 A 
ATOM     38  C   UNL A   1      38.492  29.299  28.920  1.00  0.00    -0.014 A 
BRANCH  38  39
ATOM     39  C   UNL A   1      39.878  28.835  29.171  1.00  0.00     0.031 A 
ATOM     40  C   UNL A   1      40.881  29.763  29.797  1.00  0.00     0.074 A 
ATOM     41  C   UNL A   1      40.254  27.605  28.769  1.00  0.00     0.049 A 
ATOM     42  N   UNL A   1      42.155  29.568  30.026  1.00  0.00    -0.248 NA
ATOM     43  C   UNL A   1      40.394  31.094  30.195  1.00  0.00     0.031 C 
ATOM     44  C   UNL A   1      39.388  26.623  28.113  1.00  0.00     0.029 A 
ATOM     45  N   UNL A   1      41.472  26.976  28.845  1.00  0.00    -0.354 N 
ATOM     46  C   UNL A   1      42.625  30.755  30.573  1.00  0.00     0.074 A 
ATOM     47  C   UNL A   1      41.512  31.680  30.600  1.00  0.00     0.031 C 
ATOM     48  C   UNL A   1      40.096  25.507  27.869  1.00  0.00     0.029 A 
ATOM     49  C   UNL A   1      41.471  25.709  28.313  1.00  0.00     0.049 A 
ATOM     50  H   UNL A   1      42.270  27.393  29.243  1.00  0.00     0.167 HD
ATOM     51  C   UNL A   1      43.866  31.046  31.031  1.00  0.00     0.031 A 
ATOM     52  C   UNL A   1      42.468  24.813  28.191  1.00  0.00     0.031 A 
ATOM     53  C   UNL A   1      44.969  30.124  31.017  1.00  0.00     0.049 A 
ATOM     54  C   UNL A   1      43.838  25.162  28.700  1.00  0.00     0.074 A 
ATOM     55  C   UNL A   1      46.251  30.307  31.509  1.00  0.00     0.029 A 
ATOM     56  N   UNL A   1      44.923  28.846  30.485  1.00  0.00    -0.354 N 
ATOM     57  N   UNL A   1      44.249  26.266  29.274  1.00  0.00    -0.248 NA
ATOM     58  C   UNL A   1      44.880  24.136  28.551  1.00  0.00     0.031 C 
ATOM     59  C   UNL A   1      46.992  29.153  31.234  1.00  0.00     0.029 A 
ATOM     60  C   UNL A   1      46.157  28.235  30.618  1.00  0.00     0.049 A 
ATOM     61  H   UNL A   1      44.129  28.434  30.073  1.00  0.00     0.167 HD
ATOM     62  C   UNL A   1      45.587  26.056  29.584  1.00  0.00     0.074 A 
ATOM     63  C   UNL A   1      45.914  24.715  29.145  1.00  0.00     0.031 C 
ATOM     64  C   UNL A   1      46.466  26.898  30.180  1.00  0.00     0.031 A 
BRANCH  51  65
ATOM     65  C   UNL A   1      44.094  32.426  31.581  1.00  0.00    -0.014 A 
ATOM     66  C   UNL A   1      43.827  32.724  32.927  1.00  0.00     0.009 A 
ATOM     67  C   UNL A   1      44.611  33.433  30.752  1.00  0.00     0.009 A 
ATOM     68  C   UNL A   1      44.039  34.012  33.422  1.00  0.00     0.001 A 
ATOM     69  C   UNL A   1      44.849  34.712  31.257  1.00  0.00     0.001 A 
ATOM     70  C   UNL A   1      44.553  35.003  32.588  1.00  0.00     0.000 A 
ENDBRANCH  51  65
BRANCH  52  71
ATOM     71  C   UNL A   1      42.206  23.486  27.575  1.00  0.00    -0.014 A 
ATOM     72  C   UNL A   1      41.592  22.467  28.320  1.00  0.00     0.009 A 
ATOM     73  C   UNL A   1      42.577  23.226  26.247  1.00  0.00     0.009 A 
ATOM     74  C   UNL A   1      41.380  21.207  27.756  1.00  0.00     0.001 A 
ATOM     75  C   UNL A   1      42.339  21.973  25.677  1.00  0.00     0.001 A 
ATOM     76  C   UNL A   1      41.750  20.962  26.435  1.00  0.00     0.000 A 
ENDBRANCH  52  71
BRANCH  64  77
ATOM     77  C   UNL A   1      47.853  26.381  30.430  1.00  0.00    -0.014 A 
ATOM     78  C   UNL A   1      48.210  25.817  31.665  1.00  0.00     0.009 A 
ATOM     79  C   UNL A   1      48.803  26.418  29.397  1.00  0.00     0.009 A 
ATOM     80  C   UNL A   1      49.502  25.329  31.869  1.00  0.00     0.001 A 
ATOM     81  C   UNL A   1      50.085  25.904  29.596  1.00  0.00     0.001 A 
ATOM     82  C   UNL A   1      50.436  25.368  30.833  1.00  0.00     0.000 A 
ENDBRANCH  64  77
ENDBRANCH  38  39
ENDBRANCH  30  33
ENDBRANCH  28  29
ENDBRANCH  27  28
ENDBRANCH  26  27
ENDBRANCH   1  26
TORSDOF 16
ENDMDL
