MODEL 1
REMARK VINA RESULT:     -12.4      0.000      0.000
REMARK SMILES COc1cccc([C@H]2CC(c3ccc(S(C)(=O)=O)cc3)=NN2c2ccc(C(=O)NCCCCNC(=O)c3ccc(-c4c5nc(c(-c6ccccc6)c6ccc([nH]6)c(-c6ccccc6)c6nc(c(-c7ccccc7)c7ccc4[nH]7)C=C6)C=C5)cc3)cc2)c1
REMARK SMILES IDX 31 1 30 2 29 3 27 4 28 5 26 7 23 8 24 9 86 10 25 11 85 12
REMARK SMILES IDX 22 13 8 14 9 15 10 16 21 17 7 18 3 19 4 20 87 21 5 22 6 23
REMARK SMILES IDX 2 24 1 25 11 26 12 27 20 28 13 29 19 30 14 31 15 32 16 33
REMARK SMILES IDX 17 34 18 35 32 36 33 37 34 38 35 39 36 41 37 42 38 43 84 44
REMARK SMILES IDX 39 45 83 46 40 47 41 48 42 49 77 50 43 51 82 52 76 53 78 54
REMARK SMILES IDX 44 55 81 56 75 57 74 58 45 60 67 61 52 62 66 63 53 64 56 65
REMARK SMILES IDX 65 66 79 67 54 68 55 69 64 71 80 72 57 73 46 74 47 75 51 76
REMARK SMILES IDX 48 77 50 78 49 79 68 80 69 81 73 82 70 83 72 84 71 85 58 86
REMARK SMILES IDX 59 87 63 88 60 89 62 90 61 91
REMARK H PARENT 29 6 34 40 78 59 56 70
REMARK Flexibility Score: inf
ROOT
ATOM      1  C   UNL A   1      35.823  21.399  25.994  1.00  0.00     0.023 C 
ENDROOT
BRANCH   1   2
ATOM      2  C   UNL A   1      35.266  20.710  24.747  1.00  0.00     0.116 C 
BRANCH   2   3
ATOM      3  N   UNL A   1      33.849  20.460  24.897  1.00  0.00    -0.352 N 
ATOM      4  C   UNL A   1      32.775  21.302  25.031  1.00  0.00     0.251 C 
ATOM      5  O   UNL A   1      31.665  20.776  25.135  1.00  0.00    -0.269 OA
ATOM      6  H   UNL A   1      33.611  19.505  24.904  1.00  0.00     0.163 HD
BRANCH   4   7
ATOM      7  C   UNL A   1      32.876  22.791  25.013  1.00  0.00     0.039 A 
ATOM      8  C   UNL A   1      32.970  25.623  25.169  1.00  0.00     0.060 A 
ATOM      9  C   UNL A   1      32.570  24.855  26.267  1.00  0.00     0.029 A 
ATOM     10  C   UNL A   1      33.363  24.955  24.010  1.00  0.00     0.029 A 
ATOM     11  C   UNL A   1      32.503  23.461  26.186  1.00  0.00     0.016 A 
ATOM     12  C   UNL A   1      33.352  23.556  23.946  1.00  0.00     0.016 A 
BRANCH   8  13
ATOM     13  N   UNL A   1      33.005  27.002  25.266  1.00  0.00    -0.257 N 
ATOM     14  C   UNL A   1      32.726  27.927  24.168  1.00  0.00     0.144 C 
ATOM     15  C   UNL A   1      33.158  29.281  24.750  1.00  0.00     0.091 C 
ATOM     16  C   UNL A   1      33.691  28.834  26.081  1.00  0.00     0.071 C 
ATOM     17  N   UNL A   1      33.595  27.571  26.345  1.00  0.00    -0.176 NA
BRANCH  14  18
ATOM     18  C   UNL A   1      31.257  27.884  23.781  1.00  0.00    -0.019 A 
ATOM     19  C   UNL A   1      29.365  28.773  22.523  1.00  0.00     0.119 A 
ATOM     20  C   UNL A   1      28.521  27.861  23.153  1.00  0.00     0.046 A 
ATOM     21  C   UNL A   1      30.721  28.798  22.851  1.00  0.00     0.052 A 
ATOM     22  C   UNL A   1      29.033  26.950  24.075  1.00  0.00     0.004 A 
ATOM     23  C   UNL A   1      30.395  26.956  24.385  1.00  0.00     0.006 A 
BRANCH  19  24
ATOM     24  O   UNL A   1      28.761  29.630  21.645  1.00  0.00    -0.497 OA
ATOM     25  C   UNL A   1      27.931  30.618  22.249  1.00  0.00     0.278 C 
ENDBRANCH  19  24
ENDBRANCH  14  18
BRANCH  16  26
ATOM     26  C   UNL A   1      34.328  29.776  27.002  1.00  0.00    -0.002 A 
ATOM     27  C   UNL A   1      33.662  30.970  27.296  1.00  0.00     0.011 A 
ATOM     28  C   UNL A   1      35.592  29.504  27.525  1.00  0.00     0.011 A 
ATOM     29  C   UNL A   1      34.262  31.905  28.136  1.00  0.00     0.021 A 
ATOM     30  C   UNL A   1      36.207  30.450  28.347  1.00  0.00     0.021 A 
ATOM     31  C   UNL A   1      35.541  31.646  28.642  1.00  0.00     0.067 A 
BRANCH  31  32
ATOM     32  S   UNL A   1      36.316  32.863  29.681  1.00  0.00     0.175 S 
ATOM     33  C   UNL A   1      36.217  32.166  31.310  1.00  0.00     0.163 C 
ATOM     34  O   UNL A   1      37.710  32.920  29.287  1.00  0.00    -0.224 OA
ATOM     35  O   UNL A   1      35.482  34.050  29.661  1.00  0.00    -0.224 OA
ENDBRANCH  31  32
ENDBRANCH  16  26
ENDBRANCH   8  13
ENDBRANCH   4   7
ENDBRANCH   2   3
ENDBRANCH   1   2
BRANCH   1  36
ATOM     36  C   UNL A   1      36.605  22.685  25.706  1.00  0.00     0.023 C 
BRANCH  36  37
ATOM     37  C   UNL A   1      38.113  22.504  25.578  1.00  0.00     0.116 C 
BRANCH  37  38
ATOM     38  N   UNL A   1      38.525  21.110  25.585  1.00  0.00    -0.352 N 
ATOM     39  C   UNL A   1      39.759  20.580  25.864  1.00  0.00     0.251 C 
ATOM     40  H   UNL A   1      37.823  20.458  25.358  1.00  0.00     0.163 HD
ATOM     41  O   UNL A   1      39.963  19.379  25.720  1.00  0.00    -0.269 OA
BRANCH  39  42
ATOM     42  C   UNL A   1      40.855  21.471  26.296  1.00  0.00     0.039 A 
ATOM     43  C   UNL A   1      40.527  22.702  26.866  1.00  0.00     0.014 A 
ATOM     44  C   UNL A   1      42.193  21.093  26.149  1.00  0.00     0.014 A 
ATOM     45  C   UNL A   1      41.541  23.534  27.342  1.00  0.00     0.010 A 
ATOM     46  C   UNL A   1      43.199  21.894  26.682  1.00  0.00     0.010 A 
ATOM     47  C   UNL A   1      42.882  23.123  27.279  1.00  0.00    -0.014 A 
BRANCH  47  48
ATOM     48  C   UNL A   1      43.960  23.973  27.836  1.00  0.00     0.031 A 
ATOM     49  C   UNL A   1      44.856  24.758  26.919  1.00  0.00     0.074 A 
ATOM     50  C   UNL A   1      44.161  24.002  29.167  1.00  0.00     0.049 A 
ATOM     51  N   UNL A   1      45.850  25.555  27.224  1.00  0.00    -0.248 NA
ATOM     52  C   UNL A   1      44.619  24.614  25.474  1.00  0.00     0.031 C 
ATOM     53  C   UNL A   1      43.392  23.245  30.158  1.00  0.00     0.029 A 
ATOM     54  N   UNL A   1      45.074  24.700  29.916  1.00  0.00    -0.354 N 
ATOM     55  C   UNL A   1      46.364  25.994  26.010  1.00  0.00     0.074 A 
ATOM     56  C   UNL A   1      45.606  25.339  24.967  1.00  0.00     0.031 C 
ATOM     57  C   UNL A   1      43.845  23.544  31.385  1.00  0.00     0.029 A 
ATOM     58  C   UNL A   1      44.950  24.490  31.267  1.00  0.00     0.049 A 
ATOM     59  H   UNL A   1      45.752  25.294  29.522  1.00  0.00     0.167 HD
ATOM     60  C   UNL A   1      47.364  26.878  25.784  1.00  0.00     0.031 A 
ATOM     61  C   UNL A   1      45.647  25.007  32.297  1.00  0.00     0.031 A 
ATOM     62  C   UNL A   1      48.111  27.539  26.819  1.00  0.00     0.049 A 
ATOM     63  C   UNL A   1      46.745  25.993  32.019  1.00  0.00     0.074 A 
ATOM     64  C   UNL A   1      49.100  28.499  26.692  1.00  0.00     0.029 A 
ATOM     65  N   UNL A   1      47.949  27.306  28.176  1.00  0.00    -0.354 N 
ATOM     66  N   UNL A   1      47.166  26.458  30.868  1.00  0.00    -0.248 NA
ATOM     67  C   UNL A   1      47.454  26.535  33.186  1.00  0.00     0.031 C 
ATOM     68  C   UNL A   1      49.567  28.816  27.973  1.00  0.00     0.029 A 
ATOM     69  C   UNL A   1      48.837  28.088  28.897  1.00  0.00     0.049 A 
ATOM     70  H   UNL A   1      47.301  26.679  28.569  1.00  0.00     0.167 HD
ATOM     71  C   UNL A   1      48.174  27.363  31.173  1.00  0.00     0.074 A 
ATOM     72  C   UNL A   1      48.286  27.396  32.617  1.00  0.00     0.031 C 
ATOM     73  C   UNL A   1      48.940  28.101  30.333  1.00  0.00     0.031 A 
BRANCH  60  74
ATOM     74  C   UNL A   1      47.704  27.178  24.351  1.00  0.00    -0.014 A 
ATOM     75  C   UNL A   1      48.739  26.493  23.693  1.00  0.00     0.009 A 
ATOM     76  C   UNL A   1      46.968  28.139  23.643  1.00  0.00     0.009 A 
ATOM     77  C   UNL A   1      49.054  26.792  22.367  1.00  0.00     0.001 A 
ATOM     78  C   UNL A   1      47.269  28.418  22.307  1.00  0.00     0.001 A 
ATOM     79  C   UNL A   1      48.316  27.751  21.674  1.00  0.00     0.000 A 
ENDBRANCH  60  74
BRANCH  61  80
ATOM     80  C   UNL A   1      45.306  24.625  33.690  1.00  0.00    -0.014 A 
ATOM     81  C   UNL A   1      44.342  25.349  34.408  1.00  0.00     0.009 A 
ATOM     82  C   UNL A   1      45.943  23.540  34.311  1.00  0.00     0.009 A 
ATOM     83  C   UNL A   1      44.042  25.011  35.729  1.00  0.00     0.001 A 
ATOM     84  C   UNL A   1      45.625  23.189  35.625  1.00  0.00     0.001 A 
ATOM     85  C   UNL A   1      44.680  23.931  36.335  1.00  0.00     0.000 A 
ENDBRANCH  61  80
BRANCH  73  86
ATOM     86  C   UNL A   1      49.950  29.017  30.961  1.00  0.00    -0.014 A 
ATOM     87  C   UNL A   1      51.188  28.534  31.409  1.00  0.00     0.009 A 
ATOM     88  C   UNL A   1      49.667  30.387  31.080  1.00  0.00     0.009 A 
ATOM     89  C   UNL A   1      52.110  29.400  32.000  1.00  0.00     0.001 A 
ATOM     90  C   UNL A   1      50.603  31.255  31.645  1.00  0.00     0.001 A 
ATOM     91  C   UNL A   1      51.819  30.759  32.114  1.00  0.00     0.000 A 
ENDBRANCH  73  86
ENDBRANCH  47  48
ENDBRANCH  39  42
ENDBRANCH  37  38
ENDBRANCH  36  37
ENDBRANCH   1  36
TORSDOF 16
ENDMDL
MODEL 2
REMARK VINA RESULT:     -12.2      0.576      5.543
REMARK SMILES COc1cccc([C@H]2CC(c3ccc(S(C)(=O)=O)cc3)=NN2c2ccc(C(=O)NCCCCNC(=O)c3ccc(-c4c5nc(c(-c6ccccc6)c6ccc([nH]6)c(-c6ccccc6)c6nc(c(-c7ccccc7)c7ccc4[nH]7)C=C6)C=C5)cc3)cc2)c1
REMARK SMILES IDX 31 1 30 2 29 3 27 4 28 5 26 7 23 8 24 9 86 10 25 11 85 12
REMARK SMILES IDX 22 13 8 14 9 15 10 16 21 17 7 18 3 19 4 20 87 21 5 22 6 23
REMARK SMILES IDX 2 24 1 25 11 26 12 27 20 28 13 29 19 30 14 31 15 32 16 33
REMARK SMILES IDX 17 34 18 35 32 36 33 37 34 38 35 39 36 41 37 42 38 43 84 44
REMARK SMILES IDX 39 45 83 46 40 47 41 48 42 49 77 50 43 51 82 52 76 53 78 54
REMARK SMILES IDX 44 55 81 56 75 57 74 58 45 60 67 61 52 62 66 63 53 64 56 65
REMARK SMILES IDX 65 66 79 67 54 68 55 69 64 71 80 72 57 73 46 74 47 75 51 76
REMARK SMILES IDX 48 77 50 78 49 79 68 80 69 81 73 82 70 83 72 84 71 85 58 86
REMARK SMILES IDX 59 87 63 88 60 89 62 90 61 91
REMARK H PARENT 29 6 34 40 78 59 56 70
REMARK Flexibility Score: inf
ROOT
ATOM      1  C   UNL A   1      35.649  21.470  26.059  1.00  0.00     0.023 C 
ENDROOT
BRANCH   1   2
ATOM      2  C   UNL A   1      35.215  20.624  24.860  1.00  0.00     0.116 C 
BRANCH   2   3
ATOM      3  N   UNL A   1      33.798  20.337  24.929  1.00  0.00    -0.352 N 
ATOM      4  C   UNL A   1      32.697  21.152  24.996  1.00  0.00     0.251 C 
ATOM      5  O   UNL A   1      31.596  20.597  25.038  1.00  0.00    -0.269 OA
ATOM      6  H   UNL A   1      33.585  19.377  24.927  1.00  0.00     0.163 HD
BRANCH   4   7
ATOM      7  C   UNL A   1      32.760  22.643  24.977  1.00  0.00     0.039 A 
ATOM      8  C   UNL A   1      32.815  25.476  25.143  1.00  0.00     0.060 A 
ATOM      9  C   UNL A   1      32.618  24.691  26.284  1.00  0.00     0.029 A 
ATOM     10  C   UNL A   1      33.027  24.824  23.929  1.00  0.00     0.029 A 
ATOM     11  C   UNL A   1      32.570  23.297  26.202  1.00  0.00     0.016 A 
ATOM     12  C   UNL A   1      33.038  23.426  23.853  1.00  0.00     0.016 A 
BRANCH   8  13
ATOM     13  N   UNL A   1      32.835  26.854  25.247  1.00  0.00    -0.257 N 
ATOM     14  C   UNL A   1      32.519  27.781  24.161  1.00  0.00     0.144 C 
ATOM     15  C   UNL A   1      32.947  29.138  24.740  1.00  0.00     0.091 C 
ATOM     16  C   UNL A   1      33.517  28.690  26.056  1.00  0.00     0.071 C 
ATOM     17  N   UNL A   1      33.443  27.425  26.315  1.00  0.00    -0.176 NA
BRANCH  14  18
ATOM     18  C   UNL A   1      31.041  27.721  23.808  1.00  0.00    -0.019 A 
ATOM     19  C   UNL A   1      29.094  28.636  22.659  1.00  0.00     0.119 A 
ATOM     20  C   UNL A   1      28.292  27.660  23.248  1.00  0.00     0.046 A 
ATOM     21  C   UNL A   1      30.457  28.678  22.955  1.00  0.00     0.052 A 
ATOM     22  C   UNL A   1      28.853  26.706  24.095  1.00  0.00     0.004 A 
ATOM     23  C   UNL A   1      30.221  26.732  24.370  1.00  0.00     0.006 A 
BRANCH  19  24
ATOM     24  O   UNL A   1      28.443  29.532  21.856  1.00  0.00    -0.497 OA
ATOM     25  C   UNL A   1      29.159  30.735  21.600  1.00  0.00     0.278 C 
ENDBRANCH  19  24
ENDBRANCH  14  18
BRANCH  16  26
ATOM     26  C   UNL A   1      34.163  29.635  26.967  1.00  0.00    -0.002 A 
ATOM     27  C   UNL A   1      33.553  30.875  27.180  1.00  0.00     0.011 A 
ATOM     28  C   UNL A   1      35.385  29.318  27.560  1.00  0.00     0.011 A 
ATOM     29  C   UNL A   1      34.166  31.812  28.009  1.00  0.00     0.021 A 
ATOM     30  C   UNL A   1      36.015  30.265  28.371  1.00  0.00     0.021 A 
ATOM     31  C   UNL A   1      35.404  31.507  28.585  1.00  0.00     0.067 A 
BRANCH  31  32
ATOM     32  S   UNL A   1      36.199  32.723  29.609  1.00  0.00     0.175 S 
ATOM     33  C   UNL A   1      35.631  34.273  28.959  1.00  0.00     0.163 C 
ATOM     34  O   UNL A   1      35.662  32.558  30.945  1.00  0.00    -0.224 OA
ATOM     35  O   UNL A   1      37.626  32.640  29.359  1.00  0.00    -0.224 OA
ENDBRANCH  31  32
ENDBRANCH  16  26
ENDBRANCH   8  13
ENDBRANCH   4   7
ENDBRANCH   2   3
ENDBRANCH   1   2
BRANCH   1  36
ATOM     36  C   UNL A   1      36.473  22.707  25.691  1.00  0.00     0.023 C 
BRANCH  36  37
ATOM     37  C   UNL A   1      37.982  22.493  25.680  1.00  0.00     0.116 C 
BRANCH  37  38
ATOM     38  N   UNL A   1      38.361  21.090  25.667  1.00  0.00    -0.352 N 
ATOM     39  C   UNL A   1      39.596  20.531  25.878  1.00  0.00     0.251 C 
ATOM     40  H   UNL A   1      37.632  20.454  25.481  1.00  0.00     0.163 HD
ATOM     41  O   UNL A   1      39.763  19.326  25.726  1.00  0.00    -0.269 OA
BRANCH  39  42
ATOM     42  C   UNL A   1      40.735  21.396  26.247  1.00  0.00     0.039 A 
ATOM     43  C   UNL A   1      40.470  22.700  26.675  1.00  0.00     0.014 A 
ATOM     44  C   UNL A   1      42.050  20.927  26.182  1.00  0.00     0.014 A 
ATOM     45  C   UNL A   1      41.522  23.515  27.091  1.00  0.00     0.010 A 
ATOM     46  C   UNL A   1      43.090  21.719  26.658  1.00  0.00     0.010 A 
ATOM     47  C   UNL A   1      42.836  23.021  27.112  1.00  0.00    -0.014 A 
BRANCH  47  48
ATOM     48  C   UNL A   1      43.952  23.860  27.609  1.00  0.00     0.031 A 
ATOM     49  C   UNL A   1      44.210  23.982  29.084  1.00  0.00     0.074 A 
ATOM     50  C   UNL A   1      44.706  24.548  26.731  1.00  0.00     0.049 A 
ATOM     51  N   UNL A   1      45.138  24.668  29.704  1.00  0.00    -0.248 NA
ATOM     52  C   UNL A   1      43.295  23.259  29.981  1.00  0.00     0.031 C 
ATOM     53  C   UNL A   1      44.524  24.554  25.277  1.00  0.00     0.029 A 
ATOM     54  N   UNL A   1      45.781  25.376  26.935  1.00  0.00    -0.354 N 
ATOM     55  C   UNL A   1      44.910  24.469  31.059  1.00  0.00     0.074 A 
ATOM     56  C   UNL A   1      43.729  23.641  31.173  1.00  0.00     0.031 C 
ATOM     57  C   UNL A   1      45.475  25.320  24.719  1.00  0.00     0.029 A 
ATOM     58  C   UNL A   1      46.314  25.880  25.774  1.00  0.00     0.049 A 
ATOM     59  H   UNL A   1      46.136  25.587  27.828  1.00  0.00     0.167 HD
ATOM     60  C   UNL A   1      45.629  24.918  32.114  1.00  0.00     0.031 A 
ATOM     61  C   UNL A   1      47.365  26.698  25.581  1.00  0.00     0.031 A 
ATOM     62  C   UNL A   1      46.809  25.731  32.003  1.00  0.00     0.049 A 
ATOM     63  C   UNL A   1      48.152  27.176  26.768  1.00  0.00     0.074 A 
ATOM     64  C   UNL A   1      47.644  26.185  33.010  1.00  0.00     0.029 A 
ATOM     65  N   UNL A   1      47.322  26.214  30.809  1.00  0.00    -0.354 N 
ATOM     66  N   UNL A   1      47.970  26.914  28.039  1.00  0.00    -0.248 NA
ATOM     67  C   UNL A   1      49.299  28.050  26.489  1.00  0.00     0.031 C 
ATOM     68  C   UNL A   1      48.639  26.978  32.428  1.00  0.00     0.029 A 
ATOM     69  C   UNL A   1      48.450  26.980  31.056  1.00  0.00     0.049 A 
ATOM     70  H   UNL A   1      46.941  26.039  29.919  1.00  0.00     0.167 HD
ATOM     71  C   UNL A   1      48.990  27.573  28.711  1.00  0.00     0.074 A 
ATOM     72  C   UNL A   1      49.799  28.230  27.704  1.00  0.00     0.031 C 
ATOM     73  C   UNL A   1      49.237  27.632  30.042  1.00  0.00     0.031 A 
BRANCH  60  74
ATOM     74  C   UNL A   1      45.149  24.535  33.486  1.00  0.00    -0.014 A 
ATOM     75  C   UNL A   1      45.575  23.343  34.096  1.00  0.00     0.009 A 
ATOM     76  C   UNL A   1      44.281  25.384  34.187  1.00  0.00     0.009 A 
ATOM     77  C   UNL A   1      45.109  22.993  35.365  1.00  0.00     0.001 A 
ATOM     78  C   UNL A   1      43.837  25.044  35.467  1.00  0.00     0.001 A 
ATOM     79  C   UNL A   1      44.244  23.845  36.050  1.00  0.00     0.000 A 
ENDBRANCH  60  74
BRANCH  61  80
ATOM     80  C   UNL A   1      47.755  27.095  24.205  1.00  0.00    -0.014 A 
ATOM     81  C   UNL A   1      48.856  26.493  23.578  1.00  0.00     0.009 A 
ATOM     82  C   UNL A   1      47.033  28.079  23.512  1.00  0.00     0.009 A 
ATOM     83  C   UNL A   1      49.243  26.887  22.296  1.00  0.00     0.001 A 
ATOM     84  C   UNL A   1      47.407  28.454  22.220  1.00  0.00     0.001 A 
ATOM     85  C   UNL A   1      48.518  27.864  21.617  1.00  0.00     0.000 A 
ENDBRANCH  61  80
BRANCH  73  86
ATOM     86  C   UNL A   1      50.440  28.417  30.478  1.00  0.00    -0.014 A 
ATOM     87  C   UNL A   1      50.382  29.811  30.625  1.00  0.00     0.009 A 
ATOM     88  C   UNL A   1      51.638  27.749  30.770  1.00  0.00     0.009 A 
ATOM     89  C   UNL A   1      51.514  30.525  31.021  1.00  0.00     0.001 A 
ATOM     90  C   UNL A   1      52.760  28.463  31.194  1.00  0.00     0.001 A 
ATOM     91  C   UNL A   1      52.700  29.851  31.309  1.00  0.00     0.000 A 
ENDBRANCH  73  86
ENDBRANCH  47  48
ENDBRANCH  39  42
ENDBRANCH  37  38
ENDBRANCH  36  37
ENDBRANCH   1  36
TORSDOF 16
ENDMDL
MODEL 3
REMARK VINA RESULT:     -12.1      3.751      9.350
REMARK SMILES COc1cccc([C@H]2CC(c3ccc(S(C)(=O)=O)cc3)=NN2c2ccc(C(=O)NCCCCNC(=O)c3ccc(-c4c5nc(c(-c6ccccc6)c6ccc([nH]6)c(-c6ccccc6)c6nc(c(-c7ccccc7)c7ccc4[nH]7)C=C6)C=C5)cc3)cc2)c1
REMARK SMILES IDX 31 1 30 2 29 3 27 4 28 5 26 7 23 8 24 9 86 10 25 11 85 12
REMARK SMILES IDX 22 13 8 14 9 15 10 16 21 17 7 18 3 19 4 20 87 21 5 22 6 23
REMARK SMILES IDX 2 24 1 25 11 26 12 27 20 28 13 29 19 30 14 31 15 32 16 33
REMARK SMILES IDX 17 34 18 35 32 36 33 37 34 38 35 39 36 41 37 42 38 43 84 44
REMARK SMILES IDX 39 45 83 46 40 47 41 48 42 49 77 50 43 51 82 52 76 53 78 54
REMARK SMILES IDX 44 55 81 56 75 57 74 58 45 60 67 61 52 62 66 63 53 64 56 65
REMARK SMILES IDX 65 66 79 67 54 68 55 69 64 71 80 72 57 73 46 74 47 75 51 76
REMARK SMILES IDX 48 77 50 78 49 79 68 80 69 81 73 82 70 83 72 84 71 85 58 86
REMARK SMILES IDX 59 87 63 88 60 89 62 90 61 91
REMARK H PARENT 29 6 34 40 78 59 56 70
REMARK Flexibility Score: inf
ROOT
ATOM      1  C   UNL A   1      41.916  25.552  26.043  1.00  0.00     0.023 C 
ENDROOT
BRANCH   1   2
ATOM      2  C   UNL A   1      40.514  24.941  26.003  1.00  0.00     0.116 C 
BRANCH   2   3
ATOM      3  N   UNL A   1      40.529  23.603  26.553  1.00  0.00    -0.352 N 
ATOM      4  C   UNL A   1      39.597  22.597  26.554  1.00  0.00     0.251 C 
ATOM      5  O   UNL A   1      39.915  21.544  27.111  1.00  0.00    -0.269 OA
ATOM      6  H   UNL A   1      41.368  23.370  27.012  1.00  0.00     0.163 HD
BRANCH   4   7
ATOM      7  C   UNL A   1      38.263  22.697  25.892  1.00  0.00     0.039 A 
ATOM      8  C   UNL A   1      35.679  23.042  24.771  1.00  0.00     0.060 A 
ATOM      9  C   UNL A   1      36.180  23.943  25.715  1.00  0.00     0.029 A 
ATOM     10  C   UNL A   1      36.503  21.993  24.364  1.00  0.00     0.029 A 
ATOM     11  C   UNL A   1      37.444  23.764  26.284  1.00  0.00     0.016 A 
ATOM     12  C   UNL A   1      37.792  21.845  24.890  1.00  0.00     0.016 A 
BRANCH   8  13
ATOM     13  N   UNL A   1      34.415  23.227  24.240  1.00  0.00    -0.257 N 
ATOM     14  C   UNL A   1      33.733  22.288  23.351  1.00  0.00     0.144 C 
ATOM     15  C   UNL A   1      32.517  23.096  22.874  1.00  0.00     0.091 C 
ATOM     16  C   UNL A   1      32.800  24.410  23.546  1.00  0.00     0.071 C 
ATOM     17  N   UNL A   1      33.853  24.458  24.296  1.00  0.00    -0.176 NA
BRANCH  14  18
ATOM     18  C   UNL A   1      33.353  21.016  24.092  1.00  0.00    -0.019 A 
ATOM     19  C   UNL A   1      32.871  18.625  24.099  1.00  0.00     0.119 A 
ATOM     20  C   UNL A   1      32.547  18.697  25.452  1.00  0.00     0.046 A 
ATOM     21  C   UNL A   1      33.252  19.783  23.419  1.00  0.00     0.052 A 
ATOM     22  C   UNL A   1      32.641  19.909  26.134  1.00  0.00     0.004 A 
ATOM     23  C   UNL A   1      33.047  21.062  25.461  1.00  0.00     0.006 A 
BRANCH  19  24
ATOM     24  O   UNL A   1      32.733  17.393  23.521  1.00  0.00    -0.497 OA
ATOM     25  C   UNL A   1      33.933  16.628  23.450  1.00  0.00     0.278 C 
ENDBRANCH  19  24
ENDBRANCH  14  18
BRANCH  16  26
ATOM     26  C   UNL A   1      31.951  25.580  23.318  1.00  0.00    -0.002 A 
ATOM     27  C   UNL A   1      32.536  26.729  22.777  1.00  0.00     0.011 A 
ATOM     28  C   UNL A   1      30.606  25.557  23.686  1.00  0.00     0.011 A 
ATOM     29  C   UNL A   1      31.763  27.872  22.588  1.00  0.00     0.021 A 
ATOM     30  C   UNL A   1      29.834  26.709  23.521  1.00  0.00     0.021 A 
ATOM     31  C   UNL A   1      30.420  27.860  22.980  1.00  0.00     0.067 A 
BRANCH  31  32
ATOM     32  S   UNL A   1      29.451  29.336  22.772  1.00  0.00     0.175 S 
ATOM     33  C   UNL A   1      27.776  28.786  22.972  1.00  0.00     0.163 C 
ATOM     34  O   UNL A   1      29.786  30.213  23.877  1.00  0.00    -0.224 OA
ATOM     35  O   UNL A   1      29.608  29.772  21.396  1.00  0.00    -0.224 OA
ENDBRANCH  31  32
ENDBRANCH  16  26
ENDBRANCH   8  13
ENDBRANCH   4   7
ENDBRANCH   2   3
ENDBRANCH   1   2
BRANCH   1  36
ATOM     36  C   UNL A   1      42.919  24.888  25.094  1.00  0.00     0.023 C 
BRANCH  36  37
ATOM     37  C   UNL A   1      43.303  23.461  25.463  1.00  0.00     0.116 C 
BRANCH  37  38
ATOM     38  N   UNL A   1      44.736  23.277  25.627  1.00  0.00    -0.352 N 
ATOM     39  C   UNL A   1      45.569  23.822  26.571  1.00  0.00     0.251 C 
ATOM     40  H   UNL A   1      45.166  22.681  24.972  1.00  0.00     0.163 HD
ATOM     41  O   UNL A   1      46.781  23.644  26.502  1.00  0.00    -0.269 OA
BRANCH  39  42
ATOM     42  C   UNL A   1      45.004  24.662  27.646  1.00  0.00     0.039 A 
ATOM     43  C   UNL A   1      45.274  26.033  27.632  1.00  0.00     0.014 A 
ATOM     44  C   UNL A   1      44.208  24.109  28.653  1.00  0.00     0.014 A 
ATOM     45  C   UNL A   1      44.700  26.858  28.599  1.00  0.00     0.010 A 
ATOM     46  C   UNL A   1      43.584  24.942  29.577  1.00  0.00     0.010 A 
ATOM     47  C   UNL A   1      43.829  26.323  29.560  1.00  0.00    -0.014 A 
BRANCH  47  48
ATOM     48  C   UNL A   1      43.166  27.201  30.554  1.00  0.00     0.031 A 
ATOM     49  C   UNL A   1      43.766  27.387  31.919  1.00  0.00     0.074 A 
ATOM     50  C   UNL A   1      42.000  27.796  30.239  1.00  0.00     0.049 A 
ATOM     51  N   UNL A   1      43.330  28.115  32.917  1.00  0.00    -0.248 NA
ATOM     52  C   UNL A   1      45.001  26.643  32.210  1.00  0.00     0.031 C 
ATOM     53  C   UNL A   1      41.291  27.654  28.965  1.00  0.00     0.029 A 
ATOM     54  N   UNL A   1      41.207  28.644  30.970  1.00  0.00    -0.354 N 
ATOM     55  C   UNL A   1      44.229  27.905  33.955  1.00  0.00     0.074 A 
ATOM     56  C   UNL A   1      45.205  26.947  33.484  1.00  0.00     0.031 C 
ATOM     57  C   UNL A   1      40.185  28.414  28.993  1.00  0.00     0.029 A 
ATOM     58  C   UNL A   1      40.093  29.074  30.291  1.00  0.00     0.049 A 
ATOM     59  H   UNL A   1      41.416  28.918  31.891  1.00  0.00     0.167 HD
ATOM     60  C   UNL A   1      44.253  28.474  35.183  1.00  0.00     0.031 A 
ATOM     61  C   UNL A   1      39.110  29.911  30.671  1.00  0.00     0.031 A 
ATOM     62  C   UNL A   1      43.291  29.436  35.649  1.00  0.00     0.049 A 
ATOM     63  C   UNL A   1      39.164  30.535  32.036  1.00  0.00     0.074 A 
ATOM     64  C   UNL A   1      43.265  30.117  36.854  1.00  0.00     0.029 A 
ATOM     65  N   UNL A   1      42.182  29.852  34.929  1.00  0.00    -0.354 N 
ATOM     66  N   UNL A   1      40.065  30.388  32.977  1.00  0.00    -0.248 NA
ATOM     67  C   UNL A   1      38.072  31.455  32.384  1.00  0.00     0.031 C 
ATOM     68  C   UNL A   1      42.115  30.915  36.879  1.00  0.00     0.029 A 
ATOM     69  C   UNL A   1      41.452  30.765  35.673  1.00  0.00     0.049 A 
ATOM     70  H   UNL A   1      41.948  29.544  34.024  1.00  0.00     0.167 HD
ATOM     71  C   UNL A   1      39.660  31.210  34.020  1.00  0.00     0.074 A 
ATOM     72  C   UNL A   1      38.445  31.870  33.587  1.00  0.00     0.031 C 
ATOM     73  C   UNL A   1      40.241  31.403  35.229  1.00  0.00     0.031 A 
BRANCH  60  74
ATOM     74  C   UNL A   1      45.362  28.063  36.110  1.00  0.00    -0.014 A 
ATOM     75  C   UNL A   1      45.152  27.101  37.111  1.00  0.00     0.009 A 
ATOM     76  C   UNL A   1      46.639  28.625  35.965  1.00  0.00     0.009 A 
ATOM     77  C   UNL A   1      46.188  26.739  37.974  1.00  0.00     0.001 A 
ATOM     78  C   UNL A   1      47.681  28.242  36.813  1.00  0.00     0.001 A 
ATOM     79  C   UNL A   1      47.453  27.307  37.821  1.00  0.00     0.000 A 
ENDBRANCH  60  74
BRANCH  61  80
ATOM     80  C   UNL A   1      38.004  30.232  29.735  1.00  0.00    -0.014 A 
ATOM     81  C   UNL A   1      37.985  31.457  29.052  1.00  0.00     0.009 A 
ATOM     82  C   UNL A   1      36.959  29.319  29.522  1.00  0.00     0.009 A 
ATOM     83  C   UNL A   1      36.930  31.774  28.195  1.00  0.00     0.001 A 
ATOM     84  C   UNL A   1      35.917  29.628  28.645  1.00  0.00     0.001 A 
ATOM     85  C   UNL A   1      35.899  30.859  27.989  1.00  0.00     0.000 A 
ENDBRANCH  61  80
BRANCH  73  86
ATOM     86  C   UNL A   1      39.577  32.380  36.155  1.00  0.00    -0.014 A 
ATOM     87  C   UNL A   1      39.979  33.723  36.202  1.00  0.00     0.009 A 
ATOM     88  C   UNL A   1      38.518  31.955  36.973  1.00  0.00     0.009 A 
ATOM     89  C   UNL A   1      39.356  34.615  37.078  1.00  0.00     0.001 A 
ATOM     90  C   UNL A   1      37.880  32.855  37.827  1.00  0.00     0.001 A 
ATOM     91  C   UNL A   1      38.306  34.181  37.886  1.00  0.00     0.000 A 
ENDBRANCH  73  86
ENDBRANCH  47  48
ENDBRANCH  39  42
ENDBRANCH  37  38
ENDBRANCH  36  37
ENDBRANCH   1  36
TORSDOF 16
ENDMDL
