MODEL 1
REMARK VINA RESULT:     -10.6      0.000      0.000
REMARK SMILES C[C@@H]1C[C@H]([N@@H+](C)Cc2ccc(C(=O)NCCCCNC(=O)c3ccc(-c4c5nc(c(-c6ccccc6)c6ccc([nH]6)c(-c6ccccc6)c6nc(c(-c7ccccc7)c7ccc4[nH]7)C=C6)C=C5)cc3)cc2)CS1
REMARK SMILES IDX 16 1 15 2 14 3 12 4 13 5 11 7 8 8 9 9 71 10 10 11 70 12 7 13
REMARK SMILES IDX 5 14 6 15 4 17 1 18 2 19 3 20 73 21 72 22 17 23 18 24 19 25
REMARK SMILES IDX 20 26 21 28 22 29 23 30 69 31 24 32 68 33 25 34 26 35 27 36
REMARK SMILES IDX 62 37 28 38 67 39 61 40 63 41 29 42 66 43 60 44 59 45 30 47
REMARK SMILES IDX 52 48 37 49 51 50 38 51 41 52 50 53 64 54 39 55 40 56 49 58
REMARK SMILES IDX 65 59 42 60 31 61 32 62 36 63 33 64 35 65 34 66 53 67 54 68
REMARK SMILES IDX 58 69 55 70 57 71 56 72 43 73 44 74 48 75 45 76 47 77 46 78
REMARK H PARENT 14 6 5 16 19 27 63 46 41 57
REMARK Flexibility Score: inf
ROOT
ATOM      1  C   UNL A   1      32.568  29.550  25.116  1.00  0.00     0.023 C 
ENDROOT
BRANCH   1   2
ATOM      2  C   UNL A   1      31.109  29.992  24.977  1.00  0.00     0.116 C 
BRANCH   2   3
ATOM      3  N   UNL A   1      30.635  29.900  23.614  1.00  0.00    -0.352 N 
ATOM      4  C   UNL A   1      30.431  28.869  22.735  1.00  0.00     0.251 C 
ATOM      5  O   UNL A   1      29.941  29.188  21.648  1.00  0.00    -0.269 OA
ATOM      6  H   UNL A   1      30.407  30.778  23.230  1.00  0.00     0.163 HD
BRANCH   4   7
ATOM      7  C   UNL A   1      30.784  27.435  22.974  1.00  0.00     0.039 A 
ATOM      8  C   UNL A   1      31.018  24.632  23.372  1.00  0.00     0.006 A 
ATOM      9  C   UNL A   1      30.209  25.406  24.209  1.00  0.00     0.010 A 
ATOM     10  C   UNL A   1      31.849  25.304  22.476  1.00  0.00     0.010 A 
ATOM     11  C   UNL A   1      30.088  26.785  24.007  1.00  0.00     0.014 A 
ATOM     12  C   UNL A   1      31.701  26.677  22.248  1.00  0.00     0.014 A 
BRANCH   8  13
ATOM     13  C   UNL A   1      30.956  23.124  23.434  1.00  0.00     0.299 C 
BRANCH  13  14
ATOM     14  N   UNL A   1      32.168  22.369  23.076  1.00  0.00    -0.330 N 
ATOM     15  C   UNL A   1      31.947  21.239  22.183  1.00  0.00     0.333 C 
ATOM     16  H   UNL A   1      32.623  23.108  22.541  1.00  0.00     0.348 HD
BRANCH  14  17
ATOM     17  C   UNL A   1      33.209  22.107  24.092  1.00  0.00     0.195 C 
ATOM     18  C   UNL A   1      34.380  25.350  25.400  1.00  0.00     0.019 C 
ATOM     19  C   UNL A   1      34.469  23.833  25.489  1.00  0.00     0.049 C 
ATOM     20  C   UNL A   1      34.336  23.155  24.125  1.00  0.00     0.080 C 
ATOM     21  S   UNL A   1      33.191  23.164  26.578  1.00  0.00    -0.152 SA
ATOM     22  C   UNL A   1      32.796  21.754  25.529  1.00  0.00     0.134 C 
ENDBRANCH  14  17
ENDBRANCH  13  14
ENDBRANCH   8  13
ENDBRANCH   4   7
ENDBRANCH   2   3
ENDBRANCH   1   2
BRANCH   1  23
ATOM     23  C   UNL A   1      32.775  28.416  26.130  1.00  0.00     0.023 C 
BRANCH  23  24
ATOM     24  C   UNL A   1      33.790  28.719  27.231  1.00  0.00     0.116 C 
BRANCH  24  25
ATOM     25  N   UNL A   1      33.728  30.083  27.727  1.00  0.00    -0.352 N 
ATOM     26  C   UNL A   1      34.723  30.796  28.363  1.00  0.00     0.251 C 
ATOM     27  H   UNL A   1      32.875  30.556  27.594  1.00  0.00     0.163 HD
ATOM     28  O   UNL A   1      34.502  31.900  28.830  1.00  0.00    -0.269 OA
BRANCH  26  29
ATOM     29  C   UNL A   1      36.054  30.169  28.521  1.00  0.00     0.039 A 
ATOM     30  C   UNL A   1      36.954  30.232  27.455  1.00  0.00     0.014 A 
ATOM     31  C   UNL A   1      36.424  29.568  29.725  1.00  0.00     0.014 A 
ATOM     32  C   UNL A   1      38.253  29.750  27.622  1.00  0.00     0.010 A 
ATOM     33  C   UNL A   1      37.739  29.154  29.915  1.00  0.00     0.010 A 
ATOM     34  C   UNL A   1      38.666  29.240  28.865  1.00  0.00    -0.014 A 
BRANCH  34  35
ATOM     35  C   UNL A   1      40.068  28.803  29.079  1.00  0.00     0.031 A 
ATOM     36  C   UNL A   1      40.504  27.422  28.678  1.00  0.00     0.074 A 
ATOM     37  C   UNL A   1      40.940  29.638  29.680  1.00  0.00     0.049 A 
ATOM     38  N   UNL A   1      41.688  26.871  28.778  1.00  0.00    -0.248 NA
ATOM     39  C   UNL A   1      39.473  26.535  28.116  1.00  0.00     0.031 C 
ATOM     40  C   UNL A   1      40.625  30.982  30.171  1.00  0.00     0.029 A 
ATOM     41  N   UNL A   1      42.270  29.479  29.977  1.00  0.00    -0.354 N 
ATOM     42  C   UNL A   1      41.539  25.572  28.307  1.00  0.00     0.074 A 
ATOM     43  C   UNL A   1      40.143  25.401  27.972  1.00  0.00     0.031 C 
ATOM     44  C   UNL A   1      41.740  31.537  30.674  1.00  0.00     0.029 A 
ATOM     45  C   UNL A   1      42.838  30.582  30.565  1.00  0.00     0.049 A 
ATOM     46  H   UNL A   1      42.768  28.652  29.786  1.00  0.00     0.167 HD
ATOM     47  C   UNL A   1      42.483  24.616  28.144  1.00  0.00     0.031 A 
ATOM     48  C   UNL A   1      44.105  30.804  30.962  1.00  0.00     0.031 A 
ATOM     49  C   UNL A   1      43.875  24.789  28.464  1.00  0.00     0.049 A 
ATOM     50  C   UNL A   1      45.140  29.735  30.749  1.00  0.00     0.074 A 
ATOM     51  C   UNL A   1      44.919  23.900  28.279  1.00  0.00     0.029 A 
ATOM     52  N   UNL A   1      44.414  25.930  29.034  1.00  0.00    -0.354 N 
ATOM     53  N   UNL A   1      44.998  28.543  30.223  1.00  0.00    -0.248 NA
ATOM     54  C   UNL A   1      46.512  30.053  31.167  1.00  0.00     0.031 C 
ATOM     55  C   UNL A   1      46.087  24.490  28.777  1.00  0.00     0.029 A 
ATOM     56  C   UNL A   1      45.775  25.764  29.223  1.00  0.00     0.049 A 
ATOM     57  H   UNL A   1      43.905  26.739  29.271  1.00  0.00     0.167 HD
ATOM     58  C   UNL A   1      46.269  27.980  30.216  1.00  0.00     0.074 A 
ATOM     59  C   UNL A   1      47.167  28.967  30.779  1.00  0.00     0.031 C 
ATOM     60  C   UNL A   1      46.656  26.758  29.780  1.00  0.00     0.031 A 
BRANCH  47  61
ATOM     61  C   UNL A   1      42.034  23.292  27.590  1.00  0.00    -0.014 A 
ATOM     62  C   UNL A   1      41.484  22.306  28.423  1.00  0.00     0.009 A 
ATOM     63  C   UNL A   1      42.141  23.036  26.214  1.00  0.00     0.009 A 
ATOM     64  C   UNL A   1      41.085  21.075  27.898  1.00  0.00     0.001 A 
ATOM     65  C   UNL A   1      41.715  21.815  25.686  1.00  0.00     0.001 A 
ATOM     66  C   UNL A   1      41.197  20.833  26.529  1.00  0.00     0.000 A 
ENDBRANCH  47  61
BRANCH  48  67
ATOM     67  C   UNL A   1      44.478  32.112  31.560  1.00  0.00    -0.014 A 
ATOM     68  C   UNL A   1      44.396  32.307  32.947  1.00  0.00     0.009 A 
ATOM     69  C   UNL A   1      44.913  33.172  30.751  1.00  0.00     0.009 A 
ATOM     70  C   UNL A   1      44.716  33.545  33.510  1.00  0.00     0.001 A 
ATOM     71  C   UNL A   1      45.260  34.400  31.318  1.00  0.00     0.001 A 
ATOM     72  C   UNL A   1      45.151  34.588  32.695  1.00  0.00     0.000 A 
ENDBRANCH  48  67
BRANCH  60  73
ATOM     73  C   UNL A   1      48.121  26.436  29.852  1.00  0.00    -0.014 A 
ATOM     74  C   UNL A   1      48.678  25.813  30.980  1.00  0.00     0.009 A 
ATOM     75  C   UNL A   1      48.949  26.731  28.757  1.00  0.00     0.009 A 
ATOM     76  C   UNL A   1      50.043  25.523  31.023  1.00  0.00     0.001 A 
ATOM     77  C   UNL A   1      50.308  26.414  28.792  1.00  0.00     0.001 A 
ATOM     78  C   UNL A   1      50.855  25.820  29.928  1.00  0.00     0.000 A 
ENDBRANCH  60  73
ENDBRANCH  34  35
ENDBRANCH  26  29
ENDBRANCH  24  25
ENDBRANCH  23  24
ENDBRANCH   1  23
TORSDOF 14
ENDMDL
MODEL 2
REMARK VINA RESULT:     -10.5      2.924      7.210
REMARK SMILES C[C@@H]1C[C@H]([N@@H+](C)Cc2ccc(C(=O)NCCCCNC(=O)c3ccc(-c4c5nc(c(-c6ccccc6)c6ccc([nH]6)c(-c6ccccc6)c6nc(c(-c7ccccc7)c7ccc4[nH]7)C=C6)C=C5)cc3)cc2)CS1
REMARK SMILES IDX 16 1 15 2 14 3 12 4 13 5 11 7 8 8 9 9 71 10 10 11 70 12 7 13
REMARK SMILES IDX 5 14 6 15 4 17 1 18 2 19 3 20 73 21 72 22 17 23 18 24 19 25
REMARK SMILES IDX 20 26 21 28 22 29 23 30 69 31 24 32 68 33 25 34 26 35 27 36
REMARK SMILES IDX 62 37 28 38 67 39 61 40 63 41 29 42 66 43 60 44 59 45 30 47
REMARK SMILES IDX 52 48 37 49 51 50 38 51 41 52 50 53 64 54 39 55 40 56 49 58
REMARK SMILES IDX 65 59 42 60 31 61 32 62 36 63 33 64 35 65 34 66 53 67 54 68
REMARK SMILES IDX 58 69 55 70 57 71 56 72 43 73 44 74 48 75 45 76 47 77 46 78
REMARK H PARENT 14 6 5 16 19 27 63 46 41 57
REMARK Flexibility Score: inf
ROOT
ATOM      1  C   UNL A   1      31.744  30.244  26.628  1.00  0.00     0.023 C 
ENDROOT
BRANCH   1   2
ATOM      2  C   UNL A   1      32.424  29.666  25.384  1.00  0.00     0.116 C 
BRANCH   2   3
ATOM      3  N   UNL A   1      31.650  29.886  24.183  1.00  0.00    -0.352 N 
ATOM      4  C   UNL A   1      30.885  29.088  23.374  1.00  0.00     0.251 C 
ATOM      5  O   UNL A   1      30.311  29.666  22.447  1.00  0.00    -0.269 OA
ATOM      6  H   UNL A   1      31.680  30.821  23.876  1.00  0.00     0.163 HD
BRANCH   4   7
ATOM      7  C   UNL A   1      30.729  27.605  23.504  1.00  0.00     0.039 A 
ATOM      8  C   UNL A   1      30.872  24.773  23.674  1.00  0.00     0.006 A 
ATOM      9  C   UNL A   1      31.247  25.438  22.502  1.00  0.00     0.010 A 
ATOM     10  C   UNL A   1      30.246  25.524  24.668  1.00  0.00     0.010 A 
ATOM     11  C   UNL A   1      31.183  26.833  22.422  1.00  0.00     0.014 A 
ATOM     12  C   UNL A   1      30.217  26.921  24.605  1.00  0.00     0.014 A 
BRANCH   8  13
ATOM     13  C   UNL A   1      31.172  23.303  23.845  1.00  0.00     0.299 C 
BRANCH  13  14
ATOM     14  N   UNL A   1      32.361  22.758  23.169  1.00  0.00    -0.330 N 
ATOM     15  C   UNL A   1      32.142  21.508  22.453  1.00  0.00     0.333 C 
ATOM     16  H   UNL A   1      32.464  23.502  22.480  1.00  0.00     0.348 HD
BRANCH  14  17
ATOM     17  C   UNL A   1      33.685  22.825  23.823  1.00  0.00     0.195 C 
ATOM     18  C   UNL A   1      33.926  26.045  25.604  1.00  0.00     0.019 C 
ATOM     19  C   UNL A   1      34.589  24.713  25.285  1.00  0.00     0.049 C 
ATOM     20  C   UNL A   1      34.298  24.237  23.861  1.00  0.00     0.080 C 
ATOM     21  S   UNL A   1      34.051  23.423  26.431  1.00  0.00    -0.152 SA
ATOM     22  C   UNL A   1      33.898  22.137  25.179  1.00  0.00     0.134 C 
ENDBRANCH  14  17
ENDBRANCH  13  14
ENDBRANCH   8  13
ENDBRANCH   4   7
ENDBRANCH   2   3
ENDBRANCH   1   2
BRANCH   1  23
ATOM     23  C   UNL A   1      31.631  31.776  26.614  1.00  0.00     0.023 C 
BRANCH  23  24
ATOM     24  C   UNL A   1      32.768  32.507  27.326  1.00  0.00     0.116 C 
BRANCH  24  25
ATOM     25  N   UNL A   1      32.445  33.875  27.697  1.00  0.00    -0.352 N 
ATOM     26  C   UNL A   1      33.131  34.698  28.563  1.00  0.00     0.251 C 
ATOM     27  H   UNL A   1      31.640  34.259  27.280  1.00  0.00     0.163 HD
ATOM     28  O   UNL A   1      32.688  35.791  28.874  1.00  0.00    -0.269 OA
BRANCH  26  29
ATOM     29  C   UNL A   1      34.394  34.207  29.159  1.00  0.00     0.039 A 
ATOM     30  C   UNL A   1      34.331  33.459  30.335  1.00  0.00     0.014 A 
ATOM     31  C   UNL A   1      35.620  34.446  28.535  1.00  0.00     0.014 A 
ATOM     32  C   UNL A   1      35.497  32.890  30.851  1.00  0.00     0.010 A 
ATOM     33  C   UNL A   1      36.769  33.819  29.009  1.00  0.00     0.010 A 
ATOM     34  C   UNL A   1      36.719  33.035  30.171  1.00  0.00    -0.014 A 
BRANCH  34  35
ATOM     35  C   UNL A   1      37.947  32.365  30.664  1.00  0.00     0.031 A 
ATOM     36  C   UNL A   1      38.703  32.926  31.836  1.00  0.00     0.074 A 
ATOM     37  C   UNL A   1      38.410  31.273  30.024  1.00  0.00     0.049 A 
ATOM     38  N   UNL A   1      39.787  32.471  32.412  1.00  0.00    -0.248 NA
ATOM     39  C   UNL A   1      38.189  34.174  32.423  1.00  0.00     0.031 C 
ATOM     40  C   UNL A   1      37.804  30.665  28.837  1.00  0.00     0.029 A 
ATOM     41  N   UNL A   1      39.499  30.479  30.284  1.00  0.00    -0.354 N 
ATOM     42  C   UNL A   1      40.092  33.382  33.415  1.00  0.00     0.074 A 
ATOM     43  C   UNL A   1      39.111  34.442  33.336  1.00  0.00     0.031 C 
ATOM     44  C   UNL A   1      38.507  29.572  28.496  1.00  0.00     0.029 A 
ATOM     45  C   UNL A   1      39.626  29.419  29.419  1.00  0.00     0.049 A 
ATOM     46  H   UNL A   1      40.128  30.653  31.020  1.00  0.00     0.167 HD
ATOM     47  C   UNL A   1      41.083  33.331  34.335  1.00  0.00     0.031 A 
ATOM     48  C   UNL A   1      40.535  28.427  29.383  1.00  0.00     0.031 A 
ATOM     49  C   UNL A   1      42.051  32.270  34.424  1.00  0.00     0.049 A 
ATOM     50  C   UNL A   1      41.612  28.379  30.429  1.00  0.00     0.074 A 
ATOM     51  C   UNL A   1      43.058  32.097  35.357  1.00  0.00     0.029 A 
ATOM     52  N   UNL A   1      42.130  31.202  33.544  1.00  0.00    -0.354 N 
ATOM     53  N   UNL A   1      41.836  29.204  31.423  1.00  0.00    -0.248 NA
ATOM     54  C   UNL A   1      42.551  27.250  30.359  1.00  0.00     0.031 C 
ATOM     55  C   UNL A   1      43.774  30.943  35.018  1.00  0.00     0.029 A 
ATOM     56  C   UNL A   1      43.179  30.373  33.905  1.00  0.00     0.049 A 
ATOM     57  H   UNL A   1      41.531  31.056  32.778  1.00  0.00     0.167 HD
ATOM     58  C   UNL A   1      42.918  28.676  32.116  1.00  0.00     0.074 A 
ATOM     59  C   UNL A   1      43.297  27.455  31.436  1.00  0.00     0.031 C 
ATOM     60  C   UNL A   1      43.539  29.159  33.219  1.00  0.00     0.031 A 
BRANCH  47  61
ATOM     61  C   UNL A   1      41.166  34.460  35.324  1.00  0.00    -0.014 A 
ATOM     62  C   UNL A   1      40.403  34.449  36.503  1.00  0.00     0.009 A 
ATOM     63  C   UNL A   1      42.033  35.537  35.087  1.00  0.00     0.009 A 
ATOM     64  C   UNL A   1      40.479  35.511  37.406  1.00  0.00     0.001 A 
ATOM     65  C   UNL A   1      42.128  36.584  36.005  1.00  0.00     0.001 A 
ATOM     66  C   UNL A   1      41.344  36.576  37.158  1.00  0.00     0.000 A 
ENDBRANCH  47  61
BRANCH  48  67
ATOM     67  C   UNL A   1      40.439  27.369  28.344  1.00  0.00    -0.014 A 
ATOM     68  C   UNL A   1      41.098  27.522  27.114  1.00  0.00     0.009 A 
ATOM     69  C   UNL A   1      39.689  26.206  28.572  1.00  0.00     0.009 A 
ATOM     70  C   UNL A   1      40.985  26.544  26.123  1.00  0.00     0.001 A 
ATOM     71  C   UNL A   1      39.600  25.217  27.590  1.00  0.00     0.001 A 
ATOM     72  C   UNL A   1      40.239  25.391  26.364  1.00  0.00     0.000 A 
ENDBRANCH  48  67
BRANCH  60  73
ATOM     73  C   UNL A   1      44.665  28.342  33.785  1.00  0.00    -0.014 A 
ATOM     74  C   UNL A   1      44.427  27.289  34.681  1.00  0.00     0.009 A 
ATOM     75  C   UNL A   1      45.985  28.612  33.386  1.00  0.00     0.009 A 
ATOM     76  C   UNL A   1      45.490  26.543  35.192  1.00  0.00     0.001 A 
ATOM     77  C   UNL A   1      47.043  27.847  33.877  1.00  0.00     0.001 A 
ATOM     78  C   UNL A   1      46.797  26.821  34.787  1.00  0.00     0.000 A 
ENDBRANCH  60  73
ENDBRANCH  34  35
ENDBRANCH  26  29
ENDBRANCH  24  25
ENDBRANCH  23  24
ENDBRANCH   1  23
TORSDOF 14
ENDMDL
MODEL 3
REMARK VINA RESULT:     -10.5      3.096      7.948
REMARK SMILES C[C@@H]1C[C@H]([N@@H+](C)Cc2ccc(C(=O)NCCCCNC(=O)c3ccc(-c4c5nc(c(-c6ccccc6)c6ccc([nH]6)c(-c6ccccc6)c6nc(c(-c7ccccc7)c7ccc4[nH]7)C=C6)C=C5)cc3)cc2)CS1
REMARK SMILES IDX 16 1 15 2 14 3 12 4 13 5 11 7 8 8 9 9 71 10 10 11 70 12 7 13
REMARK SMILES IDX 5 14 6 15 4 17 1 18 2 19 3 20 73 21 72 22 17 23 18 24 19 25
REMARK SMILES IDX 20 26 21 28 22 29 23 30 69 31 24 32 68 33 25 34 26 35 27 36
REMARK SMILES IDX 62 37 28 38 67 39 61 40 63 41 29 42 66 43 60 44 59 45 30 47
REMARK SMILES IDX 52 48 37 49 51 50 38 51 41 52 50 53 64 54 39 55 40 56 49 58
REMARK SMILES IDX 65 59 42 60 31 61 32 62 36 63 33 64 35 65 34 66 53 67 54 68
REMARK SMILES IDX 58 69 55 70 57 71 56 72 43 73 44 74 48 75 45 76 47 77 46 78
REMARK H PARENT 14 6 5 16 19 27 63 46 41 57
REMARK Flexibility Score: inf
ROOT
ATOM      1  C   UNL A   1      35.368  22.329  26.218  1.00  0.00     0.023 C 
ENDROOT
BRANCH   1   2
ATOM      2  C   UNL A   1      33.975  22.271  25.587  1.00  0.00     0.116 C 
BRANCH   2   3
ATOM      3  N   UNL A   1      32.954  22.804  26.461  1.00  0.00    -0.352 N 
ATOM      4  C   UNL A   1      32.216  23.959  26.484  1.00  0.00     0.251 C 
ATOM      5  O   UNL A   1      31.371  24.030  27.381  1.00  0.00    -0.269 OA
ATOM      6  H   UNL A   1      32.739  22.200  27.208  1.00  0.00     0.163 HD
BRANCH   4   7
ATOM      7  C   UNL A   1      32.382  25.120  25.556  1.00  0.00     0.039 A 
ATOM      8  C   UNL A   1      32.296  27.455  23.940  1.00  0.00     0.006 A 
ATOM      9  C   UNL A   1      31.321  26.462  23.811  1.00  0.00     0.010 A 
ATOM     10  C   UNL A   1      33.405  27.170  24.735  1.00  0.00     0.010 A 
ATOM     11  C   UNL A   1      31.360  25.316  24.613  1.00  0.00     0.014 A 
ATOM     12  C   UNL A   1      33.426  26.043  25.565  1.00  0.00     0.014 A 
BRANCH   8  13
ATOM     13  C   UNL A   1      32.118  28.791  23.258  1.00  0.00     0.299 C 
BRANCH  13  14
ATOM     14  N   UNL A   1      31.251  29.787  23.909  1.00  0.00    -0.330 N 
ATOM     15  C   UNL A   1      31.545  30.032  25.315  1.00  0.00     0.333 C 
ATOM     16  H   UNL A   1      31.567  30.596  23.375  1.00  0.00     0.348 HD
BRANCH  14  17
ATOM     17  C   UNL A   1      29.805  29.827  23.606  1.00  0.00     0.195 C 
ATOM     18  C   UNL A   1      28.879  33.321  22.878  1.00  0.00     0.019 C 
ATOM     19  C   UNL A   1      28.421  31.872  22.954  1.00  0.00     0.049 C 
ATOM     20  C   UNL A   1      29.094  31.102  24.092  1.00  0.00     0.080 C 
ATOM     21  S   UNL A   1      28.755  30.997  21.409  1.00  0.00    -0.152 SA
ATOM     22  C   UNL A   1      29.315  29.475  22.193  1.00  0.00     0.134 C 
ENDBRANCH  14  17
ENDBRANCH  13  14
ENDBRANCH   8  13
ENDBRANCH   4   7
ENDBRANCH   2   3
ENDBRANCH   1   2
BRANCH   1  23
ATOM     23  C   UNL A   1      36.102  23.656  25.975  1.00  0.00     0.023 C 
BRANCH  23  24
ATOM     24  C   UNL A   1      37.260  23.575  24.982  1.00  0.00     0.116 C 
BRANCH  24  25
ATOM     25  N   UNL A   1      38.286  22.615  25.355  1.00  0.00    -0.352 N 
ATOM     26  C   UNL A   1      39.399  22.832  26.139  1.00  0.00     0.251 C 
ATOM     27  H   UNL A   1      38.174  21.702  25.005  1.00  0.00     0.163 HD
ATOM     28  O   UNL A   1      40.243  21.963  26.282  1.00  0.00    -0.269 OA
BRANCH  26  29
ATOM     29  C   UNL A   1      39.582  24.162  26.760  1.00  0.00     0.039 A 
ATOM     30  C   UNL A   1      39.103  24.368  28.055  1.00  0.00     0.014 A 
ATOM     31  C   UNL A   1      40.260  25.180  26.085  1.00  0.00     0.014 A 
ATOM     32  C   UNL A   1      39.365  25.577  28.701  1.00  0.00     0.010 A 
ATOM     33  C   UNL A   1      40.584  26.355  26.756  1.00  0.00     0.010 A 
ATOM     34  C   UNL A   1      40.139  26.566  28.070  1.00  0.00    -0.014 A 
BRANCH  34  35
ATOM     35  C   UNL A   1      40.496  27.820  28.780  1.00  0.00     0.031 A 
ATOM     36  C   UNL A   1      41.857  27.985  29.395  1.00  0.00     0.074 A 
ATOM     37  C   UNL A   1      39.573  28.793  28.912  1.00  0.00     0.049 A 
ATOM     38  N   UNL A   1      42.349  29.011  30.043  1.00  0.00    -0.248 NA
ATOM     39  C   UNL A   1      42.778  26.841  29.292  1.00  0.00     0.031 C 
ATOM     40  C   UNL A   1      38.196  28.730  28.414  1.00  0.00     0.029 A 
ATOM     41  N   UNL A   1      39.655  30.028  29.504  1.00  0.00    -0.354 N 
ATOM     42  C   UNL A   1      43.626  28.631  30.435  1.00  0.00     0.074 A 
ATOM     43  C   UNL A   1      43.813  27.265  30.001  1.00  0.00     0.031 C 
ATOM     44  C   UNL A   1      37.577  29.890  28.688  1.00  0.00     0.029 A 
ATOM     45  C   UNL A   1      38.500  30.765  29.403  1.00  0.00     0.049 A 
ATOM     46  H   UNL A   1      40.466  30.354  29.957  1.00  0.00     0.167 HD
ATOM     47  C   UNL A   1      44.568  29.361  31.078  1.00  0.00     0.031 A 
ATOM     48  C   UNL A   1      38.221  32.011  29.828  1.00  0.00     0.031 A 
ATOM     49  C   UNL A   1      44.388  30.725  31.499  1.00  0.00     0.049 A 
ATOM     50  C   UNL A   1      39.290  32.809  30.518  1.00  0.00     0.074 A 
ATOM     51  C   UNL A   1      45.303  31.569  32.104  1.00  0.00     0.029 A 
ATOM     52  N   UNL A   1      43.212  31.443  31.355  1.00  0.00    -0.354 N 
ATOM     53  N   UNL A   1      40.521  32.464  30.807  1.00  0.00    -0.248 NA
ATOM     54  C   UNL A   1      38.936  34.177  30.923  1.00  0.00     0.031 C 
ATOM     55  C   UNL A   1      44.666  32.788  32.364  1.00  0.00     0.029 A 
ATOM     56  C   UNL A   1      43.372  32.717  31.874  1.00  0.00     0.049 A 
ATOM     57  H   UNL A   1      42.385  31.099  30.946  1.00  0.00     0.167 HD
ATOM     58  C   UNL A   1      41.099  33.582  31.396  1.00  0.00     0.074 A 
ATOM     59  C   UNL A   1      40.086  34.617  31.412  1.00  0.00     0.031 C 
ATOM     60  C   UNL A   1      42.355  33.737  31.878  1.00  0.00     0.031 A 
BRANCH  47  61
ATOM     61  C   UNL A   1      45.883  28.692  31.362  1.00  0.00    -0.014 A 
ATOM     62  C   UNL A   1      46.962  28.804  30.471  1.00  0.00     0.009 A 
ATOM     63  C   UNL A   1      46.055  27.959  32.547  1.00  0.00     0.009 A 
ATOM     64  C   UNL A   1      48.174  28.165  30.741  1.00  0.00     0.001 A 
ATOM     65  C   UNL A   1      47.277  27.345  32.828  1.00  0.00     0.001 A 
ATOM     66  C   UNL A   1      48.331  27.439  31.921  1.00  0.00     0.000 A 
ENDBRANCH  47  61
BRANCH  48  67
ATOM     67  C   UNL A   1      36.881  32.600  29.571  1.00  0.00    -0.014 A 
ATOM     68  C   UNL A   1      35.885  32.554  30.559  1.00  0.00     0.009 A 
ATOM     69  C   UNL A   1      36.589  33.208  28.341  1.00  0.00     0.009 A 
ATOM     70  C   UNL A   1      34.615  33.079  30.310  1.00  0.00     0.001 A 
ATOM     71  C   UNL A   1      35.326  33.757  28.105  1.00  0.00     0.001 A 
ATOM     72  C   UNL A   1      34.339  33.683  29.085  1.00  0.00     0.000 A 
ENDBRANCH  48  67
BRANCH  60  73
ATOM     73  C   UNL A   1      42.720  35.088  32.422  1.00  0.00    -0.014 A 
ATOM     74  C   UNL A   1      42.377  35.467  33.729  1.00  0.00     0.009 A 
ATOM     75  C   UNL A   1      43.450  35.983  31.622  1.00  0.00     0.009 A 
ATOM     76  C   UNL A   1      42.728  36.729  34.212  1.00  0.00     0.001 A 
ATOM     77  C   UNL A   1      43.823  37.232  32.118  1.00  0.00     0.001 A 
ATOM     78  C   UNL A   1      43.454  37.608  33.408  1.00  0.00     0.000 A 
ENDBRANCH  60  73
ENDBRANCH  34  35
ENDBRANCH  26  29
ENDBRANCH  24  25
ENDBRANCH  23  24
ENDBRANCH   1  23
TORSDOF 14
ENDMDL
