MODEL 1
REMARK VINA RESULT:     -11.3      0.000      0.000
REMARK SMILES CCc1cccc(CC)c1NC(=O)C[C@@](C)(C(=O)NCCCCNC(=O)c1ccc(-c2c3nc(c(-c4ccccc4)c4ccc([nH]4)c(-c4ccccc4)c4nc(c(-c5ccccc5)c5ccc2[nH]5)C=C4)C=C3)cc1)c1ccccc1
REMARK SMILES IDX 20 1 19 2 17 3 18 4 15 6 16 7 14 8 12 9 11 10 13 12 10 13
REMARK SMILES IDX 3 14 4 15 5 16 7 17 6 18 2 19 1 20 8 21 9 22 75 23 76 24
REMARK SMILES IDX 80 25 77 26 79 27 78 28 21 29 22 30 23 31 24 32 25 33 26 35
REMARK SMILES IDX 27 36 28 37 74 38 29 39 73 40 30 41 31 42 32 43 67 44 33 45
REMARK SMILES IDX 72 46 66 47 68 48 34 49 71 50 65 51 64 52 35 54 57 55 42 56
REMARK SMILES IDX 56 57 43 58 46 59 55 60 69 61 44 62 45 63 54 65 70 66 47 67
REMARK SMILES IDX 36 68 37 69 41 70 38 71 40 72 39 73 58 74 59 75 63 76 60 77
REMARK SMILES IDX 62 78 61 79 48 80 49 81 53 82 50 83 52 84 51 85
REMARK H PARENT 19 5 11 11 24 34 68 53 46 64
REMARK Flexibility Score: inf
ROOT
ATOM      1  C   UNL A   1      35.254  20.452  24.993  1.00  0.00     0.116 C 
ENDROOT
BRANCH   1   2
ATOM      2  N   UNL A   1      34.116  21.138  25.636  1.00  0.00    -0.355 N 
ATOM      3  C   UNL A   1      32.903  21.445  25.047  1.00  0.00     0.230 C 
ATOM      4  O   UNL A   1      31.969  20.714  25.401  1.00  0.00    -0.274 OA
ATOM      5  H   UNL A   1      34.233  21.402  26.577  1.00  0.00     0.163 HD
BRANCH   3   6
ATOM      6  C   UNL A   1      32.673  22.691  24.071  1.00  0.00     0.080 C 
ATOM      7  C   UNL A   1      32.083  22.167  22.723  1.00  0.00     0.027 C 
BRANCH   6   8
ATOM      8  C   UNL A   1      34.013  23.458  23.894  1.00  0.00     0.121 C 
BRANCH   8   9
ATOM      9  C   UNL A   1      34.514  24.439  24.923  1.00  0.00     0.225 C 
ATOM     10  N   UNL A   1      34.274  25.762  25.049  1.00  0.00    -0.326 N 
ATOM     11  H   UNL A   1      34.833  26.059  25.802  1.00  0.00     0.169 HD
ATOM     12  O   UNL A   1      35.365  24.027  25.732  1.00  0.00    -0.275 OA
BRANCH  10  13
ATOM     13  C   UNL A   1      33.593  26.922  24.604  1.00  0.00     0.047 A 
ATOM     14  C   UNL A   1      33.148  26.896  23.245  1.00  0.00    -0.024 A 
ATOM     15  C   UNL A   1      32.269  27.910  22.780  1.00  0.00     0.006 A 
ATOM     16  C   UNL A   1      31.845  28.945  23.592  1.00  0.00     0.001 A 
ATOM     17  C   UNL A   1      33.318  28.109  25.336  1.00  0.00    -0.024 A 
ATOM     18  C   UNL A   1      32.385  29.053  24.856  1.00  0.00     0.006 A 
BRANCH  14  19
ATOM     19  C   UNL A   1      33.651  26.020  22.090  1.00  0.00     0.034 C 
ATOM     20  C   UNL A   1      32.829  25.584  20.885  1.00  0.00     0.009 C 
ENDBRANCH  14  19
BRANCH  17  21
ATOM     21  C   UNL A   1      34.225  28.585  26.426  1.00  0.00     0.034 C 
ATOM     22  C   UNL A   1      33.836  29.689  27.402  1.00  0.00     0.009 C 
ENDBRANCH  17  21
ENDBRANCH  10  13
ENDBRANCH   8   9
ENDBRANCH   6   8
BRANCH   6  23
ATOM     23  C   UNL A   1      31.453  23.587  24.523  1.00  0.00    -0.032 A 
ATOM     24  C   UNL A   1      31.378  24.098  25.833  1.00  0.00     0.005 A 
ATOM     25  C   UNL A   1      30.666  24.239  23.543  1.00  0.00     0.005 A 
ATOM     26  C   UNL A   1      30.664  25.269  26.117  1.00  0.00     0.000 A 
ATOM     27  C   UNL A   1      29.963  25.414  23.829  1.00  0.00     0.000 A 
ATOM     28  C   UNL A   1      29.986  25.947  25.110  1.00  0.00     0.000 A 
ENDBRANCH   6  23
ENDBRANCH   3   6
ENDBRANCH   1   2
BRANCH   1  29
ATOM     29  C   UNL A   1      36.621  21.024  25.377  1.00  0.00     0.023 C 
BRANCH  29  30
ATOM     30  C   UNL A   1      37.822  20.177  24.954  1.00  0.00     0.023 C 
BRANCH  30  31
ATOM     31  C   UNL A   1      39.123  20.384  25.734  1.00  0.00     0.116 C 
BRANCH  31  32
ATOM     32  N   UNL A   1      40.012  19.232  25.763  1.00  0.00    -0.352 N 
ATOM     33  C   UNL A   1      41.358  19.177  26.076  1.00  0.00     0.251 C 
ATOM     34  H   UNL A   1      39.597  18.372  25.527  1.00  0.00     0.163 HD
ATOM     35  O   UNL A   1      41.962  18.122  26.026  1.00  0.00    -0.269 OA
BRANCH  33  36
ATOM     36  C   UNL A   1      42.081  20.425  26.421  1.00  0.00     0.039 A 
ATOM     37  C   UNL A   1      42.667  21.166  25.391  1.00  0.00     0.014 A 
ATOM     38  C   UNL A   1      42.142  20.888  27.737  1.00  0.00     0.014 A 
ATOM     39  C   UNL A   1      43.222  22.420  25.666  1.00  0.00     0.010 A 
ATOM     40  C   UNL A   1      42.630  22.167  27.999  1.00  0.00     0.010 A 
ATOM     41  C   UNL A   1      43.161  22.955  26.964  1.00  0.00    -0.014 A 
BRANCH  41  42
ATOM     42  C   UNL A   1      43.609  24.344  27.244  1.00  0.00     0.031 A 
ATOM     43  C   UNL A   1      42.621  25.400  27.655  1.00  0.00     0.074 A 
ATOM     44  C   UNL A   1      44.902  24.677  27.055  1.00  0.00     0.049 A 
ATOM     45  N   UNL A   1      42.826  26.670  27.903  1.00  0.00    -0.248 NA
ATOM     46  C   UNL A   1      41.215  24.984  27.777  1.00  0.00     0.031 C 
ATOM     47  C   UNL A   1      45.956  23.769  26.593  1.00  0.00     0.029 A 
ATOM     48  N   UNL A   1      45.551  25.876  27.221  1.00  0.00    -0.354 N 
ATOM     49  C   UNL A   1      41.576  27.206  28.187  1.00  0.00     0.074 A 
ATOM     50  C   UNL A   1      40.613  26.136  28.038  1.00  0.00     0.031 C 
ATOM     51  C   UNL A   1      47.121  24.435  26.544  1.00  0.00     0.029 A 
ATOM     52  C   UNL A   1      46.895  25.822  26.939  1.00  0.00     0.049 A 
ATOM     53  H   UNL A   1      45.096  26.698  27.515  1.00  0.00     0.167 HD
ATOM     54  C   UNL A   1      41.257  28.469  28.560  1.00  0.00     0.031 A 
ATOM     55  C   UNL A   1      47.842  26.777  26.997  1.00  0.00     0.031 A 
ATOM     56  C   UNL A   1      42.211  29.532  28.734  1.00  0.00     0.049 A 
ATOM     57  C   UNL A   1      47.469  28.161  27.449  1.00  0.00     0.074 A 
ATOM     58  C   UNL A   1      41.989  30.826  29.173  1.00  0.00     0.029 A 
ATOM     59  N   UNL A   1      43.568  29.422  28.480  1.00  0.00    -0.354 N 
ATOM     60  N   UNL A   1      46.293  28.628  27.794  1.00  0.00    -0.248 NA
ATOM     61  C   UNL A   1      48.558  29.143  27.541  1.00  0.00     0.031 C 
ATOM     62  C   UNL A   1      43.210  31.511  29.151  1.00  0.00     0.029 A 
ATOM     63  C   UNL A   1      44.197  30.627  28.742  1.00  0.00     0.049 A 
ATOM     64  H   UNL A   1      44.020  28.606  28.161  1.00  0.00     0.167 HD
ATOM     65  C   UNL A   1      46.508  29.947  28.174  1.00  0.00     0.074 A 
ATOM     66  C   UNL A   1      47.926  30.200  28.030  1.00  0.00     0.031 C 
ATOM     67  C   UNL A   1      45.609  30.864  28.603  1.00  0.00     0.031 A 
BRANCH  54  68
ATOM     68  C   UNL A   1      39.805  28.769  28.810  1.00  0.00    -0.014 A 
ATOM     69  C   UNL A   1      39.226  28.550  30.069  1.00  0.00     0.009 A 
ATOM     70  C   UNL A   1      39.016  29.310  27.783  1.00  0.00     0.009 A 
ATOM     71  C   UNL A   1      37.876  28.833  30.286  1.00  0.00     0.001 A 
ATOM     72  C   UNL A   1      37.673  29.618  28.011  1.00  0.00     0.001 A 
ATOM     73  C   UNL A   1      37.102  29.370  29.259  1.00  0.00     0.000 A 
ENDBRANCH  54  68
BRANCH  55  74
ATOM     74  C   UNL A   1      49.251  26.455  26.649  1.00  0.00    -0.014 A 
ATOM     75  C   UNL A   1      49.731  26.686  25.349  1.00  0.00     0.009 A 
ATOM     76  C   UNL A   1      50.116  25.901  27.603  1.00  0.00     0.009 A 
ATOM     77  C   UNL A   1      51.038  26.336  25.005  1.00  0.00     0.001 A 
ATOM     78  C   UNL A   1      51.432  25.578  27.263  1.00  0.00     0.001 A 
ATOM     79  C   UNL A   1      51.888  25.785  25.963  1.00  0.00     0.000 A 
ENDBRANCH  55  74
BRANCH  67  80
ATOM     80  C   UNL A   1      46.140  32.216  28.990  1.00  0.00    -0.014 A 
ATOM     81  C   UNL A   1      46.576  32.481  30.296  1.00  0.00     0.009 A 
ATOM     82  C   UNL A   1      46.230  33.228  28.021  1.00  0.00     0.009 A 
ATOM     83  C   UNL A   1      47.060  33.747  30.634  1.00  0.00     0.001 A 
ATOM     84  C   UNL A   1      46.739  34.483  28.356  1.00  0.00     0.001 A 
ATOM     85  C   UNL A   1      47.143  34.745  29.663  1.00  0.00     0.000 A 
ENDBRANCH  67  80
ENDBRANCH  41  42
ENDBRANCH  33  36
ENDBRANCH  31  32
ENDBRANCH  30  31
ENDBRANCH  29  30
ENDBRANCH   1  29
TORSDOF 17
ENDMDL
MODEL 2
REMARK VINA RESULT:     -11.2      1.845      3.201
REMARK SMILES CCc1cccc(CC)c1NC(=O)C[C@@](C)(C(=O)NCCCCNC(=O)c1ccc(-c2c3nc(c(-c4ccccc4)c4ccc([nH]4)c(-c4ccccc4)c4nc(c(-c5ccccc5)c5ccc2[nH]5)C=C4)C=C3)cc1)c1ccccc1
REMARK SMILES IDX 20 1 19 2 17 3 18 4 15 6 16 7 14 8 12 9 11 10 13 12 10 13
REMARK SMILES IDX 3 14 4 15 5 16 7 17 6 18 2 19 1 20 8 21 9 22 75 23 76 24
REMARK SMILES IDX 80 25 77 26 79 27 78 28 21 29 22 30 23 31 24 32 25 33 26 35
REMARK SMILES IDX 27 36 28 37 74 38 29 39 73 40 30 41 31 42 32 43 67 44 33 45
REMARK SMILES IDX 72 46 66 47 68 48 34 49 71 50 65 51 64 52 35 54 57 55 42 56
REMARK SMILES IDX 56 57 43 58 46 59 55 60 69 61 44 62 45 63 54 65 70 66 47 67
REMARK SMILES IDX 36 68 37 69 41 70 38 71 40 72 39 73 58 74 59 75 63 76 60 77
REMARK SMILES IDX 62 78 61 79 48 80 49 81 53 82 50 83 52 84 51 85
REMARK H PARENT 19 5 11 11 24 34 68 53 46 64
REMARK Flexibility Score: inf
ROOT
ATOM      1  C   UNL A   1      36.184  21.332  24.628  1.00  0.00     0.116 C 
ENDROOT
BRANCH   1   2
ATOM      2  N   UNL A   1      35.192  22.078  25.427  1.00  0.00    -0.355 N 
ATOM      3  C   UNL A   1      33.976  21.600  25.882  1.00  0.00     0.230 C 
ATOM      4  O   UNL A   1      33.956  21.336  27.091  1.00  0.00    -0.274 OA
ATOM      5  H   UNL A   1      35.419  23.007  25.660  1.00  0.00     0.163 HD
BRANCH   3   6
ATOM      6  C   UNL A   1      32.664  21.484  24.974  1.00  0.00     0.080 C 
ATOM      7  C   UNL A   1      32.967  22.113  23.577  1.00  0.00     0.027 C 
BRANCH   6   8
ATOM      8  C   UNL A   1      31.473  22.165  25.705  1.00  0.00     0.121 C 
BRANCH   8   9
ATOM      9  C   UNL A   1      31.593  23.535  26.322  1.00  0.00     0.225 C 
ATOM     10  N   UNL A   1      31.846  24.728  25.742  1.00  0.00    -0.326 N 
ATOM     11  H   UNL A   1      31.913  25.371  26.484  1.00  0.00     0.169 HD
ATOM     12  O   UNL A   1      31.569  23.602  27.565  1.00  0.00    -0.275 OA
BRANCH  10  13
ATOM     13  C   UNL A   1      32.060  25.487  24.565  1.00  0.00     0.047 A 
ATOM     14  C   UNL A   1      33.239  26.297  24.556  1.00  0.00    -0.024 A 
ATOM     15  C   UNL A   1      33.653  26.913  23.345  1.00  0.00     0.006 A 
ATOM     16  C   UNL A   1      32.938  26.779  22.171  1.00  0.00     0.001 A 
ATOM     17  C   UNL A   1      31.240  25.553  23.406  1.00  0.00    -0.024 A 
ATOM     18  C   UNL A   1      31.727  26.120  22.208  1.00  0.00     0.006 A 
BRANCH  14  19
ATOM     19  C   UNL A   1      34.061  26.801  25.750  1.00  0.00     0.034 C 
ATOM     20  C   UNL A   1      33.706  27.992  26.630  1.00  0.00     0.009 C 
ENDBRANCH  14  19
BRANCH  17  21
ATOM     21  C   UNL A   1      29.758  25.368  23.483  1.00  0.00     0.034 C 
ATOM     22  C   UNL A   1      28.808  26.479  23.916  1.00  0.00     0.009 C 
ENDBRANCH  17  21
ENDBRANCH  10  13
ENDBRANCH   8   9
ENDBRANCH   6   8
BRANCH   6  23
ATOM     23  C   UNL A   1      32.391  20.001  24.506  1.00  0.00    -0.032 A 
ATOM     24  C   UNL A   1      32.253  19.688  23.140  1.00  0.00     0.005 A 
ATOM     25  C   UNL A   1      32.708  18.927  25.373  1.00  0.00     0.005 A 
ATOM     26  C   UNL A   1      32.545  18.407  22.654  1.00  0.00     0.000 A 
ATOM     27  C   UNL A   1      33.009  17.652  24.882  1.00  0.00     0.000 A 
ATOM     28  C   UNL A   1      32.957  17.399  23.519  1.00  0.00     0.000 A 
ENDBRANCH   6  23
ENDBRANCH   3   6
ENDBRANCH   1   2
BRANCH   1  29
ATOM     29  C   UNL A   1      36.162  19.821  24.865  1.00  0.00     0.023 C 
BRANCH  29  30
ATOM     30  C   UNL A   1      37.533  19.142  24.864  1.00  0.00     0.023 C 
BRANCH  30  31
ATOM     31  C   UNL A   1      38.659  19.858  25.615  1.00  0.00     0.116 C 
BRANCH  31  32
ATOM     32  N   UNL A   1      39.921  19.136  25.663  1.00  0.00    -0.352 N 
ATOM     33  C   UNL A   1      41.159  19.570  26.103  1.00  0.00     0.251 C 
ATOM     34  H   UNL A   1      39.890  18.208  25.337  1.00  0.00     0.163 HD
ATOM     35  O   UNL A   1      42.127  18.835  26.050  1.00  0.00    -0.269 OA
BRANCH  33  36
ATOM     36  C   UNL A   1      41.314  20.962  26.590  1.00  0.00     0.039 A 
ATOM     37  C   UNL A   1      41.156  21.215  27.956  1.00  0.00     0.014 A 
ATOM     38  C   UNL A   1      41.658  22.001  25.722  1.00  0.00     0.014 A 
ATOM     39  C   UNL A   1      41.444  22.485  28.465  1.00  0.00     0.010 A 
ATOM     40  C   UNL A   1      42.014  23.245  26.240  1.00  0.00     0.010 A 
ATOM     41  C   UNL A   1      41.927  23.497  27.618  1.00  0.00    -0.014 A 
BRANCH  41  42
ATOM     42  C   UNL A   1      42.380  24.803  28.164  1.00  0.00     0.031 A 
ATOM     43  C   UNL A   1      41.395  25.910  28.420  1.00  0.00     0.074 A 
ATOM     44  C   UNL A   1      43.696  25.022  28.361  1.00  0.00     0.049 A 
ATOM     45  N   UNL A   1      41.614  27.125  28.859  1.00  0.00    -0.248 NA
ATOM     46  C   UNL A   1      39.983  25.626  28.120  1.00  0.00     0.031 C 
ATOM     47  C   UNL A   1      44.769  24.060  28.092  1.00  0.00     0.029 A 
ATOM     48  N   UNL A   1      44.359  26.130  28.830  1.00  0.00    -0.354 N 
ATOM     49  C   UNL A   1      40.376  27.754  28.864  1.00  0.00     0.074 A 
ATOM     50  C   UNL A   1      39.416  26.803  28.345  1.00  0.00     0.031 C 
ATOM     51  C   UNL A   1      45.948  24.609  28.427  1.00  0.00     0.029 A 
ATOM     52  C   UNL A   1      45.721  25.969  28.907  1.00  0.00     0.049 A 
ATOM     53  H   UNL A   1      43.900  26.963  29.087  1.00  0.00     0.167 HD
ATOM     54  C   UNL A   1      40.058  29.003  29.282  1.00  0.00     0.031 A 
ATOM     55  C   UNL A   1      46.683  26.816  29.321  1.00  0.00     0.031 A 
ATOM     56  C   UNL A   1      41.002  29.945  29.823  1.00  0.00     0.049 A 
ATOM     57  C   UNL A   1      46.299  28.182  29.816  1.00  0.00     0.074 A 
ATOM     58  C   UNL A   1      40.762  31.209  30.334  1.00  0.00     0.029 A 
ATOM     59  N   UNL A   1      42.365  29.725  29.924  1.00  0.00    -0.354 N 
ATOM     60  N   UNL A   1      45.111  28.730  29.891  1.00  0.00    -0.248 NA
ATOM     61  C   UNL A   1      47.390  29.039  30.303  1.00  0.00     0.031 C 
ATOM     62  C   UNL A   1      41.987  31.768  30.713  1.00  0.00     0.029 A 
ATOM     63  C   UNL A   1      42.983  30.832  30.479  1.00  0.00     0.049 A 
ATOM     64  H   UNL A   1      42.828  28.901  29.643  1.00  0.00     0.167 HD
ATOM     65  C   UNL A   1      45.307  29.981  30.463  1.00  0.00     0.074 A 
ATOM     66  C   UNL A   1      46.725  30.104  30.728  1.00  0.00     0.031 C 
ATOM     67  C   UNL A   1      44.393  30.940  30.744  1.00  0.00     0.031 A 
BRANCH  54  68
ATOM     68  C   UNL A   1      38.618  29.422  29.175  1.00  0.00    -0.014 A 
ATOM     69  C   UNL A   1      37.746  29.304  30.268  1.00  0.00     0.009 A 
ATOM     70  C   UNL A   1      38.138  29.972  27.977  1.00  0.00     0.009 A 
ATOM     71  C   UNL A   1      36.410  29.697  30.153  1.00  0.00     0.001 A 
ATOM     72  C   UNL A   1      36.809  30.389  27.874  1.00  0.00     0.001 A 
ATOM     73  C   UNL A   1      35.945  30.242  28.958  1.00  0.00     0.000 A 
ENDBRANCH  54  68
BRANCH  55  74
ATOM     74  C   UNL A   1      48.106  26.389  29.321  1.00  0.00    -0.014 A 
ATOM     75  C   UNL A   1      48.907  26.592  28.186  1.00  0.00     0.009 A 
ATOM     76  C   UNL A   1      48.667  25.762  30.443  1.00  0.00     0.009 A 
ATOM     77  C   UNL A   1      50.231  26.146  28.163  1.00  0.00     0.001 A 
ATOM     78  C   UNL A   1      49.999  25.341  30.427  1.00  0.00     0.001 A 
ATOM     79  C   UNL A   1      50.776  25.523  29.285  1.00  0.00     0.000 A 
ENDBRANCH  55  74
BRANCH  67  80
ATOM     80  C   UNL A   1      44.893  32.190  31.410  1.00  0.00    -0.014 A 
ATOM     81  C   UNL A   1      44.969  32.292  32.807  1.00  0.00     0.009 A 
ATOM     82  C   UNL A   1      45.321  33.271  30.623  1.00  0.00     0.009 A 
ATOM     83  C   UNL A   1      45.432  33.467  33.403  1.00  0.00     0.001 A 
ATOM     84  C   UNL A   1      45.808  34.433  31.221  1.00  0.00     0.001 A 
ATOM     85  C   UNL A   1      45.853  34.535  32.611  1.00  0.00     0.000 A 
ENDBRANCH  67  80
ENDBRANCH  41  42
ENDBRANCH  33  36
ENDBRANCH  31  32
ENDBRANCH  30  31
ENDBRANCH  29  30
ENDBRANCH   1  29
TORSDOF 17
ENDMDL
MODEL 3
REMARK VINA RESULT:     -11.2      4.125      8.783
REMARK SMILES CCc1cccc(CC)c1NC(=O)C[C@@](C)(C(=O)NCCCCNC(=O)c1ccc(-c2c3nc(c(-c4ccccc4)c4ccc([nH]4)c(-c4ccccc4)c4nc(c(-c5ccccc5)c5ccc2[nH]5)C=C4)C=C3)cc1)c1ccccc1
REMARK SMILES IDX 20 1 19 2 17 3 18 4 15 6 16 7 14 8 12 9 11 10 13 12 10 13
REMARK SMILES IDX 3 14 4 15 5 16 7 17 6 18 2 19 1 20 8 21 9 22 75 23 76 24
REMARK SMILES IDX 80 25 77 26 79 27 78 28 21 29 22 30 23 31 24 32 25 33 26 35
REMARK SMILES IDX 27 36 28 37 74 38 29 39 73 40 30 41 31 42 32 43 67 44 33 45
REMARK SMILES IDX 72 46 66 47 68 48 34 49 71 50 65 51 64 52 35 54 57 55 42 56
REMARK SMILES IDX 56 57 43 58 46 59 55 60 69 61 44 62 45 63 54 65 70 66 47 67
REMARK SMILES IDX 36 68 37 69 41 70 38 71 40 72 39 73 58 74 59 75 63 76 60 77
REMARK SMILES IDX 62 78 61 79 48 80 49 81 53 82 50 83 52 84 51 85
REMARK H PARENT 19 5 11 11 24 34 68 53 46 64
REMARK Flexibility Score: inf
ROOT
ATOM      1  C   UNL A   1      31.379  28.037  26.808  1.00  0.00     0.116 C 
ENDROOT
BRANCH   1   2
ATOM      2  N   UNL A   1      32.070  27.157  25.845  1.00  0.00    -0.355 N 
ATOM      3  C   UNL A   1      32.171  27.352  24.479  1.00  0.00     0.230 C 
ATOM      4  O   UNL A   1      33.285  27.740  24.104  1.00  0.00    -0.274 OA
ATOM      5  H   UNL A   1      32.501  26.351  26.211  1.00  0.00     0.163 HD
BRANCH   3   6
ATOM      6  C   UNL A   1      31.003  27.019  23.438  1.00  0.00     0.080 C 
ATOM      7  C   UNL A   1      29.998  26.034  24.116  1.00  0.00     0.027 C 
BRANCH   6   8
ATOM      8  C   UNL A   1      31.627  26.453  22.132  1.00  0.00     0.121 C 
BRANCH   8   9
ATOM      9  C   UNL A   1      32.857  25.583  22.146  1.00  0.00     0.225 C 
ATOM     10  N   UNL A   1      33.208  24.592  22.994  1.00  0.00    -0.326 N 
ATOM     11  H   UNL A   1      34.110  24.314  22.714  1.00  0.00     0.169 HD
ATOM     12  O   UNL A   1      33.759  25.861  21.335  1.00  0.00    -0.275 OA
BRANCH  10  13
ATOM     13  C   UNL A   1      32.887  23.765  24.098  1.00  0.00     0.047 A 
ATOM     14  C   UNL A   1      33.653  23.990  25.284  1.00  0.00    -0.024 A 
ATOM     15  C   UNL A   1      33.255  23.371  26.499  1.00  0.00     0.006 A 
ATOM     16  C   UNL A   1      32.161  22.532  26.573  1.00  0.00     0.001 A 
ATOM     17  C   UNL A   1      31.911  22.733  24.163  1.00  0.00    -0.024 A 
ATOM     18  C   UNL A   1      31.507  22.199  25.405  1.00  0.00     0.006 A 
BRANCH  14  19
ATOM     19  C   UNL A   1      35.025  24.664  25.423  1.00  0.00     0.034 C 
ATOM     20  C   UNL A   1      36.372  23.976  25.243  1.00  0.00     0.009 C 
ENDBRANCH  14  19
BRANCH  17  21
ATOM     21  C   UNL A   1      31.538  21.931  22.956  1.00  0.00     0.034 C 
ATOM     22  C   UNL A   1      32.153  20.572  22.644  1.00  0.00     0.009 C 
ENDBRANCH  17  21
ENDBRANCH  10  13
ENDBRANCH   8   9
ENDBRANCH   6   8
BRANCH   6  23
ATOM     23  C   UNL A   1      30.024  28.239  23.229  1.00  0.00    -0.032 A 
ATOM     24  C   UNL A   1      30.412  29.355  22.463  1.00  0.00     0.005 A 
ATOM     25  C   UNL A   1      28.633  28.057  23.422  1.00  0.00     0.005 A 
ATOM     26  C   UNL A   1      29.464  30.162  21.819  1.00  0.00     0.000 A 
ATOM     27  C   UNL A   1      27.690  28.859  22.770  1.00  0.00     0.000 A 
ATOM     28  C   UNL A   1      28.106  29.894  21.944  1.00  0.00     0.000 A 
ENDBRANCH   6  23
ENDBRANCH   3   6
ENDBRANCH   1   2
BRANCH   1  29
ATOM     29  C   UNL A   1      32.239  29.196  27.316  1.00  0.00     0.023 C 
BRANCH  29  30
ATOM     30  C   UNL A   1      31.841  30.578  26.796  1.00  0.00     0.023 C 
BRANCH  30  31
ATOM     31  C   UNL A   1      32.904  31.677  26.870  1.00  0.00     0.116 C 
BRANCH  31  32
ATOM     32  N   UNL A   1      32.431  32.957  27.374  1.00  0.00    -0.352 N 
ATOM     33  C   UNL A   1      33.060  33.846  28.228  1.00  0.00     0.251 C 
ATOM     34  H   UNL A   1      31.538  33.230  27.064  1.00  0.00     0.163 HD
ATOM     35  O   UNL A   1      32.504  34.872  28.572  1.00  0.00    -0.269 OA
BRANCH  33  36
ATOM     36  C   UNL A   1      34.400  33.514  28.771  1.00  0.00     0.039 A 
ATOM     37  C   UNL A   1      34.478  32.794  29.966  1.00  0.00     0.014 A 
ATOM     38  C   UNL A   1      35.566  33.867  28.089  1.00  0.00     0.014 A 
ATOM     39  C   UNL A   1      35.719  32.338  30.422  1.00  0.00     0.010 A 
ATOM     40  C   UNL A   1      36.793  33.351  28.504  1.00  0.00     0.010 A 
ATOM     41  C   UNL A   1      36.881  32.567  29.666  1.00  0.00    -0.014 A 
BRANCH  41  42
ATOM     42  C   UNL A   1      38.182  31.963  30.056  1.00  0.00     0.031 A 
ATOM     43  C   UNL A   1      39.127  32.699  30.966  1.00  0.00     0.074 A 
ATOM     44  C   UNL A   1      38.549  30.777  29.531  1.00  0.00     0.049 A 
ATOM     45  N   UNL A   1      40.317  32.342  31.382  1.00  0.00    -0.248 NA
ATOM     46  C   UNL A   1      38.692  34.018  31.449  1.00  0.00     0.031 C 
ATOM     47  C   UNL A   1      37.760  29.985  28.583  1.00  0.00     0.029 A 
ATOM     48  N   UNL A   1      39.688  30.031  29.714  1.00  0.00    -0.354 N 
ATOM     49  C   UNL A   1      40.779  33.400  32.154  1.00  0.00     0.074 A 
ATOM     50  C   UNL A   1      39.763  34.429  32.114  1.00  0.00     0.031 C 
ATOM     51  C   UNL A   1      38.424  28.853  28.294  1.00  0.00     0.029 A 
ATOM     52  C   UNL A   1      39.696  28.851  29.008  1.00  0.00     0.049 A 
ATOM     53  H   UNL A   1      40.430  30.314  30.296  1.00  0.00     0.167 HD
ATOM     54  C   UNL A   1      41.936  33.502  32.853  1.00  0.00     0.031 A 
ATOM     55  C   UNL A   1      40.620  27.874  28.946  1.00  0.00     0.031 A 
ATOM     56  C   UNL A   1      42.940  32.473  32.917  1.00  0.00     0.049 A 
ATOM     57  C   UNL A   1      41.878  27.993  29.760  1.00  0.00     0.074 A 
ATOM     58  C   UNL A   1      44.114  32.459  33.652  1.00  0.00     0.029 A 
ATOM     59  N   UNL A   1      42.888  31.276  32.223  1.00  0.00    -0.354 N 
ATOM     60  N   UNL A   1      42.260  28.966  30.551  1.00  0.00    -0.248 NA
ATOM     61  C   UNL A   1      42.821  26.868  29.688  1.00  0.00     0.031 C 
ATOM     62  C   UNL A   1      44.790  31.266  33.374  1.00  0.00     0.029 A 
ATOM     63  C   UNL A   1      44.013  30.519  32.502  1.00  0.00     0.049 A 
ATOM     64  H   UNL A   1      42.159  31.003  31.620  1.00  0.00     0.167 HD
ATOM     65  C   UNL A   1      43.471  28.556  31.095  1.00  0.00     0.074 A 
ATOM     66  C   UNL A   1      43.751  27.242  30.555  1.00  0.00     0.031 C 
ATOM     67  C   UNL A   1      44.277  29.211  31.965  1.00  0.00     0.031 A 
BRANCH  54  68
ATOM     68  C   UNL A   1      42.175  34.777  33.612  1.00  0.00    -0.014 A 
ATOM     69  C   UNL A   1      42.887  35.841  33.036  1.00  0.00     0.009 A 
ATOM     70  C   UNL A   1      41.652  34.929  34.905  1.00  0.00     0.009 A 
ATOM     71  C   UNL A   1      43.101  37.019  33.754  1.00  0.00     0.001 A 
ATOM     72  C   UNL A   1      41.845  36.119  35.610  1.00  0.00     0.001 A 
ATOM     73  C   UNL A   1      42.578  37.159  35.038  1.00  0.00     0.000 A 
ENDBRANCH  54  68
BRANCH  55  74
ATOM     74  C   UNL A   1      40.381  26.671  28.105  1.00  0.00    -0.014 A 
ATOM     75  C   UNL A   1      40.917  26.593  26.810  1.00  0.00     0.009 A 
ATOM     76  C   UNL A   1      39.603  25.606  28.583  1.00  0.00     0.009 A 
ATOM     77  C   UNL A   1      40.651  25.488  25.998  1.00  0.00     0.001 A 
ATOM     78  C   UNL A   1      39.361  24.490  27.778  1.00  0.00     0.001 A 
ATOM     79  C   UNL A   1      39.876  24.436  26.485  1.00  0.00     0.000 A 
ENDBRANCH  55  74
BRANCH  67  80
ATOM     80  C   UNL A   1      45.518  28.497  32.420  1.00  0.00    -0.014 A 
ATOM     81  C   UNL A   1      46.736  28.646  31.741  1.00  0.00     0.009 A 
ATOM     82  C   UNL A   1      45.469  27.685  33.564  1.00  0.00     0.009 A 
ATOM     83  C   UNL A   1      47.875  27.966  32.180  1.00  0.00     0.001 A 
ATOM     84  C   UNL A   1      46.615  27.028  34.015  1.00  0.00     0.001 A 
ATOM     85  C   UNL A   1      47.814  27.161  33.317  1.00  0.00     0.000 A 
ENDBRANCH  67  80
ENDBRANCH  41  42
ENDBRANCH  33  36
ENDBRANCH  31  32
ENDBRANCH  30  31
ENDBRANCH  29  30
ENDBRANCH   1  29
TORSDOF 17
ENDMDL
