MODEL 1
REMARK VINA RESULT:     -12.4      0.000      0.000
REMARK SMILES COc1ccc(NC(=O)N[C@@H]2C=C[C@H](C(=O)NCCCCNC(=O)c3ccc(-c4c5nc(c(-c6ccccc6)c6ccc([nH]6)c(-c6ccccc6)c6nc(c(-c7ccccc7)c7ccc4[nH]7)C=C6)C=C5)cc3)C2)c(C)c1
REMARK SMILES IDX 19 1 18 2 17 3 15 4 16 5 14 7 11 8 12 9 73 10 13 11 10 12
REMARK SMILES IDX 7 13 8 14 9 16 6 18 3 19 4 20 76 21 5 22 74 23 75 24 2 25
REMARK SMILES IDX 1 26 20 27 21 28 22 29 23 30 24 32 25 33 26 34 72 35 27 36
REMARK SMILES IDX 71 37 28 38 29 39 30 40 65 41 31 42 70 43 64 44 66 45 32 46
REMARK SMILES IDX 69 47 63 48 62 49 33 51 55 52 40 53 54 54 41 55 44 56 53 57
REMARK SMILES IDX 67 58 42 59 43 60 52 62 68 63 45 64 34 65 35 66 39 67 36 68
REMARK SMILES IDX 38 69 37 70 56 71 57 72 61 73 58 74 60 75 59 76 46 77 47 78
REMARK SMILES IDX 51 79 48 80 50 81 49 82
REMARK H PARENT 17 6 7 15 10 17 22 31 66 50 44 61
REMARK Flexibility Score: inf
ROOT
ATOM      1  C   UNL A   1      39.900  22.425  26.508  1.00  0.00     0.023 C 
ENDROOT
BRANCH   1   2
ATOM      2  C   UNL A   1      38.510  22.827  25.995  1.00  0.00     0.116 C 
BRANCH   2   3
ATOM      3  N   UNL A   1      37.655  21.697  25.692  1.00  0.00    -0.356 N 
ATOM      4  C   UNL A   1      36.306  21.619  25.536  1.00  0.00     0.227 C 
ATOM      5  O   UNL A   1      35.835  20.512  25.269  1.00  0.00    -0.274 OA
ATOM      6  H   UNL A   1      38.130  20.843  25.581  1.00  0.00     0.163 HD
BRANCH   4   7
ATOM      7  C   UNL A   1      35.455  22.883  25.660  1.00  0.00     0.103 C 
ATOM      8  C   UNL A   1      33.224  23.573  26.387  1.00  0.00     0.107 C 
ATOM      9  C   UNL A   1      33.260  23.263  24.924  1.00  0.00    -0.006 C 
ATOM     10  C   UNL A   1      34.498  22.859  26.868  1.00  0.00     0.047 C 
ATOM     11  C   UNL A   1      34.491  22.960  24.511  1.00  0.00    -0.016 C 
BRANCH   8  12
ATOM     12  N   UNL A   1      31.982  23.082  26.919  1.00  0.00    -0.332 N 
ATOM     13  N   UNL A   1      30.185  24.585  26.324  1.00  0.00    -0.308 N 
ATOM     14  C   UNL A   1      30.701  23.465  26.865  1.00  0.00     0.319 C 
ATOM     15  H   UNL A   1      29.223  24.650  26.518  1.00  0.00     0.171 HD
ATOM     16  O   UNL A   1      29.898  22.728  27.454  1.00  0.00    -0.248 OA
ATOM     17  H   UNL A   1      32.104  22.265  27.456  1.00  0.00     0.165 HD
BRANCH  13  18
ATOM     18  C   UNL A   1      30.615  25.689  25.564  1.00  0.00     0.046 A 
ATOM     19  C   UNL A   1      31.047  28.071  24.095  1.00  0.00     0.119 A 
ATOM     20  C   UNL A   1      31.357  28.012  25.440  1.00  0.00     0.048 A 
ATOM     21  C   UNL A   1      30.697  26.886  23.448  1.00  0.00     0.052 A 
ATOM     22  C   UNL A   1      31.189  26.813  26.134  1.00  0.00     0.030 A 
ATOM     23  C   UNL A   1      30.507  25.678  24.160  1.00  0.00    -0.024 A 
ATOM     24  C   UNL A   1      30.322  24.428  23.341  1.00  0.00     0.047 C 
BRANCH  19  25
ATOM     25  O   UNL A   1      31.116  29.190  23.316  1.00  0.00    -0.497 OA
ATOM     26  C   UNL A   1      30.046  29.374  22.392  1.00  0.00     0.278 C 
ENDBRANCH  19  25
ENDBRANCH  13  18
ENDBRANCH   8  12
ENDBRANCH   4   7
ENDBRANCH   2   3
ENDBRANCH   1   2
BRANCH   1  27
ATOM     27  C   UNL A   1      40.240  20.934  26.448  1.00  0.00     0.023 C 
BRANCH  27  28
ATOM     28  C   UNL A   1      41.661  20.585  26.858  1.00  0.00     0.116 C 
BRANCH  28  29
ATOM     29  N   UNL A   1      42.490  20.034  25.798  1.00  0.00    -0.352 N 
ATOM     30  C   UNL A   1      43.487  20.653  25.059  1.00  0.00     0.251 C 
ATOM     31  H   UNL A   1      42.319  19.091  25.573  1.00  0.00     0.163 HD
ATOM     32  O   UNL A   1      44.052  20.049  24.162  1.00  0.00    -0.269 OA
BRANCH  30  33
ATOM     33  C   UNL A   1      43.961  22.005  25.457  1.00  0.00     0.039 A 
ATOM     34  C   UNL A   1      44.857  22.092  26.529  1.00  0.00     0.014 A 
ATOM     35  C   UNL A   1      43.385  23.163  24.937  1.00  0.00     0.014 A 
ATOM     36  C   UNL A   1      44.965  23.288  27.235  1.00  0.00     0.010 A 
ATOM     37  C   UNL A   1      43.408  24.321  25.692  1.00  0.00     0.010 A 
ATOM     38  C   UNL A   1      44.141  24.358  26.879  1.00  0.00    -0.014 A 
BRANCH  38  39
ATOM     39  C   UNL A   1      43.899  25.490  27.763  1.00  0.00     0.031 A 
ATOM     40  C   UNL A   1      42.579  26.140  27.800  1.00  0.00     0.074 A 
ATOM     41  C   UNL A   1      44.896  25.979  28.535  1.00  0.00     0.049 A 
ATOM     42  N   UNL A   1      42.411  27.416  27.905  1.00  0.00    -0.248 NA
ATOM     43  C   UNL A   1      41.337  25.385  27.683  1.00  0.00     0.031 C 
ATOM     44  C   UNL A   1      44.785  27.004  29.570  1.00  0.00     0.029 A 
ATOM     45  N   UNL A   1      46.272  25.809  28.371  1.00  0.00    -0.354 N 
ATOM     46  C   UNL A   1      41.077  27.614  28.171  1.00  0.00     0.074 A 
ATOM     47  C   UNL A   1      40.434  26.343  27.923  1.00  0.00     0.031 C 
ATOM     48  C   UNL A   1      45.985  27.586  29.724  1.00  0.00     0.029 A 
ATOM     49  C   UNL A   1      46.867  27.035  28.706  1.00  0.00     0.049 A 
ATOM     50  H   UNL A   1      46.733  24.990  28.080  1.00  0.00     0.167 HD
ATOM     51  C   UNL A   1      40.648  28.767  28.752  1.00  0.00     0.031 A 
ATOM     52  C   UNL A   1      47.649  27.757  27.854  1.00  0.00     0.031 A 
ATOM     53  C   UNL A   1      41.739  29.680  29.063  1.00  0.00     0.049 A 
ATOM     54  C   UNL A   1      47.153  29.170  27.641  1.00  0.00     0.074 A 
ATOM     55  C   UNL A   1      42.435  29.932  30.234  1.00  0.00     0.029 A 
ATOM     56  N   UNL A   1      42.466  30.268  28.036  1.00  0.00    -0.354 N 
ATOM     57  N   UNL A   1      45.947  29.565  27.936  1.00  0.00    -0.248 NA
ATOM     58  C   UNL A   1      47.940  30.218  26.995  1.00  0.00     0.031 C 
ATOM     59  C   UNL A   1      43.614  30.639  29.902  1.00  0.00     0.029 A 
ATOM     60  C   UNL A   1      43.625  30.832  28.534  1.00  0.00     0.049 A 
ATOM     61  H   UNL A   1      42.194  30.281  27.090  1.00  0.00     0.167 HD
ATOM     62  C   UNL A   1      45.772  30.858  27.512  1.00  0.00     0.074 A 
ATOM     63  C   UNL A   1      47.054  31.228  26.943  1.00  0.00     0.031 C 
ATOM     64  C   UNL A   1      44.572  31.492  27.646  1.00  0.00     0.031 A 
BRANCH  51  65
ATOM     65  C   UNL A   1      39.269  28.870  29.345  1.00  0.00    -0.014 A 
ATOM     66  C   UNL A   1      38.207  29.367  28.569  1.00  0.00     0.009 A 
ATOM     67  C   UNL A   1      38.979  28.541  30.679  1.00  0.00     0.009 A 
ATOM     68  C   UNL A   1      36.947  29.621  29.122  1.00  0.00     0.001 A 
ATOM     69  C   UNL A   1      37.730  28.828  31.248  1.00  0.00     0.001 A 
ATOM     70  C   UNL A   1      36.718  29.381  30.471  1.00  0.00     0.000 A 
ENDBRANCH  51  65
BRANCH  52  71
ATOM     71  C   UNL A   1      48.301  26.955  26.785  1.00  0.00    -0.014 A 
ATOM     72  C   UNL A   1      47.694  26.893  25.515  1.00  0.00     0.009 A 
ATOM     73  C   UNL A   1      49.646  26.578  26.907  1.00  0.00     0.009 A 
ATOM     74  C   UNL A   1      48.443  26.561  24.383  1.00  0.00     0.001 A 
ATOM     75  C   UNL A   1      50.390  26.238  25.771  1.00  0.00     0.001 A 
ATOM     76  C   UNL A   1      49.798  26.262  24.509  1.00  0.00     0.000 A 
ENDBRANCH  52  71
BRANCH  64  77
ATOM     77  C   UNL A   1      44.176  32.812  27.031  1.00  0.00    -0.014 A 
ATOM     78  C   UNL A   1      44.043  33.042  25.656  1.00  0.00     0.009 A 
ATOM     79  C   UNL A   1      43.782  33.869  27.888  1.00  0.00     0.009 A 
ATOM     80  C   UNL A   1      43.581  34.271  25.163  1.00  0.00     0.001 A 
ATOM     81  C   UNL A   1      43.279  35.078  27.401  1.00  0.00     0.001 A 
ATOM     82  C   UNL A   1      43.189  35.282  26.034  1.00  0.00     0.000 A 
ENDBRANCH  64  77
ENDBRANCH  38  39
ENDBRANCH  30  33
ENDBRANCH  28  29
ENDBRANCH  27  28
ENDBRANCH   1  27
TORSDOF 14
ENDMDL
MODEL 2
REMARK VINA RESULT:     -12.2      4.640     10.224
REMARK SMILES COc1ccc(NC(=O)N[C@@H]2C=C[C@H](C(=O)NCCCCNC(=O)c3ccc(-c4c5nc(c(-c6ccccc6)c6ccc([nH]6)c(-c6ccccc6)c6nc(c(-c7ccccc7)c7ccc4[nH]7)C=C6)C=C5)cc3)C2)c(C)c1
REMARK SMILES IDX 19 1 18 2 17 3 15 4 16 5 14 7 11 8 12 9 73 10 13 11 10 12
REMARK SMILES IDX 7 13 8 14 9 16 6 18 3 19 4 20 76 21 5 22 74 23 75 24 2 25
REMARK SMILES IDX 1 26 20 27 21 28 22 29 23 30 24 32 25 33 26 34 72 35 27 36
REMARK SMILES IDX 71 37 28 38 29 39 30 40 65 41 31 42 70 43 64 44 66 45 32 46
REMARK SMILES IDX 69 47 63 48 62 49 33 51 55 52 40 53 54 54 41 55 44 56 53 57
REMARK SMILES IDX 67 58 42 59 43 60 52 62 68 63 45 64 34 65 35 66 39 67 36 68
REMARK SMILES IDX 38 69 37 70 56 71 57 72 61 73 58 74 60 75 59 76 46 77 47 78
REMARK SMILES IDX 51 79 48 80 50 81 49 82
REMARK H PARENT 17 6 7 15 10 17 22 31 66 50 44 61
REMARK Flexibility Score: inf
ROOT
ATOM      1  C   UNL A   1      35.285  31.963  27.987  1.00  0.00     0.023 C 
ENDROOT
BRANCH   1   2
ATOM      2  C   UNL A   1      34.955  30.502  27.656  1.00  0.00     0.116 C 
BRANCH   2   3
ATOM      3  N   UNL A   1      33.533  30.225  27.610  1.00  0.00    -0.356 N 
ATOM      4  C   UNL A   1      32.848  29.177  27.079  1.00  0.00     0.227 C 
ATOM      5  O   UNL A   1      31.620  29.195  27.191  1.00  0.00    -0.274 OA
ATOM      6  H   UNL A   1      32.969  30.910  28.034  1.00  0.00     0.163 HD
BRANCH   4   7
ATOM      7  C   UNL A   1      33.610  28.033  26.412  1.00  0.00     0.103 C 
ATOM      8  C   UNL A   1      33.628  26.761  24.322  1.00  0.00     0.107 C 
ATOM      9  C   UNL A   1      32.769  26.112  25.361  1.00  0.00    -0.006 C 
ATOM     10  C   UNL A   1      33.734  28.189  24.884  1.00  0.00     0.047 C 
ATOM     11  C   UNL A   1      32.818  26.762  26.524  1.00  0.00    -0.016 C 
BRANCH   8  12
ATOM     12  N   UNL A   1      32.972  26.627  23.050  1.00  0.00    -0.332 N 
ATOM     13  N   UNL A   1      33.207  24.360  22.244  1.00  0.00    -0.308 N 
ATOM     14  C   UNL A   1      32.748  25.625  22.192  1.00  0.00     0.319 C 
ATOM     15  H   UNL A   1      32.962  23.870  21.427  1.00  0.00     0.171 HD
ATOM     16  O   UNL A   1      32.094  25.923  21.182  1.00  0.00    -0.248 OA
ATOM     17  H   UNL A   1      32.600  27.481  22.731  1.00  0.00     0.165 HD
BRANCH  13  18
ATOM     18  C   UNL A   1      33.933  23.532  23.121  1.00  0.00     0.046 A 
ATOM     19  C   UNL A   1      35.420  21.574  24.525  1.00  0.00     0.119 A 
ATOM     20  C   UNL A   1      36.062  22.624  23.897  1.00  0.00     0.048 A 
ATOM     21  C   UNL A   1      34.028  21.608  24.607  1.00  0.00     0.052 A 
ATOM     22  C   UNL A   1      35.308  23.609  23.258  1.00  0.00     0.030 A 
ATOM     23  C   UNL A   1      33.268  22.597  23.938  1.00  0.00    -0.024 A 
ATOM     24  C   UNL A   1      31.797  22.652  24.252  1.00  0.00     0.047 C 
BRANCH  19  25
ATOM     25  O   UNL A   1      36.038  20.523  25.140  1.00  0.00    -0.497 OA
ATOM     26  C   UNL A   1      37.450  20.440  24.963  1.00  0.00     0.278 C 
ENDBRANCH  19  25
ENDBRANCH  13  18
ENDBRANCH   8  12
ENDBRANCH   4   7
ENDBRANCH   2   3
ENDBRANCH   1   2
BRANCH   1  27
ATOM     27  C   UNL A   1      34.106  32.851  28.390  1.00  0.00     0.023 C 
BRANCH  27  28
ATOM     28  C   UNL A   1      34.489  34.146  29.088  1.00  0.00     0.116 C 
BRANCH  28  29
ATOM     29  N   UNL A   1      33.609  34.541  30.177  1.00  0.00    -0.352 N 
ATOM     30  C   UNL A   1      33.795  34.400  31.544  1.00  0.00     0.251 C 
ATOM     31  H   UNL A   1      32.764  34.967  29.906  1.00  0.00     0.163 HD
ATOM     32  O   UNL A   1      32.921  34.745  32.322  1.00  0.00    -0.269 OA
BRANCH  30  33
ATOM     33  C   UNL A   1      35.118  33.958  32.061  1.00  0.00     0.039 A 
ATOM     34  C   UNL A   1      36.216  34.799  31.844  1.00  0.00     0.014 A 
ATOM     35  C   UNL A   1      35.317  32.670  32.554  1.00  0.00     0.014 A 
ATOM     36  C   UNL A   1      37.502  34.265  31.867  1.00  0.00     0.010 A 
ATOM     37  C   UNL A   1      36.578  32.109  32.479  1.00  0.00     0.010 A 
ATOM     38  C   UNL A   1      37.658  32.890  32.066  1.00  0.00    -0.014 A 
BRANCH  38  39
ATOM     39  C   UNL A   1      38.888  32.185  31.734  1.00  0.00     0.031 A 
ATOM     40  C   UNL A   1      38.852  30.969  30.905  1.00  0.00     0.074 A 
ATOM     41  C   UNL A   1      40.076  32.619  32.215  1.00  0.00     0.049 A 
ATOM     42  N   UNL A   1      39.598  29.936  31.115  1.00  0.00    -0.248 NA
ATOM     43  C   UNL A   1      37.930  30.818  29.786  1.00  0.00     0.031 C 
ATOM     44  C   UNL A   1      41.402  32.118  31.865  1.00  0.00     0.029 A 
ATOM     45  N   UNL A   1      40.306  33.457  33.307  1.00  0.00    -0.354 N 
ATOM     46  C   UNL A   1      39.475  29.134  30.006  1.00  0.00     0.074 A 
ATOM     47  C   UNL A   1      38.357  29.666  29.258  1.00  0.00     0.031 C 
ATOM     48  C   UNL A   1      42.240  32.389  32.879  1.00  0.00     0.029 A 
ATOM     49  C   UNL A   1      41.447  32.962  33.956  1.00  0.00     0.049 A 
ATOM     50  H   UNL A   1      39.773  34.242  33.570  1.00  0.00     0.167 HD
ATOM     51  C   UNL A   1      40.426  28.208  29.708  1.00  0.00     0.031 A 
ATOM     52  C   UNL A   1      41.467  32.561  35.259  1.00  0.00     0.031 A 
ATOM     53  C   UNL A   1      41.535  28.217  30.652  1.00  0.00     0.049 A 
ATOM     54  C   UNL A   1      41.942  31.137  35.438  1.00  0.00     0.074 A 
ATOM     55  C   UNL A   1      42.791  28.799  30.604  1.00  0.00     0.029 A 
ATOM     56  N   UNL A   1      41.328  27.832  31.970  1.00  0.00    -0.354 N 
ATOM     57  N   UNL A   1      41.994  30.264  34.472  1.00  0.00    -0.248 NA
ATOM     58  C   UNL A   1      42.303  30.559  36.731  1.00  0.00     0.031 C 
ATOM     59  C   UNL A   1      43.327  28.802  31.913  1.00  0.00     0.029 A 
ATOM     60  C   UNL A   1      42.403  28.208  32.753  1.00  0.00     0.049 A 
ATOM     61  H   UNL A   1      40.530  27.358  32.299  1.00  0.00     0.167 HD
ATOM     62  C   UNL A   1      42.347  29.040  34.979  1.00  0.00     0.074 A 
ATOM     63  C   UNL A   1      42.545  29.279  36.396  1.00  0.00     0.031 C 
ATOM     64  C   UNL A   1      42.414  27.935  34.182  1.00  0.00     0.031 A 
BRANCH  51  65
ATOM     65  C   UNL A   1      40.482  27.561  28.352  1.00  0.00    -0.014 A 
ATOM     66  C   UNL A   1      39.863  26.316  28.141  1.00  0.00     0.009 A 
ATOM     67  C   UNL A   1      41.178  28.114  27.264  1.00  0.00     0.009 A 
ATOM     68  C   UNL A   1      40.018  25.610  26.943  1.00  0.00     0.001 A 
ATOM     69  C   UNL A   1      41.366  27.396  26.075  1.00  0.00     0.001 A 
ATOM     70  C   UNL A   1      40.797  26.136  25.920  1.00  0.00     0.000 A 
ENDBRANCH  51  65
BRANCH  52  71
ATOM     71  C   UNL A   1      40.417  33.181  36.111  1.00  0.00    -0.014 A 
ATOM     72  C   UNL A   1      39.177  32.527  36.247  1.00  0.00     0.009 A 
ATOM     73  C   UNL A   1      40.758  34.177  37.037  1.00  0.00     0.009 A 
ATOM     74  C   UNL A   1      38.349  32.791  37.341  1.00  0.00     0.001 A 
ATOM     75  C   UNL A   1      39.921  34.443  38.127  1.00  0.00     0.001 A 
ATOM     76  C   UNL A   1      38.736  33.728  38.295  1.00  0.00     0.000 A 
ENDBRANCH  52  71
BRANCH  64  77
ATOM     77  C   UNL A   1      42.566  26.503  34.637  1.00  0.00    -0.014 A 
ATOM     78  C   UNL A   1      41.623  25.808  35.404  1.00  0.00     0.009 A 
ATOM     79  C   UNL A   1      43.667  25.753  34.159  1.00  0.00     0.009 A 
ATOM     80  C   UNL A   1      41.791  24.449  35.710  1.00  0.00     0.001 A 
ATOM     81  C   UNL A   1      43.815  24.389  34.424  1.00  0.00     0.001 A 
ATOM     82  C   UNL A   1      42.878  23.739  35.212  1.00  0.00     0.000 A 
ENDBRANCH  64  77
ENDBRANCH  38  39
ENDBRANCH  30  33
ENDBRANCH  28  29
ENDBRANCH  27  28
ENDBRANCH   1  27
TORSDOF 14
ENDMDL
MODEL 3
REMARK VINA RESULT:     -12.0      4.389      9.770
REMARK SMILES COc1ccc(NC(=O)N[C@@H]2C=C[C@H](C(=O)NCCCCNC(=O)c3ccc(-c4c5nc(c(-c6ccccc6)c6ccc([nH]6)c(-c6ccccc6)c6nc(c(-c7ccccc7)c7ccc4[nH]7)C=C6)C=C5)cc3)C2)c(C)c1
REMARK SMILES IDX 19 1 18 2 17 3 15 4 16 5 14 7 11 8 12 9 73 10 13 11 10 12
REMARK SMILES IDX 7 13 8 14 9 16 6 18 3 19 4 20 76 21 5 22 74 23 75 24 2 25
REMARK SMILES IDX 1 26 20 27 21 28 22 29 23 30 24 32 25 33 26 34 72 35 27 36
REMARK SMILES IDX 71 37 28 38 29 39 30 40 65 41 31 42 70 43 64 44 66 45 32 46
REMARK SMILES IDX 69 47 63 48 62 49 33 51 55 52 40 53 54 54 41 55 44 56 53 57
REMARK SMILES IDX 67 58 42 59 43 60 52 62 68 63 45 64 34 65 35 66 39 67 36 68
REMARK SMILES IDX 38 69 37 70 56 71 57 72 61 73 58 74 60 75 59 76 46 77 47 78
REMARK SMILES IDX 51 79 48 80 50 81 49 82
REMARK H PARENT 17 6 7 15 10 17 22 31 66 50 44 61
REMARK Flexibility Score: inf
ROOT
ATOM      1  C   UNL A   1      32.541  31.146  27.277  1.00  0.00     0.023 C 
ENDROOT
BRANCH   1   2
ATOM      2  C   UNL A   1      32.654  30.238  26.045  1.00  0.00     0.116 C 
BRANCH   2   3
ATOM      3  N   UNL A   1      31.514  30.325  25.154  1.00  0.00    -0.356 N 
ATOM      4  C   UNL A   1      30.874  29.367  24.431  1.00  0.00     0.227 C 
ATOM      5  O   UNL A   1      29.910  29.726  23.752  1.00  0.00    -0.274 OA
ATOM      6  H   UNL A   1      31.140  31.230  25.056  1.00  0.00     0.163 HD
BRANCH   4   7
ATOM      7  C   UNL A   1      31.343  27.915  24.516  1.00  0.00     0.103 C 
ATOM      8  C   UNL A   1      32.199  26.137  23.071  1.00  0.00     0.107 C 
ATOM      9  C   UNL A   1      30.710  26.079  23.200  1.00  0.00    -0.006 C 
ATOM     10  C   UNL A   1      32.475  27.579  23.526  1.00  0.00     0.047 C 
ATOM     11  C   UNL A   1      30.249  27.000  24.047  1.00  0.00    -0.016 C 
BRANCH   8  12
ATOM     12  N   UNL A   1      32.544  25.823  21.711  1.00  0.00    -0.332 N 
ATOM     13  N   UNL A   1      33.266  23.521  21.560  1.00  0.00    -0.308 N 
ATOM     14  C   UNL A   1      32.946  24.728  21.056  1.00  0.00     0.319 C 
ATOM     15  H   UNL A   1      33.623  22.935  20.855  1.00  0.00     0.171 HD
ATOM     16  O   UNL A   1      33.117  24.868  19.836  1.00  0.00    -0.248 OA
ATOM     17  H   UNL A   1      32.467  26.605  21.118  1.00  0.00     0.165 HD
BRANCH  13  18
ATOM     18  C   UNL A   1      33.241  22.849  22.797  1.00  0.00     0.046 A 
ATOM     19  C   UNL A   1      33.057  21.907  25.461  1.00  0.00     0.119 A 
ATOM     20  C   UNL A   1      31.989  21.772  24.595  1.00  0.00     0.048 A 
ATOM     21  C   UNL A   1      34.275  22.343  24.940  1.00  0.00     0.052 A 
ATOM     22  C   UNL A   1      32.118  22.192  23.271  1.00  0.00     0.030 A 
ATOM     23  C   UNL A   1      34.395  22.789  23.602  1.00  0.00    -0.024 A 
ATOM     24  C   UNL A   1      35.788  23.051  23.095  1.00  0.00     0.047 C 
BRANCH  19  25
ATOM     25  O   UNL A   1      33.045  21.585  26.788  1.00  0.00    -0.497 OA
ATOM     26  C   UNL A   1      33.970  22.294  27.610  1.00  0.00     0.278 C 
ENDBRANCH  19  25
ENDBRANCH  13  18
ENDBRANCH   8  12
ENDBRANCH   4   7
ENDBRANCH   2   3
ENDBRANCH   1   2
BRANCH   1  27
ATOM     27  C   UNL A   1      33.860  31.602  27.905  1.00  0.00     0.023 C 
BRANCH  27  28
ATOM     28  C   UNL A   1      34.099  33.103  27.872  1.00  0.00     0.116 C 
BRANCH  28  29
ATOM     29  N   UNL A   1      33.451  33.853  28.936  1.00  0.00    -0.352 N 
ATOM     30  C   UNL A   1      33.964  34.249  30.162  1.00  0.00     0.251 C 
ATOM     31  H   UNL A   1      32.518  34.115  28.763  1.00  0.00     0.163 HD
ATOM     32  O   UNL A   1      33.256  34.834  30.964  1.00  0.00    -0.269 OA
BRANCH  30  33
ATOM     33  C   UNL A   1      35.417  34.083  30.436  1.00  0.00     0.039 A 
ATOM     34  C   UNL A   1      36.318  34.531  29.463  1.00  0.00     0.014 A 
ATOM     35  C   UNL A   1      35.875  33.323  31.510  1.00  0.00     0.014 A 
ATOM     36  C   UNL A   1      37.606  34.002  29.428  1.00  0.00     0.010 A 
ATOM     37  C   UNL A   1      37.115  32.717  31.424  1.00  0.00     0.010 A 
ATOM     38  C   UNL A   1      37.950  33.004  30.343  1.00  0.00    -0.014 A 
BRANCH  38  39
ATOM     39  C   UNL A   1      39.102  32.133  30.157  1.00  0.00     0.031 A 
ATOM     40  C   UNL A   1      38.923  30.743  29.704  1.00  0.00     0.074 A 
ATOM     41  C   UNL A   1      40.349  32.580  30.432  1.00  0.00     0.049 A 
ATOM     42  N   UNL A   1      39.613  29.748  30.154  1.00  0.00    -0.248 NA
ATOM     43  C   UNL A   1      37.912  30.369  28.723  1.00  0.00     0.031 C 
ATOM     44  C   UNL A   1      41.608  31.891  30.166  1.00  0.00     0.029 A 
ATOM     45  N   UNL A   1      40.715  33.663  31.232  1.00  0.00    -0.354 N 
ATOM     46  C   UNL A   1      39.353  28.685  29.322  1.00  0.00     0.074 A 
ATOM     47  C   UNL A   1      38.220  29.085  28.516  1.00  0.00     0.031 C 
ATOM     48  C   UNL A   1      42.537  32.358  31.017  1.00  0.00     0.029 A 
ATOM     49  C   UNL A   1      41.867  33.270  31.931  1.00  0.00     0.049 A 
ATOM     50  H   UNL A   1      40.257  34.532  31.293  1.00  0.00     0.167 HD
ATOM     51  C   UNL A   1      40.216  27.636  29.245  1.00  0.00     0.031 A 
ATOM     52  C   UNL A   1      41.957  33.243  33.292  1.00  0.00     0.031 A 
ATOM     53  C   UNL A   1      41.390  27.811  30.087  1.00  0.00     0.049 A 
ATOM     54  C   UNL A   1      42.349  31.887  33.837  1.00  0.00     0.074 A 
ATOM     55  C   UNL A   1      42.676  28.248  29.811  1.00  0.00     0.029 A 
ATOM     56  N   UNL A   1      41.258  27.821  31.470  1.00  0.00    -0.354 N 
ATOM     57  N   UNL A   1      42.270  30.781  33.152  1.00  0.00    -0.248 NA
ATOM     58  C   UNL A   1      42.767  31.658  35.218  1.00  0.00     0.031 C 
ATOM     59  C   UNL A   1      43.307  28.566  31.036  1.00  0.00     0.029 A 
ATOM     60  C   UNL A   1      42.411  28.305  32.057  1.00  0.00     0.049 A 
ATOM     61  H   UNL A   1      40.458  27.525  31.960  1.00  0.00     0.167 HD
ATOM     62  C   UNL A   1      42.578  29.718  33.961  1.00  0.00     0.074 A 
ATOM     63  C   UNL A   1      42.898  30.320  35.242  1.00  0.00     0.031 C 
ATOM     64  C   UNL A   1      42.511  28.435  33.503  1.00  0.00     0.031 A 
BRANCH  51  65
ATOM     65  C   UNL A   1      40.126  26.639  28.122  1.00  0.00    -0.014 A 
ATOM     66  C   UNL A   1      39.375  25.462  28.286  1.00  0.00     0.009 A 
ATOM     67  C   UNL A   1      40.809  26.790  26.903  1.00  0.00     0.009 A 
ATOM     68  C   UNL A   1      39.387  24.441  27.329  1.00  0.00     0.001 A 
ATOM     69  C   UNL A   1      40.854  25.756  25.958  1.00  0.00     0.001 A 
ATOM     70  C   UNL A   1      40.153  24.575  26.178  1.00  0.00     0.000 A 
ENDBRANCH  51  65
BRANCH  52  71
ATOM     71  C   UNL A   1      41.018  34.160  33.991  1.00  0.00    -0.014 A 
ATOM     72  C   UNL A   1      39.835  33.630  34.542  1.00  0.00     0.009 A 
ATOM     73  C   UNL A   1      41.452  35.424  34.416  1.00  0.00     0.009 A 
ATOM     74  C   UNL A   1      39.162  34.304  35.565  1.00  0.00     0.001 A 
ATOM     75  C   UNL A   1      40.770  36.098  35.435  1.00  0.00     0.001 A 
ATOM     76  C   UNL A   1      39.647  35.524  36.030  1.00  0.00     0.000 A 
ENDBRANCH  52  71
BRANCH  64  77
ATOM     77  C   UNL A   1      42.602  27.176  34.330  1.00  0.00    -0.014 A 
ATOM     78  C   UNL A   1      41.557  26.657  35.105  1.00  0.00     0.009 A 
ATOM     79  C   UNL A   1      43.768  26.381  34.231  1.00  0.00     0.009 A 
ATOM     80  C   UNL A   1      41.685  25.431  35.774  1.00  0.00     0.001 A 
ATOM     81  C   UNL A   1      43.882  25.139  34.860  1.00  0.00     0.001 A 
ATOM     82  C   UNL A   1      42.841  24.668  35.643  1.00  0.00     0.000 A 
ENDBRANCH  64  77
ENDBRANCH  38  39
ENDBRANCH  30  33
ENDBRANCH  28  29
ENDBRANCH  27  28
ENDBRANCH   1  27
TORSDOF 14
ENDMDL
