MODEL 1
REMARK VINA RESULT:     -11.5      0.000      0.000
REMARK SMILES Cc1cc(C[N@H+]2CC[C@](C)(C(=O)NCCCCNC(=O)c3ccc(-c4c5nc(c(-c6ccccc6)c6ccc([nH]6)c(-c6ccccc6)c6nc(c(-c7ccccc7)c7ccc4[nH]7)C=C6)C=C5)cc3)C2)c2ccccc2n1
REMARK SMILES IDX 15 1 14 2 13 3 11 4 12 5 9 7 6 8 7 9 69 10 8 12 10 13 5 14
REMARK SMILES IDX 4 15 1 16 2 17 3 18 76 19 75 20 70 21 74 22 71 23 73 24
REMARK SMILES IDX 72 25 16 26 17 27 18 28 19 29 20 31 21 32 22 33 68 34 23 35
REMARK SMILES IDX 67 36 24 37 25 38 26 39 61 40 27 41 66 42 60 43 62 44 28 45
REMARK SMILES IDX 65 46 59 47 58 48 29 50 51 51 36 52 50 53 37 54 40 55 49 56
REMARK SMILES IDX 63 57 38 58 39 59 48 61 64 62 41 63 30 64 31 65 35 66 32 67
REMARK SMILES IDX 34 68 33 69 52 70 53 71 57 72 54 73 56 74 55 75 42 76 43 77
REMARK SMILES IDX 47 78 44 79 46 80 45 81
REMARK H PARENT 13 6 6 11 18 30 62 49 40 60
REMARK Flexibility Score: inf
ROOT
ATOM      1  C   UNL A   1      33.372  29.201  24.801  1.00  0.00     0.023 C 
ENDROOT
BRANCH   1   2
ATOM      2  C   UNL A   1      31.885  28.938  24.565  1.00  0.00     0.116 C 
BRANCH   2   3
ATOM      3  N   UNL A   1      31.598  28.372  23.256  1.00  0.00    -0.355 N 
ATOM      4  C   UNL A   1      31.201  27.112  22.882  1.00  0.00     0.231 C 
ATOM      5  O   UNL A   1      30.931  26.936  21.693  1.00  0.00    -0.274 OA
ATOM      6  H   UNL A   1      31.707  29.002  22.507  1.00  0.00     0.163 HD
BRANCH   4   7
ATOM      7  C   UNL A   1      31.085  25.987  23.913  1.00  0.00     0.100 C 
ATOM      8  N   UNL A   1      32.420  24.051  24.496  1.00  0.00    -0.330 N 
ATOM      9  C   UNL A   1      31.049  23.608  24.289  1.00  0.00     0.263 C 
ATOM     10  C   UNL A   1      32.491  25.486  24.257  1.00  0.00     0.279 C 
ATOM     11  H   UNL A   1      32.979  23.569  23.792  1.00  0.00     0.348 HD
ATOM     12  C   UNL A   1      30.469  24.687  23.366  1.00  0.00     0.084 C 
ATOM     13  C   UNL A   1      30.225  26.449  25.109  1.00  0.00     0.028 C 
BRANCH   8  14
ATOM     14  C   UNL A   1      33.187  23.522  25.623  1.00  0.00     0.299 C 
BRANCH  14  15
ATOM     15  C   UNL A   1      34.180  22.415  25.310  1.00  0.00     0.017 A 
ATOM     16  C   UNL A   1      34.025  18.742  24.386  1.00  0.00     0.067 C 
ATOM     17  C   UNL A   1      34.524  20.080  24.840  1.00  0.00     0.038 A 
ATOM     18  C   UNL A   1      33.660  21.151  24.994  1.00  0.00     0.033 A 
ATOM     19  N   UNL A   1      35.848  20.179  25.083  1.00  0.00    -0.253 NA
ATOM     20  C   UNL A   1      36.366  21.386  25.355  1.00  0.00     0.071 A 
ATOM     21  C   UNL A   1      35.592  22.565  25.380  1.00  0.00     0.009 A 
ATOM     22  C   UNL A   1      37.726  21.468  25.623  1.00  0.00     0.029 A 
ATOM     23  C   UNL A   1      36.277  23.803  25.475  1.00  0.00     0.011 A 
ATOM     24  C   UNL A   1      38.369  22.689  25.838  1.00  0.00     0.002 A 
ATOM     25  C   UNL A   1      37.648  23.864  25.720  1.00  0.00     0.001 A 
ENDBRANCH  14  15
ENDBRANCH   8  14
ENDBRANCH   4   7
ENDBRANCH   2   3
ENDBRANCH   1   2
BRANCH   1  26
ATOM     26  C   UNL A   1      33.987  28.419  25.957  1.00  0.00     0.023 C 
BRANCH  26  27
ATOM     27  C   UNL A   1      33.425  28.745  27.335  1.00  0.00     0.116 C 
BRANCH  27  28
ATOM     28  N   UNL A   1      33.477  30.160  27.672  1.00  0.00    -0.352 N 
ATOM     29  C   UNL A   1      34.532  30.884  28.187  1.00  0.00     0.251 C 
ATOM     30  H   UNL A   1      32.649  30.666  27.514  1.00  0.00     0.163 HD
ATOM     31  O   UNL A   1      34.384  32.052  28.508  1.00  0.00    -0.269 OA
BRANCH  29  32
ATOM     32  C   UNL A   1      35.836  30.213  28.384  1.00  0.00     0.039 A 
ATOM     33  C   UNL A   1      36.778  30.249  27.351  1.00  0.00     0.014 A 
ATOM     34  C   UNL A   1      36.145  29.599  29.599  1.00  0.00     0.014 A 
ATOM     35  C   UNL A   1      38.059  29.735  27.569  1.00  0.00     0.010 A 
ATOM     36  C   UNL A   1      37.443  29.166  29.842  1.00  0.00     0.010 A 
ATOM     37  C   UNL A   1      38.414  29.229  28.831  1.00  0.00    -0.014 A 
BRANCH  37  38
ATOM     38  C   UNL A   1      39.791  28.756  29.117  1.00  0.00     0.031 A 
ATOM     39  C   UNL A   1      40.771  29.662  29.809  1.00  0.00     0.074 A 
ATOM     40  C   UNL A   1      40.186  27.540  28.690  1.00  0.00     0.049 A 
ATOM     41  N   UNL A   1      42.031  29.454  30.095  1.00  0.00    -0.248 NA
ATOM     42  C   UNL A   1      40.276  30.990  30.205  1.00  0.00     0.031 C 
ATOM     43  C   UNL A   1      39.348  26.577  27.974  1.00  0.00     0.029 A 
ATOM     44  N   UNL A   1      41.400  26.909  28.797  1.00  0.00    -0.354 N 
ATOM     45  C   UNL A   1      42.484  30.630  30.680  1.00  0.00     0.074 A 
ATOM     46  C   UNL A   1      41.381  31.564  30.657  1.00  0.00     0.031 C 
ATOM     47  C   UNL A   1      40.060  25.461  27.745  1.00  0.00     0.029 A 
ATOM     48  C   UNL A   1      41.413  25.647  28.257  1.00  0.00     0.049 A 
ATOM     49  H   UNL A   1      42.187  27.323  29.221  1.00  0.00     0.167 HD
ATOM     50  C   UNL A   1      43.701  30.903  31.208  1.00  0.00     0.031 A 
ATOM     51  C   UNL A   1      42.404  24.738  28.186  1.00  0.00     0.031 A 
ATOM     52  C   UNL A   1      44.795  29.972  31.242  1.00  0.00     0.049 A 
ATOM     53  C   UNL A   1      43.752  25.071  28.759  1.00  0.00     0.074 A 
ATOM     54  C   UNL A   1      46.046  30.129  31.814  1.00  0.00     0.029 A 
ATOM     55  N   UNL A   1      44.770  28.707  30.675  1.00  0.00    -0.354 N 
ATOM     56  N   UNL A   1      44.144  26.160  29.373  1.00  0.00    -0.248 NA
ATOM     57  C   UNL A   1      44.794  24.040  28.634  1.00  0.00     0.031 C 
ATOM     58  C   UNL A   1      46.796  28.979  31.546  1.00  0.00     0.029 A 
ATOM     59  C   UNL A   1      45.993  28.083  30.858  1.00  0.00     0.049 A 
ATOM     60  H   UNL A   1      43.997  28.311  30.211  1.00  0.00     0.167 HD
ATOM     61  C   UNL A   1      45.465  25.935  29.738  1.00  0.00     0.074 A 
ATOM     62  C   UNL A   1      45.804  24.602  29.283  1.00  0.00     0.031 C 
ATOM     63  C   UNL A   1      46.318  26.757  30.397  1.00  0.00     0.031 A 
BRANCH  50  64
ATOM     64  C   UNL A   1      43.905  32.281  31.776  1.00  0.00    -0.014 A 
ATOM     65  C   UNL A   1      43.647  32.559  33.129  1.00  0.00     0.009 A 
ATOM     66  C   UNL A   1      44.358  33.317  30.946  1.00  0.00     0.009 A 
ATOM     67  C   UNL A   1      43.787  33.858  33.623  1.00  0.00     0.001 A 
ATOM     68  C   UNL A   1      44.528  34.608  31.450  1.00  0.00     0.001 A 
ATOM     69  C   UNL A   1      44.229  34.880  32.785  1.00  0.00     0.000 A 
ENDBRANCH  50  64
BRANCH  51  70
ATOM     70  C   UNL A   1      42.145  23.402  27.587  1.00  0.00    -0.014 A 
ATOM     71  C   UNL A   1      41.554  22.389  28.358  1.00  0.00     0.009 A 
ATOM     72  C   UNL A   1      42.478  23.132  26.252  1.00  0.00     0.009 A 
ATOM     73  C   UNL A   1      41.321  21.127  27.810  1.00  0.00     0.001 A 
ATOM     74  C   UNL A   1      42.220  21.876  25.699  1.00  0.00     0.001 A 
ATOM     75  C   UNL A   1      41.649  20.873  26.480  1.00  0.00     0.000 A 
ENDBRANCH  51  70
BRANCH  63  76
ATOM     76  C   UNL A   1      47.689  26.222  30.702  1.00  0.00    -0.014 A 
ATOM     77  C   UNL A   1      48.719  26.265  29.752  1.00  0.00     0.009 A 
ATOM     78  C   UNL A   1      47.960  25.699  31.977  1.00  0.00     0.009 A 
ATOM     79  C   UNL A   1      49.986  25.765  30.061  1.00  0.00     0.001 A 
ATOM     80  C   UNL A   1      49.234  25.227  32.293  1.00  0.00     0.001 A 
ATOM     81  C   UNL A   1      50.243  25.252  31.332  1.00  0.00     0.000 A 
ENDBRANCH  63  76
ENDBRANCH  37  38
ENDBRANCH  29  32
ENDBRANCH  27  28
ENDBRANCH  26  27
ENDBRANCH   1  26
TORSDOF 13
ENDMDL
MODEL 2
REMARK VINA RESULT:     -11.4      2.214      7.568
REMARK SMILES Cc1cc(C[N@H+]2CC[C@](C)(C(=O)NCCCCNC(=O)c3ccc(-c4c5nc(c(-c6ccccc6)c6ccc([nH]6)c(-c6ccccc6)c6nc(c(-c7ccccc7)c7ccc4[nH]7)C=C6)C=C5)cc3)C2)c2ccccc2n1
REMARK SMILES IDX 15 1 14 2 13 3 11 4 12 5 9 7 6 8 7 9 69 10 8 12 10 13 5 14
REMARK SMILES IDX 4 15 1 16 2 17 3 18 76 19 75 20 70 21 74 22 71 23 73 24
REMARK SMILES IDX 72 25 16 26 17 27 18 28 19 29 20 31 21 32 22 33 68 34 23 35
REMARK SMILES IDX 67 36 24 37 25 38 26 39 61 40 27 41 66 42 60 43 62 44 28 45
REMARK SMILES IDX 65 46 59 47 58 48 29 50 51 51 36 52 50 53 37 54 40 55 49 56
REMARK SMILES IDX 63 57 38 58 39 59 48 61 64 62 41 63 30 64 31 65 35 66 32 67
REMARK SMILES IDX 34 68 33 69 52 70 53 71 57 72 54 73 56 74 55 75 42 76 43 77
REMARK SMILES IDX 47 78 44 79 46 80 45 81
REMARK H PARENT 13 6 6 11 18 30 62 49 40 60
REMARK Flexibility Score: inf
ROOT
ATOM      1  C   UNL A   1      36.624  21.934  24.368  1.00  0.00     0.023 C 
ENDROOT
BRANCH   1   2
ATOM      2  C   UNL A   1      36.442  23.051  25.395  1.00  0.00     0.116 C 
BRANCH   2   3
ATOM      3  N   UNL A   1      35.601  22.670  26.520  1.00  0.00    -0.355 N 
ATOM      4  C   UNL A   1      34.307  23.000  26.836  1.00  0.00     0.231 C 
ATOM      5  O   UNL A   1      33.807  22.444  27.816  1.00  0.00    -0.274 OA
ATOM      6  H   UNL A   1      36.037  22.070  27.169  1.00  0.00     0.163 HD
BRANCH   4   7
ATOM      7  C   UNL A   1      33.523  24.003  25.987  1.00  0.00     0.100 C 
ATOM      8  N   UNL A   1      31.176  24.421  25.555  1.00  0.00    -0.330 N 
ATOM      9  C   UNL A   1      31.858  24.310  24.274  1.00  0.00     0.263 C 
ATOM     10  C   UNL A   1      32.147  24.219  26.622  1.00  0.00     0.279 C 
ATOM     11  H   UNL A   1      30.497  23.660  25.576  1.00  0.00     0.348 HD
ATOM     12  C   UNL A   1      33.096  23.469  24.608  1.00  0.00     0.084 C 
ATOM     13  C   UNL A   1      34.365  25.276  25.758  1.00  0.00     0.028 C 
BRANCH   8  14
ATOM     14  C   UNL A   1      30.174  25.467  25.752  1.00  0.00     0.299 C 
BRANCH  14  15
ATOM     15  C   UNL A   1      30.493  26.833  25.169  1.00  0.00     0.017 A 
ATOM     16  C   UNL A   1      29.528  28.818  22.087  1.00  0.00     0.067 C 
ATOM     17  C   UNL A   1      30.244  28.351  23.318  1.00  0.00     0.038 A 
ATOM     18  C   UNL A   1      29.877  27.179  23.957  1.00  0.00     0.033 A 
ATOM     19  N   UNL A   1      31.251  29.132  23.763  1.00  0.00    -0.253 NA
ATOM     20  C   UNL A   1      31.829  28.833  24.936  1.00  0.00     0.071 A 
ATOM     21  C   UNL A   1      31.419  27.749  25.740  1.00  0.00     0.009 A 
ATOM     22  C   UNL A   1      32.877  29.635  25.370  1.00  0.00     0.029 A 
ATOM     23  C   UNL A   1      31.961  27.653  27.046  1.00  0.00     0.011 A 
ATOM     24  C   UNL A   1      33.488  29.452  26.613  1.00  0.00     0.002 A 
ATOM     25  C   UNL A   1      32.998  28.483  27.472  1.00  0.00     0.001 A 
ENDBRANCH  14  15
ENDBRANCH   8  14
ENDBRANCH   4   7
ENDBRANCH   2   3
ENDBRANCH   1   2
BRANCH   1  26
ATOM     26  C   UNL A   1      37.325  20.686  24.894  1.00  0.00     0.023 C 
BRANCH  26  27
ATOM     27  C   UNL A   1      38.621  20.939  25.655  1.00  0.00     0.116 C 
BRANCH  27  28
ATOM     28  N   UNL A   1      39.550  19.819  25.625  1.00  0.00    -0.352 N 
ATOM     29  C   UNL A   1      40.879  19.793  25.991  1.00  0.00     0.251 C 
ATOM     30  H   UNL A   1      39.180  18.968  25.298  1.00  0.00     0.163 HD
ATOM     31  O   UNL A   1      41.551  18.790  25.815  1.00  0.00    -0.269 OA
BRANCH  29  32
ATOM     32  C   UNL A   1      41.491  21.012  26.564  1.00  0.00     0.039 A 
ATOM     33  C   UNL A   1      42.118  21.921  25.707  1.00  0.00     0.014 A 
ATOM     34  C   UNL A   1      41.401  21.279  27.932  1.00  0.00     0.014 A 
ATOM     35  C   UNL A   1      42.586  23.136  26.213  1.00  0.00     0.010 A 
ATOM     36  C   UNL A   1      41.789  22.523  28.418  1.00  0.00     0.010 A 
ATOM     37  C   UNL A   1      42.386  23.464  27.565  1.00  0.00    -0.014 A 
BRANCH  37  38
ATOM     38  C   UNL A   1      42.794  24.782  28.111  1.00  0.00     0.031 A 
ATOM     39  C   UNL A   1      41.763  25.847  28.364  1.00  0.00     0.074 A 
ATOM     40  C   UNL A   1      44.100  25.050  28.313  1.00  0.00     0.049 A 
ATOM     41  N   UNL A   1      41.928  27.075  28.782  1.00  0.00    -0.248 NA
ATOM     42  C   UNL A   1      40.364  25.491  28.077  1.00  0.00     0.031 C 
ATOM     43  C   UNL A   1      45.205  24.120  28.074  1.00  0.00     0.029 A 
ATOM     44  N   UNL A   1      44.716  26.190  28.765  1.00  0.00    -0.354 N 
ATOM     45  C   UNL A   1      40.661  27.645  28.786  1.00  0.00     0.074 A 
ATOM     46  C   UNL A   1      39.748  26.646  28.276  1.00  0.00     0.031 C 
ATOM     47  C   UNL A   1      46.359  24.713  28.423  1.00  0.00     0.029 A 
ATOM     48  C   UNL A   1      46.080  26.074  28.866  1.00  0.00     0.049 A 
ATOM     49  H   UNL A   1      44.225  27.013  28.994  1.00  0.00     0.167 HD
ATOM     50  C   UNL A   1      40.284  28.880  29.196  1.00  0.00     0.031 A 
ATOM     51  C   UNL A   1      47.003  26.965  29.275  1.00  0.00     0.031 A 
ATOM     52  C   UNL A   1      41.188  29.870  29.713  1.00  0.00     0.049 A 
ATOM     53  C   UNL A   1      46.566  28.337  29.705  1.00  0.00     0.074 A 
ATOM     54  C   UNL A   1      40.897  31.126  30.217  1.00  0.00     0.029 A 
ATOM     55  N   UNL A   1      42.564  29.716  29.790  1.00  0.00    -0.354 N 
ATOM     56  N   UNL A   1      45.356  28.836  29.770  1.00  0.00    -0.248 NA
ATOM     57  C   UNL A   1      47.626  29.265  30.124  1.00  0.00     0.031 C 
ATOM     58  C   UNL A   1      42.103  31.753  30.549  1.00  0.00     0.029 A 
ATOM     59  C   UNL A   1      43.140  30.865  30.307  1.00  0.00     0.049 A 
ATOM     60  H   UNL A   1      43.059  28.910  29.518  1.00  0.00     0.167 HD
ATOM     61  C   UNL A   1      45.504  30.123  30.270  1.00  0.00     0.074 A 
ATOM     62  C   UNL A   1      46.921  30.324  30.497  1.00  0.00     0.031 C 
ATOM     63  C   UNL A   1      44.551  31.053  30.524  1.00  0.00     0.031 A 
BRANCH  50  64
ATOM     64  C   UNL A   1      38.824  29.223  29.078  1.00  0.00    -0.014 A 
ATOM     65  C   UNL A   1      38.293  29.756  27.892  1.00  0.00     0.009 A 
ATOM     66  C   UNL A   1      37.968  29.014  30.170  1.00  0.00     0.009 A 
ATOM     67  C   UNL A   1      36.947  30.123  27.821  1.00  0.00     0.001 A 
ATOM     68  C   UNL A   1      36.616  29.351  30.086  1.00  0.00     0.001 A 
ATOM     69  C   UNL A   1      36.110  29.918  28.917  1.00  0.00     0.000 A 
ENDBRANCH  50  64
BRANCH  51  70
ATOM     70  C   UNL A   1      48.435  26.571  29.343  1.00  0.00    -0.014 A 
ATOM     71  C   UNL A   1      49.279  26.799  28.245  1.00  0.00     0.009 A 
ATOM     72  C   UNL A   1      48.967  25.975  30.496  1.00  0.00     0.009 A 
ATOM     73  C   UNL A   1      50.621  26.418  28.293  1.00  0.00     0.001 A 
ATOM     74  C   UNL A   1      50.316  25.619  30.550  1.00  0.00     0.001 A 
ATOM     75  C   UNL A   1      51.140  25.834  29.446  1.00  0.00     0.000 A 
ENDBRANCH  51  70
BRANCH  63  76
ATOM     76  C   UNL A   1      45.006  32.357  31.116  1.00  0.00    -0.014 A 
ATOM     77  C   UNL A   1      45.252  33.480  30.311  1.00  0.00     0.009 A 
ATOM     78  C   UNL A   1      45.153  32.472  32.508  1.00  0.00     0.009 A 
ATOM     79  C   UNL A   1      45.670  34.682  30.886  1.00  0.00     0.001 A 
ATOM     80  C   UNL A   1      45.541  33.683  33.082  1.00  0.00     0.001 A 
ATOM     81  C   UNL A   1      45.808  34.784  32.270  1.00  0.00     0.000 A 
ENDBRANCH  63  76
ENDBRANCH  37  38
ENDBRANCH  29  32
ENDBRANCH  27  28
ENDBRANCH  26  27
ENDBRANCH   1  26
TORSDOF 13
ENDMDL
MODEL 3
REMARK VINA RESULT:     -11.3      2.142      7.729
REMARK SMILES Cc1cc(C[N@H+]2CC[C@](C)(C(=O)NCCCCNC(=O)c3ccc(-c4c5nc(c(-c6ccccc6)c6ccc([nH]6)c(-c6ccccc6)c6nc(c(-c7ccccc7)c7ccc4[nH]7)C=C6)C=C5)cc3)C2)c2ccccc2n1
REMARK SMILES IDX 15 1 14 2 13 3 11 4 12 5 9 7 6 8 7 9 69 10 8 12 10 13 5 14
REMARK SMILES IDX 4 15 1 16 2 17 3 18 76 19 75 20 70 21 74 22 71 23 73 24
REMARK SMILES IDX 72 25 16 26 17 27 18 28 19 29 20 31 21 32 22 33 68 34 23 35
REMARK SMILES IDX 67 36 24 37 25 38 26 39 61 40 27 41 66 42 60 43 62 44 28 45
REMARK SMILES IDX 65 46 59 47 58 48 29 50 51 51 36 52 50 53 37 54 40 55 49 56
REMARK SMILES IDX 63 57 38 58 39 59 48 61 64 62 41 63 30 64 31 65 35 66 32 67
REMARK SMILES IDX 34 68 33 69 52 70 53 71 57 72 54 73 56 74 55 75 42 76 43 77
REMARK SMILES IDX 47 78 44 79 46 80 45 81
REMARK H PARENT 13 6 6 11 18 30 62 49 40 60
REMARK Flexibility Score: inf
ROOT
ATOM      1  C   UNL A   1      36.504  21.540  24.637  1.00  0.00     0.023 C 
ENDROOT
BRANCH   1   2
ATOM      2  C   UNL A   1      35.014  21.229  24.781  1.00  0.00     0.116 C 
BRANCH   2   3
ATOM      3  N   UNL A   1      34.539  21.298  26.154  1.00  0.00    -0.355 N 
ATOM      4  C   UNL A   1      33.653  22.151  26.764  1.00  0.00     0.231 C 
ATOM      5  O   UNL A   1      33.357  21.913  27.936  1.00  0.00    -0.274 OA
ATOM      6  H   UNL A   1      34.918  20.613  26.752  1.00  0.00     0.163 HD
BRANCH   4   7
ATOM      7  C   UNL A   1      33.052  23.335  26.002  1.00  0.00     0.100 C 
ATOM      8  N   UNL A   1      30.822  24.237  25.717  1.00  0.00    -0.330 N 
ATOM      9  C   UNL A   1      31.410  24.060  24.396  1.00  0.00     0.263 C 
ATOM     10  C   UNL A   1      31.778  23.789  26.719  1.00  0.00     0.279 C 
ATOM     11  H   UNL A   1      30.004  23.628  25.742  1.00  0.00     0.348 HD
ATOM     12  C   UNL A   1      32.464  22.971  24.627  1.00  0.00     0.084 C 
ATOM     13  C   UNL A   1      34.124  24.424  25.782  1.00  0.00     0.028 C 
BRANCH   8  14
ATOM     14  C   UNL A   1      30.063  25.451  26.012  1.00  0.00     0.299 C 
BRANCH  14  15
ATOM     15  C   UNL A   1      30.480  26.711  25.272  1.00  0.00     0.017 A 
ATOM     16  C   UNL A   1      29.289  28.666  22.250  1.00  0.00     0.067 C 
ATOM     17  C   UNL A   1      30.136  28.150  23.374  1.00  0.00     0.038 A 
ATOM     18  C   UNL A   1      29.714  27.092  24.160  1.00  0.00     0.033 A 
ATOM     19  N   UNL A   1      31.318  28.771  23.574  1.00  0.00    -0.253 NA
ATOM     20  C   UNL A   1      32.047  28.442  24.650  1.00  0.00     0.071 A 
ATOM     21  C   UNL A   1      31.626  27.485  25.598  1.00  0.00     0.009 A 
ATOM     22  C   UNL A   1      33.269  29.076  24.830  1.00  0.00     0.029 A 
ATOM     23  C   UNL A   1      32.377  27.369  26.795  1.00  0.00     0.011 A 
ATOM     24  C   UNL A   1      34.061  28.858  25.959  1.00  0.00     0.002 A 
ATOM     25  C   UNL A   1      33.591  28.033  26.967  1.00  0.00     0.001 A 
ENDBRANCH  14  15
ENDBRANCH   8  14
ENDBRANCH   4   7
ENDBRANCH   2   3
ENDBRANCH   1   2
BRANCH   1  26
ATOM     26  C   UNL A   1      37.435  20.367  24.930  1.00  0.00     0.023 C 
BRANCH  26  27
ATOM     27  C   UNL A   1      38.711  20.722  25.682  1.00  0.00     0.116 C 
BRANCH  27  28
ATOM     28  N   UNL A   1      39.726  19.680  25.645  1.00  0.00    -0.352 N 
ATOM     29  C   UNL A   1      41.056  19.760  26.002  1.00  0.00     0.251 C 
ATOM     30  H   UNL A   1      39.423  18.802  25.321  1.00  0.00     0.163 HD
ATOM     31  O   UNL A   1      41.805  18.814  25.820  1.00  0.00    -0.269 OA
BRANCH  29  32
ATOM     32  C   UNL A   1      41.573  21.024  26.570  1.00  0.00     0.039 A 
ATOM     33  C   UNL A   1      42.067  22.004  25.704  1.00  0.00     0.014 A 
ATOM     34  C   UNL A   1      41.524  21.260  27.945  1.00  0.00     0.014 A 
ATOM     35  C   UNL A   1      42.438  23.250  26.212  1.00  0.00     0.010 A 
ATOM     36  C   UNL A   1      41.812  22.528  28.438  1.00  0.00     0.010 A 
ATOM     37  C   UNL A   1      42.272  23.536  27.578  1.00  0.00    -0.014 A 
BRANCH  37  38
ATOM     38  C   UNL A   1      42.576  24.879  28.132  1.00  0.00     0.031 A 
ATOM     39  C   UNL A   1      43.980  25.226  28.542  1.00  0.00     0.074 A 
ATOM     40  C   UNL A   1      41.579  25.763  28.335  1.00  0.00     0.049 A 
ATOM     41  N   UNL A   1      44.433  26.321  29.096  1.00  0.00    -0.248 NA
ATOM     42  C   UNL A   1      45.005  24.192  28.328  1.00  0.00     0.031 C 
ATOM     43  C   UNL A   1      40.167  25.540  28.018  1.00  0.00     0.029 A 
ATOM     44  N   UNL A   1      41.604  27.029  28.863  1.00  0.00    -0.354 N 
ATOM     45  C   UNL A   1      45.786  26.098  29.319  1.00  0.00     0.074 A 
ATOM     46  C   UNL A   1      46.068  24.746  28.891  1.00  0.00     0.031 C 
ATOM     47  C   UNL A   1      39.470  26.649  28.316  1.00  0.00     0.029 A 
ATOM     48  C   UNL A   1      40.375  27.640  28.886  1.00  0.00     0.049 A 
ATOM     49  H   UNL A   1      42.427  27.458  29.195  1.00  0.00     0.167 HD
ATOM     50  C   UNL A   1      46.718  26.948  29.814  1.00  0.00     0.031 A 
ATOM     51  C   UNL A   1      40.018  28.866  29.314  1.00  0.00     0.031 A 
ATOM     52  C   UNL A   1      46.443  28.296  30.229  1.00  0.00     0.049 A 
ATOM     53  C   UNL A   1      41.064  29.783  29.881  1.00  0.00     0.074 A 
ATOM     54  C   UNL A   1      47.330  29.258  30.683  1.00  0.00     0.029 A 
ATOM     55  N   UNL A   1      45.183  28.873  30.246  1.00  0.00    -0.354 N 
ATOM     56  N   UNL A   1      42.352  29.584  30.019  1.00  0.00    -0.248 NA
ATOM     57  C   UNL A   1      40.603  31.100  30.345  1.00  0.00     0.031 C 
ATOM     58  C   UNL A   1      46.598  30.400  31.024  1.00  0.00     0.029 A 
ATOM     59  C   UNL A   1      45.263  30.169  30.728  1.00  0.00     0.049 A 
ATOM     60  H   UNL A   1      44.354  28.428  29.957  1.00  0.00     0.167 HD
ATOM     61  C   UNL A   1      42.862  30.761  30.552  1.00  0.00     0.074 A 
ATOM     62  C   UNL A   1      41.745  31.670  30.706  1.00  0.00     0.031 C 
ATOM     63  C   UNL A   1      44.142  31.062  30.879  1.00  0.00     0.031 A 
BRANCH  50  64
ATOM     64  C   UNL A   1      48.121  26.421  29.946  1.00  0.00    -0.014 A 
ATOM     65  C   UNL A   1      49.041  26.520  28.889  1.00  0.00     0.009 A 
ATOM     66  C   UNL A   1      48.528  25.813  31.144  1.00  0.00     0.009 A 
ATOM     67  C   UNL A   1      50.320  25.973  29.011  1.00  0.00     0.001 A 
ATOM     68  C   UNL A   1      49.818  25.297  31.274  1.00  0.00     0.001 A 
ATOM     69  C   UNL A   1      50.708  25.364  30.203  1.00  0.00     0.000 A 
ENDBRANCH  50  64
BRANCH  51  70
ATOM     70  C   UNL A   1      38.608  29.317  29.181  1.00  0.00    -0.014 A 
ATOM     71  C   UNL A   1      38.159  29.871  27.973  1.00  0.00     0.009 A 
ATOM     72  C   UNL A   1      37.706  29.194  30.249  1.00  0.00     0.009 A 
ATOM     73  C   UNL A   1      36.841  30.313  27.842  1.00  0.00     0.001 A 
ATOM     74  C   UNL A   1      36.381  29.613  30.106  1.00  0.00     0.001 A 
ATOM     75  C   UNL A   1      35.952  30.178  28.907  1.00  0.00     0.000 A 
ENDBRANCH  51  70
BRANCH  63  76
ATOM     76  C   UNL A   1      44.411  32.447  31.397  1.00  0.00    -0.014 A 
ATOM     77  C   UNL A   1      44.695  33.512  30.528  1.00  0.00     0.009 A 
ATOM     78  C   UNL A   1      44.339  32.696  32.777  1.00  0.00     0.009 A 
ATOM     79  C   UNL A   1      44.937  34.790  31.034  1.00  0.00     0.001 A 
ATOM     80  C   UNL A   1      44.552  33.981  33.277  1.00  0.00     0.001 A 
ATOM     81  C   UNL A   1      44.859  35.024  32.407  1.00  0.00     0.000 A 
ENDBRANCH  63  76
ENDBRANCH  37  38
ENDBRANCH  29  32
ENDBRANCH  27  28
ENDBRANCH  26  27
ENDBRANCH   1  26
TORSDOF 13
ENDMDL
