MODEL 1
REMARK VINA RESULT:      -9.6      0.000      0.000
REMARK SMILES CC(=O)N1CCC[C@H]1COCC(=O)NCCCCNC(=O)c1ccc(-c2c3nc(c(-c4ccccc4)c4ccc([nH]4)c(-c4ccccc4)c4nc(c(-c5ccccc5)c5ccc2[nH]5)C=C4)C=C3)cc1
REMARK SMILES IDX 15 1 14 2 12 3 13 4 11 6 10 7 9 8 8 9 4 10 5 11 6 12 7 13
REMARK SMILES IDX 2 14 1 15 3 16 16 17 17 18 18 19 19 20 20 21 21 23 22 24
REMARK SMILES IDX 23 25 69 26 24 27 68 28 25 29 26 30 27 31 62 32 28 33 67 34
REMARK SMILES IDX 61 35 63 36 29 37 66 38 60 39 59 40 30 42 52 43 37 44 51 45
REMARK SMILES IDX 38 46 41 47 50 48 64 49 39 50 40 51 49 53 65 54 42 55 31 56
REMARK SMILES IDX 32 57 36 58 33 59 35 60 34 61 53 62 54 63 58 64 55 65 57 66
REMARK SMILES IDX 56 67 43 68 44 69 48 70 45 71 47 72 46 73
REMARK H PARENT 14 5 19 22 63 41 41 52
REMARK Flexibility Score: inf
ROOT
ATOM      1  C   UNL A   1      43.068  19.895  25.964  1.00  0.00     0.116 C 
ENDROOT
BRANCH   1   2
ATOM      2  N   UNL A   1      43.601  19.469  24.686  1.00  0.00    -0.354 N 
ATOM      3  C   UNL A   1      44.910  19.428  24.296  1.00  0.00     0.245 C 
ATOM      4  O   UNL A   1      45.195  18.802  23.274  1.00  0.00    -0.272 OA
ATOM      5  H   UNL A   1      42.940  19.175  24.019  1.00  0.00     0.163 HD
BRANCH   3   6
ATOM      6  C   UNL A   1      45.983  20.086  25.178  1.00  0.00     0.260 C 
BRANCH   6   7
ATOM      7  O   UNL A   1      46.760  21.144  24.623  1.00  0.00    -0.370 OA
BRANCH   7   8
ATOM      8  C   UNL A   1      45.971  22.214  24.090  1.00  0.00     0.185 C 
BRANCH   8   9
ATOM      9  C   UNL A   1      45.259  23.023  25.190  1.00  0.00     0.111 C 
ATOM     10  N   UNL A   1      45.777  24.379  25.387  1.00  0.00    -0.338 N 
ATOM     11  C   UNL A   1      44.728  25.371  25.236  1.00  0.00     0.120 C 
ATOM     12  C   UNL A   1      43.453  24.587  25.495  1.00  0.00     0.024 C 
ATOM     13  C   UNL A   1      43.764  23.222  24.890  1.00  0.00     0.029 C 
BRANCH  10  14
ATOM     14  C   UNL A   1      47.044  24.578  25.889  1.00  0.00     0.219 C 
ATOM     15  C   UNL A   1      47.958  25.486  25.113  1.00  0.00     0.114 C 
ATOM     16  O   UNL A   1      47.409  24.087  26.955  1.00  0.00    -0.275 OA
ENDBRANCH  10  14
ENDBRANCH   8   9
ENDBRANCH   7   8
ENDBRANCH   6   7
ENDBRANCH   3   6
ENDBRANCH   1   2
BRANCH   1  17
ATOM     17  C   UNL A   1      41.640  19.413  26.207  1.00  0.00     0.023 C 
BRANCH  17  18
ATOM     18  C   UNL A   1      40.823  20.254  27.190  1.00  0.00     0.023 C 
BRANCH  18  19
ATOM     19  C   UNL A   1      40.679  21.731  26.842  1.00  0.00     0.116 C 
BRANCH  19  20
ATOM     20  N   UNL A   1      39.444  22.042  26.137  1.00  0.00    -0.352 N 
ATOM     21  C   UNL A   1      38.734  23.220  26.122  1.00  0.00     0.251 C 
ATOM     22  H   UNL A   1      39.065  21.309  25.599  1.00  0.00     0.163 HD
ATOM     23  O   UNL A   1      37.649  23.284  25.553  1.00  0.00    -0.269 OA
BRANCH  21  24
ATOM     24  C   UNL A   1      39.269  24.404  26.830  1.00  0.00     0.039 A 
ATOM     25  C   UNL A   1      40.061  25.313  26.124  1.00  0.00     0.014 A 
ATOM     26  C   UNL A   1      38.965  24.628  28.174  1.00  0.00     0.014 A 
ATOM     27  C   UNL A   1      40.483  26.492  26.744  1.00  0.00     0.010 A 
ATOM     28  C   UNL A   1      39.332  25.832  28.770  1.00  0.00     0.010 A 
ATOM     29  C   UNL A   1      40.088  26.779  28.060  1.00  0.00    -0.014 A 
BRANCH  29  30
ATOM     30  C   UNL A   1      40.444  28.057  28.731  1.00  0.00     0.031 A 
ATOM     31  C   UNL A   1      41.767  28.184  29.433  1.00  0.00     0.074 A 
ATOM     32  C   UNL A   1      39.542  29.057  28.802  1.00  0.00     0.049 A 
ATOM     33  N   UNL A   1      42.194  29.134  30.227  1.00  0.00    -0.248 NA
ATOM     34  C   UNL A   1      42.726  27.083  29.243  1.00  0.00     0.031 C 
ATOM     35  C   UNL A   1      38.216  29.056  28.181  1.00  0.00     0.029 A 
ATOM     36  N   UNL A   1      39.599  30.263  29.457  1.00  0.00    -0.354 N 
ATOM     37  C   UNL A   1      43.451  28.727  30.657  1.00  0.00     0.074 A 
ATOM     38  C   UNL A   1      43.708  27.436  30.059  1.00  0.00     0.031 C 
ATOM     39  C   UNL A   1      37.587  30.204  28.484  1.00  0.00     0.029 A 
ATOM     40  C   UNL A   1      38.442  31.000  29.359  1.00  0.00     0.049 A 
ATOM     41  H   UNL A   1      40.393  30.571  29.950  1.00  0.00     0.167 HD
ATOM     42  C   UNL A   1      44.315  29.376  31.471  1.00  0.00     0.031 A 
ATOM     43  C   UNL A   1      38.097  32.169  29.932  1.00  0.00     0.031 A 
ATOM     44  C   UNL A   1      44.074  30.674  32.040  1.00  0.00     0.049 A 
ATOM     45  C   UNL A   1      39.075  32.863  30.840  1.00  0.00     0.074 A 
ATOM     46  C   UNL A   1      44.918  31.438  32.826  1.00  0.00     0.029 A 
ATOM     47  N   UNL A   1      42.905  31.400  31.880  1.00  0.00    -0.354 N 
ATOM     48  N   UNL A   1      40.283  32.492  31.192  1.00  0.00    -0.248 NA
ATOM     49  C   UNL A   1      38.646  34.142  31.427  1.00  0.00     0.031 C 
ATOM     50  C   UNL A   1      44.244  32.609  33.180  1.00  0.00     0.029 A 
ATOM     51  C   UNL A   1      43.001  32.596  32.568  1.00  0.00     0.049 A 
ATOM     52  H   UNL A   1      42.124  31.108  31.357  1.00  0.00     0.167 HD
ATOM     53  C   UNL A   1      40.771  33.509  32.002  1.00  0.00     0.074 A 
ATOM     54  C   UNL A   1      39.733  34.515  32.090  1.00  0.00     0.031 C 
ATOM     55  C   UNL A   1      41.974  33.603  32.617  1.00  0.00     0.031 A 
BRANCH  42  56
ATOM     56  C   UNL A   1      45.610  28.693  31.808  1.00  0.00    -0.014 A 
ATOM     57  C   UNL A   1      45.699  27.789  32.877  1.00  0.00     0.009 A 
ATOM     58  C   UNL A   1      46.737  28.903  30.999  1.00  0.00     0.009 A 
ATOM     59  C   UNL A   1      46.898  27.126  33.142  1.00  0.00     0.001 A 
ATOM     60  C   UNL A   1      47.927  28.219  31.250  1.00  0.00     0.001 A 
ATOM     61  C   UNL A   1      48.008  27.336  32.324  1.00  0.00     0.000 A 
ENDBRANCH  42  56
BRANCH  43  62
ATOM     62  C   UNL A   1      36.757  32.765  29.681  1.00  0.00    -0.014 A 
ATOM     63  C   UNL A   1      36.523  33.531  28.528  1.00  0.00     0.009 A 
ATOM     64  C   UNL A   1      35.718  32.605  30.610  1.00  0.00     0.009 A 
ATOM     65  C   UNL A   1      35.289  34.157  28.332  1.00  0.00     0.001 A 
ATOM     66  C   UNL A   1      34.475  33.205  30.395  1.00  0.00     0.001 A 
ATOM     67  C   UNL A   1      34.266  33.991  29.263  1.00  0.00     0.000 A 
ENDBRANCH  43  62
BRANCH  55  68
ATOM     68  C   UNL A   1      42.275  34.862  33.376  1.00  0.00    -0.014 A 
ATOM     69  C   UNL A   1      41.860  35.033  34.705  1.00  0.00     0.009 A 
ATOM     70  C   UNL A   1      43.060  35.857  32.772  1.00  0.00     0.009 A 
ATOM     71  C   UNL A   1      42.212  36.188  35.407  1.00  0.00     0.001 A 
ATOM     72  C   UNL A   1      43.431  36.996  33.484  1.00  0.00     0.001 A 
ATOM     73  C   UNL A   1      43.003  37.163  34.800  1.00  0.00     0.000 A 
ENDBRANCH  55  68
ENDBRANCH  29  30
ENDBRANCH  21  24
ENDBRANCH  19  20
ENDBRANCH  18  19
ENDBRANCH  17  18
ENDBRANCH   1  17
TORSDOF 15
ENDMDL
MODEL 2
REMARK VINA RESULT:      -9.4      3.740      9.484
REMARK SMILES CC(=O)N1CCC[C@H]1COCC(=O)NCCCCNC(=O)c1ccc(-c2c3nc(c(-c4ccccc4)c4ccc([nH]4)c(-c4ccccc4)c4nc(c(-c5ccccc5)c5ccc2[nH]5)C=C4)C=C3)cc1
REMARK SMILES IDX 15 1 14 2 12 3 13 4 11 6 10 7 9 8 8 9 4 10 5 11 6 12 7 13
REMARK SMILES IDX 2 14 1 15 3 16 16 17 17 18 18 19 19 20 20 21 21 23 22 24
REMARK SMILES IDX 23 25 69 26 24 27 68 28 25 29 26 30 27 31 62 32 28 33 67 34
REMARK SMILES IDX 61 35 63 36 29 37 66 38 60 39 59 40 30 42 52 43 37 44 51 45
REMARK SMILES IDX 38 46 41 47 50 48 64 49 39 50 40 51 49 53 65 54 42 55 31 56
REMARK SMILES IDX 32 57 36 58 33 59 35 60 34 61 53 62 54 63 58 64 55 65 57 66
REMARK SMILES IDX 56 67 43 68 44 69 48 70 45 71 47 72 46 73
REMARK H PARENT 14 5 19 22 63 41 41 52
REMARK Flexibility Score: inf
ROOT
ATOM      1  C   UNL A   1      32.606  26.948  25.114  1.00  0.00     0.116 C 
ENDROOT
BRANCH   1   2
ATOM      2  N   UNL A   1      31.977  25.991  24.228  1.00  0.00    -0.354 N 
ATOM      3  C   UNL A   1      32.581  25.019  23.480  1.00  0.00     0.245 C 
ATOM      4  O   UNL A   1      31.874  24.138  22.988  1.00  0.00    -0.272 OA
ATOM      5  H   UNL A   1      30.997  26.047  24.156  1.00  0.00     0.163 HD
BRANCH   3   6
ATOM      6  C   UNL A   1      34.112  25.010  23.346  1.00  0.00     0.260 C 
BRANCH   6   7
ATOM      7  O   UNL A   1      34.849  24.022  24.062  1.00  0.00    -0.370 OA
BRANCH   7   8
ATOM      8  C   UNL A   1      35.145  24.398  25.412  1.00  0.00     0.185 C 
BRANCH   8   9
ATOM      9  C   UNL A   1      36.107  23.410  26.099  1.00  0.00     0.111 C 
ATOM     10  N   UNL A   1      35.895  22.004  25.749  1.00  0.00    -0.338 N 
ATOM     11  C   UNL A   1      37.104  21.407  25.212  1.00  0.00     0.120 C 
ATOM     12  C   UNL A   1      38.213  22.295  25.749  1.00  0.00     0.024 C 
ATOM     13  C   UNL A   1      37.576  23.681  25.734  1.00  0.00     0.029 C 
BRANCH  10  14
ATOM     14  C   UNL A   1      34.748  21.350  26.142  1.00  0.00     0.219 C 
ATOM     15  C   UNL A   1      34.061  20.488  25.118  1.00  0.00     0.114 C 
ATOM     16  O   UNL A   1      34.321  21.412  27.292  1.00  0.00    -0.275 OA
ENDBRANCH  10  14
ENDBRANCH   8   9
ENDBRANCH   7   8
ENDBRANCH   6   7
ENDBRANCH   3   6
ENDBRANCH   1   2
BRANCH   1  17
ATOM     17  C   UNL A   1      31.970  26.987  26.501  1.00  0.00     0.023 C 
BRANCH  17  18
ATOM     18  C   UNL A   1      32.130  28.306  27.259  1.00  0.00     0.023 C 
BRANCH  18  19
ATOM     19  C   UNL A   1      33.533  28.904  27.264  1.00  0.00     0.116 C 
BRANCH  19  20
ATOM     20  N   UNL A   1      33.580  30.265  27.777  1.00  0.00    -0.352 N 
ATOM     21  C   UNL A   1      34.614  30.909  28.417  1.00  0.00     0.251 C 
ATOM     22  H   UNL A   1      32.761  30.797  27.649  1.00  0.00     0.163 HD
ATOM     23  O   UNL A   1      34.454  32.034  28.880  1.00  0.00    -0.269 OA
BRANCH  21  24
ATOM     24  C   UNL A   1      35.914  30.222  28.577  1.00  0.00     0.039 A 
ATOM     25  C   UNL A   1      36.777  30.142  27.481  1.00  0.00     0.014 A 
ATOM     26  C   UNL A   1      36.289  29.687  29.811  1.00  0.00     0.014 A 
ATOM     27  C   UNL A   1      38.054  29.596  27.642  1.00  0.00     0.010 A 
ATOM     28  C   UNL A   1      37.583  29.202  29.985  1.00  0.00     0.010 A 
ATOM     29  C   UNL A   1      38.481  29.157  28.905  1.00  0.00    -0.014 A 
BRANCH  29  30
ATOM     30  C   UNL A   1      39.856  28.647  29.141  1.00  0.00     0.031 A 
ATOM     31  C   UNL A   1      40.918  29.582  29.650  1.00  0.00     0.074 A 
ATOM     32  C   UNL A   1      40.177  27.383  28.797  1.00  0.00     0.049 A 
ATOM     33  N   UNL A   1      42.210  29.390  29.749  1.00  0.00    -0.248 NA
ATOM     34  C   UNL A   1      40.474  30.918  30.077  1.00  0.00     0.031 C 
ATOM     35  C   UNL A   1      39.247  26.379  28.274  1.00  0.00     0.029 A 
ATOM     36  N   UNL A   1      41.388  26.736  28.812  1.00  0.00    -0.354 N 
ATOM     37  C   UNL A   1      42.733  30.591  30.212  1.00  0.00     0.074 A 
ATOM     38  C   UNL A   1      41.626  31.512  30.351  1.00  0.00     0.031 C 
ATOM     39  C   UNL A   1      39.921  25.245  28.019  1.00  0.00     0.029 A 
ATOM     40  C   UNL A   1      41.336  25.455  28.313  1.00  0.00     0.049 A 
ATOM     41  H   UNL A   1      42.216  27.149  29.147  1.00  0.00     0.167 HD
ATOM     42  C   UNL A   1      44.019  30.895  30.503  1.00  0.00     0.031 A 
ATOM     43  C   UNL A   1      42.318  24.561  28.089  1.00  0.00     0.031 A 
ATOM     44  C   UNL A   1      45.114  29.971  30.396  1.00  0.00     0.049 A 
ATOM     45  C   UNL A   1      43.741  24.932  28.413  1.00  0.00     0.074 A 
ATOM     46  C   UNL A   1      46.443  30.171  30.727  1.00  0.00     0.029 A 
ATOM     47  N   UNL A   1      45.008  28.673  29.925  1.00  0.00    -0.354 N 
ATOM     48  N   UNL A   1      44.211  26.052  28.904  1.00  0.00    -0.248 NA
ATOM     49  C   UNL A   1      44.768  23.910  28.158  1.00  0.00     0.031 C 
ATOM     50  C   UNL A   1      47.150  29.007  30.416  1.00  0.00     0.029 A 
ATOM     51  C   UNL A   1      46.251  28.066  29.942  1.00  0.00     0.049 A 
ATOM     52  H   UNL A   1      44.173  28.247  29.623  1.00  0.00     0.167 HD
ATOM     53  C   UNL A   1      45.578  25.855  29.056  1.00  0.00     0.074 A 
ATOM     54  C   UNL A   1      45.863  24.508  28.609  1.00  0.00     0.031 C 
ATOM     55  C   UNL A   1      46.513  26.713  29.528  1.00  0.00     0.031 A 
BRANCH  42  56
ATOM     56  C   UNL A   1      44.324  32.293  30.962  1.00  0.00    -0.014 A 
ATOM     57  C   UNL A   1      44.467  32.596  32.324  1.00  0.00     0.009 A 
ATOM     58  C   UNL A   1      44.543  33.303  30.012  1.00  0.00     0.009 A 
ATOM     59  C   UNL A   1      44.801  33.891  32.727  1.00  0.00     0.001 A 
ATOM     60  C   UNL A   1      44.903  34.589  30.417  1.00  0.00     0.001 A 
ATOM     61  C   UNL A   1      45.026  34.883  31.773  1.00  0.00     0.000 A 
ENDBRANCH  42  56
BRANCH  43  62
ATOM     62  C   UNL A   1      42.006  23.225  27.515  1.00  0.00    -0.014 A 
ATOM     63  C   UNL A   1      41.404  22.233  28.306  1.00  0.00     0.009 A 
ATOM     64  C   UNL A   1      42.342  22.920  26.187  1.00  0.00     0.009 A 
ATOM     65  C   UNL A   1      41.183  20.953  27.791  1.00  0.00     0.001 A 
ATOM     66  C   UNL A   1      42.091  21.650  25.665  1.00  0.00     0.001 A 
ATOM     67  C   UNL A   1      41.524  20.663  26.471  1.00  0.00     0.000 A 
ENDBRANCH  43  62
BRANCH  55  68
ATOM     68  C   UNL A   1      47.920  26.209  29.662  1.00  0.00    -0.014 A 
ATOM     69  C   UNL A   1      48.819  26.248  28.586  1.00  0.00     0.009 A 
ATOM     70  C   UNL A   1      48.373  25.764  30.914  1.00  0.00     0.009 A 
ATOM     71  C   UNL A   1      50.141  25.834  28.760  1.00  0.00     0.001 A 
ATOM     72  C   UNL A   1      49.700  25.376  31.091  1.00  0.00     0.001 A 
ATOM     73  C   UNL A   1      50.582  25.406  30.011  1.00  0.00     0.000 A 
ENDBRANCH  55  68
ENDBRANCH  29  30
ENDBRANCH  21  24
ENDBRANCH  19  20
ENDBRANCH  18  19
ENDBRANCH  17  18
ENDBRANCH   1  17
TORSDOF 15
ENDMDL
MODEL 3
REMARK VINA RESULT:      -9.3      3.095      6.324
REMARK SMILES CC(=O)N1CCC[C@H]1COCC(=O)NCCCCNC(=O)c1ccc(-c2c3nc(c(-c4ccccc4)c4ccc([nH]4)c(-c4ccccc4)c4nc(c(-c5ccccc5)c5ccc2[nH]5)C=C4)C=C3)cc1
REMARK SMILES IDX 15 1 14 2 12 3 13 4 11 6 10 7 9 8 8 9 4 10 5 11 6 12 7 13
REMARK SMILES IDX 2 14 1 15 3 16 16 17 17 18 18 19 19 20 20 21 21 23 22 24
REMARK SMILES IDX 23 25 69 26 24 27 68 28 25 29 26 30 27 31 62 32 28 33 67 34
REMARK SMILES IDX 61 35 63 36 29 37 66 38 60 39 59 40 30 42 52 43 37 44 51 45
REMARK SMILES IDX 38 46 41 47 50 48 64 49 39 50 40 51 49 53 65 54 42 55 31 56
REMARK SMILES IDX 32 57 36 58 33 59 35 60 34 61 53 62 54 63 58 64 55 65 57 66
REMARK SMILES IDX 56 67 43 68 44 69 48 70 45 71 47 72 46 73
REMARK H PARENT 14 5 19 22 63 41 41 52
REMARK Flexibility Score: inf
ROOT
ATOM      1  C   UNL A   1      34.516  24.565  25.063  1.00  0.00     0.116 C 
ENDROOT
BRANCH   1   2
ATOM      2  N   UNL A   1      33.235  24.171  25.609  1.00  0.00    -0.354 N 
ATOM      3  C   UNL A   1      32.995  23.347  26.672  1.00  0.00     0.245 C 
ATOM      4  O   UNL A   1      31.860  23.328  27.153  1.00  0.00    -0.272 OA
ATOM      5  H   UNL A   1      32.441  24.542  25.161  1.00  0.00     0.163 HD
BRANCH   3   6
ATOM      6  C   UNL A   1      34.153  22.540  27.280  1.00  0.00     0.260 C 
BRANCH   6   7
ATOM      7  O   UNL A   1      34.644  21.412  26.561  1.00  0.00    -0.370 OA
BRANCH   7   8
ATOM      8  C   UNL A   1      33.612  20.519  26.124  1.00  0.00     0.185 C 
BRANCH   8   9
ATOM      9  C   UNL A   1      33.648  20.281  24.603  1.00  0.00     0.111 C 
ATOM     10  N   UNL A   1      33.513  18.880  24.198  1.00  0.00    -0.338 N 
ATOM     11  C   UNL A   1      32.394  18.698  23.290  1.00  0.00     0.120 C 
ATOM     12  C   UNL A   1      32.182  20.083  22.702  1.00  0.00     0.024 C 
ATOM     13  C   UNL A   1      32.503  21.004  23.874  1.00  0.00     0.029 C 
BRANCH  10  14
ATOM     14  C   UNL A   1      34.505  17.969  24.487  1.00  0.00     0.219 C 
ATOM     15  C   UNL A   1      34.091  16.534  24.670  1.00  0.00     0.114 C 
ATOM     16  O   UNL A   1      35.690  18.288  24.542  1.00  0.00    -0.275 OA
ENDBRANCH  10  14
ENDBRANCH   8   9
ENDBRANCH   7   8
ENDBRANCH   6   7
ENDBRANCH   3   6
ENDBRANCH   1   2
BRANCH   1  17
ATOM     17  C   UNL A   1      34.950  23.706  23.877  1.00  0.00     0.023 C 
BRANCH  17  18
ATOM     18  C   UNL A   1      36.275  22.963  24.057  1.00  0.00     0.023 C 
BRANCH  18  19
ATOM     19  C   UNL A   1      37.254  23.578  25.050  1.00  0.00     0.116 C 
BRANCH  19  20
ATOM     20  N   UNL A   1      38.327  22.676  25.441  1.00  0.00    -0.352 N 
ATOM     21  C   UNL A   1      39.444  22.943  26.198  1.00  0.00     0.251 C 
ATOM     22  H   UNL A   1      38.242  21.749  25.119  1.00  0.00     0.163 HD
ATOM     23  O   UNL A   1      40.310  22.087  26.351  1.00  0.00    -0.269 OA
BRANCH  21  24
ATOM     24  C   UNL A   1      39.616  24.283  26.799  1.00  0.00     0.039 A 
ATOM     25  C   UNL A   1      39.137  24.512  28.092  1.00  0.00     0.014 A 
ATOM     26  C   UNL A   1      40.271  25.299  26.100  1.00  0.00     0.014 A 
ATOM     27  C   UNL A   1      39.387  25.736  28.718  1.00  0.00     0.010 A 
ATOM     28  C   UNL A   1      40.575  26.494  26.748  1.00  0.00     0.010 A 
ATOM     29  C   UNL A   1      40.143  26.722  28.064  1.00  0.00    -0.014 A 
BRANCH  29  30
ATOM     30  C   UNL A   1      40.504  28.006  28.722  1.00  0.00     0.031 A 
ATOM     31  C   UNL A   1      41.836  28.140  29.407  1.00  0.00     0.074 A 
ATOM     32  C   UNL A   1      39.602  29.004  28.798  1.00  0.00     0.049 A 
ATOM     33  N   UNL A   1      42.271  29.096  30.188  1.00  0.00    -0.248 NA
ATOM     34  C   UNL A   1      42.795  27.040  29.212  1.00  0.00     0.031 C 
ATOM     35  C   UNL A   1      38.267  28.996  28.194  1.00  0.00     0.029 A 
ATOM     36  N   UNL A   1      39.664  30.214  29.444  1.00  0.00    -0.354 N 
ATOM     37  C   UNL A   1      43.534  28.695  30.606  1.00  0.00     0.074 A 
ATOM     38  C   UNL A   1      43.787  27.400  30.013  1.00  0.00     0.031 C 
ATOM     39  C   UNL A   1      37.639  30.144  28.497  1.00  0.00     0.029 A 
ATOM     40  C   UNL A   1      38.504  30.948  29.356  1.00  0.00     0.049 A 
ATOM     41  H   UNL A   1      40.464  30.528  29.925  1.00  0.00     0.167 HD
ATOM     42  C   UNL A   1      44.407  29.351  31.404  1.00  0.00     0.031 A 
ATOM     43  C   UNL A   1      38.163  32.120  29.925  1.00  0.00     0.031 A 
ATOM     44  C   UNL A   1      44.170  30.652  31.967  1.00  0.00     0.049 A 
ATOM     45  C   UNL A   1      39.152  32.822  30.817  1.00  0.00     0.074 A 
ATOM     46  C   UNL A   1      45.022  31.423  32.738  1.00  0.00     0.029 A 
ATOM     47  N   UNL A   1      42.998  31.375  31.818  1.00  0.00    -0.354 N 
ATOM     48  N   UNL A   1      40.364  32.456  31.155  1.00  0.00    -0.248 NA
ATOM     49  C   UNL A   1      38.727  34.105  31.400  1.00  0.00     0.031 C 
ATOM     50  C   UNL A   1      44.350  32.596  33.092  1.00  0.00     0.029 A 
ATOM     51  C   UNL A   1      43.099  32.576  32.496  1.00  0.00     0.049 A 
ATOM     52  H   UNL A   1      42.211  31.077  31.306  1.00  0.00     0.167 HD
ATOM     53  C   UNL A   1      40.860  33.480  31.953  1.00  0.00     0.074 A 
ATOM     54  C   UNL A   1      39.821  34.484  32.046  1.00  0.00     0.031 C 
ATOM     55  C   UNL A   1      42.071  33.580  32.551  1.00  0.00     0.031 A 
BRANCH  42  56
ATOM     56  C   UNL A   1      45.708  28.673  31.729  1.00  0.00    -0.014 A 
ATOM     57  C   UNL A   1      46.864  28.916  30.972  1.00  0.00     0.009 A 
ATOM     58  C   UNL A   1      45.793  27.838  32.853  1.00  0.00     0.009 A 
ATOM     59  C   UNL A   1      48.075  28.316  31.322  1.00  0.00     0.001 A 
ATOM     60  C   UNL A   1      47.011  27.261  33.217  1.00  0.00     0.001 A 
ATOM     61  C   UNL A   1      48.148  27.496  32.448  1.00  0.00     0.000 A 
ENDBRANCH  42  56
BRANCH  43  62
ATOM     62  C   UNL A   1      36.820  32.712  29.687  1.00  0.00    -0.014 A 
ATOM     63  C   UNL A   1      35.800  32.572  30.642  1.00  0.00     0.009 A 
ATOM     64  C   UNL A   1      36.537  33.387  28.490  1.00  0.00     0.009 A 
ATOM     65  C   UNL A   1      34.516  33.060  30.385  1.00  0.00     0.001 A 
ATOM     66  C   UNL A   1      35.262  33.902  28.249  1.00  0.00     0.001 A 
ATOM     67  C   UNL A   1      34.249  33.726  29.190  1.00  0.00     0.000 A 
ENDBRANCH  43  62
BRANCH  55  68
ATOM     68  C   UNL A   1      42.379  34.845  33.298  1.00  0.00    -0.014 A 
ATOM     69  C   UNL A   1      43.080  35.900  32.696  1.00  0.00     0.009 A 
ATOM     70  C   UNL A   1      41.884  35.010  34.602  1.00  0.00     0.009 A 
ATOM     71  C   UNL A   1      43.294  37.090  33.394  1.00  0.00     0.001 A 
ATOM     72  C   UNL A   1      42.077  36.209  35.287  1.00  0.00     0.001 A 
ATOM     73  C   UNL A   1      42.787  37.247  34.684  1.00  0.00     0.000 A 
ENDBRANCH  55  68
ENDBRANCH  29  30
ENDBRANCH  21  24
ENDBRANCH  19  20
ENDBRANCH  18  19
ENDBRANCH  17  18
ENDBRANCH   1  17
TORSDOF 15
ENDMDL
