MODEL 1
REMARK VINA RESULT:     -11.7      0.000      0.000
REMARK SMILES Cc1cc(S(=O)(=O)Nc2ccc(F)c(F)c2)sc1C(=O)NCCCCNC(=O)c1ccc(-c2c3nc(c(-c4ccccc4)c4ccc([nH]4)c(-c4ccccc4)c4nc(c(-c5ccccc5)c5ccc2[nH]5)C=C4)C=C3)cc1
REMARK SMILES IDX 23 1 22 2 21 3 19 4 20 5 18 7 1 8 2 9 3 10 4 11 17 12 5 13
REMARK SMILES IDX 6 14 7 15 8 16 9 18 10 19 16 20 11 21 14 22 12 23 15 24
REMARK SMILES IDX 13 25 24 26 25 27 26 28 27 29 28 31 29 32 30 33 76 34 31 35
REMARK SMILES IDX 75 36 32 37 33 38 34 39 69 40 35 41 74 42 68 43 70 44 36 45
REMARK SMILES IDX 73 46 67 47 66 48 37 50 59 51 44 52 58 53 45 54 48 55 57 56
REMARK SMILES IDX 71 57 46 58 47 59 56 61 72 62 49 63 38 64 39 65 43 66 40 67
REMARK SMILES IDX 42 68 41 69 60 70 61 71 65 72 62 73 64 74 63 75 50 76 51 77
REMARK SMILES IDX 55 78 52 79 54 80 53 81
REMARK H PARENT 21 6 8 17 26 30 70 49 48 60
REMARK Flexibility Score: inf
ROOT
ATOM      1  C   UNL A   1      31.587  29.131  25.800  1.00  0.00     0.023 C 
ENDROOT
BRANCH   1   2
ATOM      2  C   UNL A   1      32.433  29.340  24.540  1.00  0.00     0.116 C 
BRANCH   2   3
ATOM      3  N   UNL A   1      31.584  29.469  23.384  1.00  0.00    -0.351 N 
ATOM      4  C   UNL A   1      30.835  28.591  22.650  1.00  0.00     0.261 C 
ATOM      5  O   UNL A   1      30.217  29.154  21.735  1.00  0.00    -0.268 OA
ATOM      6  H   UNL A   1      31.529  30.394  23.050  1.00  0.00     0.163 HD
BRANCH   4   7
ATOM      7  C   UNL A   1      30.737  27.141  22.858  1.00  0.00     0.096 A 
ATOM      8  C   UNL A   1      28.484  26.346  23.966  1.00  0.00     0.046 C 
ATOM      9  C   UNL A   1      29.871  26.217  23.448  1.00  0.00    -0.026 A 
ATOM     10  C   UNL A   1      30.538  24.951  23.652  1.00  0.00     0.038 A 
ATOM     11  C   UNL A   1      31.819  24.903  23.156  1.00  0.00     0.141 A 
ATOM     12  S   UNL A   1      32.113  26.278  22.214  1.00  0.00    -0.116 S 
BRANCH  11  13
ATOM     13  S   UNL A   1      33.056  23.632  23.211  1.00  0.00     0.271 S 
ATOM     14  O   UNL A   1      32.368  22.454  22.722  1.00  0.00    -0.200 OA
ATOM     15  O   UNL A   1      34.196  24.162  22.493  1.00  0.00    -0.200 OA
BRANCH  13  16
ATOM     16  N   UNL A   1      33.582  23.225  24.775  1.00  0.00    -0.279 N 
ATOM     17  H   UNL A   1      32.940  23.196  25.520  1.00  0.00     0.180 HD
BRANCH  16  18
ATOM     18  C   UNL A   1      34.957  22.929  25.000  1.00  0.00     0.052 A 
ATOM     19  C   UNL A   1      35.750  23.925  25.584  1.00  0.00     0.030 A 
ATOM     20  C   UNL A   1      35.517  21.705  24.635  1.00  0.00     0.069 A 
ATOM     21  C   UNL A   1      37.110  23.700  25.805  1.00  0.00     0.044 A 
ATOM     22  C   UNL A   1      36.872  21.486  24.878  1.00  0.00     0.160 A 
ATOM     23  C   UNL A   1      37.663  22.475  25.456  1.00  0.00     0.158 A 
ATOM     24  F   UNL A   1      37.413  20.302  24.554  1.00  0.00    -0.204 F 
ATOM     25  F   UNL A   1      38.964  22.251  25.687  1.00  0.00    -0.204 F 
ENDBRANCH  16  18
ENDBRANCH  13  16
ENDBRANCH  11  13
ENDBRANCH   4   7
ENDBRANCH   2   3
ENDBRANCH   1   2
BRANCH   1  26
ATOM     26  C   UNL A   1      32.292  28.453  26.971  1.00  0.00     0.023 C 
BRANCH  26  27
ATOM     27  C   UNL A   1      33.690  28.983  27.255  1.00  0.00     0.116 C 
BRANCH  27  28
ATOM     28  N   UNL A   1      33.712  30.289  27.899  1.00  0.00    -0.352 N 
ATOM     29  C   UNL A   1      34.762  30.896  28.554  1.00  0.00     0.251 C 
ATOM     30  H   UNL A   1      32.872  30.802  27.862  1.00  0.00     0.163 HD
ATOM     31  O   UNL A   1      34.625  31.971  29.103  1.00  0.00    -0.269 OA
BRANCH  29  32
ATOM     32  C   UNL A   1      36.045  30.169  28.623  1.00  0.00     0.039 A 
ATOM     33  C   UNL A   1      36.927  30.265  27.546  1.00  0.00     0.014 A 
ATOM     34  C   UNL A   1      36.406  29.488  29.788  1.00  0.00     0.014 A 
ATOM     35  C   UNL A   1      38.214  29.745  27.670  1.00  0.00     0.010 A 
ATOM     36  C   UNL A   1      37.712  29.043  29.939  1.00  0.00     0.010 A 
ATOM     37  C   UNL A   1      38.629  29.174  28.885  1.00  0.00    -0.014 A 
BRANCH  37  38
ATOM     38  C   UNL A   1      40.023  28.713  29.080  1.00  0.00     0.031 A 
ATOM     39  C   UNL A   1      41.050  29.653  29.644  1.00  0.00     0.074 A 
ATOM     40  C   UNL A   1      40.380  27.479  28.675  1.00  0.00     0.049 A 
ATOM     41  N   UNL A   1      42.332  29.463  29.820  1.00  0.00    -0.248 NA
ATOM     42  C   UNL A   1      40.579  30.992  30.033  1.00  0.00     0.031 C 
ATOM     43  C   UNL A   1      39.487  26.491  28.064  1.00  0.00     0.029 A 
ATOM     44  N   UNL A   1      41.598  26.849  28.709  1.00  0.00    -0.354 N 
ATOM     45  C   UNL A   1      42.823  30.664  30.316  1.00  0.00     0.074 A 
ATOM     46  C   UNL A   1      41.713  31.589  30.367  1.00  0.00     0.031 C 
ATOM     47  C   UNL A   1      40.182  25.371  27.808  1.00  0.00     0.029 A 
ATOM     48  C   UNL A   1      41.572  25.571  28.203  1.00  0.00     0.049 A 
ATOM     49  H   UNL A   1      42.414  27.270  29.064  1.00  0.00     0.167 HD
ATOM     50  C   UNL A   1      44.081  30.964  30.713  1.00  0.00     0.031 A 
ATOM     51  C   UNL A   1      42.559  24.666  28.070  1.00  0.00     0.031 A 
ATOM     52  C   UNL A   1      45.179  30.036  30.685  1.00  0.00     0.049 A 
ATOM     53  C   UNL A   1      43.944  25.018  28.532  1.00  0.00     0.074 A 
ATOM     54  C   UNL A   1      46.478  30.224  31.125  1.00  0.00     0.029 A 
ATOM     55  N   UNL A   1      45.104  28.744  30.191  1.00  0.00    -0.354 N 
ATOM     56  N   UNL A   1      44.378  26.135  29.063  1.00  0.00    -0.248 NA
ATOM     57  C   UNL A   1      44.973  23.978  28.388  1.00  0.00     0.031 C 
ATOM     58  C   UNL A   1      47.199  29.055  30.863  1.00  0.00     0.029 A 
ATOM     59  C   UNL A   1      46.337  28.126  30.301  1.00  0.00     0.049 A 
ATOM     60  H   UNL A   1      44.294  28.328  29.817  1.00  0.00     0.167 HD
ATOM     61  C   UNL A   1      45.722  25.924  29.343  1.00  0.00     0.074 A 
ATOM     62  C   UNL A   1      46.028  24.568  28.933  1.00  0.00     0.031 C 
ATOM     63  C   UNL A   1      46.620  26.775  29.895  1.00  0.00     0.031 A 
BRANCH  50  64
ATOM     64  C   UNL A   1      44.330  32.358  31.215  1.00  0.00    -0.014 A 
ATOM     65  C   UNL A   1      44.192  32.674  32.576  1.00  0.00     0.009 A 
ATOM     66  C   UNL A   1      44.728  33.362  30.319  1.00  0.00     0.009 A 
ATOM     67  C   UNL A   1      44.409  33.978  33.023  1.00  0.00     0.001 A 
ATOM     68  C   UNL A   1      44.972  34.658  30.773  1.00  0.00     0.001 A 
ATOM     69  C   UNL A   1      44.802  34.968  32.122  1.00  0.00     0.000 A 
ENDBRANCH  50  64
BRANCH  51  70
ATOM     70  C   UNL A   1      42.267  23.325  27.501  1.00  0.00    -0.014 A 
ATOM     71  C   UNL A   1      41.622  22.351  28.279  1.00  0.00     0.009 A 
ATOM     72  C   UNL A   1      42.632  23.010  26.184  1.00  0.00     0.009 A 
ATOM     73  C   UNL A   1      41.373  21.080  27.757  1.00  0.00     0.001 A 
ATOM     74  C   UNL A   1      42.360  21.746  25.657  1.00  0.00     0.001 A 
ATOM     75  C   UNL A   1      41.739  20.779  26.447  1.00  0.00     0.000 A 
ENDBRANCH  51  70
BRANCH  63  76
ATOM     76  C   UNL A   1      48.009  26.254  30.122  1.00  0.00    -0.014 A 
ATOM     77  C   UNL A   1      48.406  25.761  31.374  1.00  0.00     0.009 A 
ATOM     78  C   UNL A   1      48.916  26.212  29.052  1.00  0.00     0.009 A 
ATOM     79  C   UNL A   1      49.696  25.260  31.557  1.00  0.00     0.001 A 
ATOM     80  C   UNL A   1      50.196  25.687  29.231  1.00  0.00     0.001 A 
ATOM     81  C   UNL A   1      50.587  25.218  30.484  1.00  0.00     0.000 A 
ENDBRANCH  63  76
ENDBRANCH  37  38
ENDBRANCH  29  32
ENDBRANCH  27  28
ENDBRANCH  26  27
ENDBRANCH   1  26
TORSDOF 14
ENDMDL
MODEL 2
REMARK VINA RESULT:     -11.2      2.917      7.964
REMARK SMILES Cc1cc(S(=O)(=O)Nc2ccc(F)c(F)c2)sc1C(=O)NCCCCNC(=O)c1ccc(-c2c3nc(c(-c4ccccc4)c4ccc([nH]4)c(-c4ccccc4)c4nc(c(-c5ccccc5)c5ccc2[nH]5)C=C4)C=C3)cc1
REMARK SMILES IDX 23 1 22 2 21 3 19 4 20 5 18 7 1 8 2 9 3 10 4 11 17 12 5 13
REMARK SMILES IDX 6 14 7 15 8 16 9 18 10 19 16 20 11 21 14 22 12 23 15 24
REMARK SMILES IDX 13 25 24 26 25 27 26 28 27 29 28 31 29 32 30 33 76 34 31 35
REMARK SMILES IDX 75 36 32 37 33 38 34 39 69 40 35 41 74 42 68 43 70 44 36 45
REMARK SMILES IDX 73 46 67 47 66 48 37 50 59 51 44 52 58 53 45 54 48 55 57 56
REMARK SMILES IDX 71 57 46 58 47 59 56 61 72 62 49 63 38 64 39 65 43 66 40 67
REMARK SMILES IDX 42 68 41 69 60 70 61 71 65 72 62 73 64 74 63 75 50 76 51 77
REMARK SMILES IDX 55 78 52 79 54 80 53 81
REMARK H PARENT 21 6 8 17 26 30 70 49 48 60
REMARK Flexibility Score: inf
ROOT
ATOM      1  C   UNL A   1      36.862  21.486  25.154  1.00  0.00     0.023 C 
ENDROOT
BRANCH   1   2
ATOM      2  C   UNL A   1      35.429  20.943  25.149  1.00  0.00     0.116 C 
BRANCH   2   3
ATOM      3  N   UNL A   1      34.790  21.209  26.411  1.00  0.00    -0.351 N 
ATOM      4  C   UNL A   1      33.612  21.801  26.776  1.00  0.00     0.261 C 
ATOM      5  O   UNL A   1      33.441  21.785  28.003  1.00  0.00    -0.268 OA
ATOM      6  H   UNL A   1      35.316  20.894  27.182  1.00  0.00     0.163 HD
BRANCH   4   7
ATOM      7  C   UNL A   1      32.626  22.411  25.875  1.00  0.00     0.096 A 
ATOM      8  C   UNL A   1      32.372  21.199  23.551  1.00  0.00     0.046 C 
ATOM      9  C   UNL A   1      32.162  22.264  24.565  1.00  0.00    -0.026 A 
ATOM     10  C   UNL A   1      31.431  23.440  24.149  1.00  0.00     0.038 A 
ATOM     11  C   UNL A   1      31.281  24.388  25.132  1.00  0.00     0.141 A 
ATOM     12  S   UNL A   1      31.777  23.745  26.618  1.00  0.00    -0.116 S 
BRANCH  11  13
ATOM     13  S   UNL A   1      30.541  26.001  25.111  1.00  0.00     0.271 S 
ATOM     14  O   UNL A   1      29.449  25.871  24.167  1.00  0.00    -0.200 OA
ATOM     15  O   UNL A   1      30.274  26.329  26.495  1.00  0.00    -0.200 OA
BRANCH  13  16
ATOM     16  N   UNL A   1      31.536  27.225  24.479  1.00  0.00    -0.279 N 
ATOM     17  H   UNL A   1      31.755  27.238  23.519  1.00  0.00     0.180 HD
BRANCH  16  18
ATOM     18  C   UNL A   1      32.051  28.231  25.346  1.00  0.00     0.052 A 
ATOM     19  C   UNL A   1      33.154  27.899  26.144  1.00  0.00     0.030 A 
ATOM     20  C   UNL A   1      31.477  29.498  25.430  1.00  0.00     0.069 A 
ATOM     21  C   UNL A   1      33.686  28.835  27.032  1.00  0.00     0.044 A 
ATOM     22  C   UNL A   1      32.028  30.431  26.307  1.00  0.00     0.160 A 
ATOM     23  C   UNL A   1      33.122  30.103  27.103  1.00  0.00     0.158 A 
ATOM     24  F   UNL A   1      31.497  31.661  26.375  1.00  0.00    -0.204 F 
ATOM     25  F   UNL A   1      33.645  31.009  27.940  1.00  0.00    -0.204 F 
ENDBRANCH  16  18
ENDBRANCH  13  16
ENDBRANCH  11  13
ENDBRANCH   4   7
ENDBRANCH   2   3
ENDBRANCH   1   2
BRANCH   1  26
ATOM     26  C   UNL A   1      37.966  20.452  24.955  1.00  0.00     0.023 C 
BRANCH  26  27
ATOM     27  C   UNL A   1      39.131  20.583  25.926  1.00  0.00     0.116 C 
BRANCH  27  28
ATOM     28  N   UNL A   1      40.082  19.481  25.866  1.00  0.00    -0.352 N 
ATOM     29  C   UNL A   1      41.436  19.512  26.120  1.00  0.00     0.251 C 
ATOM     30  H   UNL A   1      39.711  18.605  25.612  1.00  0.00     0.163 HD
ATOM     31  O   UNL A   1      42.128  18.524  25.973  1.00  0.00    -0.269 OA
BRANCH  29  32
ATOM     32  C   UNL A   1      42.034  20.802  26.516  1.00  0.00     0.039 A 
ATOM     33  C   UNL A   1      42.367  21.719  25.518  1.00  0.00     0.014 A 
ATOM     34  C   UNL A   1      42.164  21.133  27.867  1.00  0.00     0.014 A 
ATOM     35  C   UNL A   1      42.754  23.009  25.879  1.00  0.00     0.010 A 
ATOM     36  C   UNL A   1      42.472  22.439  28.221  1.00  0.00     0.010 A 
ATOM     37  C   UNL A   1      42.763  23.390  27.230  1.00  0.00    -0.014 A 
BRANCH  37  38
ATOM     38  C   UNL A   1      43.064  24.783  27.634  1.00  0.00     0.031 A 
ATOM     39  C   UNL A   1      44.492  25.227  27.778  1.00  0.00     0.074 A 
ATOM     40  C   UNL A   1      42.056  25.619  27.949  1.00  0.00     0.049 A 
ATOM     41  N   UNL A   1      44.958  26.377  28.192  1.00  0.00    -0.248 NA
ATOM     42  C   UNL A   1      45.530  24.239  27.443  1.00  0.00     0.031 C 
ATOM     43  C   UNL A   1      40.630  25.289  27.901  1.00  0.00     0.029 A 
ATOM     44  N   UNL A   1      42.082  26.920  28.383  1.00  0.00    -0.354 N 
ATOM     45  C   UNL A   1      46.341  26.242  28.189  1.00  0.00     0.074 A 
ATOM     46  C   UNL A   1      46.635  24.887  27.780  1.00  0.00     0.031 C 
ATOM     47  C   UNL A   1      39.917  26.369  28.262  1.00  0.00     0.029 A 
ATOM     48  C   UNL A   1      40.833  27.452  28.600  1.00  0.00     0.049 A 
ATOM     49  H   UNL A   1      42.914  27.425  28.525  1.00  0.00     0.167 HD
ATOM     50  C   UNL A   1      47.282  27.169  28.480  1.00  0.00     0.031 A 
ATOM     51  C   UNL A   1      40.470  28.676  29.026  1.00  0.00     0.031 A 
ATOM     52  C   UNL A   1      46.989  28.524  28.864  1.00  0.00     0.049 A 
ATOM     53  C   UNL A   1      41.534  29.693  29.329  1.00  0.00     0.074 A 
ATOM     54  C   UNL A   1      47.873  29.558  29.118  1.00  0.00     0.029 A 
ATOM     55  N   UNL A   1      45.713  29.031  29.044  1.00  0.00    -0.354 N 
ATOM     56  N   UNL A   1      42.837  29.572  29.255  1.00  0.00    -0.248 NA
ATOM     57  C   UNL A   1      41.075  31.020  29.763  1.00  0.00     0.031 C 
ATOM     58  C   UNL A   1      47.130  30.683  29.489  1.00  0.00     0.029 A 
ATOM     59  C   UNL A   1      45.784  30.360  29.422  1.00  0.00     0.049 A 
ATOM     60  H   UNL A   1      44.879  28.521  28.923  1.00  0.00     0.167 HD
ATOM     61  C   UNL A   1      43.353  30.813  29.603  1.00  0.00     0.074 A 
ATOM     62  C   UNL A   1      42.222  31.676  29.878  1.00  0.00     0.031 C 
ATOM     63  C   UNL A   1      44.647  31.204  29.684  1.00  0.00     0.031 A 
BRANCH  50  64
ATOM     64  C   UNL A   1      48.719  26.742  28.391  1.00  0.00    -0.014 A 
ATOM     65  C   UNL A   1      49.390  26.217  29.507  1.00  0.00     0.009 A 
ATOM     66  C   UNL A   1      49.405  26.848  27.171  1.00  0.00     0.009 A 
ATOM     67  C   UNL A   1      50.731  25.841  29.413  1.00  0.00     0.001 A 
ATOM     68  C   UNL A   1      50.738  26.445  27.073  1.00  0.00     0.001 A 
ATOM     69  C   UNL A   1      51.403  25.952  28.195  1.00  0.00     0.000 A 
ENDBRANCH  50  64
BRANCH  51  70
ATOM     70  C   UNL A   1      39.032  29.020  29.163  1.00  0.00    -0.014 A 
ATOM     71  C   UNL A   1      38.306  29.482  28.054  1.00  0.00     0.009 A 
ATOM     72  C   UNL A   1      38.378  28.893  30.398  1.00  0.00     0.009 A 
ATOM     73  C   UNL A   1      36.961  29.835  28.186  1.00  0.00     0.001 A 
ATOM     74  C   UNL A   1      37.026  29.223  30.520  1.00  0.00     0.001 A 
ATOM     75  C   UNL A   1      36.322  29.703  29.417  1.00  0.00     0.000 A 
ENDBRANCH  51  70
BRANCH  63  76
ATOM     76  C   UNL A   1      44.911  32.636  30.048  1.00  0.00    -0.014 A 
ATOM     77  C   UNL A   1      45.089  33.027  31.383  1.00  0.00     0.009 A 
ATOM     78  C   UNL A   1      45.031  33.597  29.032  1.00  0.00     0.009 A 
ATOM     79  C   UNL A   1      45.357  34.361  31.696  1.00  0.00     0.001 A 
ATOM     80  C   UNL A   1      45.323  34.924  29.345  1.00  0.00     0.001 A 
ATOM     81  C   UNL A   1      45.479  35.306  30.677  1.00  0.00     0.000 A 
ENDBRANCH  63  76
ENDBRANCH  37  38
ENDBRANCH  29  32
ENDBRANCH  27  28
ENDBRANCH  26  27
ENDBRANCH   1  26
TORSDOF 14
ENDMDL
MODEL 3
REMARK VINA RESULT:     -11.2      2.639      7.765
REMARK SMILES Cc1cc(S(=O)(=O)Nc2ccc(F)c(F)c2)sc1C(=O)NCCCCNC(=O)c1ccc(-c2c3nc(c(-c4ccccc4)c4ccc([nH]4)c(-c4ccccc4)c4nc(c(-c5ccccc5)c5ccc2[nH]5)C=C4)C=C3)cc1
REMARK SMILES IDX 23 1 22 2 21 3 19 4 20 5 18 7 1 8 2 9 3 10 4 11 17 12 5 13
REMARK SMILES IDX 6 14 7 15 8 16 9 18 10 19 16 20 11 21 14 22 12 23 15 24
REMARK SMILES IDX 13 25 24 26 25 27 26 28 27 29 28 31 29 32 30 33 76 34 31 35
REMARK SMILES IDX 75 36 32 37 33 38 34 39 69 40 35 41 74 42 68 43 70 44 36 45
REMARK SMILES IDX 73 46 67 47 66 48 37 50 59 51 44 52 58 53 45 54 48 55 57 56
REMARK SMILES IDX 71 57 46 58 47 59 56 61 72 62 49 63 38 64 39 65 43 66 40 67
REMARK SMILES IDX 42 68 41 69 60 70 61 71 65 72 62 73 64 74 63 75 50 76 51 77
REMARK SMILES IDX 55 78 52 79 54 80 53 81
REMARK H PARENT 21 6 8 17 26 30 70 49 48 60
REMARK Flexibility Score: inf
ROOT
ATOM      1  C   UNL A   1      36.273  20.055  24.950  1.00  0.00     0.023 C 
ENDROOT
BRANCH   1   2
ATOM      2  C   UNL A   1      34.919  20.765  25.044  1.00  0.00     0.116 C 
BRANCH   2   3
ATOM      3  N   UNL A   1      34.679  21.206  26.393  1.00  0.00    -0.351 N 
ATOM      4  C   UNL A   1      33.907  22.188  26.951  1.00  0.00     0.261 C 
ATOM      5  O   UNL A   1      33.976  22.192  28.188  1.00  0.00    -0.268 OA
ATOM      6  H   UNL A   1      35.180  20.685  27.063  1.00  0.00     0.163 HD
BRANCH   4   7
ATOM      7  C   UNL A   1      33.078  23.162  26.230  1.00  0.00     0.096 A 
ATOM      8  C   UNL A   1      30.496  22.965  26.705  1.00  0.00     0.046 C 
ATOM      9  C   UNL A   1      31.726  23.456  26.033  1.00  0.00    -0.026 A 
ATOM     10  C   UNL A   1      31.555  24.325  24.891  1.00  0.00     0.038 A 
ATOM     11  C   UNL A   1      32.732  24.734  24.312  1.00  0.00     0.141 A 
ATOM     12  S   UNL A   1      34.032  24.296  25.304  1.00  0.00    -0.116 S 
BRANCH  11  13
ATOM     13  S   UNL A   1      33.057  25.727  22.878  1.00  0.00     0.271 S 
ATOM     14  O   UNL A   1      34.088  24.994  22.172  1.00  0.00    -0.200 OA
ATOM     15  O   UNL A   1      31.769  25.956  22.258  1.00  0.00    -0.200 OA
BRANCH  13  16
ATOM     16  N   UNL A   1      33.739  27.247  23.212  1.00  0.00    -0.279 N 
ATOM     17  H   UNL A   1      34.526  27.558  22.709  1.00  0.00     0.180 HD
BRANCH  16  18
ATOM     18  C   UNL A   1      33.165  28.069  24.225  1.00  0.00     0.052 A 
ATOM     19  C   UNL A   1      33.753  28.041  25.496  1.00  0.00     0.030 A 
ATOM     20  C   UNL A   1      32.043  28.860  23.985  1.00  0.00     0.069 A 
ATOM     21  C   UNL A   1      33.218  28.805  26.535  1.00  0.00     0.044 A 
ATOM     22  C   UNL A   1      31.529  29.633  25.024  1.00  0.00     0.160 A 
ATOM     23  C   UNL A   1      32.110  29.605  26.289  1.00  0.00     0.158 A 
ATOM     24  F   UNL A   1      30.465  30.417  24.795  1.00  0.00    -0.204 F 
ATOM     25  F   UNL A   1      31.608  30.356  27.280  1.00  0.00    -0.204 F 
ENDBRANCH  16  18
ENDBRANCH  13  16
ENDBRANCH  11  13
ENDBRANCH   4   7
ENDBRANCH   2   3
ENDBRANCH   1   2
BRANCH   1  26
ATOM     26  C   UNL A   1      37.475  20.948  24.657  1.00  0.00     0.023 C 
BRANCH  26  27
ATOM     27  C   UNL A   1      38.549  20.931  25.736  1.00  0.00     0.116 C 
BRANCH  27  28
ATOM     28  N   UNL A   1      39.480  19.816  25.631  1.00  0.00    -0.352 N 
ATOM     29  C   UNL A   1      40.810  19.784  25.989  1.00  0.00     0.251 C 
ATOM     30  H   UNL A   1      39.113  18.982  25.258  1.00  0.00     0.163 HD
ATOM     31  O   UNL A   1      41.493  18.798  25.791  1.00  0.00    -0.269 OA
BRANCH  29  32
ATOM     32  C   UNL A   1      41.401  21.009  26.564  1.00  0.00     0.039 A 
ATOM     33  C   UNL A   1      41.973  21.944  25.700  1.00  0.00     0.014 A 
ATOM     34  C   UNL A   1      41.291  21.268  27.932  1.00  0.00     0.014 A 
ATOM     35  C   UNL A   1      42.363  23.185  26.201  1.00  0.00     0.010 A 
ATOM     36  C   UNL A   1      41.606  22.532  28.412  1.00  0.00     0.010 A 
ATOM     37  C   UNL A   1      42.137  23.503  27.551  1.00  0.00    -0.014 A 
BRANCH  37  38
ATOM     38  C   UNL A   1      42.441  24.851  28.084  1.00  0.00     0.031 A 
ATOM     39  C   UNL A   1      43.836  25.180  28.532  1.00  0.00     0.074 A 
ATOM     40  C   UNL A   1      41.447  25.747  28.240  1.00  0.00     0.049 A 
ATOM     41  N   UNL A   1      44.284  26.274  29.094  1.00  0.00    -0.248 NA
ATOM     42  C   UNL A   1      44.854  24.133  28.354  1.00  0.00     0.031 C 
ATOM     43  C   UNL A   1      40.041  25.527  27.891  1.00  0.00     0.029 A 
ATOM     44  N   UNL A   1      41.469  27.023  28.743  1.00  0.00    -0.354 N 
ATOM     45  C   UNL A   1      45.627  26.036  29.357  1.00  0.00     0.074 A 
ATOM     46  C   UNL A   1      45.909  24.681  28.939  1.00  0.00     0.031 C 
ATOM     47  C   UNL A   1      39.343  26.642  28.164  1.00  0.00     0.029 A 
ATOM     48  C   UNL A   1      40.240  27.638  28.738  1.00  0.00     0.049 A 
ATOM     49  H   UNL A   1      42.287  27.457  29.075  1.00  0.00     0.167 HD
ATOM     50  C   UNL A   1      46.549  26.877  29.880  1.00  0.00     0.031 A 
ATOM     51  C   UNL A   1      39.880  28.866  29.152  1.00  0.00     0.031 A 
ATOM     52  C   UNL A   1      46.274  28.232  30.274  1.00  0.00     0.049 A 
ATOM     53  C   UNL A   1      40.924  29.787  29.716  1.00  0.00     0.074 A 
ATOM     54  C   UNL A   1      47.153  29.185  30.756  1.00  0.00     0.029 A 
ATOM     55  N   UNL A   1      45.023  28.825  30.227  1.00  0.00    -0.354 N 
ATOM     56  N   UNL A   1      42.205  29.571  29.894  1.00  0.00    -0.248 NA
ATOM     57  C   UNL A   1      40.475  31.126  30.124  1.00  0.00     0.031 C 
ATOM     58  C   UNL A   1      46.426  30.346  31.035  1.00  0.00     0.029 A 
ATOM     59  C   UNL A   1      45.103  30.129  30.685  1.00  0.00     0.049 A 
ATOM     60  H   UNL A   1      44.199  28.385  29.914  1.00  0.00     0.167 HD
ATOM     61  C   UNL A   1      42.720  30.754  30.407  1.00  0.00     0.074 A 
ATOM     62  C   UNL A   1      41.616  31.687  30.501  1.00  0.00     0.031 C 
ATOM     63  C   UNL A   1      43.994  31.043  30.764  1.00  0.00     0.031 A 
BRANCH  50  64
ATOM     64  C   UNL A   1      47.944  26.347  30.053  1.00  0.00    -0.014 A 
ATOM     65  C   UNL A   1      48.357  25.778  31.268  1.00  0.00     0.009 A 
ATOM     66  C   UNL A   1      48.849  26.399  28.983  1.00  0.00     0.009 A 
ATOM     67  C   UNL A   1      49.662  25.307  31.420  1.00  0.00     0.001 A 
ATOM     68  C   UNL A   1      50.145  25.902  29.127  1.00  0.00     0.001 A 
ATOM     69  C   UNL A   1      50.554  25.365  30.348  1.00  0.00     0.000 A 
ENDBRANCH  50  64
BRANCH  51  70
ATOM     70  C   UNL A   1      38.468  29.311  29.020  1.00  0.00    -0.014 A 
ATOM     71  C   UNL A   1      37.991  29.796  27.793  1.00  0.00     0.009 A 
ATOM     72  C   UNL A   1      37.595  29.258  30.116  1.00  0.00     0.009 A 
ATOM     73  C   UNL A   1      36.673  30.244  27.674  1.00  0.00     0.001 A 
ATOM     74  C   UNL A   1      36.270  29.683  29.987  1.00  0.00     0.001 A 
ATOM     75  C   UNL A   1      35.813  30.184  28.769  1.00  0.00     0.000 A 
ENDBRANCH  51  70
BRANCH  63  76
ATOM     76  C   UNL A   1      44.272  32.435  31.253  1.00  0.00    -0.014 A 
ATOM     77  C   UNL A   1      44.160  32.765  32.611  1.00  0.00     0.009 A 
ATOM     78  C   UNL A   1      44.700  33.415  30.343  1.00  0.00     0.009 A 
ATOM     79  C   UNL A   1      44.446  34.061  33.046  1.00  0.00     0.001 A 
ATOM     80  C   UNL A   1      45.009  34.702  30.784  1.00  0.00     0.001 A 
ATOM     81  C   UNL A   1      44.875  35.025  32.134  1.00  0.00     0.000 A 
ENDBRANCH  63  76
ENDBRANCH  37  38
ENDBRANCH  29  32
ENDBRANCH  27  28
ENDBRANCH  26  27
ENDBRANCH   1  26
TORSDOF 14
ENDMDL
