MODEL 1
REMARK VINA RESULT:     -12.1      0.000      0.000
REMARK SMILES O=C(NCCCCNC(=O)[C@H]1[C@@H](C(=O)Nc2ccccc2-c2ccccc2)[C@@H]2C=C[C@H]1O2)c1ccc(-c2c3nc(c(-c4ccccc4)c4ccc([nH]4)c(-c4ccccc4)c4nc(c(-c5ccccc5)c5ccc2[nH]5)C=C4)C=C3)cc1
REMARK SMILES IDX 6 1 5 2 4 3 3 4 1 5 2 6 33 8 34 9 80 10 35 11 79 12 36 13
REMARK SMILES IDX 37 14 38 15 73 16 39 17 78 18 72 19 74 20 40 21 77 22 71 23
REMARK SMILES IDX 70 24 41 26 63 27 48 28 62 29 49 30 52 31 61 32 75 33 50 34
REMARK SMILES IDX 51 35 60 37 76 38 53 39 42 40 43 41 47 42 44 43 46 44 45 45
REMARK SMILES IDX 64 46 65 47 69 48 66 49 68 50 67 51 54 52 55 53 59 54 56 55
REMARK SMILES IDX 58 56 57 57 7 58 8 59 9 60 10 62 11 63 12 64 31 65 28 66
REMARK SMILES IDX 30 67 32 68 29 69 13 70 14 71 15 72 16 74 17 75 21 76 18 77
REMARK SMILES IDX 20 78 19 79 22 80 23 81 27 82 24 83 26 84 25 85
REMARK H PARENT 3 7 74 25 52 36 8 61 15 73
REMARK Flexibility Score: inf
ROOT
ATOM      1  C   UNL A   1      36.839  20.470  25.049  1.00  0.00     0.023 C 
ENDROOT
BRANCH   1   2
ATOM      2  C   UNL A   1      38.227  19.897  24.769  1.00  0.00     0.023 C 
BRANCH   2   3
ATOM      3  C   UNL A   1      39.216  20.027  25.915  1.00  0.00     0.116 C 
BRANCH   3   4
ATOM      4  N   UNL A   1      40.270  19.025  25.880  1.00  0.00    -0.352 N 
ATOM      5  O   UNL A   1      42.405  18.290  25.957  1.00  0.00    -0.269 OA
ATOM      6  C   UNL A   1      41.616  19.205  26.101  1.00  0.00     0.251 C 
ATOM      7  H   UNL A   1      39.985  18.106  25.673  1.00  0.00     0.163 HD
BRANCH   6   8
ATOM      8  C   UNL A   1      42.083  20.551  26.483  1.00  0.00     0.039 A 
ATOM      9  C   UNL A   1      42.137  20.921  27.829  1.00  0.00     0.014 A 
ATOM     10  C   UNL A   1      42.417  21.459  25.476  1.00  0.00     0.014 A 
ATOM     11  C   UNL A   1      42.413  22.239  28.164  1.00  0.00     0.010 A 
ATOM     12  C   UNL A   1      42.773  22.763  25.820  1.00  0.00     0.010 A 
ATOM     13  C   UNL A   1      42.755  23.165  27.165  1.00  0.00    -0.014 A 
BRANCH  13  14
ATOM     14  C   UNL A   1      43.182  24.526  27.563  1.00  0.00     0.031 A 
ATOM     15  C   UNL A   1      44.620  24.946  27.497  1.00  0.00     0.074 A 
ATOM     16  C   UNL A   1      42.233  25.389  27.971  1.00  0.00     0.049 A 
ATOM     17  N   UNL A   1      45.148  26.104  27.801  1.00  0.00    -0.248 NA
ATOM     18  C   UNL A   1      45.593  23.940  27.043  1.00  0.00     0.031 C 
ATOM     19  C   UNL A   1      40.803  25.081  28.077  1.00  0.00     0.029 A 
ATOM     20  N   UNL A   1      42.318  26.702  28.350  1.00  0.00    -0.354 N 
ATOM     21  C   UNL A   1      46.515  25.965  27.591  1.00  0.00     0.074 A 
ATOM     22  C   UNL A   1      46.738  24.603  27.155  1.00  0.00     0.031 C 
ATOM     23  C   UNL A   1      40.141  26.187  28.443  1.00  0.00     0.029 A 
ATOM     24  C   UNL A   1      41.103  27.259  28.660  1.00  0.00     0.049 A 
ATOM     25  H   UNL A   1      43.168  27.197  28.394  1.00  0.00     0.167 HD
ATOM     26  C   UNL A   1      47.489  26.893  27.749  1.00  0.00     0.031 A 
ATOM     27  C   UNL A   1      40.796  28.496  29.091  1.00  0.00     0.031 A 
ATOM     28  C   UNL A   1      47.257  28.245  28.185  1.00  0.00     0.049 A 
ATOM     29  C   UNL A   1      41.900  29.489  29.283  1.00  0.00     0.074 A 
ATOM     30  C   UNL A   1      48.175  29.268  28.352  1.00  0.00     0.029 A 
ATOM     31  N   UNL A   1      46.017  28.762  28.528  1.00  0.00    -0.354 N 
ATOM     32  N   UNL A   1      43.183  29.349  29.056  1.00  0.00    -0.248 NA
ATOM     33  C   UNL A   1      41.514  30.811  29.792  1.00  0.00     0.031 C 
ATOM     34  C   UNL A   1      47.497  30.390  28.840  1.00  0.00     0.029 A 
ATOM     35  C   UNL A   1      46.149  30.082  28.928  1.00  0.00     0.049 A 
ATOM     36  H   UNL A   1      45.168  28.265  28.492  1.00  0.00     0.167 HD
ATOM     37  C   UNL A   1      43.758  30.566  29.385  1.00  0.00     0.074 A 
ATOM     38  C   UNL A   1      42.679  31.440  29.802  1.00  0.00     0.031 C 
ATOM     39  C   UNL A   1      45.063  30.929  29.351  1.00  0.00     0.031 A 
BRANCH  26  40
ATOM     40  C   UNL A   1      48.905  26.470  27.473  1.00  0.00    -0.014 A 
ATOM     41  C   UNL A   1      49.740  26.005  28.501  1.00  0.00     0.009 A 
ATOM     42  C   UNL A   1      49.392  26.482  26.157  1.00  0.00     0.009 A 
ATOM     43  C   UNL A   1      51.043  25.585  28.218  1.00  0.00     0.001 A 
ATOM     44  C   UNL A   1      50.686  26.038  25.874  1.00  0.00     0.001 A 
ATOM     45  C   UNL A   1      51.512  25.597  26.906  1.00  0.00     0.000 A 
ENDBRANCH  26  40
BRANCH  27  46
ATOM     46  C   UNL A   1      39.383  28.844  29.384  1.00  0.00    -0.014 A 
ATOM     47  C   UNL A   1      38.825  28.568  30.640  1.00  0.00     0.009 A 
ATOM     48  C   UNL A   1      38.592  29.475  28.410  1.00  0.00     0.009 A 
ATOM     49  C   UNL A   1      37.495  28.900  30.909  1.00  0.00     0.001 A 
ATOM     50  C   UNL A   1      37.273  29.833  28.693  1.00  0.00     0.001 A 
ATOM     51  C   UNL A   1      36.723  29.536  29.938  1.00  0.00     0.000 A 
ENDBRANCH  27  46
BRANCH  39  52
ATOM     52  C   UNL A   1      45.382  32.337  29.762  1.00  0.00    -0.014 A 
ATOM     53  C   UNL A   1      45.700  32.649  31.093  1.00  0.00     0.009 A 
ATOM     54  C   UNL A   1      45.374  33.360  28.803  1.00  0.00     0.009 A 
ATOM     55  C   UNL A   1      45.967  33.968  31.462  1.00  0.00     0.001 A 
ATOM     56  C   UNL A   1      45.669  34.674  29.170  1.00  0.00     0.001 A 
ATOM     57  C   UNL A   1      45.955  34.977  30.500  1.00  0.00     0.000 A 
ENDBRANCH  39  52
ENDBRANCH  13  14
ENDBRANCH   6   8
ENDBRANCH   3   4
ENDBRANCH   2   3
ENDBRANCH   1   2
BRANCH   1  58
ATOM     58  C   UNL A   1      36.474  21.702  24.218  1.00  0.00     0.116 C 
BRANCH  58  59
ATOM     59  N   UNL A   1      36.925  22.936  24.824  1.00  0.00    -0.356 N 
ATOM     60  C   UNL A   1      36.447  23.667  25.863  1.00  0.00     0.227 C 
ATOM     61  H   UNL A   1      37.730  23.317  24.405  1.00  0.00     0.163 HD
ATOM     62  O   UNL A   1      37.292  24.367  26.435  1.00  0.00    -0.275 OA
BRANCH  60  63
ATOM     63  C   UNL A   1      35.064  23.494  26.469  1.00  0.00     0.127 C 
ATOM     64  C   UNL A   1      33.943  24.565  26.111  1.00  0.00     0.127 C 
ATOM     65  C   UNL A   1      34.276  22.186  26.281  1.00  0.00     0.155 C 
ATOM     66  C   UNL A   1      32.708  23.650  26.053  1.00  0.00     0.155 C 
ATOM     67  C   UNL A   1      33.392  22.018  27.482  1.00  0.00     0.004 C 
ATOM     68  O   UNL A   1      33.278  22.548  25.305  1.00  0.00    -0.365 OA
ATOM     69  C   UNL A   1      32.445  22.953  27.362  1.00  0.00     0.004 C 
BRANCH  64  70
ATOM     70  C   UNL A   1      34.096  25.345  24.798  1.00  0.00     0.231 C 
ATOM     71  O   UNL A   1      34.433  24.803  23.740  1.00  0.00    -0.274 OA
ATOM     72  N   UNL A   1      33.846  26.680  24.654  1.00  0.00    -0.325 N 
ATOM     73  H   UNL A   1      34.011  26.997  23.737  1.00  0.00     0.169 HD
BRANCH  72  74
ATOM     74  C   UNL A   1      33.407  27.704  25.510  1.00  0.00     0.049 A 
ATOM     75  C   UNL A   1      34.432  28.250  26.307  1.00  0.00     0.027 A 
ATOM     76  C   UNL A   1      32.092  28.214  25.603  1.00  0.00     0.005 A 
ATOM     77  C   UNL A   1      34.203  29.359  27.117  1.00  0.00     0.002 A 
ATOM     78  C   UNL A   1      31.888  29.327  26.452  1.00  0.00     0.011 A 
ATOM     79  C   UNL A   1      32.931  29.905  27.181  1.00  0.00     0.001 A 
BRANCH  76  80
ATOM     80  C   UNL A   1      30.931  27.637  24.895  1.00  0.00    -0.016 A 
ATOM     81  C   UNL A   1      30.373  26.412  25.306  1.00  0.00     0.009 A 
ATOM     82  C   UNL A   1      30.314  28.314  23.830  1.00  0.00     0.009 A 
ATOM     83  C   UNL A   1      29.197  25.924  24.732  1.00  0.00     0.001 A 
ATOM     84  C   UNL A   1      29.136  27.827  23.255  1.00  0.00     0.001 A 
ATOM     85  C   UNL A   1      28.571  26.642  23.717  1.00  0.00     0.000 A 
ENDBRANCH  76  80
ENDBRANCH  72  74
ENDBRANCH  64  70
ENDBRANCH  60  63
ENDBRANCH  58  59
ENDBRANCH   1  58
TORSDOF 14
ENDMDL
MODEL 2
REMARK VINA RESULT:     -12.1      4.432      9.725
REMARK SMILES O=C(NCCCCNC(=O)[C@H]1[C@@H](C(=O)Nc2ccccc2-c2ccccc2)[C@@H]2C=C[C@H]1O2)c1ccc(-c2c3nc(c(-c4ccccc4)c4ccc([nH]4)c(-c4ccccc4)c4nc(c(-c5ccccc5)c5ccc2[nH]5)C=C4)C=C3)cc1
REMARK SMILES IDX 6 1 5 2 4 3 3 4 1 5 2 6 33 8 34 9 80 10 35 11 79 12 36 13
REMARK SMILES IDX 37 14 38 15 73 16 39 17 78 18 72 19 74 20 40 21 77 22 71 23
REMARK SMILES IDX 70 24 41 26 63 27 48 28 62 29 49 30 52 31 61 32 75 33 50 34
REMARK SMILES IDX 51 35 60 37 76 38 53 39 42 40 43 41 47 42 44 43 46 44 45 45
REMARK SMILES IDX 64 46 65 47 69 48 66 49 68 50 67 51 54 52 55 53 59 54 56 55
REMARK SMILES IDX 58 56 57 57 7 58 8 59 9 60 10 62 11 63 12 64 31 65 28 66
REMARK SMILES IDX 30 67 32 68 29 69 13 70 14 71 15 72 16 74 17 75 21 76 18 77
REMARK SMILES IDX 20 78 19 79 22 80 23 81 27 82 24 83 26 84 25 85
REMARK H PARENT 3 7 74 25 52 36 8 61 15 73
REMARK Flexibility Score: inf
ROOT
ATOM      1  C   UNL A   1      31.671  30.736  25.958  1.00  0.00     0.023 C 
ENDROOT
BRANCH   1   2
ATOM      2  C   UNL A   1      31.408  31.955  26.840  1.00  0.00     0.023 C 
BRANCH   2   3
ATOM      3  C   UNL A   1      32.640  32.779  27.175  1.00  0.00     0.116 C 
BRANCH   3   4
ATOM      4  N   UNL A   1      32.323  34.120  27.641  1.00  0.00    -0.352 N 
ATOM      5  O   UNL A   1      32.555  35.943  28.956  1.00  0.00    -0.269 OA
ATOM      6  C   UNL A   1      32.978  34.860  28.598  1.00  0.00     0.251 C 
ATOM      7  H   UNL A   1      31.543  34.551  27.221  1.00  0.00     0.163 HD
BRANCH   6   8
ATOM      8  C   UNL A   1      34.193  34.286  29.208  1.00  0.00     0.039 A 
ATOM      9  C   UNL A   1      35.448  34.544  28.651  1.00  0.00     0.014 A 
ATOM     10  C   UNL A   1      34.058  33.445  30.313  1.00  0.00     0.014 A 
ATOM     11  C   UNL A   1      36.559  33.864  29.129  1.00  0.00     0.010 A 
ATOM     12  C   UNL A   1      35.190  32.824  30.843  1.00  0.00     0.010 A 
ATOM     13  C   UNL A   1      36.443  33.016  30.242  1.00  0.00    -0.014 A 
BRANCH  13  14
ATOM     14  C   UNL A   1      37.668  32.414  30.817  1.00  0.00     0.031 A 
ATOM     15  C   UNL A   1      38.277  32.938  32.083  1.00  0.00     0.074 A 
ATOM     16  C   UNL A   1      38.214  31.363  30.176  1.00  0.00     0.049 A 
ATOM     17  N   UNL A   1      39.340  32.511  32.717  1.00  0.00    -0.248 NA
ATOM     18  C   UNL A   1      37.620  34.091  32.718  1.00  0.00     0.031 C 
ATOM     19  C   UNL A   1      37.703  30.777  28.932  1.00  0.00     0.029 A 
ATOM     20  N   UNL A   1      39.298  30.588  30.488  1.00  0.00    -0.354 N 
ATOM     21  C   UNL A   1      39.491  33.350  33.814  1.00  0.00     0.074 A 
ATOM     22  C   UNL A   1      38.422  34.324  33.749  1.00  0.00     0.031 C 
ATOM     23  C   UNL A   1      38.443  29.705  28.616  1.00  0.00     0.029 A 
ATOM     24  C   UNL A   1      39.513  29.568  29.594  1.00  0.00     0.049 A 
ATOM     25  H   UNL A   1      39.866  30.746  31.276  1.00  0.00     0.167 HD
ATOM     26  C   UNL A   1      40.435  33.306  34.784  1.00  0.00     0.031 A 
ATOM     27  C   UNL A   1      40.479  28.634  29.554  1.00  0.00     0.031 A 
ATOM     28  C   UNL A   1      41.496  32.333  34.838  1.00  0.00     0.049 A 
ATOM     29  C   UNL A   1      41.526  28.630  30.626  1.00  0.00     0.074 A 
ATOM     30  C   UNL A   1      42.487  32.189  35.794  1.00  0.00     0.029 A 
ATOM     31  N   UNL A   1      41.704  31.339  33.893  1.00  0.00    -0.354 N 
ATOM     32  N   UNL A   1      41.639  29.414  31.670  1.00  0.00    -0.248 NA
ATOM     33  C   UNL A   1      42.579  27.614  30.513  1.00  0.00     0.031 C 
ATOM     34  C   UNL A   1      43.323  31.137  35.403  1.00  0.00     0.029 A 
ATOM     35  C   UNL A   1      42.823  30.594  34.231  1.00  0.00     0.049 A 
ATOM     36  H   UNL A   1      41.142  31.186  33.100  1.00  0.00     0.167 HD
ATOM     37  C   UNL A   1      42.770  28.982  32.345  1.00  0.00     0.074 A 
ATOM     38  C   UNL A   1      43.291  27.849  31.606  1.00  0.00     0.031 C 
ATOM     39  C   UNL A   1      43.331  29.479  33.473  1.00  0.00     0.031 A 
BRANCH  26  40
ATOM     40  C   UNL A   1      40.383  34.358  35.856  1.00  0.00    -0.014 A 
ATOM     41  C   UNL A   1      41.062  35.578  35.713  1.00  0.00     0.009 A 
ATOM     42  C   UNL A   1      39.596  34.148  36.999  1.00  0.00     0.009 A 
ATOM     43  C   UNL A   1      40.972  36.557  36.707  1.00  0.00     0.001 A 
ATOM     44  C   UNL A   1      39.490  35.138  37.979  1.00  0.00     0.001 A 
ATOM     45  C   UNL A   1      40.183  36.338  37.836  1.00  0.00     0.000 A 
ENDBRANCH  26  40
BRANCH  27  46
ATOM     46  C   UNL A   1      40.502  27.644  28.449  1.00  0.00    -0.014 A 
ATOM     47  C   UNL A   1      41.140  27.941  27.237  1.00  0.00     0.009 A 
ATOM     48  C   UNL A   1      39.901  26.385  28.612  1.00  0.00     0.009 A 
ATOM     49  C   UNL A   1      41.158  27.004  26.201  1.00  0.00     0.001 A 
ATOM     50  C   UNL A   1      39.948  25.440  27.586  1.00  0.00     0.001 A 
ATOM     51  C   UNL A   1      40.568  25.754  26.379  1.00  0.00     0.000 A 
ENDBRANCH  27  46
BRANCH  39  52
ATOM     52  C   UNL A   1      44.562  28.783  33.976  1.00  0.00    -0.014 A 
ATOM     53  C   UNL A   1      44.470  27.698  34.862  1.00  0.00     0.009 A 
ATOM     54  C   UNL A   1      45.827  29.214  33.551  1.00  0.00     0.009 A 
ATOM     55  C   UNL A   1      45.626  27.080  35.340  1.00  0.00     0.001 A 
ATOM     56  C   UNL A   1      46.981  28.576  34.010  1.00  0.00     0.001 A 
ATOM     57  C   UNL A   1      46.879  27.517  34.911  1.00  0.00     0.000 A 
ENDBRANCH  39  52
ENDBRANCH  13  14
ENDBRANCH   6   8
ENDBRANCH   3   4
ENDBRANCH   2   3
ENDBRANCH   1   2
BRANCH   1  58
ATOM     58  C   UNL A   1      31.659  29.395  26.695  1.00  0.00     0.116 C 
BRANCH  58  59
ATOM     59  N   UNL A   1      32.982  28.964  27.088  1.00  0.00    -0.356 N 
ATOM     60  C   UNL A   1      34.045  28.519  26.371  1.00  0.00     0.227 C 
ATOM     61  H   UNL A   1      33.142  29.000  28.059  1.00  0.00     0.163 HD
ATOM     62  O   UNL A   1      35.144  28.696  26.911  1.00  0.00    -0.275 OA
BRANCH  60  63
ATOM     63  C   UNL A   1      33.972  28.063  24.922  1.00  0.00     0.127 C 
ATOM     64  C   UNL A   1      33.990  26.502  24.621  1.00  0.00     0.127 C 
ATOM     65  C   UNL A   1      32.821  28.515  24.008  1.00  0.00     0.155 C 
ATOM     66  C   UNL A   1      33.029  26.450  23.421  1.00  0.00     0.155 C 
ATOM     67  C   UNL A   1      33.349  28.549  22.604  1.00  0.00     0.004 C 
ATOM     68  O   UNL A   1      31.997  27.335  23.920  1.00  0.00    -0.365 OA
ATOM     69  C   UNL A   1      33.518  27.269  22.256  1.00  0.00     0.004 C 
BRANCH  64  70
ATOM     70  C   UNL A   1      33.513  25.555  25.732  1.00  0.00     0.231 C 
ATOM     71  O   UNL A   1      32.495  25.773  26.396  1.00  0.00    -0.274 OA
ATOM     72  N   UNL A   1      34.126  24.383  26.069  1.00  0.00    -0.325 N 
ATOM     73  H   UNL A   1      33.675  23.922  26.813  1.00  0.00     0.169 HD
BRANCH  72  74
ATOM     74  C   UNL A   1      35.250  23.681  25.602  1.00  0.00     0.049 A 
ATOM     75  C   UNL A   1      36.463  24.117  26.169  1.00  0.00     0.027 A 
ATOM     76  C   UNL A   1      35.248  22.613  24.676  1.00  0.00     0.005 A 
ATOM     77  C   UNL A   1      37.659  23.450  25.919  1.00  0.00     0.002 A 
ATOM     78  C   UNL A   1      36.482  21.970  24.425  1.00  0.00     0.011 A 
ATOM     79  C   UNL A   1      37.667  22.367  25.054  1.00  0.00     0.001 A 
BRANCH  76  80
ATOM     80  C   UNL A   1      34.048  22.159  23.943  1.00  0.00    -0.016 A 
ATOM     81  C   UNL A   1      33.584  22.860  22.815  1.00  0.00     0.009 A 
ATOM     82  C   UNL A   1      33.366  20.988  24.313  1.00  0.00     0.009 A 
ATOM     83  C   UNL A   1      32.534  22.366  22.037  1.00  0.00     0.001 A 
ATOM     84  C   UNL A   1      32.315  20.492  23.536  1.00  0.00     0.001 A 
ATOM     85  C   UNL A   1      31.911  21.173  22.391  1.00  0.00     0.000 A 
ENDBRANCH  76  80
ENDBRANCH  72  74
ENDBRANCH  64  70
ENDBRANCH  60  63
ENDBRANCH  58  59
ENDBRANCH   1  58
TORSDOF 14
ENDMDL
MODEL 3
REMARK VINA RESULT:     -12.1      0.326      5.754
REMARK SMILES O=C(NCCCCNC(=O)[C@H]1[C@@H](C(=O)Nc2ccccc2-c2ccccc2)[C@@H]2C=C[C@H]1O2)c1ccc(-c2c3nc(c(-c4ccccc4)c4ccc([nH]4)c(-c4ccccc4)c4nc(c(-c5ccccc5)c5ccc2[nH]5)C=C4)C=C3)cc1
REMARK SMILES IDX 6 1 5 2 4 3 3 4 1 5 2 6 33 8 34 9 80 10 35 11 79 12 36 13
REMARK SMILES IDX 37 14 38 15 73 16 39 17 78 18 72 19 74 20 40 21 77 22 71 23
REMARK SMILES IDX 70 24 41 26 63 27 48 28 62 29 49 30 52 31 61 32 75 33 50 34
REMARK SMILES IDX 51 35 60 37 76 38 53 39 42 40 43 41 47 42 44 43 46 44 45 45
REMARK SMILES IDX 64 46 65 47 69 48 66 49 68 50 67 51 54 52 55 53 59 54 56 55
REMARK SMILES IDX 58 56 57 57 7 58 8 59 9 60 10 62 11 63 12 64 31 65 28 66
REMARK SMILES IDX 30 67 32 68 29 69 13 70 14 71 15 72 16 74 17 75 21 76 18 77
REMARK SMILES IDX 20 78 19 79 22 80 23 81 27 82 24 83 26 84 25 85
REMARK H PARENT 3 7 74 25 52 36 8 61 15 73
REMARK Flexibility Score: inf
ROOT
ATOM      1  C   UNL A   1      36.687  20.306  25.020  1.00  0.00     0.023 C 
ENDROOT
BRANCH   1   2
ATOM      2  C   UNL A   1      38.128  19.920  24.690  1.00  0.00     0.023 C 
BRANCH   2   3
ATOM      3  C   UNL A   1      39.118  20.116  25.825  1.00  0.00     0.116 C 
BRANCH   3   4
ATOM      4  N   UNL A   1      40.142  19.085  25.877  1.00  0.00    -0.352 N 
ATOM      5  O   UNL A   1      42.251  18.296  26.067  1.00  0.00    -0.269 OA
ATOM      6  C   UNL A   1      41.484  19.237  26.139  1.00  0.00     0.251 C 
ATOM      7  H   UNL A   1      39.838  18.164  25.703  1.00  0.00     0.163 HD
BRANCH   6   8
ATOM      8  C   UNL A   1      41.977  20.587  26.473  1.00  0.00     0.039 A 
ATOM      9  C   UNL A   1      42.111  20.975  27.808  1.00  0.00     0.014 A 
ATOM     10  C   UNL A   1      42.255  21.479  25.436  1.00  0.00     0.014 A 
ATOM     11  C   UNL A   1      42.409  22.297  28.109  1.00  0.00     0.010 A 
ATOM     12  C   UNL A   1      42.634  22.787  25.741  1.00  0.00     0.010 A 
ATOM     13  C   UNL A   1      42.695  23.208  27.079  1.00  0.00    -0.014 A 
BRANCH  13  14
ATOM     14  C   UNL A   1      43.148  24.572  27.432  1.00  0.00     0.031 A 
ATOM     15  C   UNL A   1      42.185  25.620  27.904  1.00  0.00     0.074 A 
ATOM     16  C   UNL A   1      44.464  24.844  27.333  1.00  0.00     0.049 A 
ATOM     17  N   UNL A   1      42.431  26.855  28.261  1.00  0.00    -0.248 NA
ATOM     18  C   UNL A   1      40.765  25.242  27.981  1.00  0.00     0.031 C 
ATOM     19  C   UNL A   1      45.488  23.897  26.878  1.00  0.00     0.029 A 
ATOM     20  N   UNL A   1      45.169  25.979  27.628  1.00  0.00    -0.354 N 
ATOM     21  C   UNL A   1      41.199  27.408  28.588  1.00  0.00     0.074 A 
ATOM     22  C   UNL A   1      40.204  26.380  28.367  1.00  0.00     0.031 C 
ATOM     23  C   UNL A   1      46.693  24.475  26.973  1.00  0.00     0.029 A 
ATOM     24  C   UNL A   1      46.521  25.846  27.431  1.00  0.00     0.049 A 
ATOM     25  H   UNL A   1      44.748  26.808  27.950  1.00  0.00     0.167 HD
ATOM     26  C   UNL A   1      40.928  28.659  29.032  1.00  0.00     0.031 A 
ATOM     27  C   UNL A   1      47.516  26.738  27.585  1.00  0.00     0.031 A 
ATOM     28  C   UNL A   1      41.926  29.675  29.246  1.00  0.00     0.049 A 
ATOM     29  C   UNL A   1      47.181  28.122  28.050  1.00  0.00     0.074 A 
ATOM     30  C   UNL A   1      41.756  30.965  29.718  1.00  0.00     0.029 A 
ATOM     31  N   UNL A   1      43.281  29.516  28.999  1.00  0.00    -0.354 N 
ATOM     32  N   UNL A   1      46.014  28.620  28.379  1.00  0.00    -0.248 NA
ATOM     33  C   UNL A   1      48.298  29.066  28.163  1.00  0.00     0.031 C 
ATOM     34  C   UNL A   1      43.002  31.602  29.712  1.00  0.00     0.029 A 
ATOM     35  C   UNL A   1      43.956  30.692  29.285  1.00  0.00     0.049 A 
ATOM     36  H   UNL A   1      43.702  28.690  28.668  1.00  0.00     0.167 HD
ATOM     37  C   UNL A   1      46.256  29.934  28.747  1.00  0.00     0.074 A 
ATOM     38  C   UNL A   1      47.686  30.146  28.627  1.00  0.00     0.031 C 
ATOM     39  C   UNL A   1      45.376  30.884  29.145  1.00  0.00     0.031 A 
BRANCH  26  40
ATOM     40  C   UNL A   1      39.490  29.011  29.291  1.00  0.00    -0.014 A 
ATOM     41  C   UNL A   1      38.689  29.585  28.292  1.00  0.00     0.009 A 
ATOM     42  C   UNL A   1      38.914  28.711  30.535  1.00  0.00     0.009 A 
ATOM     43  C   UNL A   1      37.345  29.874  28.544  1.00  0.00     0.001 A 
ATOM     44  C   UNL A   1      37.564  28.978  30.775  1.00  0.00     0.001 A 
ATOM     45  C   UNL A   1      36.783  29.566  29.782  1.00  0.00     0.000 A 
ENDBRANCH  26  40
BRANCH  27  46
ATOM     46  C   UNL A   1      48.913  26.344  27.276  1.00  0.00    -0.014 A 
ATOM     47  C   UNL A   1      49.745  25.821  28.276  1.00  0.00     0.009 A 
ATOM     48  C   UNL A   1      49.414  26.472  25.970  1.00  0.00     0.009 A 
ATOM     49  C   UNL A   1      51.059  25.452  27.977  1.00  0.00     0.001 A 
ATOM     50  C   UNL A   1      50.717  26.073  25.669  1.00  0.00     0.001 A 
ATOM     51  C   UNL A   1      51.541  25.573  26.675  1.00  0.00     0.000 A 
ENDBRANCH  27  46
BRANCH  39  52
ATOM     52  C   UNL A   1      45.947  32.228  29.493  1.00  0.00    -0.014 A 
ATOM     53  C   UNL A   1      46.001  33.260  28.542  1.00  0.00     0.009 A 
ATOM     54  C   UNL A   1      46.426  32.467  30.789  1.00  0.00     0.009 A 
ATOM     55  C   UNL A   1      46.559  34.494  28.874  1.00  0.00     0.001 A 
ATOM     56  C   UNL A   1      46.958  33.712  31.126  1.00  0.00     0.001 A 
ATOM     57  C   UNL A   1      47.033  34.720  30.166  1.00  0.00     0.000 A 
ENDBRANCH  39  52
ENDBRANCH  13  14
ENDBRANCH   6   8
ENDBRANCH   3   4
ENDBRANCH   2   3
ENDBRANCH   1   2
BRANCH   1  58
ATOM     58  C   UNL A   1      36.181  21.564  24.312  1.00  0.00     0.116 C 
BRANCH  58  59
ATOM     59  N   UNL A   1      36.710  22.780  24.891  1.00  0.00    -0.356 N 
ATOM     60  C   UNL A   1      36.276  23.568  25.906  1.00  0.00     0.227 C 
ATOM     61  H   UNL A   1      37.542  23.094  24.469  1.00  0.00     0.163 HD
ATOM     62  O   UNL A   1      37.162  24.223  26.468  1.00  0.00    -0.275 OA
BRANCH  60  63
ATOM     63  C   UNL A   1      34.879  23.505  26.505  1.00  0.00     0.127 C 
ATOM     64  C   UNL A   1      33.856  24.672  26.159  1.00  0.00     0.127 C 
ATOM     65  C   UNL A   1      33.984  22.272  26.294  1.00  0.00     0.155 C 
ATOM     66  C   UNL A   1      32.548  23.867  26.082  1.00  0.00     0.155 C 
ATOM     67  C   UNL A   1      33.083  22.162  27.489  1.00  0.00     0.004 C 
ATOM     68  O   UNL A   1      33.026  22.731  25.320  1.00  0.00    -0.365 OA
ATOM     69  C   UNL A   1      32.219  23.177  27.379  1.00  0.00     0.004 C 
BRANCH  64  70
ATOM     70  C   UNL A   1      34.082  25.456  24.858  1.00  0.00     0.231 C 
ATOM     71  O   UNL A   1      34.457  24.913  23.814  1.00  0.00    -0.274 OA
ATOM     72  N   UNL A   1      33.860  26.795  24.709  1.00  0.00    -0.325 N 
ATOM     73  H   UNL A   1      34.072  27.114  23.803  1.00  0.00     0.169 HD
BRANCH  72  74
ATOM     74  C   UNL A   1      33.399  27.823  25.550  1.00  0.00     0.049 A 
ATOM     75  C   UNL A   1      34.395  28.348  26.395  1.00  0.00     0.027 A 
ATOM     76  C   UNL A   1      32.090  28.354  25.586  1.00  0.00     0.005 A 
ATOM     77  C   UNL A   1      34.148  29.457  27.199  1.00  0.00     0.002 A 
ATOM     78  C   UNL A   1      31.865  29.466  26.430  1.00  0.00     0.011 A 
ATOM     79  C   UNL A   1      32.883  30.024  27.209  1.00  0.00     0.001 A 
BRANCH  76  80
ATOM     80  C   UNL A   1      30.953  27.799  24.823  1.00  0.00    -0.016 A 
ATOM     81  C   UNL A   1      30.415  26.539  25.147  1.00  0.00     0.009 A 
ATOM     82  C   UNL A   1      30.339  28.528  23.792  1.00  0.00     0.009 A 
ATOM     83  C   UNL A   1      29.259  26.065  24.523  1.00  0.00     0.001 A 
ATOM     84  C   UNL A   1      29.181  28.056  23.167  1.00  0.00     0.001 A 
ATOM     85  C   UNL A   1      28.634  26.832  23.544  1.00  0.00     0.000 A 
ENDBRANCH  76  80
ENDBRANCH  72  74
ENDBRANCH  64  70
ENDBRANCH  60  63
ENDBRANCH  58  59
ENDBRANCH   1  58
TORSDOF 14
ENDMDL
