MODEL 1
REMARK VINA RESULT:     -10.8      0.000      0.000
REMARK SMILES [NH3+][C@@]1(C(=O)NCCCCNC(=O)c2ccc(-c3c4nc(c(-c5ccccc5)c5ccc([nH]5)c(-c5ccccc5)c5nc(c(-c6ccccc6)c6ccc3[nH]6)C=C5)C=C4)cc2)CC[N@@H+](Cc2ccc(OCC(=O)N3CCCCC3)cc2)C1
REMARK SMILES IDX 6 1 5 2 3 3 4 4 2 6 61 7 81 8 62 9 63 10 1 12 64 16 65 17
REMARK SMILES IDX 66 18 80 19 67 20 79 21 68 22 69 23 70 24 71 25 72 26 73 27
REMARK SMILES IDX 74 28 78 29 75 30 77 31 76 32 7 33 8 34 9 35 10 36 11 37
REMARK SMILES IDX 12 39 13 40 14 41 60 42 15 43 59 44 16 45 17 46 18 47 53 48
REMARK SMILES IDX 19 49 58 50 52 51 54 52 20 53 57 54 51 55 50 56 21 58 43 59
REMARK SMILES IDX 28 60 42 61 29 62 32 63 41 64 55 65 30 66 31 67 40 69 56 70
REMARK SMILES IDX 33 71 22 72 23 73 27 74 24 75 26 76 25 77 44 78 45 79 49 80
REMARK SMILES IDX 46 81 48 82 47 83 34 84 35 85 39 86 36 87 38 88 37 89
REMARK H PARENT 5 5 63 11 1 13 1 14 1 15 10 38 54 57 32 68
REMARK Flexibility Score: inf
ROOT
ATOM      1  C   UNL A   1      35.768  21.657  24.675  1.00  0.00     0.116 C 
ENDROOT
BRANCH   1   2
ATOM      2  N   UNL A   1      34.344  21.835  24.423  1.00  0.00    -0.350 N 
ATOM      3  C   UNL A   1      33.378  22.706  24.823  1.00  0.00     0.287 C 
ATOM      4  O   UNL A   1      32.356  22.676  24.112  1.00  0.00    -0.268 OA
ATOM      5  H   UNL A   1      33.991  21.152  23.807  1.00  0.00     0.163 HD
BRANCH   3   6
ATOM      6  C   UNL A   1      33.354  23.666  26.081  1.00  0.00     0.228 C 
ATOM      7  C   UNL A   1      32.041  24.309  26.532  1.00  0.00     0.146 C 
ATOM      8  C   UNL A   1      34.204  24.912  25.759  1.00  0.00     0.342 C 
ATOM      9  C   UNL A   1      32.024  25.716  25.894  1.00  0.00     0.270 C 
ATOM     10  N   UNL A   1      33.208  25.709  25.060  1.00  0.00    -0.325 N 
ATOM     11  H   UNL A   1      32.922  25.289  24.176  1.00  0.00     0.348 HD
BRANCH   6  12
ATOM     12  N   UNL A   1      33.954  22.898  27.217  1.00  0.00    -0.340 N 
ATOM     13  H   UNL A   1      33.698  21.914  27.135  1.00  0.00     0.345 HD
ATOM     14  H   UNL A   1      33.603  23.267  28.101  1.00  0.00     0.345 HD
ATOM     15  H   UNL A   1      34.970  22.988  27.190  1.00  0.00     0.345 HD
ENDBRANCH   6  12
BRANCH  10  16
ATOM     16  C   UNL A   1      33.670  26.897  24.348  1.00  0.00     0.299 C 
BRANCH  16  17
ATOM     17  C   UNL A   1      33.468  28.148  25.209  1.00  0.00     0.006 A 
ATOM     18  C   UNL A   1      32.434  29.067  25.067  1.00  0.00     0.013 A 
ATOM     19  C   UNL A   1      34.389  28.414  26.222  1.00  0.00     0.013 A 
ATOM     20  C   UNL A   1      32.309  30.137  25.986  1.00  0.00     0.047 A 
ATOM     21  C   UNL A   1      34.288  29.455  27.126  1.00  0.00     0.047 A 
ATOM     22  C   UNL A   1      33.220  30.313  27.041  1.00  0.00     0.120 A 
BRANCH  22  23
ATOM     23  O   UNL A   1      32.959  31.291  27.957  1.00  0.00    -0.484 OA
BRANCH  23  24
ATOM     24  C   UNL A   1      33.658  32.520  27.832  1.00  0.00     0.329 C 
BRANCH  24  25
ATOM     25  C   UNL A   1      35.140  32.822  28.241  1.00  0.00     0.260 C 
ATOM     26  O   UNL A   1      36.006  32.760  27.357  1.00  0.00    -0.271 OA
ATOM     27  N   UNL A   1      35.462  33.202  29.532  1.00  0.00    -0.340 N 
ATOM     28  C   UNL A   1      36.825  33.648  29.840  1.00  0.00     0.119 C 
ATOM     29  C   UNL A   1      34.567  33.162  30.683  1.00  0.00     0.119 C 
ATOM     30  C   UNL A   1      37.457  32.842  30.975  1.00  0.00     0.022 C 
ATOM     31  C   UNL A   1      35.140  32.233  31.753  1.00  0.00     0.022 C 
ATOM     32  C   UNL A   1      36.529  32.705  32.181  1.00  0.00     0.004 C 
ENDBRANCH  24  25
ENDBRANCH  23  24
ENDBRANCH  22  23
ENDBRANCH  16  17
ENDBRANCH  10  16
ENDBRANCH   3   6
ENDBRANCH   1   2
BRANCH   1  33
ATOM     33  C   UNL A   1      36.267  20.240  25.002  1.00  0.00     0.023 C 
BRANCH  33  34
ATOM     34  C   UNL A   1      37.732  19.892  24.723  1.00  0.00     0.023 C 
BRANCH  34  35
ATOM     35  C   UNL A   1      38.757  20.208  25.795  1.00  0.00     0.116 C 
BRANCH  35  36
ATOM     36  N   UNL A   1      39.810  19.215  25.857  1.00  0.00    -0.352 N 
ATOM     37  C   UNL A   1      41.160  19.386  26.036  1.00  0.00     0.251 C 
ATOM     38  H   UNL A   1      39.514  18.281  25.755  1.00  0.00     0.163 HD
ATOM     39  O   UNL A   1      41.918  18.431  25.839  1.00  0.00    -0.269 OA
BRANCH  37  40
ATOM     40  C   UNL A   1      41.734  20.689  26.455  1.00  0.00     0.039 A 
ATOM     41  C   UNL A   1      41.886  20.954  27.823  1.00  0.00     0.014 A 
ATOM     42  C   UNL A   1      42.055  21.684  25.526  1.00  0.00     0.014 A 
ATOM     43  C   UNL A   1      42.384  22.190  28.253  1.00  0.00     0.010 A 
ATOM     44  C   UNL A   1      42.615  22.890  25.951  1.00  0.00     0.010 A 
ATOM     45  C   UNL A   1      42.765  23.164  27.319  1.00  0.00    -0.014 A 
BRANCH  45  46
ATOM     46  C   UNL A   1      43.267  24.498  27.740  1.00  0.00     0.031 A 
ATOM     47  C   UNL A   1      42.293  25.557  28.183  1.00  0.00     0.074 A 
ATOM     48  C   UNL A   1      44.580  24.786  27.662  1.00  0.00     0.049 A 
ATOM     49  N   UNL A   1      42.513  26.814  28.478  1.00  0.00    -0.248 NA
ATOM     50  C   UNL A   1      40.880  25.154  28.286  1.00  0.00     0.031 C 
ATOM     51  C   UNL A   1      45.629  23.861  27.229  1.00  0.00     0.029 A 
ATOM     52  N   UNL A   1      45.253  25.953  27.928  1.00  0.00    -0.354 N 
ATOM     53  C   UNL A   1      41.266  27.357  28.766  1.00  0.00     0.074 A 
ATOM     54  C   UNL A   1      40.291  26.303  28.582  1.00  0.00     0.031 C 
ATOM     55  C   UNL A   1      46.813  24.493  27.269  1.00  0.00     0.029 A 
ATOM     56  C   UNL A   1      46.604  25.875  27.691  1.00  0.00     0.049 A 
ATOM     57  H   UNL A   1      44.810  26.768  28.257  1.00  0.00     0.167 HD
ATOM     58  C   UNL A   1      40.957  28.616  29.159  1.00  0.00     0.031 A 
ATOM     59  C   UNL A   1      47.564  26.815  27.786  1.00  0.00     0.031 A 
ATOM     60  C   UNL A   1      41.924  29.658  29.371  1.00  0.00     0.049 A 
ATOM     61  C   UNL A   1      47.197  28.210  28.212  1.00  0.00     0.074 A 
ATOM     62  C   UNL A   1      41.717  30.944  29.842  1.00  0.00     0.029 A 
ATOM     63  N   UNL A   1      43.281  29.534  29.123  1.00  0.00    -0.354 N 
ATOM     64  N   UNL A   1      46.021  28.691  28.534  1.00  0.00    -0.248 NA
ATOM     65  C   UNL A   1      48.290  29.190  28.283  1.00  0.00     0.031 C 
ATOM     66  C   UNL A   1      42.947  31.612  29.839  1.00  0.00     0.029 A 
ATOM     67  C   UNL A   1      43.922  30.728  29.405  1.00  0.00     0.049 A 
ATOM     68  H   UNL A   1      43.724  28.718  28.795  1.00  0.00     0.167 HD
ATOM     69  C   UNL A   1      46.234  30.024  28.861  1.00  0.00     0.074 A 
ATOM     70  C   UNL A   1      47.653  30.271  28.714  1.00  0.00     0.031 C 
ATOM     71  C   UNL A   1      45.333  30.959  29.246  1.00  0.00     0.031 A 
BRANCH  58  72
ATOM     72  C   UNL A   1      39.506  28.936  29.378  1.00  0.00    -0.014 A 
ATOM     73  C   UNL A   1      38.901  28.750  30.630  1.00  0.00     0.009 A 
ATOM     74  C   UNL A   1      38.742  29.461  28.324  1.00  0.00     0.009 A 
ATOM     75  C   UNL A   1      37.548  29.050  30.812  1.00  0.00     0.001 A 
ATOM     76  C   UNL A   1      37.397  29.783  28.516  1.00  0.00     0.001 A 
ATOM     77  C   UNL A   1      36.799  29.569  29.757  1.00  0.00     0.000 A 
ENDBRANCH  58  72
BRANCH  59  78
ATOM     78  C   UNL A   1      48.973  26.472  27.465  1.00  0.00    -0.014 A 
ATOM     79  C   UNL A   1      49.437  26.547  26.143  1.00  0.00     0.009 A 
ATOM     80  C   UNL A   1      49.859  26.068  28.475  1.00  0.00     0.009 A 
ATOM     81  C   UNL A   1      50.757  26.206  25.837  1.00  0.00     0.001 A 
ATOM     82  C   UNL A   1      51.184  25.750  28.169  1.00  0.00     0.001 A 
ATOM     83  C   UNL A   1      51.629  25.812  26.850  1.00  0.00     0.000 A 
ENDBRANCH  59  78
BRANCH  71  84
ATOM     84  C   UNL A   1      45.856  32.334  29.546  1.00  0.00    -0.014 A 
ATOM     85  C   UNL A   1      46.395  32.640  30.805  1.00  0.00     0.009 A 
ATOM     86  C   UNL A   1      45.857  33.315  28.543  1.00  0.00     0.009 A 
ATOM     87  C   UNL A   1      46.908  33.912  31.059  1.00  0.00     0.001 A 
ATOM     88  C   UNL A   1      46.392  34.579  28.795  1.00  0.00     0.001 A 
ATOM     89  C   UNL A   1      46.913  34.879  30.053  1.00  0.00     0.000 A 
ENDBRANCH  71  84
ENDBRANCH  45  46
ENDBRANCH  37  40
ENDBRANCH  35  36
ENDBRANCH  34  35
ENDBRANCH  33  34
ENDBRANCH   1  33
TORSDOF 17
ENDMDL
MODEL 2
REMARK VINA RESULT:     -10.8      3.962      9.826
REMARK SMILES [NH3+][C@@]1(C(=O)NCCCCNC(=O)c2ccc(-c3c4nc(c(-c5ccccc5)c5ccc([nH]5)c(-c5ccccc5)c5nc(c(-c6ccccc6)c6ccc3[nH]6)C=C5)C=C4)cc2)CC[N@@H+](Cc2ccc(OCC(=O)N3CCCCC3)cc2)C1
REMARK SMILES IDX 6 1 5 2 3 3 4 4 2 6 61 7 81 8 62 9 63 10 1 12 64 16 65 17
REMARK SMILES IDX 66 18 80 19 67 20 79 21 68 22 69 23 70 24 71 25 72 26 73 27
REMARK SMILES IDX 74 28 78 29 75 30 77 31 76 32 7 33 8 34 9 35 10 36 11 37
REMARK SMILES IDX 12 39 13 40 14 41 60 42 15 43 59 44 16 45 17 46 18 47 53 48
REMARK SMILES IDX 19 49 58 50 52 51 54 52 20 53 57 54 51 55 50 56 21 58 43 59
REMARK SMILES IDX 28 60 42 61 29 62 32 63 41 64 55 65 30 66 31 67 40 69 56 70
REMARK SMILES IDX 33 71 22 72 23 73 27 74 24 75 26 76 25 77 44 78 45 79 49 80
REMARK SMILES IDX 46 81 48 82 47 83 34 84 35 85 39 86 36 87 38 88 37 89
REMARK H PARENT 5 5 63 11 1 13 1 14 1 15 10 38 54 57 32 68
REMARK Flexibility Score: inf
ROOT
ATOM      1  C   UNL A   1      31.803  28.816  27.068  1.00  0.00     0.116 C 
ENDROOT
BRANCH   1   2
ATOM      2  N   UNL A   1      32.423  27.653  26.450  1.00  0.00    -0.350 N 
ATOM      3  C   UNL A   1      32.988  27.365  25.246  1.00  0.00     0.287 C 
ATOM      4  O   UNL A   1      33.679  26.329  25.255  1.00  0.00    -0.268 OA
ATOM      5  H   UNL A   1      32.438  26.877  27.057  1.00  0.00     0.163 HD
BRANCH   3   6
ATOM      6  C   UNL A   1      32.823  28.109  23.859  1.00  0.00     0.228 C 
ATOM      7  C   UNL A   1      31.429  28.422  23.314  1.00  0.00     0.146 C 
ATOM      8  C   UNL A   1      33.384  27.198  22.748  1.00  0.00     0.342 C 
ATOM      9  C   UNL A   1      31.093  27.270  22.340  1.00  0.00     0.270 C 
ATOM     10  N   UNL A   1      32.213  26.368  22.506  1.00  0.00    -0.325 N 
ATOM     11  H   UNL A   1      31.980  25.780  23.305  1.00  0.00     0.348 HD
BRANCH   6  12
ATOM     12  N   UNL A   1      33.621  29.373  23.955  1.00  0.00    -0.340 N 
ATOM     13  H   UNL A   1      33.371  29.993  23.184  1.00  0.00     0.345 HD
ATOM     14  H   UNL A   1      34.616  29.152  23.904  1.00  0.00     0.345 HD
ATOM     15  H   UNL A   1      33.420  29.836  24.842  1.00  0.00     0.345 HD
ENDBRANCH   6  12
BRANCH  10  16
ATOM     16  C   UNL A   1      32.387  25.178  21.678  1.00  0.00     0.299 C 
BRANCH  16  17
ATOM     17  C   UNL A   1      32.205  23.911  22.519  1.00  0.00     0.006 A 
ATOM     18  C   UNL A   1      32.623  22.635  22.158  1.00  0.00     0.013 A 
ATOM     19  C   UNL A   1      31.561  24.018  23.753  1.00  0.00     0.013 A 
ATOM     20  C   UNL A   1      32.474  21.559  23.066  1.00  0.00     0.047 A 
ATOM     21  C   UNL A   1      31.400  22.980  24.651  1.00  0.00     0.047 A 
ATOM     22  C   UNL A   1      31.891  21.738  24.331  1.00  0.00     0.120 A 
BRANCH  22  23
ATOM     23  O   UNL A   1      31.898  20.682  25.196  1.00  0.00    -0.484 OA
BRANCH  23  24
ATOM     24  C   UNL A   1      33.081  20.444  25.944  1.00  0.00     0.329 C 
BRANCH  24  25
ATOM     25  C   UNL A   1      34.053  21.507  26.558  1.00  0.00     0.260 C 
ATOM     26  O   UNL A   1      33.732  22.032  27.633  1.00  0.00    -0.271 OA
ATOM     27  N   UNL A   1      35.259  21.810  25.948  1.00  0.00    -0.340 N 
ATOM     28  C   UNL A   1      36.225  22.674  26.634  1.00  0.00     0.119 C 
ATOM     29  C   UNL A   1      35.675  21.380  24.618  1.00  0.00     0.119 C 
ATOM     30  C   UNL A   1      36.625  23.883  25.789  1.00  0.00     0.022 C 
ATOM     31  C   UNL A   1      35.929  22.601  23.735  1.00  0.00     0.022 C 
ATOM     32  C   UNL A   1      36.999  23.497  24.359  1.00  0.00     0.004 C 
ENDBRANCH  24  25
ENDBRANCH  23  24
ENDBRANCH  22  23
ENDBRANCH  16  17
ENDBRANCH  10  16
ENDBRANCH   3   6
ENDBRANCH   1   2
BRANCH   1  33
ATOM     33  C   UNL A   1      32.681  30.053  27.315  1.00  0.00     0.023 C 
BRANCH  33  34
ATOM     34  C   UNL A   1      32.046  31.442  27.207  1.00  0.00     0.023 C 
BRANCH  34  35
ATOM     35  C   UNL A   1      32.945  32.615  26.867  1.00  0.00     0.116 C 
BRANCH  35  36
ATOM     36  N   UNL A   1      32.595  33.808  27.611  1.00  0.00    -0.352 N 
ATOM     37  C   UNL A   1      33.175  34.334  28.738  1.00  0.00     0.251 C 
ATOM     38  H   UNL A   1      31.829  34.315  27.256  1.00  0.00     0.163 HD
ATOM     39  O   UNL A   1      32.594  35.238  29.347  1.00  0.00    -0.269 OA
BRANCH  37  40
ATOM     40  C   UNL A   1      34.480  33.843  29.248  1.00  0.00     0.039 A 
ATOM     41  C   UNL A   1      35.659  34.293  28.637  1.00  0.00     0.014 A 
ATOM     42  C   UNL A   1      34.559  32.888  30.267  1.00  0.00     0.014 A 
ATOM     43  C   UNL A   1      36.903  33.816  29.065  1.00  0.00     0.010 A 
ATOM     44  C   UNL A   1      35.802  32.465  30.739  1.00  0.00     0.010 A 
ATOM     45  C   UNL A   1      36.986  32.906  30.130  1.00  0.00    -0.014 A 
BRANCH  45  46
ATOM     46  C   UNL A   1      38.287  32.356  30.589  1.00  0.00     0.031 A 
ATOM     47  C   UNL A   1      38.812  31.079  29.988  1.00  0.00     0.074 A 
ATOM     48  C   UNL A   1      38.965  32.955  31.587  1.00  0.00     0.049 A 
ATOM     49  N   UNL A   1      39.861  30.373  30.328  1.00  0.00    -0.248 NA
ATOM     50  C   UNL A   1      38.039  30.507  28.872  1.00  0.00     0.031 C 
ATOM     51  C   UNL A   1      38.561  34.183  32.271  1.00  0.00     0.029 A 
ATOM     52  N   UNL A   1      40.134  32.594  32.212  1.00  0.00    -0.354 N 
ATOM     53  C   UNL A   1      39.854  29.262  29.493  1.00  0.00     0.074 A 
ATOM     54  C   UNL A   1      38.682  29.370  28.652  1.00  0.00     0.031 C 
ATOM     55  C   UNL A   1      39.471  34.480  33.213  1.00  0.00     0.029 A 
ATOM     56  C   UNL A   1      40.500  33.443  33.226  1.00  0.00     0.049 A 
ATOM     57  H   UNL A   1      40.659  31.802  31.956  1.00  0.00     0.167 HD
ATOM     58  C   UNL A   1      40.748  28.246  29.422  1.00  0.00     0.031 A 
ATOM     59  C   UNL A   1      41.538  33.387  34.083  1.00  0.00     0.031 A 
ATOM     60  C   UNL A   1      41.929  28.148  30.235  1.00  0.00     0.049 A 
ATOM     61  C   UNL A   1      42.510  32.243  33.995  1.00  0.00     0.074 A 
ATOM     62  C   UNL A   1      42.934  27.197  30.185  1.00  0.00     0.029 A 
ATOM     63  N   UNL A   1      42.262  29.033  31.247  1.00  0.00    -0.354 N 
ATOM     64  N   UNL A   1      42.519  31.230  33.162  1.00  0.00    -0.248 NA
ATOM     65  C   UNL A   1      43.613  32.235  34.967  1.00  0.00     0.031 C 
ATOM     66  C   UNL A   1      43.856  27.484  31.197  1.00  0.00     0.029 A 
ATOM     67  C   UNL A   1      43.444  28.636  31.848  1.00  0.00     0.049 A 
ATOM     68  H   UNL A   1      41.738  29.826  31.501  1.00  0.00     0.167 HD
ATOM     69  C   UNL A   1      43.633  30.473  33.500  1.00  0.00     0.074 A 
ATOM     70  C   UNL A   1      44.285  31.151  34.600  1.00  0.00     0.031 C 
ATOM     71  C   UNL A   1      44.075  29.318  32.947  1.00  0.00     0.031 A 
BRANCH  58  72
ATOM     72  C   UNL A   1      40.473  27.151  28.432  1.00  0.00    -0.014 A 
ATOM     73  C   UNL A   1      39.673  26.047  28.770  1.00  0.00     0.009 A 
ATOM     74  C   UNL A   1      40.994  27.240  27.131  1.00  0.00     0.009 A 
ATOM     75  C   UNL A   1      39.433  25.037  27.836  1.00  0.00     0.001 A 
ATOM     76  C   UNL A   1      40.731  26.240  26.193  1.00  0.00     0.001 A 
ATOM     77  C   UNL A   1      39.959  25.135  26.548  1.00  0.00     0.000 A 
ENDBRANCH  58  72
BRANCH  59  78
ATOM     78  C   UNL A   1      41.711  34.446  35.110  1.00  0.00    -0.014 A 
ATOM     79  C   UNL A   1      42.438  35.608  34.813  1.00  0.00     0.009 A 
ATOM     80  C   UNL A   1      41.152  34.301  36.389  1.00  0.00     0.009 A 
ATOM     81  C   UNL A   1      42.617  36.597  35.784  1.00  0.00     0.001 A 
ATOM     82  C   UNL A   1      41.313  35.302  37.349  1.00  0.00     0.001 A 
ATOM     83  C   UNL A   1      42.052  36.445  37.048  1.00  0.00     0.000 A 
ENDBRANCH  59  78
BRANCH  71  84
ATOM     84  C   UNL A   1      45.328  28.719  33.516  1.00  0.00    -0.014 A 
ATOM     85  C   UNL A   1      46.591  29.115  33.051  1.00  0.00     0.009 A 
ATOM     86  C   UNL A   1      45.244  27.790  34.565  1.00  0.00     0.009 A 
ATOM     87  C   UNL A   1      47.748  28.575  33.613  1.00  0.00     0.001 A 
ATOM     88  C   UNL A   1      46.405  27.269  35.139  1.00  0.00     0.001 A 
ATOM     89  C   UNL A   1      47.655  27.658  34.660  1.00  0.00     0.000 A 
ENDBRANCH  71  84
ENDBRANCH  45  46
ENDBRANCH  37  40
ENDBRANCH  35  36
ENDBRANCH  34  35
ENDBRANCH  33  34
ENDBRANCH   1  33
TORSDOF 17
ENDMDL
MODEL 3
REMARK VINA RESULT:     -10.8      3.410      9.290
REMARK SMILES [NH3+][C@@]1(C(=O)NCCCCNC(=O)c2ccc(-c3c4nc(c(-c5ccccc5)c5ccc([nH]5)c(-c5ccccc5)c5nc(c(-c6ccccc6)c6ccc3[nH]6)C=C5)C=C4)cc2)CC[N@@H+](Cc2ccc(OCC(=O)N3CCCCC3)cc2)C1
REMARK SMILES IDX 6 1 5 2 3 3 4 4 2 6 61 7 81 8 62 9 63 10 1 12 64 16 65 17
REMARK SMILES IDX 66 18 80 19 67 20 79 21 68 22 69 23 70 24 71 25 72 26 73 27
REMARK SMILES IDX 74 28 78 29 75 30 77 31 76 32 7 33 8 34 9 35 10 36 11 37
REMARK SMILES IDX 12 39 13 40 14 41 60 42 15 43 59 44 16 45 17 46 18 47 53 48
REMARK SMILES IDX 19 49 58 50 52 51 54 52 20 53 57 54 51 55 50 56 21 58 43 59
REMARK SMILES IDX 28 60 42 61 29 62 32 63 41 64 55 65 30 66 31 67 40 69 56 70
REMARK SMILES IDX 33 71 22 72 23 73 27 74 24 75 26 76 25 77 44 78 45 79 49 80
REMARK SMILES IDX 46 81 48 82 47 83 34 84 35 85 39 86 36 87 38 88 37 89
REMARK H PARENT 5 5 63 11 1 13 1 14 1 15 10 38 54 57 32 68
REMARK Flexibility Score: inf
ROOT
ATOM      1  C   UNL A   1      31.835  28.981  27.210  1.00  0.00     0.116 C 
ENDROOT
BRANCH   1   2
ATOM      2  N   UNL A   1      32.443  27.827  26.563  1.00  0.00    -0.350 N 
ATOM      3  C   UNL A   1      32.964  27.550  25.337  1.00  0.00     0.287 C 
ATOM      4  O   UNL A   1      33.665  26.521  25.314  1.00  0.00    -0.268 OA
ATOM      5  H   UNL A   1      32.489  27.049  27.165  1.00  0.00     0.163 HD
BRANCH   3   6
ATOM      6  C   UNL A   1      32.739  28.299  23.960  1.00  0.00     0.228 C 
ATOM      7  C   UNL A   1      31.321  28.602  23.472  1.00  0.00     0.146 C 
ATOM      8  C   UNL A   1      33.262  27.397  22.824  1.00  0.00     0.342 C 
ATOM      9  C   UNL A   1      30.956  27.452  22.507  1.00  0.00     0.270 C 
ATOM     10  N   UNL A   1      32.089  26.558  22.624  1.00  0.00    -0.325 N 
ATOM     11  H   UNL A   1      31.892  25.964  23.430  1.00  0.00     0.348 HD
BRANCH   6  12
ATOM     12  N   UNL A   1      33.529  29.569  24.031  1.00  0.00    -0.340 N 
ATOM     13  H   UNL A   1      34.185  29.519  24.811  1.00  0.00     0.345 HD
ATOM     14  H   UNL A   1      32.896  30.357  24.169  1.00  0.00     0.345 HD
ATOM     15  H   UNL A   1      34.046  29.697  23.160  1.00  0.00     0.345 HD
ENDBRANCH   6  12
BRANCH  10  16
ATOM     16  C   UNL A   1      32.240  25.373  21.786  1.00  0.00     0.299 C 
BRANCH  16  17
ATOM     17  C   UNL A   1      32.084  24.101  22.625  1.00  0.00     0.006 A 
ATOM     18  C   UNL A   1      32.564  22.842  22.279  1.00  0.00     0.013 A 
ATOM     19  C   UNL A   1      31.400  24.184  23.838  1.00  0.00     0.013 A 
ATOM     20  C   UNL A   1      32.431  21.763  23.186  1.00  0.00     0.047 A 
ATOM     21  C   UNL A   1      31.255  23.142  24.734  1.00  0.00     0.047 A 
ATOM     22  C   UNL A   1      31.805  21.920  24.433  1.00  0.00     0.120 A 
BRANCH  22  23
ATOM     23  O   UNL A   1      31.829  20.866  25.300  1.00  0.00    -0.484 OA
BRANCH  23  24
ATOM     24  C   UNL A   1      33.048  20.587  25.972  1.00  0.00     0.329 C 
BRANCH  24  25
ATOM     25  C   UNL A   1      34.068  21.615  26.567  1.00  0.00     0.260 C 
ATOM     26  O   UNL A   1      33.782  22.155  27.645  1.00  0.00    -0.271 OA
ATOM     27  N   UNL A   1      35.276  21.870  25.940  1.00  0.00    -0.340 N 
ATOM     28  C   UNL A   1      36.282  22.700  26.608  1.00  0.00     0.119 C 
ATOM     29  C   UNL A   1      35.656  21.421  24.605  1.00  0.00     0.119 C 
ATOM     30  C   UNL A   1      36.716  23.890  25.752  1.00  0.00     0.022 C 
ATOM     31  C   UNL A   1      35.943  22.628  23.714  1.00  0.00     0.022 C 
ATOM     32  C   UNL A   1      37.054  23.486  24.319  1.00  0.00     0.004 C 
ENDBRANCH  24  25
ENDBRANCH  23  24
ENDBRANCH  22  23
ENDBRANCH  16  17
ENDBRANCH  10  16
ENDBRANCH   3   6
ENDBRANCH   1   2
BRANCH   1  33
ATOM     33  C   UNL A   1      32.644  30.287  27.257  1.00  0.00     0.023 C 
BRANCH  33  34
ATOM     34  C   UNL A   1      31.891  31.621  27.244  1.00  0.00     0.023 C 
BRANCH  34  35
ATOM     35  C   UNL A   1      32.615  32.844  26.716  1.00  0.00     0.116 C 
BRANCH  35  36
ATOM     36  N   UNL A   1      32.456  33.993  27.583  1.00  0.00    -0.352 N 
ATOM     37  C   UNL A   1      33.173  34.350  28.698  1.00  0.00     0.251 C 
ATOM     38  H   UNL A   1      31.727  34.609  27.338  1.00  0.00     0.163 HD
ATOM     39  O   UNL A   1      32.742  35.249  29.427  1.00  0.00    -0.269 OA
BRANCH  37  40
ATOM     40  C   UNL A   1      34.448  33.679  29.055  1.00  0.00     0.039 A 
ATOM     41  C   UNL A   1      34.460  32.770  30.121  1.00  0.00     0.014 A 
ATOM     42  C   UNL A   1      35.647  33.987  28.405  1.00  0.00     0.014 A 
ATOM     43  C   UNL A   1      35.655  32.153  30.511  1.00  0.00     0.010 A 
ATOM     44  C   UNL A   1      36.825  33.321  28.748  1.00  0.00     0.010 A 
ATOM     45  C   UNL A   1      36.846  32.414  29.819  1.00  0.00    -0.014 A 
BRANCH  45  46
ATOM     46  C   UNL A   1      38.137  31.802  30.225  1.00  0.00     0.031 A 
ATOM     47  C   UNL A   1      39.042  32.530  31.183  1.00  0.00     0.074 A 
ATOM     48  C   UNL A   1      38.534  30.632  29.687  1.00  0.00     0.049 A 
ATOM     49  N   UNL A   1      40.255  32.227  31.572  1.00  0.00    -0.248 NA
ATOM     50  C   UNL A   1      38.520  33.780  31.762  1.00  0.00     0.031 C 
ATOM     51  C   UNL A   1      37.767  29.832  28.732  1.00  0.00     0.029 A 
ATOM     52  N   UNL A   1      39.698  29.923  29.858  1.00  0.00    -0.354 N 
ATOM     53  C   UNL A   1      40.651  33.262  32.411  1.00  0.00     0.074 A 
ATOM     54  C   UNL A   1      39.564  34.216  32.451  1.00  0.00     0.031 C 
ATOM     55  C   UNL A   1      38.475  28.738  28.409  1.00  0.00     0.029 A 
ATOM     56  C   UNL A   1      39.760  28.778  29.102  1.00  0.00     0.049 A 
ATOM     57  H   UNL A   1      40.419  30.208  30.464  1.00  0.00     0.167 HD
ATOM     58  C   UNL A   1      41.811  33.403  33.097  1.00  0.00     0.031 A 
ATOM     59  C   UNL A   1      40.747  27.871  28.968  1.00  0.00     0.031 A 
ATOM     60  C   UNL A   1      42.882  32.444  33.082  1.00  0.00     0.049 A 
ATOM     61  C   UNL A   1      42.031  28.055  29.728  1.00  0.00     0.074 A 
ATOM     62  C   UNL A   1      44.064  32.462  33.803  1.00  0.00     0.029 A 
ATOM     63  N   UNL A   1      42.901  31.297  32.306  1.00  0.00    -0.354 N 
ATOM     64  N   UNL A   1      42.368  29.010  30.561  1.00  0.00    -0.248 NA
ATOM     65  C   UNL A   1      43.071  27.036  29.528  1.00  0.00     0.031 C 
ATOM     66  C   UNL A   1      44.818  31.343  33.430  1.00  0.00     0.029 A 
ATOM     67  C   UNL A   1      44.086  30.612  32.508  1.00  0.00     0.049 A 
ATOM     68  H   UNL A   1      42.179  31.012  31.701  1.00  0.00     0.167 HD
ATOM     69  C   UNL A   1      43.650  28.700  30.994  1.00  0.00     0.074 A 
ATOM     70  C   UNL A   1      44.024  27.461  30.346  1.00  0.00     0.031 C 
ATOM     71  C   UNL A   1      44.446  29.384  31.850  1.00  0.00     0.031 A 
BRANCH  58  72
ATOM     72  C   UNL A   1      41.983  34.650  33.916  1.00  0.00    -0.014 A 
ATOM     73  C   UNL A   1      42.549  35.811  33.364  1.00  0.00     0.009 A 
ATOM     74  C   UNL A   1      41.544  34.674  35.249  1.00  0.00     0.009 A 
ATOM     75  C   UNL A   1      42.703  36.959  34.144  1.00  0.00     0.001 A 
ATOM     76  C   UNL A   1      41.678  35.832  36.018  1.00  0.00     0.001 A 
ATOM     77  C   UNL A   1      42.266  36.970  35.468  1.00  0.00     0.000 A 
ENDBRANCH  58  72
BRANCH  59  78
ATOM     78  C   UNL A   1      40.564  26.703  28.068  1.00  0.00    -0.014 A 
ATOM     79  C   UNL A   1      40.959  26.775  26.725  1.00  0.00     0.009 A 
ATOM     80  C   UNL A   1      39.994  25.514  28.548  1.00  0.00     0.009 A 
ATOM     81  C   UNL A   1      40.771  25.683  25.873  1.00  0.00     0.001 A 
ATOM     82  C   UNL A   1      39.828  24.417  27.700  1.00  0.00     0.001 A 
ATOM     83  C   UNL A   1      40.210  24.505  26.362  1.00  0.00     0.000 A 
ENDBRANCH  59  78
BRANCH  71  84
ATOM     84  C   UNL A   1      45.797  28.802  32.146  1.00  0.00    -0.014 A 
ATOM     85  C   UNL A   1      46.921  29.171  31.392  1.00  0.00     0.009 A 
ATOM     86  C   UNL A   1      45.956  27.916  33.222  1.00  0.00     0.009 A 
ATOM     87  C   UNL A   1      48.178  28.649  31.699  1.00  0.00     0.001 A 
ATOM     88  C   UNL A   1      47.218  27.412  33.540  1.00  0.00     0.001 A 
ATOM     89  C   UNL A   1      48.327  27.775  32.777  1.00  0.00     0.000 A 
ENDBRANCH  71  84
ENDBRANCH  45  46
ENDBRANCH  37  40
ENDBRANCH  35  36
ENDBRANCH  34  35
ENDBRANCH  33  34
ENDBRANCH   1  33
TORSDOF 17
ENDMDL
