MODEL 1
REMARK VINA RESULT:     -10.5      0.000      0.000
REMARK SMILES CC[C@H](C)CN(CC)C(=O)Nc1ccc(C(=O)NCCCCNC(=O)c2ccc(-c3c4nc(c(-c5ccccc5)c5ccc([nH]5)c(-c5ccccc5)c5nc(c(-c6ccccc6)c6ccc3[nH]6)C=C5)C=C4)cc2)cc1Cl
REMARK SMILES IDX 19 1 18 2 16 3 17 4 15 6 12 7 13 8 75 9 14 10 74 11 76 12
REMARK SMILES IDX 11 13 9 14 10 15 6 17 5 18 3 19 4 20 2 21 1 22 7 23 8 24
REMARK SMILES IDX 20 25 21 26 22 27 23 28 24 29 25 31 26 32 27 33 73 34 28 35
REMARK SMILES IDX 72 36 29 37 30 38 31 39 66 40 32 41 71 42 65 43 67 44 33 45
REMARK SMILES IDX 70 46 64 47 63 48 34 50 56 51 41 52 55 53 42 54 45 55 54 56
REMARK SMILES IDX 68 57 43 58 44 59 53 61 69 62 46 63 35 64 36 65 40 66 37 67
REMARK SMILES IDX 39 68 38 69 57 70 58 71 62 72 59 73 61 74 60 75 47 76 48 77
REMARK SMILES IDX 52 78 49 79 51 80 50 81
REMARK H PARENT 18 5 11 16 23 30 67 49 45 60
REMARK Flexibility Score: inf
ROOT
ATOM      1  C   UNL A   1      35.370  21.761  25.826  1.00  0.00     0.116 C 
ENDROOT
BRANCH   1   2
ATOM      2  N   UNL A   1      34.610  20.522  25.893  1.00  0.00    -0.352 N 
ATOM      3  C   UNL A   1      33.315  20.245  25.530  1.00  0.00     0.251 C 
ATOM      4  O   UNL A   1      32.908  19.087  25.574  1.00  0.00    -0.269 OA
ATOM      5  H   UNL A   1      35.108  19.754  26.259  1.00  0.00     0.163 HD
BRANCH   3   6
ATOM      6  C   UNL A   1      32.432  21.308  25.001  1.00  0.00     0.041 A 
ATOM      7  C   UNL A   1      31.144  23.531  23.930  1.00  0.00     0.061 A 
ATOM      8  C   UNL A   1      31.688  22.566  23.075  1.00  0.00     0.028 A 
ATOM      9  C   UNL A   1      31.074  23.279  25.306  1.00  0.00     0.065 A 
ATOM     10  C   UNL A   1      32.362  21.472  23.613  1.00  0.00     0.016 A 
ATOM     11  C   UNL A   1      31.697  22.151  25.836  1.00  0.00     0.036 A 
ATOM     12  Cl  UNL A   1      30.173  24.284  26.385  1.00  0.00    -0.082 Cl
BRANCH   7  13
ATOM     13  N   UNL A   1      30.723  24.725  23.339  1.00  0.00    -0.306 N 
ATOM     14  C   UNL A   1      31.309  25.954  23.308  1.00  0.00     0.321 C 
ATOM     15  O   UNL A   1      30.545  26.924  23.296  1.00  0.00    -0.248 OA
ATOM     16  H   UNL A   1      29.862  24.668  22.867  1.00  0.00     0.171 HD
BRANCH  14  17
ATOM     17  N   UNL A   1      32.671  26.085  23.066  1.00  0.00    -0.325 N 
BRANCH  17  18
ATOM     18  C   UNL A   1      33.430  26.892  24.040  1.00  0.00     0.124 C 
BRANCH  18  19
ATOM     19  C   UNL A   1      33.258  26.394  25.506  1.00  0.00     0.005 C 
ATOM     20  C   UNL A   1      34.126  25.167  25.805  1.00  0.00     0.009 C 
BRANCH  19  21
ATOM     21  C   UNL A   1      33.456  27.562  26.508  1.00  0.00     0.002 C 
ATOM     22  C   UNL A   1      33.659  28.950  25.919  1.00  0.00     0.004 C 
ENDBRANCH  19  21
ENDBRANCH  18  19
ENDBRANCH  17  18
BRANCH  17  23
ATOM     23  C   UNL A   1      33.430  25.696  21.868  1.00  0.00     0.118 C 
ATOM     24  C   UNL A   1      32.556  25.590  20.623  1.00  0.00     0.027 C 
ENDBRANCH  17  23
ENDBRANCH  14  17
ENDBRANCH   7  13
ENDBRANCH   3   6
ENDBRANCH   1   2
BRANCH   1  25
ATOM     25  C   UNL A   1      36.256  21.802  24.581  1.00  0.00     0.023 C 
BRANCH  25  26
ATOM     26  C   UNL A   1      37.350  20.732  24.555  1.00  0.00     0.023 C 
BRANCH  26  27
ATOM     27  C   UNL A   1      38.389  20.846  25.665  1.00  0.00     0.116 C 
BRANCH  27  28
ATOM     28  N   UNL A   1      39.375  19.779  25.635  1.00  0.00    -0.352 N 
ATOM     29  C   UNL A   1      40.705  19.814  25.985  1.00  0.00     0.251 C 
ATOM     30  H   UNL A   1      39.045  18.906  25.318  1.00  0.00     0.163 HD
ATOM     31  O   UNL A   1      41.422  18.844  25.782  1.00  0.00    -0.269 OA
BRANCH  29  32
ATOM     32  C   UNL A   1      41.272  21.045  26.577  1.00  0.00     0.039 A 
ATOM     33  C   UNL A   1      41.825  22.007  25.727  1.00  0.00     0.014 A 
ATOM     34  C   UNL A   1      41.247  21.259  27.958  1.00  0.00     0.014 A 
ATOM     35  C   UNL A   1      42.285  23.215  26.254  1.00  0.00     0.010 A 
ATOM     36  C   UNL A   1      41.640  22.492  28.474  1.00  0.00     0.010 A 
ATOM     37  C   UNL A   1      42.161  23.482  27.627  1.00  0.00    -0.014 A 
BRANCH  37  38
ATOM     38  C   UNL A   1      42.559  24.794  28.195  1.00  0.00     0.031 A 
ATOM     39  C   UNL A   1      41.534  25.876  28.398  1.00  0.00     0.074 A 
ATOM     40  C   UNL A   1      43.856  25.038  28.467  1.00  0.00     0.049 A 
ATOM     41  N   UNL A   1      41.701  27.103  28.823  1.00  0.00    -0.248 NA
ATOM     42  C   UNL A   1      40.142  25.541  28.056  1.00  0.00     0.031 C 
ATOM     43  C   UNL A   1      44.955  24.088  28.284  1.00  0.00     0.029 A 
ATOM     44  N   UNL A   1      44.470  26.166  28.951  1.00  0.00    -0.354 N 
ATOM     45  C   UNL A   1      40.442  27.689  28.784  1.00  0.00     0.074 A 
ATOM     46  C   UNL A   1      39.532  26.701  28.248  1.00  0.00     0.031 C 
ATOM     47  C   UNL A   1      46.102  24.661  28.682  1.00  0.00     0.029 A 
ATOM     48  C   UNL A   1      45.828  26.030  29.106  1.00  0.00     0.049 A 
ATOM     49  H   UNL A   1      43.983  26.994  29.167  1.00  0.00     0.167 HD
ATOM     50  C   UNL A   1      40.072  28.930  29.179  1.00  0.00     0.031 A 
ATOM     51  C   UNL A   1      46.751  26.910  29.538  1.00  0.00     0.031 A 
ATOM     52  C   UNL A   1      40.974  29.913  29.718  1.00  0.00     0.049 A 
ATOM     53  C   UNL A   1      46.319  28.292  29.942  1.00  0.00     0.074 A 
ATOM     54  C   UNL A   1      40.684  31.182  30.190  1.00  0.00     0.029 A 
ATOM     55  N   UNL A   1      42.342  29.738  29.852  1.00  0.00    -0.354 N 
ATOM     56  N   UNL A   1      45.115  28.810  29.958  1.00  0.00    -0.248 NA
ATOM     57  C   UNL A   1      47.375  29.207  30.397  1.00  0.00     0.031 C 
ATOM     58  C   UNL A   1      41.886  31.792  30.566  1.00  0.00     0.029 A 
ATOM     59  C   UNL A   1      42.914  30.884  30.379  1.00  0.00     0.049 A 
ATOM     60  H   UNL A   1      42.833  28.920  29.609  1.00  0.00     0.167 HD
ATOM     61  C   UNL A   1      45.265  30.100  30.452  1.00  0.00     0.074 A 
ATOM     62  C   UNL A   1      46.674  30.279  30.736  1.00  0.00     0.031 C 
ATOM     63  C   UNL A   1      44.318  31.048  30.656  1.00  0.00     0.031 A 
BRANCH  50  64
ATOM     64  C   UNL A   1      38.621  29.294  29.031  1.00  0.00    -0.014 A 
ATOM     65  C   UNL A   1      37.735  29.207  30.118  1.00  0.00     0.009 A 
ATOM     66  C   UNL A   1      38.135  29.749  27.795  1.00  0.00     0.009 A 
ATOM     67  C   UNL A   1      36.385  29.527  29.958  1.00  0.00     0.001 A 
ATOM     68  C   UNL A   1      36.791  30.098  27.647  1.00  0.00     0.001 A 
ATOM     69  C   UNL A   1      35.915  29.975  28.724  1.00  0.00     0.000 A 
ENDBRANCH  50  64
BRANCH  51  70
ATOM     70  C   UNL A   1      48.177  26.507  29.635  1.00  0.00    -0.014 A 
ATOM     71  C   UNL A   1      49.062  26.775  28.580  1.00  0.00     0.009 A 
ATOM     72  C   UNL A   1      48.661  25.846  30.774  1.00  0.00     0.009 A 
ATOM     73  C   UNL A   1      50.396  26.368  28.652  1.00  0.00     0.001 A 
ATOM     74  C   UNL A   1      50.002  25.463  30.856  1.00  0.00     0.001 A 
ATOM     75  C   UNL A   1      50.866  25.716  29.791  1.00  0.00     0.000 A 
ENDBRANCH  51  70
BRANCH  63  76
ATOM     76  C   UNL A   1      44.771  32.353  31.248  1.00  0.00    -0.014 A 
ATOM     77  C   UNL A   1      45.150  33.432  30.434  1.00  0.00     0.009 A 
ATOM     78  C   UNL A   1      44.783  32.514  32.642  1.00  0.00     0.009 A 
ATOM     79  C   UNL A   1      45.565  34.636  31.008  1.00  0.00     0.001 A 
ATOM     80  C   UNL A   1      45.170  33.728  33.211  1.00  0.00     0.001 A 
ATOM     81  C   UNL A   1      45.568  34.785  32.394  1.00  0.00     0.000 A 
ENDBRANCH  63  76
ENDBRANCH  37  38
ENDBRANCH  29  32
ENDBRANCH  27  28
ENDBRANCH  26  27
ENDBRANCH  25  26
ENDBRANCH   1  25
TORSDOF 17
ENDMDL
MODEL 2
REMARK VINA RESULT:     -10.4      3.238      8.627
REMARK SMILES CC[C@H](C)CN(CC)C(=O)Nc1ccc(C(=O)NCCCCNC(=O)c2ccc(-c3c4nc(c(-c5ccccc5)c5ccc([nH]5)c(-c5ccccc5)c5nc(c(-c6ccccc6)c6ccc3[nH]6)C=C5)C=C4)cc2)cc1Cl
REMARK SMILES IDX 19 1 18 2 16 3 17 4 15 6 12 7 13 8 75 9 14 10 74 11 76 12
REMARK SMILES IDX 11 13 9 14 10 15 6 17 5 18 3 19 4 20 2 21 1 22 7 23 8 24
REMARK SMILES IDX 20 25 21 26 22 27 23 28 24 29 25 31 26 32 27 33 73 34 28 35
REMARK SMILES IDX 72 36 29 37 30 38 31 39 66 40 32 41 71 42 65 43 67 44 33 45
REMARK SMILES IDX 70 46 64 47 63 48 34 50 56 51 41 52 55 53 42 54 45 55 54 56
REMARK SMILES IDX 68 57 43 58 44 59 53 61 69 62 46 63 35 64 36 65 40 66 37 67
REMARK SMILES IDX 39 68 38 69 57 70 58 71 62 72 59 73 61 74 60 75 47 76 48 77
REMARK SMILES IDX 52 78 49 79 51 80 50 81
REMARK H PARENT 18 5 11 16 23 30 67 49 45 60
REMARK Flexibility Score: inf
ROOT
ATOM      1  C   UNL A   1      31.941  29.474  25.456  1.00  0.00     0.116 C 
ENDROOT
BRANCH   1   2
ATOM      2  N   UNL A   1      31.002  30.063  24.514  1.00  0.00    -0.352 N 
ATOM      3  C   UNL A   1      30.242  29.485  23.526  1.00  0.00     0.251 C 
ATOM      4  O   UNL A   1      29.425  30.166  22.914  1.00  0.00    -0.269 OA
ATOM      5  H   UNL A   1      30.890  31.038  24.600  1.00  0.00     0.163 HD
BRANCH   3   6
ATOM      6  C   UNL A   1      30.332  28.033  23.253  1.00  0.00     0.041 A 
ATOM      7  C   UNL A   1      30.661  25.271  23.148  1.00  0.00     0.061 A 
ATOM      8  C   UNL A   1      29.525  25.811  23.761  1.00  0.00     0.028 A 
ATOM      9  C   UNL A   1      31.521  26.104  22.422  1.00  0.00     0.065 A 
ATOM     10  C   UNL A   1      29.379  27.195  23.842  1.00  0.00     0.016 A 
ATOM     11  C   UNL A   1      31.338  27.485  22.454  1.00  0.00     0.036 A 
ATOM     12  Cl  UNL A   1      32.777  25.481  21.412  1.00  0.00    -0.082 Cl
BRANCH   7  13
ATOM     13  N   UNL A   1      30.881  23.904  23.334  1.00  0.00    -0.306 N 
ATOM     14  C   UNL A   1      31.791  23.249  24.107  1.00  0.00     0.321 C 
ATOM     15  O   UNL A   1      32.202  22.169  23.672  1.00  0.00    -0.248 OA
ATOM     16  H   UNL A   1      30.279  23.318  22.822  1.00  0.00     0.171 HD
BRANCH  14  17
ATOM     17  N   UNL A   1      32.051  23.667  25.406  1.00  0.00    -0.325 N 
BRANCH  17  18
ATOM     18  C   UNL A   1      33.450  23.553  25.859  1.00  0.00     0.124 C 
BRANCH  18  19
ATOM     19  C   UNL A   1      34.411  24.526  25.113  1.00  0.00     0.005 C 
ATOM     20  C   UNL A   1      33.976  25.989  25.253  1.00  0.00     0.009 C 
BRANCH  19  21
ATOM     21  C   UNL A   1      35.883  24.268  25.527  1.00  0.00     0.002 C 
ATOM     22  C   UNL A   1      36.729  23.429  24.579  1.00  0.00     0.004 C 
ENDBRANCH  19  21
ENDBRANCH  18  19
ENDBRANCH  17  18
BRANCH  17  23
ATOM     23  C   UNL A   1      31.091  24.024  26.462  1.00  0.00     0.118 C 
ATOM     24  C   UNL A   1      30.145  22.881  26.813  1.00  0.00     0.027 C 
ENDBRANCH  17  23
ENDBRANCH  14  17
ENDBRANCH   7  13
ENDBRANCH   3   6
ENDBRANCH   1   2
BRANCH   1  25
ATOM     25  C   UNL A   1      31.805  30.103  26.843  1.00  0.00     0.023 C 
BRANCH  25  26
ATOM     26  C   UNL A   1      31.554  31.612  26.825  1.00  0.00     0.023 C 
BRANCH  26  27
ATOM     27  C   UNL A   1      32.789  32.474  27.062  1.00  0.00     0.116 C 
BRANCH  27  28
ATOM     28  N   UNL A   1      32.478  33.767  27.647  1.00  0.00    -0.352 N 
ATOM     29  C   UNL A   1      33.161  34.469  28.613  1.00  0.00     0.251 C 
ATOM     30  H   UNL A   1      31.664  34.202  27.304  1.00  0.00     0.163 HD
ATOM     31  O   UNL A   1      32.688  35.497  29.078  1.00  0.00    -0.269 OA
BRANCH  29  32
ATOM     32  C   UNL A   1      34.455  33.956  29.114  1.00  0.00     0.039 A 
ATOM     33  C   UNL A   1      34.461  33.152  30.257  1.00  0.00     0.014 A 
ATOM     34  C   UNL A   1      35.651  34.252  28.455  1.00  0.00     0.014 A 
ATOM     35  C   UNL A   1      35.658  32.583  30.696  1.00  0.00     0.010 A 
ATOM     36  C   UNL A   1      36.831  33.627  28.852  1.00  0.00     0.010 A 
ATOM     37  C   UNL A   1      36.846  32.785  29.974  1.00  0.00    -0.014 A 
BRANCH  37  38
ATOM     38  C   UNL A   1      38.111  32.117  30.370  1.00  0.00     0.031 A 
ATOM     39  C   UNL A   1      39.046  32.778  31.345  1.00  0.00     0.074 A 
ATOM     40  C   UNL A   1      38.453  30.944  29.801  1.00  0.00     0.049 A 
ATOM     41  N   UNL A   1      40.220  32.379  31.763  1.00  0.00    -0.248 NA
ATOM     42  C   UNL A   1      38.613  34.068  31.905  1.00  0.00     0.031 C 
ATOM     43  C   UNL A   1      37.652  30.213  28.816  1.00  0.00     0.029 A 
ATOM     44  N   UNL A   1      39.568  30.163  29.967  1.00  0.00    -0.354 N 
ATOM     45  C   UNL A   1      40.672  33.373  32.621  1.00  0.00     0.074 A 
ATOM     46  C   UNL A   1      39.670  34.416  32.623  1.00  0.00     0.031 C 
ATOM     47  C   UNL A   1      38.288  29.075  28.491  1.00  0.00     0.029 A 
ATOM     48  C   UNL A   1      39.557  29.017  29.209  1.00  0.00     0.049 A 
ATOM     49  H   UNL A   1      40.307  30.401  30.573  1.00  0.00     0.167 HD
ATOM     50  C   UNL A   1      41.808  33.408  33.356  1.00  0.00     0.031 A 
ATOM     51  C   UNL A   1      40.467  28.031  29.102  1.00  0.00     0.031 A 
ATOM     52  C   UNL A   1      42.805  32.370  33.360  1.00  0.00     0.049 A 
ATOM     53  C   UNL A   1      41.734  28.107  29.906  1.00  0.00     0.074 A 
ATOM     54  C   UNL A   1      43.967  32.292  34.108  1.00  0.00     0.029 A 
ATOM     55  N   UNL A   1      42.757  31.230  32.574  1.00  0.00    -0.354 N 
ATOM     56  N   UNL A   1      42.117  29.025  30.759  1.00  0.00    -0.248 NA
ATOM     57  C   UNL A   1      42.690  27.003  29.738  1.00  0.00     0.031 C 
ATOM     58  C   UNL A   1      44.647  31.126  33.739  1.00  0.00     0.029 A 
ATOM     59  C   UNL A   1      43.881  30.453  32.801  1.00  0.00     0.049 A 
ATOM     60  H   UNL A   1      42.033  31.006  31.946  1.00  0.00     0.167 HD
ATOM     61  C   UNL A   1      43.343  28.594  31.252  1.00  0.00     0.074 A 
ATOM     62  C   UNL A   1      43.632  27.328  30.611  1.00  0.00     0.031 C 
ATOM     63  C   UNL A   1      44.155  29.194  32.156  1.00  0.00     0.031 A 
BRANCH  50  64
ATOM     64  C   UNL A   1      42.034  34.621  34.215  1.00  0.00    -0.014 A 
ATOM     65  C   UNL A   1      42.672  35.764  33.705  1.00  0.00     0.009 A 
ATOM     66  C   UNL A   1      41.586  34.632  35.545  1.00  0.00     0.009 A 
ATOM     67  C   UNL A   1      42.895  36.875  34.522  1.00  0.00     0.001 A 
ATOM     68  C   UNL A   1      41.782  35.755  36.351  1.00  0.00     0.001 A 
ATOM     69  C   UNL A   1      42.447  36.871  35.843  1.00  0.00     0.000 A 
ENDBRANCH  50  64
BRANCH  51  70
ATOM     70  C   UNL A   1      40.205  26.869  28.213  1.00  0.00    -0.014 A 
ATOM     71  C   UNL A   1      39.456  25.777  28.677  1.00  0.00     0.009 A 
ATOM     72  C   UNL A   1      40.707  26.840  26.903  1.00  0.00     0.009 A 
ATOM     73  C   UNL A   1      39.236  24.669  27.858  1.00  0.00     0.001 A 
ATOM     74  C   UNL A   1      40.463  25.741  26.076  1.00  0.00     0.001 A 
ATOM     75  C   UNL A   1      39.736  24.653  26.556  1.00  0.00     0.000 A 
ENDBRANCH  51  70
BRANCH  63  76
ATOM     76  C   UNL A   1      45.415  28.469  32.535  1.00  0.00    -0.014 A 
ATOM     77  C   UNL A   1      45.410  27.454  33.505  1.00  0.00     0.009 A 
ATOM     78  C   UNL A   1      46.618  28.784  31.885  1.00  0.00     0.009 A 
ATOM     79  C   UNL A   1      46.594  26.792  33.839  1.00  0.00     0.001 A 
ATOM     80  C   UNL A   1      47.793  28.099  32.200  1.00  0.00     0.001 A 
ATOM     81  C   UNL A   1      47.782  27.111  33.182  1.00  0.00     0.000 A 
ENDBRANCH  63  76
ENDBRANCH  37  38
ENDBRANCH  29  32
ENDBRANCH  27  28
ENDBRANCH  26  27
ENDBRANCH  25  26
ENDBRANCH   1  25
TORSDOF 17
ENDMDL
MODEL 3
REMARK VINA RESULT:     -10.3      0.552      5.889
REMARK SMILES CC[C@H](C)CN(CC)C(=O)Nc1ccc(C(=O)NCCCCNC(=O)c2ccc(-c3c4nc(c(-c5ccccc5)c5ccc([nH]5)c(-c5ccccc5)c5nc(c(-c6ccccc6)c6ccc3[nH]6)C=C5)C=C4)cc2)cc1Cl
REMARK SMILES IDX 19 1 18 2 16 3 17 4 15 6 12 7 13 8 75 9 14 10 74 11 76 12
REMARK SMILES IDX 11 13 9 14 10 15 6 17 5 18 3 19 4 20 2 21 1 22 7 23 8 24
REMARK SMILES IDX 20 25 21 26 22 27 23 28 24 29 25 31 26 32 27 33 73 34 28 35
REMARK SMILES IDX 72 36 29 37 30 38 31 39 66 40 32 41 71 42 65 43 67 44 33 45
REMARK SMILES IDX 70 46 64 47 63 48 34 50 56 51 41 52 55 53 42 54 45 55 54 56
REMARK SMILES IDX 68 57 43 58 44 59 53 61 69 62 46 63 35 64 36 65 40 66 37 67
REMARK SMILES IDX 39 68 38 69 57 70 58 71 62 72 59 73 61 74 60 75 47 76 48 77
REMARK SMILES IDX 52 78 49 79 51 80 50 81
REMARK H PARENT 18 5 11 16 23 30 67 49 45 60
REMARK Flexibility Score: inf
ROOT
ATOM      1  C   UNL A   1      35.896  21.606  24.836  1.00  0.00     0.116 C 
ENDROOT
BRANCH   1   2
ATOM      2  N   UNL A   1      35.241  20.318  25.005  1.00  0.00    -0.352 N 
ATOM      3  C   UNL A   1      33.925  19.955  24.848  1.00  0.00     0.251 C 
ATOM      4  O   UNL A   1      33.609  18.773  24.938  1.00  0.00    -0.269 OA
ATOM      5  H   UNL A   1      35.840  19.584  25.275  1.00  0.00     0.163 HD
BRANCH   3   6
ATOM      6  C   UNL A   1      32.901  20.959  24.482  1.00  0.00     0.041 A 
ATOM      7  C   UNL A   1      31.314  23.099  23.678  1.00  0.00     0.061 A 
ATOM      8  C   UNL A   1      31.808  22.205  22.722  1.00  0.00     0.028 A 
ATOM      9  C   UNL A   1      31.451  22.806  25.040  1.00  0.00     0.065 A 
ATOM     10  C   UNL A   1      32.630  21.154  23.123  1.00  0.00     0.016 A 
ATOM     11  C   UNL A   1      32.224  21.717  25.439  1.00  0.00     0.036 A 
ATOM     12  Cl  UNL A   1      30.632  23.705  26.267  1.00  0.00    -0.082 Cl
BRANCH   7  13
ATOM     13  N   UNL A   1      30.728  24.272  23.194  1.00  0.00    -0.306 N 
ATOM     14  C   UNL A   1      31.182  25.556  23.192  1.00  0.00     0.321 C 
ATOM     15  O   UNL A   1      30.326  26.439  23.298  1.00  0.00    -0.248 OA
ATOM     16  H   UNL A   1      29.841  24.149  22.786  1.00  0.00     0.171 HD
BRANCH  14  17
ATOM     17  N   UNL A   1      32.499  25.842  22.855  1.00  0.00    -0.325 N 
BRANCH  17  18
ATOM     18  C   UNL A   1      33.247  26.683  23.809  1.00  0.00     0.124 C 
BRANCH  18  19
ATOM     19  C   UNL A   1      33.177  26.150  25.272  1.00  0.00     0.005 C 
ATOM     20  C   UNL A   1      34.257  25.102  25.558  1.00  0.00     0.009 C 
BRANCH  19  21
ATOM     21  C   UNL A   1      33.161  27.326  26.283  1.00  0.00     0.002 C 
ATOM     22  C   UNL A   1      31.866  27.560  27.050  1.00  0.00     0.004 C 
ENDBRANCH  19  21
ENDBRANCH  18  19
ENDBRANCH  17  18
BRANCH  17  23
ATOM     23  C   UNL A   1      33.195  25.589  21.584  1.00  0.00     0.118 C 
ATOM     24  C   UNL A   1      32.277  25.709  20.373  1.00  0.00     0.027 C 
ENDBRANCH  17  23
ENDBRANCH  14  17
ENDBRANCH   7  13
ENDBRANCH   3   6
ENDBRANCH   1   2
BRANCH   1  25
ATOM     25  C   UNL A   1      37.368  21.436  24.460  1.00  0.00     0.023 C 
BRANCH  25  26
ATOM     26  C   UNL A   1      37.977  20.102  24.899  1.00  0.00     0.023 C 
BRANCH  26  27
ATOM     27  C   UNL A   1      39.009  20.203  26.016  1.00  0.00     0.116 C 
BRANCH  27  28
ATOM     28  N   UNL A   1      40.137  19.304  25.833  1.00  0.00    -0.352 N 
ATOM     29  C   UNL A   1      41.480  19.549  26.003  1.00  0.00     0.251 C 
ATOM     30  H   UNL A   1      39.907  18.390  25.547  1.00  0.00     0.163 HD
ATOM     31  O   UNL A   1      42.306  18.704  25.687  1.00  0.00    -0.269 OA
BRANCH  29  32
ATOM     32  C   UNL A   1      41.923  20.855  26.538  1.00  0.00     0.039 A 
ATOM     33  C   UNL A   1      42.336  21.843  25.640  1.00  0.00     0.014 A 
ATOM     34  C   UNL A   1      41.917  21.112  27.912  1.00  0.00     0.014 A 
ATOM     35  C   UNL A   1      42.673  23.112  26.114  1.00  0.00     0.010 A 
ATOM     36  C   UNL A   1      42.184  22.397  28.376  1.00  0.00     0.010 A 
ATOM     37  C   UNL A   1      42.562  23.410  27.483  1.00  0.00    -0.014 A 
BRANCH  37  38
ATOM     38  C   UNL A   1      42.827  24.777  27.997  1.00  0.00     0.031 A 
ATOM     39  C   UNL A   1      44.218  25.179  28.403  1.00  0.00     0.074 A 
ATOM     40  C   UNL A   1      41.804  25.638  28.161  1.00  0.00     0.049 A 
ATOM     41  N   UNL A   1      44.632  26.304  28.930  1.00  0.00    -0.248 NA
ATOM     42  C   UNL A   1      45.278  24.176  28.215  1.00  0.00     0.031 C 
ATOM     43  C   UNL A   1      40.402  25.363  27.838  1.00  0.00     0.029 A 
ATOM     44  N   UNL A   1      41.786  26.921  28.648  1.00  0.00    -0.354 N 
ATOM     45  C   UNL A   1      45.993  26.138  29.148  1.00  0.00     0.074 A 
ATOM     46  C   UNL A   1      46.325  24.788  28.746  1.00  0.00     0.031 C 
ATOM     47  C   UNL A   1      39.668  26.455  28.105  1.00  0.00     0.029 A 
ATOM     48  C   UNL A   1      40.536  27.490  28.657  1.00  0.00     0.049 A 
ATOM     49  H   UNL A   1      42.593  27.389  28.962  1.00  0.00     0.167 HD
ATOM     50  C   UNL A   1      46.892  27.033  29.623  1.00  0.00     0.031 A 
ATOM     51  C   UNL A   1      40.132  28.707  29.066  1.00  0.00     0.031 A 
ATOM     52  C   UNL A   1      46.567  28.377  30.019  1.00  0.00     0.049 A 
ATOM     53  C   UNL A   1      41.144  29.673  29.617  1.00  0.00     0.074 A 
ATOM     54  C   UNL A   1      47.417  29.374  30.467  1.00  0.00     0.029 A 
ATOM     55  N   UNL A   1      45.288  28.911  30.018  1.00  0.00    -0.354 N 
ATOM     56  N   UNL A   1      42.438  29.521  29.760  1.00  0.00    -0.248 NA
ATOM     57  C   UNL A   1      40.637  30.982  30.053  1.00  0.00     0.031 C 
ATOM     58  C   UNL A   1      46.644  30.497  30.782  1.00  0.00     0.029 A 
ATOM     59  C   UNL A   1      45.322  30.216  30.479  1.00  0.00     0.049 A 
ATOM     60  H   UNL A   1      44.476  28.433  29.733  1.00  0.00     0.167 HD
ATOM     61  C   UNL A   1      42.904  30.725  30.274  1.00  0.00     0.074 A 
ATOM     62  C   UNL A   1      41.757  31.598  30.405  1.00  0.00     0.031 C 
ATOM     63  C   UNL A   1      44.172  31.074  30.604  1.00  0.00     0.031 A 
BRANCH  50  64
ATOM     64  C   UNL A   1      48.319  26.575  29.745  1.00  0.00    -0.014 A 
ATOM     65  C   UNL A   1      48.817  26.062  30.955  1.00  0.00     0.009 A 
ATOM     66  C   UNL A   1      49.173  26.637  28.633  1.00  0.00     0.009 A 
ATOM     67  C   UNL A   1      50.151  25.662  31.059  1.00  0.00     0.001 A 
ATOM     68  C   UNL A   1      50.498  26.207  28.731  1.00  0.00     0.001 A 
ATOM     69  C   UNL A   1      50.989  25.731  29.946  1.00  0.00     0.000 A 
ENDBRANCH  50  64
BRANCH  51  70
ATOM     70  C   UNL A   1      38.703  29.096  28.951  1.00  0.00    -0.014 A 
ATOM     71  C   UNL A   1      38.206  29.619  27.747  1.00  0.00     0.009 A 
ATOM     72  C   UNL A   1      37.830  28.956  30.041  1.00  0.00     0.009 A 
ATOM     73  C   UNL A   1      36.872  30.017  27.644  1.00  0.00     0.001 A 
ATOM     74  C   UNL A   1      36.489  29.329  29.927  1.00  0.00     0.001 A 
ATOM     75  C   UNL A   1      36.013  29.869  28.733  1.00  0.00     0.000 A 
ENDBRANCH  51  70
BRANCH  63  76
ATOM     76  C   UNL A   1      44.389  32.474  31.104  1.00  0.00    -0.014 A 
ATOM     77  C   UNL A   1      44.352  32.776  32.475  1.00  0.00     0.009 A 
ATOM     78  C   UNL A   1      44.669  33.501  30.189  1.00  0.00     0.009 A 
ATOM     79  C   UNL A   1      44.559  34.084  32.915  1.00  0.00     0.001 A 
ATOM     80  C   UNL A   1      44.905  34.803  30.635  1.00  0.00     0.001 A 
ATOM     81  C   UNL A   1      44.841  35.095  31.996  1.00  0.00     0.000 A 
ENDBRANCH  63  76
ENDBRANCH  37  38
ENDBRANCH  29  32
ENDBRANCH  27  28
ENDBRANCH  26  27
ENDBRANCH  25  26
ENDBRANCH   1  25
TORSDOF 17
ENDMDL
