MODEL 1
REMARK VINA RESULT:     -10.9      0.000      0.000
REMARK SMILES CC[C@H](NS(=O)(=O)Cc1ccccc1)C(=O)NCCCCNC(=O)c1ccc(-c2c3nc(c(-c4ccccc4)c4ccc([nH]4)c(-c4ccccc4)c4nc(c(-c5ccccc5)c5ccc2[nH]5)C=C4)C=C3)cc1
REMARK SMILES IDX 18 1 17 2 15 3 16 4 3 6 2 7 1 8 4 9 5 11 6 12 7 13 8 14 9 15
REMARK SMILES IDX 10 16 14 17 11 18 13 19 12 20 19 21 20 22 21 23 22 24 23 25
REMARK SMILES IDX 24 27 25 28 26 29 72 30 27 31 71 32 28 33 29 34 30 35 65 36
REMARK SMILES IDX 31 37 70 38 64 39 66 40 32 41 69 42 63 43 62 44 33 46 55 47
REMARK SMILES IDX 40 48 54 49 41 50 44 51 53 52 67 53 42 54 43 55 52 57 68 58
REMARK SMILES IDX 45 59 34 60 35 61 39 62 36 63 38 64 37 65 56 66 57 67 61 68
REMARK SMILES IDX 58 69 60 70 59 71 46 72 47 73 51 74 48 75 50 76 49 77
REMARK H PARENT 17 5 4 10 22 26 66 45 44 56
REMARK Flexibility Score: inf
ROOT
ATOM      1  C   UNL A   1      30.796  25.974  25.871  1.00  0.00     0.116 C 
ENDROOT
BRANCH   1   2
ATOM      2  N   UNL A   1      30.098  24.791  26.334  1.00  0.00    -0.355 N 
ATOM      3  C   UNL A   1      30.533  23.563  26.749  1.00  0.00     0.238 C 
ATOM      4  O   UNL A   1      29.791  22.958  27.531  1.00  0.00    -0.273 OA
ATOM      5  H   UNL A   1      29.119  24.891  26.352  1.00  0.00     0.163 HD
BRANCH   3   6
ATOM      6  C   UNL A   1      31.845  22.925  26.316  1.00  0.00     0.158 C 
BRANCH   6   7
ATOM      7  C   UNL A   1      32.932  22.986  27.408  1.00  0.00     0.027 C 
ATOM      8  C   UNL A   1      33.862  21.795  27.555  1.00  0.00     0.006 C 
ENDBRANCH   6   7
BRANCH   6   9
ATOM      9  N   UNL A   1      32.328  23.353  24.982  1.00  0.00    -0.202 NA
ATOM     10  H   UNL A   1      33.096  24.008  25.130  1.00  0.00     0.141 HD
BRANCH   9  11
ATOM     11  S   UNL A   1      32.885  22.147  23.922  1.00  0.00     0.216 S 
ATOM     12  O   UNL A   1      32.252  22.516  22.664  1.00  0.00    -0.212 OA
ATOM     13  O   UNL A   1      34.321  22.086  24.001  1.00  0.00    -0.212 OA
BRANCH  11  14
ATOM     14  C   UNL A   1      32.109  20.605  24.440  1.00  0.00     0.189 C 
BRANCH  14  15
ATOM     15  C   UNL A   1      32.813  19.341  24.019  1.00  0.00    -0.032 A 
ATOM     16  C   UNL A   1      33.944  18.890  24.718  1.00  0.00     0.005 A 
ATOM     17  C   UNL A   1      32.324  18.518  23.002  1.00  0.00     0.005 A 
ATOM     18  C   UNL A   1      34.660  17.759  24.328  1.00  0.00     0.000 A 
ATOM     19  C   UNL A   1      33.012  17.355  22.631  1.00  0.00     0.000 A 
ATOM     20  C   UNL A   1      34.197  16.995  23.269  1.00  0.00     0.000 A 
ENDBRANCH  14  15
ENDBRANCH  11  14
ENDBRANCH   9  11
ENDBRANCH   6   9
ENDBRANCH   3   6
ENDBRANCH   1   2
BRANCH   1  21
ATOM     21  C   UNL A   1      31.958  26.557  26.682  1.00  0.00     0.023 C 
BRANCH  21  22
ATOM     22  C   UNL A   1      32.141  28.060  26.920  1.00  0.00     0.023 C 
BRANCH  22  23
ATOM     23  C   UNL A   1      33.518  28.592  27.284  1.00  0.00     0.116 C 
BRANCH  23  24
ATOM     24  N   UNL A   1      33.510  30.003  27.599  1.00  0.00    -0.352 N 
ATOM     25  C   UNL A   1      34.493  30.773  28.178  1.00  0.00     0.251 C 
ATOM     26  H   UNL A   1      32.682  30.483  27.368  1.00  0.00     0.163 HD
ATOM     27  O   UNL A   1      34.240  31.929  28.505  1.00  0.00    -0.269 OA
BRANCH  25  28
ATOM     28  C   UNL A   1      35.845  30.221  28.441  1.00  0.00     0.039 A 
ATOM     29  C   UNL A   1      36.783  30.231  27.403  1.00  0.00     0.014 A 
ATOM     30  C   UNL A   1      36.188  29.659  29.674  1.00  0.00     0.014 A 
ATOM     31  C   UNL A   1      38.071  29.729  27.614  1.00  0.00     0.010 A 
ATOM     32  C   UNL A   1      37.492  29.212  29.902  1.00  0.00     0.010 A 
ATOM     33  C   UNL A   1      38.448  29.238  28.874  1.00  0.00    -0.014 A 
BRANCH  33  34
ATOM     34  C   UNL A   1      39.830  28.747  29.126  1.00  0.00     0.031 A 
ATOM     35  C   UNL A   1      40.863  29.660  29.732  1.00  0.00     0.074 A 
ATOM     36  C   UNL A   1      40.175  27.496  28.761  1.00  0.00     0.049 A 
ATOM     37  N   UNL A   1      42.130  29.431  29.973  1.00  0.00    -0.248 NA
ATOM     38  C   UNL A   1      40.420  31.015  30.099  1.00  0.00     0.031 C 
ATOM     39  C   UNL A   1      39.282  26.519  28.138  1.00  0.00     0.029 A 
ATOM     40  N   UNL A   1      41.377  26.836  28.850  1.00  0.00    -0.354 N 
ATOM     41  C   UNL A   1      42.637  30.613  30.497  1.00  0.00     0.074 A 
ATOM     42  C   UNL A   1      41.553  31.571  30.507  1.00  0.00     0.031 C 
ATOM     43  C   UNL A   1      39.961  25.383  27.912  1.00  0.00     0.029 A 
ATOM     44  C   UNL A   1      41.347  25.563  28.333  1.00  0.00     0.049 A 
ATOM     45  H   UNL A   1      42.185  27.237  29.247  1.00  0.00     0.167 HD
ATOM     46  C   UNL A   1      43.891  30.877  30.939  1.00  0.00     0.031 A 
ATOM     47  C   UNL A   1      42.326  24.647  28.196  1.00  0.00     0.031 A 
ATOM     48  C   UNL A   1      44.966  29.922  30.945  1.00  0.00     0.049 A 
ATOM     49  C   UNL A   1      43.715  24.976  28.673  1.00  0.00     0.074 A 
ATOM     50  C   UNL A   1      46.247  30.073  31.448  1.00  0.00     0.029 A 
ATOM     51  N   UNL A   1      44.892  28.643  30.415  1.00  0.00    -0.354 N 
ATOM     52  N   UNL A   1      44.153  26.069  29.249  1.00  0.00    -0.248 NA
ATOM     53  C   UNL A   1      44.745  23.943  28.482  1.00  0.00     0.031 C 
ATOM     54  C   UNL A   1      46.967  28.909  31.164  1.00  0.00     0.029 A 
ATOM     55  C   UNL A   1      46.117  28.011  30.540  1.00  0.00     0.049 A 
ATOM     56  H   UNL A   1      44.087  28.245  30.011  1.00  0.00     0.167 HD
ATOM     57  C   UNL A   1      45.499  25.846  29.509  1.00  0.00     0.074 A 
ATOM     58  C   UNL A   1      45.803  24.508  29.048  1.00  0.00     0.031 C 
ATOM     59  C   UNL A   1      46.405  26.679  30.077  1.00  0.00     0.031 A 
BRANCH  46  60
ATOM     60  C   UNL A   1      44.181  32.265  31.440  1.00  0.00    -0.014 A 
ATOM     61  C   UNL A   1      44.028  32.601  32.794  1.00  0.00     0.009 A 
ATOM     62  C   UNL A   1      44.679  33.233  30.553  1.00  0.00     0.009 A 
ATOM     63  C   UNL A   1      44.338  33.888  33.242  1.00  0.00     0.001 A 
ATOM     64  C   UNL A   1      45.015  34.509  31.008  1.00  0.00     0.001 A 
ATOM     65  C   UNL A   1      44.837  34.838  32.351  1.00  0.00     0.000 A 
ENDBRANCH  46  60
BRANCH  47  66
ATOM     66  C   UNL A   1      42.041  23.333  27.558  1.00  0.00    -0.014 A 
ATOM     67  C   UNL A   1      41.480  22.282  28.299  1.00  0.00     0.009 A 
ATOM     68  C   UNL A   1      42.354  23.115  26.207  1.00  0.00     0.009 A 
ATOM     69  C   UNL A   1      41.268  21.033  27.709  1.00  0.00     0.001 A 
ATOM     70  C   UNL A   1      42.111  21.876  25.611  1.00  0.00     0.001 A 
ATOM     71  C   UNL A   1      41.580  20.832  26.366  1.00  0.00     0.000 A 
ENDBRANCH  47  66
BRANCH  59  72
ATOM     72  C   UNL A   1      47.806  26.164  30.253  1.00  0.00    -0.014 A 
ATOM     73  C   UNL A   1      48.728  26.192  29.196  1.00  0.00     0.009 A 
ATOM     74  C   UNL A   1      48.225  25.704  31.511  1.00  0.00     0.009 A 
ATOM     75  C   UNL A   1      50.037  25.746  29.390  1.00  0.00     0.001 A 
ATOM     76  C   UNL A   1      49.542  25.287  31.711  1.00  0.00     0.001 A 
ATOM     77  C   UNL A   1      50.444  25.301  30.648  1.00  0.00     0.000 A 
ENDBRANCH  59  72
ENDBRANCH  33  34
ENDBRANCH  25  28
ENDBRANCH  23  24
ENDBRANCH  22  23
ENDBRANCH  21  22
ENDBRANCH   1  21
TORSDOF 16
ENDMDL
MODEL 2
REMARK VINA RESULT:     -10.7      1.523      2.204
REMARK SMILES CC[C@H](NS(=O)(=O)Cc1ccccc1)C(=O)NCCCCNC(=O)c1ccc(-c2c3nc(c(-c4ccccc4)c4ccc([nH]4)c(-c4ccccc4)c4nc(c(-c5ccccc5)c5ccc2[nH]5)C=C4)C=C3)cc1
REMARK SMILES IDX 18 1 17 2 15 3 16 4 3 6 2 7 1 8 4 9 5 11 6 12 7 13 8 14 9 15
REMARK SMILES IDX 10 16 14 17 11 18 13 19 12 20 19 21 20 22 21 23 22 24 23 25
REMARK SMILES IDX 24 27 25 28 26 29 72 30 27 31 71 32 28 33 29 34 30 35 65 36
REMARK SMILES IDX 31 37 70 38 64 39 66 40 32 41 69 42 63 43 62 44 33 46 55 47
REMARK SMILES IDX 40 48 54 49 41 50 44 51 53 52 67 53 42 54 43 55 52 57 68 58
REMARK SMILES IDX 45 59 34 60 35 61 39 62 36 63 38 64 37 65 56 66 57 67 61 68
REMARK SMILES IDX 58 69 60 70 59 71 46 72 47 73 51 74 48 75 50 76 49 77
REMARK H PARENT 17 5 4 10 22 26 66 45 44 56
REMARK Flexibility Score: inf
ROOT
ATOM      1  C   UNL A   1      30.649  26.326  25.930  1.00  0.00     0.116 C 
ENDROOT
BRANCH   1   2
ATOM      2  N   UNL A   1      30.044  25.104  26.423  1.00  0.00    -0.355 N 
ATOM      3  C   UNL A   1      30.521  23.833  26.579  1.00  0.00     0.238 C 
ATOM      4  O   UNL A   1      29.976  23.149  27.454  1.00  0.00    -0.273 OA
ATOM      5  H   UNL A   1      29.105  25.211  26.699  1.00  0.00     0.163 HD
BRANCH   3   6
ATOM      6  C   UNL A   1      31.658  23.236  25.762  1.00  0.00     0.158 C 
BRANCH   6   7
ATOM      7  C   UNL A   1      31.728  23.797  24.328  1.00  0.00     0.027 C 
ATOM      8  C   UNL A   1      31.088  22.989  23.214  1.00  0.00     0.006 C 
ENDBRANCH   6   7
BRANCH   6   9
ATOM      9  N   UNL A   1      31.750  21.758  25.820  1.00  0.00    -0.202 NA
ATOM     10  H   UNL A   1      31.301  21.391  24.981  1.00  0.00     0.141 HD
BRANCH   9  11
ATOM     11  S   UNL A   1      33.300  21.068  25.911  1.00  0.00     0.216 S 
ATOM     12  O   UNL A   1      33.761  21.499  27.223  1.00  0.00    -0.212 OA
ATOM     13  O   UNL A   1      33.200  19.661  25.623  1.00  0.00    -0.212 OA
BRANCH  11  14
ATOM     14  C   UNL A   1      34.325  21.937  24.709  1.00  0.00     0.189 C 
BRANCH  14  15
ATOM     15  C   UNL A   1      35.737  22.235  25.143  1.00  0.00    -0.032 A 
ATOM     16  C   UNL A   1      36.093  23.523  25.571  1.00  0.00     0.005 A 
ATOM     17  C   UNL A   1      36.713  21.240  25.239  1.00  0.00     0.005 A 
ATOM     18  C   UNL A   1      37.399  23.857  25.925  1.00  0.00     0.000 A 
ATOM     19  C   UNL A   1      38.019  21.556  25.636  1.00  0.00     0.000 A 
ATOM     20  C   UNL A   1      38.370  22.869  25.945  1.00  0.00     0.000 A 
ENDBRANCH  14  15
ENDBRANCH  11  14
ENDBRANCH   9  11
ENDBRANCH   6   9
ENDBRANCH   3   6
ENDBRANCH   1   2
BRANCH   1  21
ATOM     21  C   UNL A   1      31.458  27.226  26.868  1.00  0.00     0.023 C 
BRANCH  21  22
ATOM     22  C   UNL A   1      32.467  28.265  26.368  1.00  0.00     0.023 C 
BRANCH  22  23
ATOM     23  C   UNL A   1      33.634  28.658  27.260  1.00  0.00     0.116 C 
BRANCH  23  24
ATOM     24  N   UNL A   1      33.611  30.054  27.635  1.00  0.00    -0.352 N 
ATOM     25  C   UNL A   1      34.580  30.807  28.257  1.00  0.00     0.251 C 
ATOM     26  H   UNL A   1      32.781  30.536  27.414  1.00  0.00     0.163 HD
ATOM     27  O   UNL A   1      34.314  31.945  28.630  1.00  0.00    -0.269 OA
BRANCH  25  28
ATOM     28  C   UNL A   1      35.934  30.255  28.511  1.00  0.00     0.039 A 
ATOM     29  C   UNL A   1      36.880  30.307  27.482  1.00  0.00     0.014 A 
ATOM     30  C   UNL A   1      36.271  29.652  29.727  1.00  0.00     0.014 A 
ATOM     31  C   UNL A   1      38.170  29.807  27.685  1.00  0.00     0.010 A 
ATOM     32  C   UNL A   1      37.577  29.207  29.950  1.00  0.00     0.010 A 
ATOM     33  C   UNL A   1      38.540  29.275  28.931  1.00  0.00    -0.014 A 
BRANCH  33  34
ATOM     34  C   UNL A   1      39.925  28.786  29.177  1.00  0.00     0.031 A 
ATOM     35  C   UNL A   1      40.958  29.699  29.779  1.00  0.00     0.074 A 
ATOM     36  C   UNL A   1      40.269  27.535  28.810  1.00  0.00     0.049 A 
ATOM     37  N   UNL A   1      42.227  29.470  30.015  1.00  0.00    -0.248 NA
ATOM     38  C   UNL A   1      40.516  31.053  30.149  1.00  0.00     0.031 C 
ATOM     39  C   UNL A   1      39.374  26.557  28.190  1.00  0.00     0.029 A 
ATOM     40  N   UNL A   1      41.472  26.876  28.893  1.00  0.00    -0.354 N 
ATOM     41  C   UNL A   1      42.735  30.653  30.537  1.00  0.00     0.074 A 
ATOM     42  C   UNL A   1      41.650  31.610  30.552  1.00  0.00     0.031 C 
ATOM     43  C   UNL A   1      40.053  25.422  27.961  1.00  0.00     0.029 A 
ATOM     44  C   UNL A   1      41.441  25.602  28.376  1.00  0.00     0.049 A 
ATOM     45  H   UNL A   1      42.280  27.277  29.287  1.00  0.00     0.167 HD
ATOM     46  C   UNL A   1      43.991  30.918  30.973  1.00  0.00     0.031 A 
ATOM     47  C   UNL A   1      42.420  24.687  28.234  1.00  0.00     0.031 A 
ATOM     48  C   UNL A   1      45.067  29.964  30.975  1.00  0.00     0.049 A 
ATOM     49  C   UNL A   1      43.811  25.017  28.705  1.00  0.00     0.074 A 
ATOM     50  C   UNL A   1      46.350  30.115  31.472  1.00  0.00     0.029 A 
ATOM     51  N   UNL A   1      44.991  28.685  30.445  1.00  0.00    -0.354 N 
ATOM     52  N   UNL A   1      44.249  26.111  29.280  1.00  0.00    -0.248 NA
ATOM     53  C   UNL A   1      44.841  23.985  28.510  1.00  0.00     0.031 C 
ATOM     54  C   UNL A   1      47.070  28.952  31.185  1.00  0.00     0.029 A 
ATOM     55  C   UNL A   1      46.218  28.054  30.564  1.00  0.00     0.049 A 
ATOM     56  H   UNL A   1      44.185  28.286  30.044  1.00  0.00     0.167 HD
ATOM     57  C   UNL A   1      45.597  25.889  29.535  1.00  0.00     0.074 A 
ATOM     58  C   UNL A   1      45.900  24.551  29.072  1.00  0.00     0.031 C 
ATOM     59  C   UNL A   1      46.504  26.722  30.099  1.00  0.00     0.031 A 
BRANCH  46  60
ATOM     60  C   UNL A   1      44.282  32.305  31.474  1.00  0.00    -0.014 A 
ATOM     61  C   UNL A   1      44.131  32.642  32.828  1.00  0.00     0.009 A 
ATOM     62  C   UNL A   1      44.778  33.274  30.586  1.00  0.00     0.009 A 
ATOM     63  C   UNL A   1      44.442  33.929  33.276  1.00  0.00     0.001 A 
ATOM     64  C   UNL A   1      45.115  34.550  31.040  1.00  0.00     0.001 A 
ATOM     65  C   UNL A   1      44.940  34.879  32.383  1.00  0.00     0.000 A 
ENDBRANCH  46  60
BRANCH  47  66
ATOM     66  C   UNL A   1      42.132  23.374  27.597  1.00  0.00    -0.014 A 
ATOM     67  C   UNL A   1      42.378  23.170  26.231  1.00  0.00     0.009 A 
ATOM     68  C   UNL A   1      41.584  22.323  28.350  1.00  0.00     0.009 A 
ATOM     69  C   UNL A   1      42.051  21.953  25.626  1.00  0.00     0.001 A 
ATOM     70  C   UNL A   1      41.289  21.097  27.750  1.00  0.00     0.001 A 
ATOM     71  C   UNL A   1      41.511  20.917  26.386  1.00  0.00     0.000 A 
ENDBRANCH  47  66
BRANCH  59  72
ATOM     72  C   UNL A   1      47.907  26.208  30.270  1.00  0.00    -0.014 A 
ATOM     73  C   UNL A   1      48.834  26.267  29.218  1.00  0.00     0.009 A 
ATOM     74  C   UNL A   1      48.322  25.718  31.517  1.00  0.00     0.009 A 
ATOM     75  C   UNL A   1      50.144  25.821  29.407  1.00  0.00     0.001 A 
ATOM     76  C   UNL A   1      49.639  25.301  31.713  1.00  0.00     0.001 A 
ATOM     77  C   UNL A   1      50.547  25.346  30.655  1.00  0.00     0.000 A 
ENDBRANCH  59  72
ENDBRANCH  33  34
ENDBRANCH  25  28
ENDBRANCH  23  24
ENDBRANCH  22  23
ENDBRANCH  21  22
ENDBRANCH   1  21
TORSDOF 16
ENDMDL
MODEL 3
REMARK VINA RESULT:     -10.6      3.336      7.525
REMARK SMILES CC[C@H](NS(=O)(=O)Cc1ccccc1)C(=O)NCCCCNC(=O)c1ccc(-c2c3nc(c(-c4ccccc4)c4ccc([nH]4)c(-c4ccccc4)c4nc(c(-c5ccccc5)c5ccc2[nH]5)C=C4)C=C3)cc1
REMARK SMILES IDX 18 1 17 2 15 3 16 4 3 6 2 7 1 8 4 9 5 11 6 12 7 13 8 14 9 15
REMARK SMILES IDX 10 16 14 17 11 18 13 19 12 20 19 21 20 22 21 23 22 24 23 25
REMARK SMILES IDX 24 27 25 28 26 29 72 30 27 31 71 32 28 33 29 34 30 35 65 36
REMARK SMILES IDX 31 37 70 38 64 39 66 40 32 41 69 42 63 43 62 44 33 46 55 47
REMARK SMILES IDX 40 48 54 49 41 50 44 51 53 52 67 53 42 54 43 55 52 57 68 58
REMARK SMILES IDX 45 59 34 60 35 61 39 62 36 63 38 64 37 65 56 66 57 67 61 68
REMARK SMILES IDX 58 69 60 70 59 71 46 72 47 73 51 74 48 75 50 76 49 77
REMARK H PARENT 17 5 4 10 22 26 66 45 44 56
REMARK Flexibility Score: inf
ROOT
ATOM      1  C   UNL A   1      31.684  29.814  25.395  1.00  0.00     0.116 C 
ENDROOT
BRANCH   1   2
ATOM      2  N   UNL A   1      32.857  29.689  24.553  1.00  0.00    -0.355 N 
ATOM      3  C   UNL A   1      33.342  28.664  23.788  1.00  0.00     0.238 C 
ATOM      4  O   UNL A   1      34.044  28.989  22.823  1.00  0.00    -0.273 OA
ATOM      5  H   UNL A   1      33.414  30.500  24.526  1.00  0.00     0.163 HD
BRANCH   3   6
ATOM      6  C   UNL A   1      33.064  27.191  24.051  1.00  0.00     0.158 C 
BRANCH   6   7
ATOM      7  C   UNL A   1      33.255  26.797  25.529  1.00  0.00     0.027 C 
ATOM      8  C   UNL A   1      32.066  26.211  26.270  1.00  0.00     0.006 C 
ENDBRANCH   6   7
BRANCH   6   9
ATOM      9  N   UNL A   1      33.724  26.261  23.105  1.00  0.00    -0.202 NA
ATOM     10  H   UNL A   1      34.538  25.869  23.578  1.00  0.00     0.141 HD
BRANCH   9  11
ATOM     11  S   UNL A   1      32.807  24.960  22.509  1.00  0.00     0.216 S 
ATOM     12  O   UNL A   1      31.441  25.395  22.761  1.00  0.00    -0.212 OA
ATOM     13  O   UNL A   1      33.223  24.677  21.160  1.00  0.00    -0.212 OA
BRANCH  11  14
ATOM     14  C   UNL A   1      33.103  23.569  23.618  1.00  0.00     0.189 C 
BRANCH  14  15
ATOM     15  C   UNL A   1      34.518  23.411  24.111  1.00  0.00    -0.032 A 
ATOM     16  C   UNL A   1      35.543  23.043  23.225  1.00  0.00     0.005 A 
ATOM     17  C   UNL A   1      34.890  23.719  25.421  1.00  0.00     0.005 A 
ATOM     18  C   UNL A   1      36.853  22.829  23.649  1.00  0.00     0.000 A 
ATOM     19  C   UNL A   1      36.215  23.551  25.846  1.00  0.00     0.000 A 
ATOM     20  C   UNL A   1      37.187  23.072  24.971  1.00  0.00     0.000 A 
ENDBRANCH  14  15
ENDBRANCH  11  14
ENDBRANCH   9  11
ENDBRANCH   6   9
ENDBRANCH   3   6
ENDBRANCH   1   2
BRANCH   1  21
ATOM     21  C   UNL A   1      31.772  30.528  26.748  1.00  0.00     0.023 C 
BRANCH  21  22
ATOM     22  C   UNL A   1      31.516  32.028  26.921  1.00  0.00     0.023 C 
BRANCH  22  23
ATOM     23  C   UNL A   1      32.695  32.988  26.923  1.00  0.00     0.116 C 
BRANCH  23  24
ATOM     24  N   UNL A   1      32.461  34.166  27.728  1.00  0.00    -0.352 N 
ATOM     25  C   UNL A   1      33.151  34.623  28.828  1.00  0.00     0.251 C 
ATOM     26  H   UNL A   1      31.696  34.721  27.451  1.00  0.00     0.163 HD
ATOM     27  O   UNL A   1      32.705  35.568  29.471  1.00  0.00    -0.269 OA
BRANCH  25  28
ATOM     28  C   UNL A   1      34.412  33.973  29.266  1.00  0.00     0.039 A 
ATOM     29  C   UNL A   1      35.603  34.331  28.627  1.00  0.00     0.014 A 
ATOM     30  C   UNL A   1      34.431  32.993  30.263  1.00  0.00     0.014 A 
ATOM     31  C   UNL A   1      36.814  33.750  29.019  1.00  0.00     0.010 A 
ATOM     32  C   UNL A   1      35.647  32.456  30.694  1.00  0.00     0.010 A 
ATOM     33  C   UNL A   1      36.852  32.825  30.075  1.00  0.00    -0.014 A 
BRANCH  33  34
ATOM     34  C   UNL A   1      38.139  32.236  30.535  1.00  0.00     0.031 A 
ATOM     35  C   UNL A   1      38.649  30.955  29.930  1.00  0.00     0.074 A 
ATOM     36  C   UNL A   1      38.827  32.824  31.534  1.00  0.00     0.049 A 
ATOM     37  N   UNL A   1      39.718  30.263  30.239  1.00  0.00    -0.248 NA
ATOM     38  C   UNL A   1      37.845  30.364  28.849  1.00  0.00     0.031 C 
ATOM     39  C   UNL A   1      38.431  34.051  32.227  1.00  0.00     0.029 A 
ATOM     40  N   UNL A   1      39.999  32.459  32.152  1.00  0.00    -0.354 N 
ATOM     41  C   UNL A   1      39.701  29.149  29.410  1.00  0.00     0.074 A 
ATOM     42  C   UNL A   1      38.500  29.236  28.608  1.00  0.00     0.031 C 
ATOM     43  C   UNL A   1      39.348  34.343  33.163  1.00  0.00     0.029 A 
ATOM     44  C   UNL A   1      40.374  33.305  33.169  1.00  0.00     0.049 A 
ATOM     45  H   UNL A   1      40.522  31.667  31.890  1.00  0.00     0.167 HD
ATOM     46  C   UNL A   1      40.609  28.146  29.317  1.00  0.00     0.031 A 
ATOM     47  C   UNL A   1      41.415  33.244  34.023  1.00  0.00     0.031 A 
ATOM     48  C   UNL A   1      41.811  28.065  30.101  1.00  0.00     0.049 A 
ATOM     49  C   UNL A   1      42.393  32.106  33.913  1.00  0.00     0.074 A 
ATOM     50  C   UNL A   1      42.830  27.132  30.019  1.00  0.00     0.029 A 
ATOM     51  N   UNL A   1      42.153  28.944  31.117  1.00  0.00    -0.354 N 
ATOM     52  N   UNL A   1      42.409  31.111  33.060  1.00  0.00    -0.248 NA
ATOM     53  C   UNL A   1      43.500  32.086  34.882  1.00  0.00     0.031 C 
ATOM     54  C   UNL A   1      43.756  27.407  31.030  1.00  0.00     0.029 A 
ATOM     55  C   UNL A   1      43.345  28.547  31.699  1.00  0.00     0.049 A 
ATOM     56  H   UNL A   1      41.627  29.732  31.384  1.00  0.00     0.167 HD
ATOM     57  C   UNL A   1      43.535  30.360  33.375  1.00  0.00     0.074 A 
ATOM     58  C   UNL A   1      44.189  31.025  34.482  1.00  0.00     0.031 C 
ATOM     59  C   UNL A   1      43.985  29.219  32.800  1.00  0.00     0.031 A 
BRANCH  46  60
ATOM     60  C   UNL A   1      40.331  27.037  28.340  1.00  0.00    -0.014 A 
ATOM     61  C   UNL A   1      40.831  27.073  27.029  1.00  0.00     0.009 A 
ATOM     62  C   UNL A   1      39.613  25.906  28.761  1.00  0.00     0.009 A 
ATOM     63  C   UNL A   1      40.589  26.013  26.151  1.00  0.00     0.001 A 
ATOM     64  C   UNL A   1      39.397  24.836  27.891  1.00  0.00     0.001 A 
ATOM     65  C   UNL A   1      39.879  24.893  26.584  1.00  0.00     0.000 A 
ENDBRANCH  46  60
BRANCH  47  66
ATOM     66  C   UNL A   1      41.580  34.280  35.078  1.00  0.00    -0.014 A 
ATOM     67  C   UNL A   1      42.363  35.421  34.847  1.00  0.00     0.009 A 
ATOM     68  C   UNL A   1      40.975  34.119  36.335  1.00  0.00     0.009 A 
ATOM     69  C   UNL A   1      42.563  36.361  35.862  1.00  0.00     0.001 A 
ATOM     70  C   UNL A   1      41.149  35.076  37.336  1.00  0.00     0.001 A 
ATOM     71  C   UNL A   1      41.953  36.191  37.103  1.00  0.00     0.000 A 
ENDBRANCH  47  66
BRANCH  59  72
ATOM     72  C   UNL A   1      45.256  28.625  33.339  1.00  0.00    -0.014 A 
ATOM     73  C   UNL A   1      45.230  27.648  34.347  1.00  0.00     0.009 A 
ATOM     74  C   UNL A   1      46.490  29.001  32.787  1.00  0.00     0.009 A 
ATOM     75  C   UNL A   1      46.419  27.079  34.807  1.00  0.00     0.001 A 
ATOM     76  C   UNL A   1      47.674  28.409  33.228  1.00  0.00     0.001 A 
ATOM     77  C   UNL A   1      47.638  27.454  34.243  1.00  0.00     0.000 A 
ENDBRANCH  59  72
ENDBRANCH  33  34
ENDBRANCH  25  28
ENDBRANCH  23  24
ENDBRANCH  22  23
ENDBRANCH  21  22
ENDBRANCH   1  21
TORSDOF 16
ENDMDL
