MODEL 1
REMARK VINA RESULT:     -11.7      0.000      0.000
REMARK SMILES O=C(NCCCCNC(=O)c1sccc1S(=O)(=O)N1CCO[C@@H]2CCCC[C@@H]21)c1ccc(-c2c3nc(c(-c4ccccc4)c4ccc([nH]4)c(-c4ccccc4)c4nc(c(-c5ccccc5)c5ccc2[nH]5)C=C4)C=C3)cc1
REMARK SMILES IDX 5 1 4 2 3 3 1 4 2 5 29 7 30 8 76 9 31 10 75 11 32 12 33 13
REMARK SMILES IDX 34 14 69 15 35 16 74 17 68 18 70 19 36 20 73 21 67 22 66 23
REMARK SMILES IDX 37 25 59 26 44 27 58 28 45 29 48 30 57 31 71 32 46 33 47 34
REMARK SMILES IDX 56 36 72 37 49 38 38 39 39 40 43 41 40 42 42 43 41 44 60 45
REMARK SMILES IDX 61 46 65 47 62 48 64 49 63 50 50 51 51 52 55 53 52 54 54 55
REMARK SMILES IDX 53 56 6 57 7 58 8 59 9 60 10 62 11 63 12 64 15 65 13 66
REMARK SMILES IDX 14 67 16 68 17 69 18 70 19 71 20 72 28 73 21 74 23 75 27 76
REMARK SMILES IDX 22 77 24 78 26 79 25 80
REMARK H PARENT 3 6 70 24 48 35 8 61
REMARK Flexibility Score: inf
ROOT
ATOM      1  C   UNL A   1      39.053  21.568  25.856  1.00  0.00     0.023 C 
ENDROOT
BRANCH   1   2
ATOM      2  C   UNL A   1      39.697  20.526  26.745  1.00  0.00     0.116 C 
BRANCH   2   3
ATOM      3  N   UNL A   1      40.601  19.606  26.085  1.00  0.00    -0.352 N 
ATOM      4  O   UNL A   1      42.655  19.100  25.226  1.00  0.00    -0.269 OA
ATOM      5  C   UNL A   1      41.945  19.857  25.871  1.00  0.00     0.251 C 
ATOM      6  H   UNL A   1      40.235  18.748  25.768  1.00  0.00     0.163 HD
BRANCH   5   7
ATOM      7  C   UNL A   1      42.480  21.121  26.425  1.00  0.00     0.039 A 
ATOM      8  C   UNL A   1      42.492  21.302  27.810  1.00  0.00     0.014 A 
ATOM      9  C   UNL A   1      42.774  22.177  25.560  1.00  0.00     0.014 A 
ATOM     10  C   UNL A   1      42.671  22.580  28.328  1.00  0.00     0.010 A 
ATOM     11  C   UNL A   1      43.021  23.447  26.089  1.00  0.00     0.010 A 
ATOM     12  C   UNL A   1      42.936  23.665  27.474  1.00  0.00    -0.014 A 
BRANCH  12  13
ATOM     13  C   UNL A   1      43.185  25.005  28.061  1.00  0.00     0.031 A 
ATOM     14  C   UNL A   1      42.070  25.984  28.305  1.00  0.00     0.074 A 
ATOM     15  C   UNL A   1      44.446  25.321  28.411  1.00  0.00     0.049 A 
ATOM     16  N   UNL A   1      42.135  27.191  28.811  1.00  0.00    -0.248 NA
ATOM     17  C   UNL A   1      40.711  25.562  27.933  1.00  0.00     0.031 C 
ATOM     18  C   UNL A   1      45.612  24.455  28.228  1.00  0.00     0.029 A 
ATOM     19  N   UNL A   1      44.955  26.445  29.008  1.00  0.00    -0.354 N 
ATOM     20  C   UNL A   1      40.834  27.680  28.804  1.00  0.00     0.074 A 
ATOM     21  C   UNL A   1      40.000  26.642  28.233  1.00  0.00     0.031 C 
ATOM     22  C   UNL A   1      46.693  25.061  28.741  1.00  0.00     0.029 A 
ATOM     23  C   UNL A   1      46.306  26.376  29.235  1.00  0.00     0.049 A 
ATOM     24  H   UNL A   1      44.404  27.224  29.251  1.00  0.00     0.167 HD
ATOM     25  C   UNL A   1      40.380  28.882  29.231  1.00  0.00     0.031 A 
ATOM     26  C   UNL A   1      47.150  27.277  29.767  1.00  0.00     0.031 A 
ATOM     27  C   UNL A   1      41.207  29.917  29.797  1.00  0.00     0.049 A 
ATOM     28  C   UNL A   1      46.621  28.601  30.222  1.00  0.00     0.074 A 
ATOM     29  C   UNL A   1      40.833  31.171  30.255  1.00  0.00     0.029 A 
ATOM     30  N   UNL A   1      42.577  29.818  29.987  1.00  0.00    -0.354 N 
ATOM     31  N   UNL A   1      45.390  29.048  30.195  1.00  0.00    -0.248 NA
ATOM     32  C   UNL A   1      47.600  29.546  30.776  1.00  0.00     0.031 C 
ATOM     33  C   UNL A   1      41.981  31.839  30.695  1.00  0.00     0.029 A 
ATOM     34  C   UNL A   1      43.063  30.988  30.546  1.00  0.00     0.049 A 
ATOM     35  H   UNL A   1      43.123  29.030  29.759  1.00  0.00     0.167 HD
ATOM     36  C   UNL A   1      45.444  30.327  30.726  1.00  0.00     0.074 A 
ATOM     37  C   UNL A   1      46.824  30.574  31.093  1.00  0.00     0.031 C 
ATOM     38  C   UNL A   1      44.441  31.223  30.888  1.00  0.00     0.031 A 
BRANCH  25  39
ATOM     39  C   UNL A   1      38.911  29.165  29.085  1.00  0.00    -0.014 A 
ATOM     40  C   UNL A   1      38.038  29.045  30.177  1.00  0.00     0.009 A 
ATOM     41  C   UNL A   1      38.407  29.626  27.859  1.00  0.00     0.009 A 
ATOM     42  C   UNL A   1      36.685  29.365  30.038  1.00  0.00     0.001 A 
ATOM     43  C   UNL A   1      37.058  29.962  27.727  1.00  0.00     0.001 A 
ATOM     44  C   UNL A   1      36.198  29.827  28.816  1.00  0.00     0.000 A 
ENDBRANCH  25  39
BRANCH  26  45
ATOM     45  C   UNL A   1      48.592  26.948  29.871  1.00  0.00    -0.014 A 
ATOM     46  C   UNL A   1      49.096  26.306  31.011  1.00  0.00     0.009 A 
ATOM     47  C   UNL A   1      49.461  27.242  28.808  1.00  0.00     0.009 A 
ATOM     48  C   UNL A   1      50.451  25.976  31.088  1.00  0.00     0.001 A 
ATOM     49  C   UNL A   1      50.808  26.887  28.879  1.00  0.00     0.001 A 
ATOM     50  C   UNL A   1      51.302  26.260  30.022  1.00  0.00     0.000 A 
ENDBRANCH  26  45
BRANCH  38  51
ATOM     51  C   UNL A   1      44.812  32.544  31.491  1.00  0.00    -0.014 A 
ATOM     52  C   UNL A   1      45.307  33.586  30.690  1.00  0.00     0.009 A 
ATOM     53  C   UNL A   1      44.668  32.749  32.871  1.00  0.00     0.009 A 
ATOM     54  C   UNL A   1      45.684  34.798  31.268  1.00  0.00     0.001 A 
ATOM     55  C   UNL A   1      45.029  33.970  33.443  1.00  0.00     0.001 A 
ATOM     56  C   UNL A   1      45.545  34.989  32.643  1.00  0.00     0.000 A 
ENDBRANCH  38  51
ENDBRANCH  12  13
ENDBRANCH   5   7
ENDBRANCH   2   3
ENDBRANCH   1   2
BRANCH   1  57
ATOM     57  C   UNL A   1      39.038  23.039  26.320  1.00  0.00     0.023 C 
BRANCH  57  58
ATOM     58  C   UNL A   1      37.596  23.824  26.150  1.00  0.00     0.116 C 
BRANCH  58  59
ATOM     59  N   UNL A   1      36.133  23.737  24.799  1.00  0.00    -0.351 N 
ATOM     60  C   UNL A   1      34.890  23.379  24.181  1.00  0.00     0.262 C 
ATOM     61  H   UNL A   1      36.510  24.320  24.101  1.00  0.00     0.163 HD
ATOM     62  O   UNL A   1      34.828  23.856  23.038  1.00  0.00    -0.268 OA
BRANCH  60  63
ATOM     63  C   UNL A   1      33.770  22.593  24.666  1.00  0.00     0.112 A 
ATOM     64  S   UNL A   1      33.620  20.970  24.093  1.00  0.00    -0.137 S 
ATOM     65  C   UNL A   1      32.648  22.947  25.392  1.00  0.00     0.106 A 
ATOM     66  C   UNL A   1      32.175  20.714  24.965  1.00  0.00     0.067 A 
ATOM     67  C   UNL A   1      31.749  21.857  25.600  1.00  0.00     0.034 A 
BRANCH  65  68
ATOM     68  S   UNL A   1      32.376  24.517  26.060  1.00  0.00     0.245 S 
ATOM     69  O   UNL A   1      31.617  24.245  27.262  1.00  0.00    -0.207 OA
ATOM     70  O   UNL A   1      33.698  25.103  26.115  1.00  0.00    -0.207 OA
BRANCH  68  71
ATOM     71  N   UNL A   1      31.440  25.406  24.998  1.00  0.00    -0.190 NA
ATOM     72  C   UNL A   1      31.785  25.299  23.560  1.00  0.00     0.131 C 
ATOM     73  C   UNL A   1      30.659  26.597  25.483  1.00  0.00     0.102 C 
ATOM     74  C   UNL A   1      30.767  25.973  22.652  1.00  0.00     0.177 C 
ATOM     75  C   UNL A   1      30.310  27.839  24.019  1.00  0.00     0.136 C 
ATOM     76  C   UNL A   1      31.315  27.321  27.179  1.00  0.00     0.023 C 
ATOM     77  O   UNL A   1      30.855  27.387  22.777  1.00  0.00    -0.375 OA
ATOM     78  C   UNL A   1      30.846  29.712  24.130  1.00  0.00     0.034 C 
ATOM     79  C   UNL A   1      32.059  29.114  27.227  1.00  0.00     0.002 C 
ATOM     80  C   UNL A   1      31.743  30.312  25.729  1.00  0.00     0.003 C 
ENDBRANCH  68  71
ENDBRANCH  65  68
ENDBRANCH  60  63
ENDBRANCH  58  59
ENDBRANCH  57  58
ENDBRANCH   1  57
TORSDOF 13
ENDMDL
MODEL 2
REMARK VINA RESULT:     -11.6      1.162      1.872
REMARK SMILES O=C(NCCCCNC(=O)c1sccc1S(=O)(=O)N1CCO[C@@H]2CCCC[C@@H]21)c1ccc(-c2c3nc(c(-c4ccccc4)c4ccc([nH]4)c(-c4ccccc4)c4nc(c(-c5ccccc5)c5ccc2[nH]5)C=C4)C=C3)cc1
REMARK SMILES IDX 5 1 4 2 3 3 1 4 2 5 29 7 30 8 76 9 31 10 75 11 32 12 33 13
REMARK SMILES IDX 34 14 69 15 35 16 74 17 68 18 70 19 36 20 73 21 67 22 66 23
REMARK SMILES IDX 37 25 59 26 44 27 58 28 45 29 48 30 57 31 71 32 46 33 47 34
REMARK SMILES IDX 56 36 72 37 49 38 38 39 39 40 43 41 40 42 42 43 41 44 60 45
REMARK SMILES IDX 61 46 65 47 62 48 64 49 63 50 50 51 51 52 55 53 52 54 54 55
REMARK SMILES IDX 53 56 6 57 7 58 8 59 9 60 10 62 11 63 12 64 15 65 13 66
REMARK SMILES IDX 14 67 16 68 17 69 18 70 19 71 20 72 28 73 21 74 23 75 27 76
REMARK SMILES IDX 22 77 24 78 26 79 25 80
REMARK H PARENT 3 6 70 24 48 35 8 61
REMARK Flexibility Score: inf
ROOT
ATOM      1  C   UNL A   1      38.893  21.465  25.672  1.00  0.00     0.023 C 
ENDROOT
BRANCH   1   2
ATOM      2  C   UNL A   1      39.635  20.557  26.629  1.00  0.00     0.116 C 
BRANCH   2   3
ATOM      3  N   UNL A   1      40.552  19.615  26.021  1.00  0.00    -0.352 N 
ATOM      4  O   UNL A   1      42.631  19.072  25.247  1.00  0.00    -0.269 OA
ATOM      5  C   UNL A   1      41.905  19.848  25.851  1.00  0.00     0.251 C 
ATOM      6  H   UNL A   1      40.189  18.754  25.709  1.00  0.00     0.163 HD
BRANCH   5   7
ATOM      7  C   UNL A   1      42.433  21.118  26.398  1.00  0.00     0.039 A 
ATOM      8  C   UNL A   1      42.473  21.295  27.783  1.00  0.00     0.014 A 
ATOM      9  C   UNL A   1      42.692  22.183  25.532  1.00  0.00     0.014 A 
ATOM     10  C   UNL A   1      42.644  22.573  28.303  1.00  0.00     0.010 A 
ATOM     11  C   UNL A   1      42.931  23.454  26.060  1.00  0.00     0.010 A 
ATOM     12  C   UNL A   1      42.874  23.665  27.447  1.00  0.00    -0.014 A 
BRANCH  12  13
ATOM     13  C   UNL A   1      43.115  25.007  28.034  1.00  0.00     0.031 A 
ATOM     14  C   UNL A   1      41.995  25.981  28.275  1.00  0.00     0.074 A 
ATOM     15  C   UNL A   1      44.373  25.328  28.388  1.00  0.00     0.049 A 
ATOM     16  N   UNL A   1      42.053  27.188  28.781  1.00  0.00    -0.248 NA
ATOM     17  C   UNL A   1      40.639  25.553  27.900  1.00  0.00     0.031 C 
ATOM     18  C   UNL A   1      45.544  24.467  28.209  1.00  0.00     0.029 A 
ATOM     19  N   UNL A   1      44.876  26.454  28.986  1.00  0.00    -0.354 N 
ATOM     20  C   UNL A   1      40.750  27.671  28.769  1.00  0.00     0.074 A 
ATOM     21  C   UNL A   1      39.922  26.630  28.197  1.00  0.00     0.031 C 
ATOM     22  C   UNL A   1      46.620  25.078  28.724  1.00  0.00     0.029 A 
ATOM     23  C   UNL A   1      46.226  26.392  29.217  1.00  0.00     0.049 A 
ATOM     24  H   UNL A   1      44.321  27.232  29.227  1.00  0.00     0.167 HD
ATOM     25  C   UNL A   1      40.289  28.872  29.195  1.00  0.00     0.031 A 
ATOM     26  C   UNL A   1      47.065  27.296  29.750  1.00  0.00     0.031 A 
ATOM     27  C   UNL A   1      41.111  29.910  29.762  1.00  0.00     0.049 A 
ATOM     28  C   UNL A   1      46.530  28.619  30.203  1.00  0.00     0.074 A 
ATOM     29  C   UNL A   1      40.730  31.163  30.219  1.00  0.00     0.029 A 
ATOM     30  N   UNL A   1      42.480  29.817  29.957  1.00  0.00    -0.354 N 
ATOM     31  N   UNL A   1      45.297  29.060  30.172  1.00  0.00    -0.248 NA
ATOM     32  C   UNL A   1      47.502  29.568  30.759  1.00  0.00     0.031 C 
ATOM     33  C   UNL A   1      41.874  31.837  30.662  1.00  0.00     0.029 A 
ATOM     34  C   UNL A   1      42.960  30.990  30.516  1.00  0.00     0.049 A 
ATOM     35  H   UNL A   1      43.031  29.032  29.730  1.00  0.00     0.167 HD
ATOM     36  C   UNL A   1      45.343  30.340  30.703  1.00  0.00     0.074 A 
ATOM     37  C   UNL A   1      46.722  30.593  31.074  1.00  0.00     0.031 C 
ATOM     38  C   UNL A   1      44.336  31.231  30.861  1.00  0.00     0.031 A 
BRANCH  25  39
ATOM     39  C   UNL A   1      38.820  29.148  29.044  1.00  0.00    -0.014 A 
ATOM     40  C   UNL A   1      37.939  28.989  30.125  1.00  0.00     0.009 A 
ATOM     41  C   UNL A   1      38.323  29.642  27.829  1.00  0.00     0.009 A 
ATOM     42  C   UNL A   1      36.584  29.303  29.984  1.00  0.00     0.001 A 
ATOM     43  C   UNL A   1      36.972  29.972  27.695  1.00  0.00     0.001 A 
ATOM     44  C   UNL A   1      36.104  29.798  28.772  1.00  0.00     0.000 A 
ENDBRANCH  25  39
BRANCH  26  45
ATOM     45  C   UNL A   1      48.508  26.974  29.859  1.00  0.00    -0.014 A 
ATOM     46  C   UNL A   1      49.399  27.338  28.840  1.00  0.00     0.009 A 
ATOM     47  C   UNL A   1      49.003  26.333  31.006  1.00  0.00     0.009 A 
ATOM     48  C   UNL A   1      50.760  27.054  28.963  1.00  0.00     0.001 A 
ATOM     49  C   UNL A   1      50.368  26.075  31.136  1.00  0.00     0.001 A 
ATOM     50  C   UNL A   1      51.244  26.430  30.112  1.00  0.00     0.000 A 
ENDBRANCH  26  45
BRANCH  38  51
ATOM     51  C   UNL A   1      44.699  32.554  31.465  1.00  0.00    -0.014 A 
ATOM     52  C   UNL A   1      44.668  32.743  32.856  1.00  0.00     0.009 A 
ATOM     53  C   UNL A   1      45.074  33.623  30.636  1.00  0.00     0.009 A 
ATOM     54  C   UNL A   1      44.971  33.990  33.403  1.00  0.00     0.001 A 
ATOM     55  C   UNL A   1      45.396  34.863  31.189  1.00  0.00     0.001 A 
ATOM     56  C   UNL A   1      45.335  35.048  32.570  1.00  0.00     0.000 A 
ENDBRANCH  38  51
ENDBRANCH  12  13
ENDBRANCH   5   7
ENDBRANCH   2   3
ENDBRANCH   1   2
BRANCH   1  57
ATOM     57  C   UNL A   1      38.571  22.908  26.112  1.00  0.00     0.023 C 
BRANCH  57  58
ATOM     58  C   UNL A   1      36.977  23.334  26.042  1.00  0.00     0.116 C 
BRANCH  58  59
ATOM     59  N   UNL A   1      35.289  22.447  26.623  1.00  0.00    -0.351 N 
ATOM     60  C   UNL A   1      34.054  21.723  26.550  1.00  0.00     0.262 C 
ATOM     61  H   UNL A   1      35.331  22.617  27.592  1.00  0.00     0.163 HD
ATOM     62  O   UNL A   1      33.519  21.675  27.668  1.00  0.00    -0.268 OA
BRANCH  60  63
ATOM     63  C   UNL A   1      33.384  21.081  25.434  1.00  0.00     0.112 A 
ATOM     64  S   UNL A   1      33.129  19.375  25.522  1.00  0.00    -0.137 S 
ATOM     65  C   UNL A   1      33.045  21.549  24.177  1.00  0.00     0.106 A 
ATOM     66  C   UNL A   1      32.409  19.324  23.974  1.00  0.00     0.067 A 
ATOM     67  C   UNL A   1      32.447  20.549  23.351  1.00  0.00     0.034 A 
BRANCH  65  68
ATOM     68  S   UNL A   1      33.239  23.187  23.662  1.00  0.00     0.245 S 
ATOM     69  O   UNL A   1      34.663  23.413  23.786  1.00  0.00    -0.207 OA
ATOM     70  O   UNL A   1      32.574  23.226  22.378  1.00  0.00    -0.207 OA
BRANCH  68  71
ATOM     71  N   UNL A   1      32.420  24.190  24.720  1.00  0.00    -0.190 NA
ATOM     72  C   UNL A   1      31.024  23.812  25.046  1.00  0.00     0.131 C 
ATOM     73  C   UNL A   1      32.867  25.613  24.921  1.00  0.00     0.102 C 
ATOM     74  C   UNL A   1      30.425  24.655  26.162  1.00  0.00     0.177 C 
ATOM     75  C   UNL A   1      31.387  26.719  25.550  1.00  0.00     0.136 C 
ATOM     76  C   UNL A   1      33.981  26.293  23.463  1.00  0.00     0.023 C 
ATOM     77  O   UNL A   1      30.175  25.977  25.700  1.00  0.00    -0.375 OA
ATOM     78  C   UNL A   1      30.852  28.334  24.593  1.00  0.00     0.034 C 
ATOM     79  C   UNL A   1      33.332  27.760  22.370  1.00  0.00     0.002 C 
ATOM     80  C   UNL A   1      31.821  28.811  22.994  1.00  0.00     0.003 C 
ENDBRANCH  68  71
ENDBRANCH  65  68
ENDBRANCH  60  63
ENDBRANCH  58  59
ENDBRANCH  57  58
ENDBRANCH   1  57
TORSDOF 13
ENDMDL
MODEL 3
REMARK VINA RESULT:     -11.6      0.879      5.893
REMARK SMILES O=C(NCCCCNC(=O)c1sccc1S(=O)(=O)N1CCO[C@@H]2CCCC[C@@H]21)c1ccc(-c2c3nc(c(-c4ccccc4)c4ccc([nH]4)c(-c4ccccc4)c4nc(c(-c5ccccc5)c5ccc2[nH]5)C=C4)C=C3)cc1
REMARK SMILES IDX 5 1 4 2 3 3 1 4 2 5 29 7 30 8 76 9 31 10 75 11 32 12 33 13
REMARK SMILES IDX 34 14 69 15 35 16 74 17 68 18 70 19 36 20 73 21 67 22 66 23
REMARK SMILES IDX 37 25 59 26 44 27 58 28 45 29 48 30 57 31 71 32 46 33 47 34
REMARK SMILES IDX 56 36 72 37 49 38 38 39 39 40 43 41 40 42 42 43 41 44 60 45
REMARK SMILES IDX 61 46 65 47 62 48 64 49 63 50 50 51 51 52 55 53 52 54 54 55
REMARK SMILES IDX 53 56 6 57 7 58 8 59 9 60 10 62 11 63 12 64 15 65 13 66
REMARK SMILES IDX 14 67 16 68 17 69 18 70 19 71 20 72 28 73 21 74 23 75 27 76
REMARK SMILES IDX 22 77 24 78 26 79 25 80
REMARK H PARENT 3 6 70 24 48 35 8 61
REMARK Flexibility Score: inf
ROOT
ATOM      1  C   UNL A   1      39.316  21.764  26.006  1.00  0.00     0.023 C 
ENDROOT
BRANCH   1   2
ATOM      2  C   UNL A   1      40.143  20.814  26.845  1.00  0.00     0.116 C 
BRANCH   2   3
ATOM      3  N   UNL A   1      41.066  19.969  26.115  1.00  0.00    -0.352 N 
ATOM      4  O   UNL A   1      43.070  19.642  25.070  1.00  0.00    -0.269 OA
ATOM      5  C   UNL A   1      42.353  20.342  25.770  1.00  0.00     0.251 C 
ATOM      6  H   UNL A   1      40.758  19.073  25.848  1.00  0.00     0.163 HD
BRANCH   5   7
ATOM      7  C   UNL A   1      42.812  21.665  26.250  1.00  0.00     0.039 A 
ATOM      8  C   UNL A   1      42.967  21.871  27.623  1.00  0.00     0.014 A 
ATOM      9  C   UNL A   1      42.889  22.732  25.352  1.00  0.00     0.014 A 
ATOM     10  C   UNL A   1      43.068  23.169  28.110  1.00  0.00     0.010 A 
ATOM     11  C   UNL A   1      43.059  24.030  25.841  1.00  0.00     0.010 A 
ATOM     12  C   UNL A   1      43.114  24.261  27.225  1.00  0.00    -0.014 A 
BRANCH  12  13
ATOM     13  C   UNL A   1      43.286  25.630  27.772  1.00  0.00     0.031 A 
ATOM     14  C   UNL A   1      44.647  26.230  27.993  1.00  0.00     0.074 A 
ATOM     15  C   UNL A   1      42.182  26.351  28.039  1.00  0.00     0.049 A 
ATOM     16  N   UNL A   1      44.954  27.414  28.464  1.00  0.00    -0.248 NA
ATOM     17  C   UNL A   1      45.812  25.403  27.647  1.00  0.00     0.031 C 
ATOM     18  C   UNL A   1      40.806  25.880  27.863  1.00  0.00     0.029 A 
ATOM     19  N   UNL A   1      42.039  27.635  28.496  1.00  0.00    -0.354 N 
ATOM     20  C   UNL A   1      46.343  27.469  28.488  1.00  0.00     0.074 A 
ATOM     21  C   UNL A   1      46.820  26.194  27.993  1.00  0.00     0.031 C 
ATOM     22  C   UNL A   1      39.960  26.874  28.168  1.00  0.00     0.029 A 
ATOM     23  C   UNL A   1      40.730  28.030  28.612  1.00  0.00     0.049 A 
ATOM     24  H   UNL A   1      42.802  28.218  28.718  1.00  0.00     0.167 HD
ATOM     25  C   UNL A   1      47.142  28.486  28.887  1.00  0.00     0.031 A 
ATOM     26  C   UNL A   1      40.201  29.187  29.045  1.00  0.00     0.031 A 
ATOM     27  C   UNL A   1      46.670  29.754  29.382  1.00  0.00     0.049 A 
ATOM     28  C   UNL A   1      41.109  30.290  29.489  1.00  0.00     0.074 A 
ATOM     29  C   UNL A   1      47.410  30.845  29.814  1.00  0.00     0.029 A 
ATOM     30  N   UNL A   1      45.335  30.106  29.508  1.00  0.00    -0.354 N 
ATOM     31  N   UNL A   1      42.418  30.317  29.515  1.00  0.00    -0.248 NA
ATOM     32  C   UNL A   1      40.465  31.520  29.969  1.00  0.00     0.031 C 
ATOM     33  C   UNL A   1      46.521  31.843  30.227  1.00  0.00     0.029 A 
ATOM     34  C   UNL A   1      45.229  31.389  30.018  1.00  0.00     0.049 A 
ATOM     35  H   UNL A   1      44.574  29.527  29.270  1.00  0.00     0.167 HD
ATOM     36  C   UNL A   1      42.758  31.565  30.015  1.00  0.00     0.074 A 
ATOM     37  C   UNL A   1      41.518  32.276  30.251  1.00  0.00     0.031 C 
ATOM     38  C   UNL A   1      43.988  32.074  30.264  1.00  0.00     0.031 A 
BRANCH  25  39
ATOM     39  C   UNL A   1      48.628  28.269  28.830  1.00  0.00    -0.014 A 
ATOM     40  C   UNL A   1      49.306  27.623  29.876  1.00  0.00     0.009 A 
ATOM     41  C   UNL A   1      49.347  28.651  27.687  1.00  0.00     0.009 A 
ATOM     42  C   UNL A   1      50.679  27.379  29.783  1.00  0.00     0.001 A 
ATOM     43  C   UNL A   1      50.716  28.391  27.589  1.00  0.00     0.001 A 
ATOM     44  C   UNL A   1      51.381  27.759  28.639  1.00  0.00     0.000 A 
ENDBRANCH  25  39
BRANCH  26  45
ATOM     45  C   UNL A   1      38.727  29.338  29.094  1.00  0.00    -0.014 A 
ATOM     46  C   UNL A   1      38.031  29.157  30.297  1.00  0.00     0.009 A 
ATOM     47  C   UNL A   1      38.016  29.702  27.939  1.00  0.00     0.009 A 
ATOM     48  C   UNL A   1      36.647  29.329  30.340  1.00  0.00     0.001 A 
ATOM     49  C   UNL A   1      36.636  29.897  27.992  1.00  0.00     0.001 A 
ATOM     50  C   UNL A   1      35.952  29.703  29.191  1.00  0.00     0.000 A 
ENDBRANCH  26  45
BRANCH  38  51
ATOM     51  C   UNL A   1      44.038  33.466  30.816  1.00  0.00    -0.014 A 
ATOM     52  C   UNL A   1      44.117  33.688  32.201  1.00  0.00     0.009 A 
ATOM     53  C   UNL A   1      44.005  34.567  29.947  1.00  0.00     0.009 A 
ATOM     54  C   UNL A   1      44.124  34.989  32.705  1.00  0.00     0.001 A 
ATOM     55  C   UNL A   1      44.033  35.866  30.454  1.00  0.00     0.001 A 
ATOM     56  C   UNL A   1      44.083  36.076  31.832  1.00  0.00     0.000 A 
ENDBRANCH  38  51
ENDBRANCH  12  13
ENDBRANCH   5   7
ENDBRANCH   2   3
ENDBRANCH   1   2
BRANCH   1  57
ATOM     57  C   UNL A   1      39.110  23.210  26.502  1.00  0.00     0.023 C 
BRANCH  57  58
ATOM     58  C   UNL A   1      37.581  23.810  26.331  1.00  0.00     0.116 C 
BRANCH  58  59
ATOM     59  N   UNL A   1      36.194  23.656  24.908  1.00  0.00    -0.351 N 
ATOM     60  C   UNL A   1      34.983  23.273  24.243  1.00  0.00     0.262 C 
ATOM     61  H   UNL A   1      36.616  24.194  24.199  1.00  0.00     0.163 HD
ATOM     62  O   UNL A   1      34.989  23.683  23.073  1.00  0.00    -0.268 OA
BRANCH  60  63
ATOM     63  C   UNL A   1      33.830  22.525  24.709  1.00  0.00     0.112 A 
ATOM     64  S   UNL A   1      33.647  20.900  24.153  1.00  0.00    -0.137 S 
ATOM     65  C   UNL A   1      32.701  22.921  25.403  1.00  0.00     0.106 A 
ATOM     66  C   UNL A   1      32.173  20.697  24.992  1.00  0.00     0.067 A 
ATOM     67  C   UNL A   1      31.766  21.860  25.603  1.00  0.00     0.034 A 
BRANCH  65  68
ATOM     68  S   UNL A   1      32.458  24.506  26.046  1.00  0.00     0.245 S 
ATOM     69  O   UNL A   1      31.691  24.268  27.251  1.00  0.00    -0.207 OA
ATOM     70  O   UNL A   1      33.791  25.067  26.094  1.00  0.00    -0.207 OA
BRANCH  68  71
ATOM     71  N   UNL A   1      31.542  25.396  24.968  1.00  0.00    -0.190 NA
ATOM     72  C   UNL A   1      31.925  25.306  23.538  1.00  0.00     0.131 C 
ATOM     73  C   UNL A   1      30.737  26.576  25.443  1.00  0.00     0.102 C 
ATOM     74  C   UNL A   1      30.924  25.978  22.610  1.00  0.00     0.177 C 
ATOM     75  C   UNL A   1      30.415  27.827  23.981  1.00  0.00     0.136 C 
ATOM     76  C   UNL A   1      31.342  27.290  27.161  1.00  0.00     0.023 C 
ATOM     77  O   UNL A   1      30.995  27.391  22.750  1.00  0.00    -0.375 OA
ATOM     78  C   UNL A   1      30.930  29.704  24.122  1.00  0.00     0.034 C 
ATOM     79  C   UNL A   1      32.068  29.089  27.245  1.00  0.00     0.002 C 
ATOM     80  C   UNL A   1      31.779  30.298  25.750  1.00  0.00     0.003 C 
ENDBRANCH  68  71
ENDBRANCH  65  68
ENDBRANCH  60  63
ENDBRANCH  58  59
ENDBRANCH  57  58
ENDBRANCH   1  57
TORSDOF 13
ENDMDL
