MODEL 1
REMARK VINA RESULT:     -11.4      0.000      0.000
REMARK SMILES Cc1ccc2nc(CC3(CC(=O)NCCCCNC(=O)c4ccc(-c5c6nc(c(-c7ccccc7)c7ccc([nH]7)c(-c7ccccc7)c7nc(c(-c8ccccc8)c8ccc5[nH]8)C=C7)C=C6)cc4)CCCCC3)sc2c1
REMARK SMILES IDX 15 1 14 2 13 3 11 4 12 5 10 7 9 8 69 9 73 10 70 11 72 12
REMARK SMILES IDX 71 13 8 14 7 15 1 16 2 17 3 18 76 19 4 20 75 21 5 22 74 23
REMARK SMILES IDX 6 24 16 25 17 26 18 27 19 28 20 30 21 31 22 32 68 33 23 34
REMARK SMILES IDX 67 35 24 36 25 37 26 38 61 39 27 40 66 41 60 42 62 43 28 44
REMARK SMILES IDX 65 45 59 46 58 47 29 49 51 50 36 51 50 52 37 53 40 54 49 55
REMARK SMILES IDX 63 56 38 57 39 58 48 60 64 61 41 62 30 63 31 64 35 65 32 66
REMARK SMILES IDX 34 67 33 68 52 69 53 70 57 71 54 72 56 73 55 74 42 75 43 76
REMARK SMILES IDX 47 77 44 78 46 79 45 80
REMARK H PARENT 13 6 18 29 62 48 40 59
REMARK Flexibility Score: inf
ROOT
ATOM      1  C   UNL A   1      32.216  28.330  24.964  1.00  0.00     0.023 C 
ENDROOT
BRANCH   1   2
ATOM      2  C   UNL A   1      31.841  26.865  24.733  1.00  0.00     0.116 C 
BRANCH   2   3
ATOM      3  N   UNL A   1      32.332  26.394  23.456  1.00  0.00    -0.356 N 
ATOM      4  C   UNL A   1      33.453  25.684  23.159  1.00  0.00     0.220 C 
ATOM      5  O   UNL A   1      33.684  25.440  21.973  1.00  0.00    -0.275 OA
ATOM      6  H   UNL A   1      31.767  26.621  22.683  1.00  0.00     0.163 HD
BRANCH   4   7
ATOM      7  C   UNL A   1      34.408  25.200  24.246  1.00  0.00     0.107 C 
BRANCH   7   8
ATOM      8  C   UNL A   1      34.448  23.662  24.570  1.00  0.00    -0.015 C 
ATOM      9  C   UNL A   1      35.097  23.471  25.977  1.00  0.00     0.008 C 
ATOM     10  C   UNL A   1      35.366  22.869  23.601  1.00  0.00     0.008 C 
ATOM     11  C   UNL A   1      36.577  23.879  26.030  1.00  0.00     0.001 C 
ATOM     12  C   UNL A   1      36.825  23.311  23.583  1.00  0.00     0.001 C 
ATOM     13  C   UNL A   1      37.426  23.175  24.974  1.00  0.00     0.000 C 
BRANCH   8  14
ATOM     14  C   UNL A   1      32.978  23.110  24.594  1.00  0.00     0.075 C 
BRANCH  14  15
ATOM     15  C   UNL A   1      32.855  21.614  24.642  1.00  0.00     0.094 A 
ATOM     16  C   UNL A   1      32.877  15.469  25.255  1.00  0.00     0.044 C 
ATOM     17  C   UNL A   1      32.787  16.889  24.778  1.00  0.00    -0.050 A 
ATOM     18  C   UNL A   1      32.584  17.170  23.424  1.00  0.00     0.006 A 
ATOM     19  C   UNL A   1      32.908  17.938  25.705  1.00  0.00     0.024 A 
ATOM     20  C   UNL A   1      32.495  18.490  22.974  1.00  0.00     0.030 A 
ATOM     21  C   UNL A   1      32.847  19.260  25.236  1.00  0.00     0.055 A 
ATOM     22  C   UNL A   1      32.631  19.550  23.889  1.00  0.00     0.082 A 
ATOM     23  S   UNL A   1      33.025  20.740  26.105  1.00  0.00    -0.119 S 
ATOM     24  N   UNL A   1      32.582  20.892  23.576  1.00  0.00    -0.241 NA
ENDBRANCH  14  15
ENDBRANCH   8  14
ENDBRANCH   7   8
ENDBRANCH   4   7
ENDBRANCH   2   3
ENDBRANCH   1   2
BRANCH   1  25
ATOM     25  C   UNL A   1      33.553  28.571  25.646  1.00  0.00     0.023 C 
BRANCH  25  26
ATOM     26  C   UNL A   1      33.474  28.692  27.158  1.00  0.00     0.116 C 
BRANCH  26  27
ATOM     27  N   UNL A   1      33.412  30.060  27.656  1.00  0.00    -0.352 N 
ATOM     28  C   UNL A   1      34.412  30.792  28.257  1.00  0.00     0.251 C 
ATOM     29  H   UNL A   1      32.547  30.518  27.549  1.00  0.00     0.163 HD
ATOM     30  O   UNL A   1      34.199  31.917  28.682  1.00  0.00    -0.269 OA
BRANCH  28  31
ATOM     31  C   UNL A   1      35.741  30.168  28.425  1.00  0.00     0.039 A 
ATOM     32  C   UNL A   1      36.649  30.216  27.366  1.00  0.00     0.014 A 
ATOM     33  C   UNL A   1      36.111  29.610  29.650  1.00  0.00     0.014 A 
ATOM     34  C   UNL A   1      37.954  29.765  27.563  1.00  0.00     0.010 A 
ATOM     35  C   UNL A   1      37.436  29.268  29.877  1.00  0.00     0.010 A 
ATOM     36  C   UNL A   1      38.367  29.320  28.830  1.00  0.00    -0.014 A 
BRANCH  36  37
ATOM     37  C   UNL A   1      39.756  28.862  29.068  1.00  0.00     0.031 A 
ATOM     38  C   UNL A   1      40.740  29.781  29.742  1.00  0.00     0.074 A 
ATOM     39  C   UNL A   1      40.147  27.647  28.636  1.00  0.00     0.049 A 
ATOM     40  N   UNL A   1      41.999  29.572  30.034  1.00  0.00    -0.248 NA
ATOM     41  C   UNL A   1      40.258  31.125  30.104  1.00  0.00     0.031 C 
ATOM     42  C   UNL A   1      39.312  26.693  27.901  1.00  0.00     0.029 A 
ATOM     43  N   UNL A   1      41.354  27.005  28.757  1.00  0.00    -0.354 N 
ATOM     44  C   UNL A   1      42.458  30.762  30.584  1.00  0.00     0.074 A 
ATOM     45  C   UNL A   1      41.368  31.708  30.528  1.00  0.00     0.031 C 
ATOM     46  C   UNL A   1      40.018  25.573  27.676  1.00  0.00     0.029 A 
ATOM     47  C   UNL A   1      41.359  25.738  28.225  1.00  0.00     0.049 A 
ATOM     48  H   UNL A   1      42.140  27.413  29.185  1.00  0.00     0.167 HD
ATOM     49  C   UNL A   1      43.669  31.036  31.121  1.00  0.00     0.031 A 
ATOM     50  C   UNL A   1      42.335  24.810  28.200  1.00  0.00     0.031 A 
ATOM     51  C   UNL A   1      44.739  30.083  31.217  1.00  0.00     0.049 A 
ATOM     52  C   UNL A   1      43.654  25.121  28.852  1.00  0.00     0.074 A 
ATOM     53  C   UNL A   1      45.977  30.233  31.814  1.00  0.00     0.029 A 
ATOM     54  N   UNL A   1      44.690  28.796  30.704  1.00  0.00    -0.354 N 
ATOM     55  N   UNL A   1      44.041  26.220  29.454  1.00  0.00    -0.248 NA
ATOM     56  C   UNL A   1      44.662  24.051  28.842  1.00  0.00     0.031 C 
ATOM     57  C   UNL A   1      46.694  29.046  31.630  1.00  0.00     0.029 A 
ATOM     58  C   UNL A   1      45.883  28.144  30.960  1.00  0.00     0.049 A 
ATOM     59  H   UNL A   1      43.922  28.405  30.230  1.00  0.00     0.167 HD
ATOM     60  C   UNL A   1      45.326  25.965  29.914  1.00  0.00     0.074 A 
ATOM     61  C   UNL A   1      45.642  24.601  29.543  1.00  0.00     0.031 C 
ATOM     62  C   UNL A   1      46.174  26.786  30.580  1.00  0.00     0.031 A 
BRANCH  49  63
ATOM     63  C   UNL A   1      43.889  32.423  31.658  1.00  0.00    -0.014 A 
ATOM     64  C   UNL A   1      44.393  33.448  30.840  1.00  0.00     0.009 A 
ATOM     65  C   UNL A   1      43.570  32.714  32.992  1.00  0.00     0.009 A 
ATOM     66  C   UNL A   1      44.611  34.725  31.359  1.00  0.00     0.001 A 
ATOM     67  C   UNL A   1      43.760  34.001  33.500  1.00  0.00     0.001 A 
ATOM     68  C   UNL A   1      44.289  35.002  32.686  1.00  0.00     0.000 A 
ENDBRANCH  49  63
BRANCH  50  69
ATOM     69  C   UNL A   1      42.094  23.485  27.573  1.00  0.00    -0.014 A 
ATOM     70  C   UNL A   1      41.442  22.466  28.289  1.00  0.00     0.009 A 
ATOM     71  C   UNL A   1      42.530  23.222  26.266  1.00  0.00     0.009 A 
ATOM     72  C   UNL A   1      41.267  21.203  27.721  1.00  0.00     0.001 A 
ATOM     73  C   UNL A   1      42.328  21.965  25.691  1.00  0.00     0.001 A 
ATOM     74  C   UNL A   1      41.707  20.953  26.423  1.00  0.00     0.000 A 
ENDBRANCH  50  69
BRANCH  62  75
ATOM     75  C   UNL A   1      47.507  26.217  30.973  1.00  0.00    -0.014 A 
ATOM     76  C   UNL A   1      47.726  25.701  32.259  1.00  0.00     0.009 A 
ATOM     77  C   UNL A   1      48.547  26.173  30.032  1.00  0.00     0.009 A 
ATOM     78  C   UNL A   1      48.975  25.189  32.609  1.00  0.00     0.001 A 
ATOM     79  C   UNL A   1      49.787  25.633  30.376  1.00  0.00     0.001 A 
ATOM     80  C   UNL A   1      50.004  25.152  31.666  1.00  0.00     0.000 A 
ENDBRANCH  62  75
ENDBRANCH  36  37
ENDBRANCH  28  31
ENDBRANCH  26  27
ENDBRANCH  25  26
ENDBRANCH   1  25
TORSDOF 14
ENDMDL
MODEL 2
REMARK VINA RESULT:     -11.4      2.483      7.738
REMARK SMILES Cc1ccc2nc(CC3(CC(=O)NCCCCNC(=O)c4ccc(-c5c6nc(c(-c7ccccc7)c7ccc([nH]7)c(-c7ccccc7)c7nc(c(-c8ccccc8)c8ccc5[nH]8)C=C7)C=C6)cc4)CCCCC3)sc2c1
REMARK SMILES IDX 15 1 14 2 13 3 11 4 12 5 10 7 9 8 69 9 73 10 70 11 72 12
REMARK SMILES IDX 71 13 8 14 7 15 1 16 2 17 3 18 76 19 4 20 75 21 5 22 74 23
REMARK SMILES IDX 6 24 16 25 17 26 18 27 19 28 20 30 21 31 22 32 68 33 23 34
REMARK SMILES IDX 67 35 24 36 25 37 26 38 61 39 27 40 66 41 60 42 62 43 28 44
REMARK SMILES IDX 65 45 59 46 58 47 29 49 51 50 36 51 50 52 37 53 40 54 49 55
REMARK SMILES IDX 63 56 38 57 39 58 48 60 64 61 41 62 30 63 31 64 35 65 32 66
REMARK SMILES IDX 34 67 33 68 52 69 53 70 57 71 54 72 56 73 55 74 42 75 43 76
REMARK SMILES IDX 47 77 44 78 46 79 45 80
REMARK H PARENT 13 6 18 29 62 48 40 59
REMARK Flexibility Score: inf
ROOT
ATOM      1  C   UNL A   1      38.860  22.656  26.169  1.00  0.00     0.023 C 
ENDROOT
BRANCH   1   2
ATOM      2  C   UNL A   1      37.696  23.548  25.731  1.00  0.00     0.116 C 
BRANCH   2   3
ATOM      3  N   UNL A   1      37.368  23.334  24.337  1.00  0.00    -0.356 N 
ATOM      4  C   UNL A   1      36.170  23.413  23.700  1.00  0.00     0.220 C 
ATOM      5  O   UNL A   1      36.136  23.136  22.499  1.00  0.00    -0.275 OA
ATOM      6  H   UNL A   1      38.131  23.096  23.762  1.00  0.00     0.163 HD
BRANCH   4   7
ATOM      7  C   UNL A   1      34.897  23.827  24.431  1.00  0.00     0.107 C 
BRANCH   7   8
ATOM      8  C   UNL A   1      33.736  22.775  24.558  1.00  0.00    -0.015 C 
ATOM      9  C   UNL A   1      32.871  23.142  25.805  1.00  0.00     0.008 C 
ATOM     10  C   UNL A   1      34.256  21.341  24.847  1.00  0.00     0.008 C 
ATOM     11  C   UNL A   1      33.623  22.998  27.137  1.00  0.00     0.001 C 
ATOM     12  C   UNL A   1      35.070  21.192  26.127  1.00  0.00     0.001 C 
ATOM     13  C   UNL A   1      34.233  21.611  27.326  1.00  0.00     0.000 C 
BRANCH   8  14
ATOM     14  C   UNL A   1      32.844  22.844  23.266  1.00  0.00     0.075 C 
BRANCH  14  15
ATOM     15  C   UNL A   1      32.060  24.113  23.095  1.00  0.00     0.094 A 
ATOM     16  C   UNL A   1      29.415  29.660  22.486  1.00  0.00     0.044 C 
ATOM     17  C   UNL A   1      29.761  28.233  22.796  1.00  0.00    -0.050 A 
ATOM     18  C   UNL A   1      28.914  27.454  23.589  1.00  0.00     0.006 A 
ATOM     19  C   UNL A   1      30.948  27.684  22.281  1.00  0.00     0.024 A 
ATOM     20  C   UNL A   1      29.230  26.124  23.878  1.00  0.00     0.030 A 
ATOM     21  C   UNL A   1      31.268  26.354  22.602  1.00  0.00     0.055 A 
ATOM     22  C   UNL A   1      30.422  25.566  23.382  1.00  0.00     0.082 A 
ATOM     23  S   UNL A   1      32.664  25.431  22.183  1.00  0.00    -0.119 S 
ATOM     24  N   UNL A   1      30.859  24.277  23.606  1.00  0.00    -0.241 NA
ENDBRANCH  14  15
ENDBRANCH   8  14
ENDBRANCH   7   8
ENDBRANCH   4   7
ENDBRANCH   2   3
ENDBRANCH   1   2
BRANCH   1  25
ATOM     25  C   UNL A   1      38.915  21.278  25.529  1.00  0.00     0.023 C 
BRANCH  25  26
ATOM     26  C   UNL A   1      39.384  20.173  26.458  1.00  0.00     0.116 C 
BRANCH  26  27
ATOM     27  N   UNL A   1      40.497  19.382  25.949  1.00  0.00    -0.352 N 
ATOM     28  C   UNL A   1      41.835  19.712  25.927  1.00  0.00     0.251 C 
ATOM     29  H   UNL A   1      40.264  18.502  25.574  1.00  0.00     0.163 HD
ATOM     30  O   UNL A   1      42.656  18.970  25.411  1.00  0.00    -0.269 OA
BRANCH  28  31
ATOM     31  C   UNL A   1      42.251  21.010  26.497  1.00  0.00     0.039 A 
ATOM     32  C   UNL A   1      42.559  22.060  25.630  1.00  0.00     0.014 A 
ATOM     33  C   UNL A   1      42.258  21.208  27.879  1.00  0.00     0.014 A 
ATOM     34  C   UNL A   1      42.807  23.329  26.154  1.00  0.00     0.010 A 
ATOM     35  C   UNL A   1      42.393  22.490  28.389  1.00  0.00     0.010 A 
ATOM     36  C   UNL A   1      42.691  23.561  27.535  1.00  0.00    -0.014 A 
BRANCH  36  37
ATOM     37  C   UNL A   1      42.924  24.907  28.109  1.00  0.00     0.031 A 
ATOM     38  C   UNL A   1      44.314  25.314  28.520  1.00  0.00     0.074 A 
ATOM     39  C   UNL A   1      41.885  25.743  28.307  1.00  0.00     0.049 A 
ATOM     40  N   UNL A   1      44.723  26.440  29.047  1.00  0.00    -0.248 NA
ATOM     41  C   UNL A   1      45.380  24.310  28.353  1.00  0.00     0.031 C 
ATOM     42  C   UNL A   1      40.480  25.439  28.023  1.00  0.00     0.029 A 
ATOM     43  N   UNL A   1      41.855  27.025  28.795  1.00  0.00    -0.354 N 
ATOM     44  C   UNL A   1      46.079  26.266  29.295  1.00  0.00     0.074 A 
ATOM     45  C   UNL A   1      46.412  24.911  28.925  1.00  0.00     0.031 C 
ATOM     46  C   UNL A   1      39.732  26.520  28.300  1.00  0.00     0.029 A 
ATOM     47  C   UNL A   1      40.598  27.580  28.805  1.00  0.00     0.049 A 
ATOM     48  H   UNL A   1      42.657  27.501  29.107  1.00  0.00     0.167 HD
ATOM     49  C   UNL A   1      46.978  27.165  29.758  1.00  0.00     0.031 A 
ATOM     50  C   UNL A   1      40.195  28.813  29.168  1.00  0.00     0.031 A 
ATOM     51  C   UNL A   1      46.656  28.526  30.086  1.00  0.00     0.049 A 
ATOM     52  C   UNL A   1      41.222  29.810  29.627  1.00  0.00     0.074 A 
ATOM     53  C   UNL A   1      47.506  29.540  30.487  1.00  0.00     0.029 A 
ATOM     54  N   UNL A   1      45.379  29.062  30.042  1.00  0.00    -0.354 N 
ATOM     55  N   UNL A   1      42.518  29.659  29.767  1.00  0.00    -0.248 NA
ATOM     56  C   UNL A   1      40.732  31.156  29.958  1.00  0.00     0.031 C 
ATOM     57  C   UNL A   1      46.736  30.684  30.723  1.00  0.00     0.029 A 
ATOM     58  C   UNL A   1      45.415  30.392  30.423  1.00  0.00     0.049 A 
ATOM     59  H   UNL A   1      44.568  28.570  29.780  1.00  0.00     0.167 HD
ATOM     60  C   UNL A   1      43.000  30.895  30.176  1.00  0.00     0.074 A 
ATOM     61  C   UNL A   1      41.862  31.789  30.239  1.00  0.00     0.031 C 
ATOM     62  C   UNL A   1      44.269  31.261  30.478  1.00  0.00     0.031 A 
BRANCH  49  63
ATOM     63  C   UNL A   1      48.398  26.700  29.923  1.00  0.00    -0.014 A 
ATOM     64  C   UNL A   1      49.352  26.906  28.913  1.00  0.00     0.009 A 
ATOM     65  C   UNL A   1      48.792  26.064  31.109  1.00  0.00     0.009 A 
ATOM     66  C   UNL A   1      50.662  26.450  29.073  1.00  0.00     0.001 A 
ATOM     67  C   UNL A   1      50.110  25.636  31.278  1.00  0.00     0.001 A 
ATOM     68  C   UNL A   1      51.040  25.821  30.257  1.00  0.00     0.000 A 
ENDBRANCH  49  63
BRANCH  50  69
ATOM     69  C   UNL A   1      38.761  29.192  29.072  1.00  0.00    -0.014 A 
ATOM     70  C   UNL A   1      37.921  29.086  30.193  1.00  0.00     0.009 A 
ATOM     71  C   UNL A   1      38.219  29.641  27.859  1.00  0.00     0.009 A 
ATOM     72  C   UNL A   1      36.561  29.387  30.090  1.00  0.00     0.001 A 
ATOM     73  C   UNL A   1      36.864  29.968  27.766  1.00  0.00     0.001 A 
ATOM     74  C   UNL A   1      36.034  29.830  28.878  1.00  0.00     0.000 A 
ENDBRANCH  50  69
BRANCH  62  75
ATOM     75  C   UNL A   1      44.492  32.692  30.873  1.00  0.00    -0.014 A 
ATOM     76  C   UNL A   1      44.439  33.091  32.218  1.00  0.00     0.009 A 
ATOM     77  C   UNL A   1      44.785  33.646  29.888  1.00  0.00     0.009 A 
ATOM     78  C   UNL A   1      44.635  34.429  32.562  1.00  0.00     0.001 A 
ATOM     79  C   UNL A   1      45.009  34.978  30.239  1.00  0.00     0.001 A 
ATOM     80  C   UNL A   1      44.924  35.370  31.573  1.00  0.00     0.000 A 
ENDBRANCH  62  75
ENDBRANCH  36  37
ENDBRANCH  28  31
ENDBRANCH  26  27
ENDBRANCH  25  26
ENDBRANCH   1  25
TORSDOF 14
ENDMDL
MODEL 3
REMARK VINA RESULT:     -11.4      0.799      5.913
REMARK SMILES Cc1ccc2nc(CC3(CC(=O)NCCCCNC(=O)c4ccc(-c5c6nc(c(-c7ccccc7)c7ccc([nH]7)c(-c7ccccc7)c7nc(c(-c8ccccc8)c8ccc5[nH]8)C=C7)C=C6)cc4)CCCCC3)sc2c1
REMARK SMILES IDX 15 1 14 2 13 3 11 4 12 5 10 7 9 8 69 9 73 10 70 11 72 12
REMARK SMILES IDX 71 13 8 14 7 15 1 16 2 17 3 18 76 19 4 20 75 21 5 22 74 23
REMARK SMILES IDX 6 24 16 25 17 26 18 27 19 28 20 30 21 31 22 32 68 33 23 34
REMARK SMILES IDX 67 35 24 36 25 37 26 38 61 39 27 40 66 41 60 42 62 43 28 44
REMARK SMILES IDX 65 45 59 46 58 47 29 49 51 50 36 51 50 52 37 53 40 54 49 55
REMARK SMILES IDX 63 56 38 57 39 58 48 60 64 61 41 62 30 63 31 64 35 65 32 66
REMARK SMILES IDX 34 67 33 68 52 69 53 70 57 71 54 72 56 73 55 74 42 75 43 76
REMARK SMILES IDX 47 77 44 78 46 79 45 80
REMARK H PARENT 13 6 18 29 62 48 40 59
REMARK Flexibility Score: inf
ROOT
ATOM      1  C   UNL A   1      32.286  28.408  24.992  1.00  0.00     0.023 C 
ENDROOT
BRANCH   1   2
ATOM      2  C   UNL A   1      31.861  26.957  24.758  1.00  0.00     0.116 C 
BRANCH   2   3
ATOM      3  N   UNL A   1      32.403  26.446  23.516  1.00  0.00    -0.356 N 
ATOM      4  C   UNL A   1      33.508  25.687  23.293  1.00  0.00     0.220 C 
ATOM      5  O   UNL A   1      33.794  25.415  22.125  1.00  0.00    -0.275 OA
ATOM      6  H   UNL A   1      31.892  26.685  22.710  1.00  0.00     0.163 HD
BRANCH   4   7
ATOM      7  C   UNL A   1      34.379  25.180  24.438  1.00  0.00     0.107 C 
BRANCH   7   8
ATOM      8  C   UNL A   1      34.436  23.631  24.701  1.00  0.00    -0.015 C 
ATOM      9  C   UNL A   1      35.119  23.390  26.083  1.00  0.00     0.008 C 
ATOM     10  C   UNL A   1      35.334  22.882  23.680  1.00  0.00     0.008 C 
ATOM     11  C   UNL A   1      36.598  23.805  26.117  1.00  0.00     0.001 C 
ATOM     12  C   UNL A   1      36.789  23.334  23.644  1.00  0.00     0.001 C 
ATOM     13  C   UNL A   1      37.424  23.148  25.014  1.00  0.00     0.000 C 
BRANCH   8  14
ATOM     14  C   UNL A   1      32.969  23.069  24.738  1.00  0.00     0.075 C 
BRANCH  14  15
ATOM     15  C   UNL A   1      32.856  21.571  24.756  1.00  0.00     0.094 A 
ATOM     16  C   UNL A   1      32.908  15.416  25.260  1.00  0.00     0.044 C 
ATOM     17  C   UNL A   1      32.821  16.844  24.806  1.00  0.00    -0.050 A 
ATOM     18  C   UNL A   1      32.653  17.148  23.452  1.00  0.00     0.006 A 
ATOM     19  C   UNL A   1      32.907  17.877  25.755  1.00  0.00     0.024 A 
ATOM     20  C   UNL A   1      32.568  18.476  23.024  1.00  0.00     0.030 A 
ATOM     21  C   UNL A   1      32.849  19.208  25.308  1.00  0.00     0.055 A 
ATOM     22  C   UNL A   1      32.669  19.520  23.961  1.00  0.00     0.082 A 
ATOM     23  S   UNL A   1      32.991  20.673  26.208  1.00  0.00    -0.119 S 
ATOM     24  N   UNL A   1      32.619  20.867  23.670  1.00  0.00    -0.241 NA
ENDBRANCH  14  15
ENDBRANCH   8  14
ENDBRANCH   7   8
ENDBRANCH   4   7
ENDBRANCH   2   3
ENDBRANCH   1   2
BRANCH   1  25
ATOM     25  C   UNL A   1      33.665  28.604  25.600  1.00  0.00     0.023 C 
BRANCH  25  26
ATOM     26  C   UNL A   1      33.684  28.623  27.119  1.00  0.00     0.116 C 
BRANCH  26  27
ATOM     27  N   UNL A   1      33.617  29.953  27.710  1.00  0.00    -0.352 N 
ATOM     28  C   UNL A   1      34.622  30.656  28.337  1.00  0.00     0.251 C 
ATOM     29  H   UNL A   1      32.744  30.405  27.656  1.00  0.00     0.163 HD
ATOM     30  O   UNL A   1      34.405  31.747  28.843  1.00  0.00    -0.269 OA
BRANCH  28  31
ATOM     31  C   UNL A   1      35.962  30.040  28.432  1.00  0.00     0.039 A 
ATOM     32  C   UNL A   1      36.822  30.123  27.335  1.00  0.00     0.014 A 
ATOM     33  C   UNL A   1      36.391  29.457  29.626  1.00  0.00     0.014 A 
ATOM     34  C   UNL A   1      38.138  29.680  27.463  1.00  0.00     0.010 A 
ATOM     35  C   UNL A   1      37.727  29.121  29.785  1.00  0.00     0.010 A 
ATOM     36  C   UNL A   1      38.611  29.208  28.700  1.00  0.00    -0.014 A 
BRANCH  36  37
ATOM     37  C   UNL A   1      40.012  28.758  28.865  1.00  0.00     0.031 A 
ATOM     38  C   UNL A   1      40.395  27.351  28.485  1.00  0.00     0.074 A 
ATOM     39  C   UNL A   1      40.928  29.589  29.400  1.00  0.00     0.049 A 
ATOM     40  N   UNL A   1      41.562  26.764  28.560  1.00  0.00    -0.248 NA
ATOM     41  C   UNL A   1      39.317  26.477  27.990  1.00  0.00     0.031 C 
ATOM     42  C   UNL A   1      40.667  30.949  29.880  1.00  0.00     0.029 A 
ATOM     43  N   UNL A   1      42.269  29.409  29.627  1.00  0.00    -0.354 N 
ATOM     44  C   UNL A   1      41.349  25.454  28.149  1.00  0.00     0.074 A 
ATOM     45  C   UNL A   1      39.936  25.311  27.890  1.00  0.00     0.031 C 
ATOM     46  C   UNL A   1      41.820  31.494  30.304  1.00  0.00     0.029 A 
ATOM     47  C   UNL A   1      42.892  30.516  30.151  1.00  0.00     0.049 A 
ATOM     48  H   UNL A   1      42.739  28.567  29.434  1.00  0.00     0.167 HD
ATOM     49  C   UNL A   1      42.254  24.464  27.971  1.00  0.00     0.031 A 
ATOM     50  C   UNL A   1      44.187  30.722  30.457  1.00  0.00     0.031 A 
ATOM     51  C   UNL A   1      43.665  24.618  28.188  1.00  0.00     0.049 A 
ATOM     52  C   UNL A   1      45.181  29.623  30.198  1.00  0.00     0.074 A 
ATOM     53  C   UNL A   1      44.678  23.704  27.960  1.00  0.00     0.029 A 
ATOM     54  N   UNL A   1      44.262  25.769  28.677  1.00  0.00    -0.354 N 
ATOM     55  N   UNL A   1      44.977  28.419  29.719  1.00  0.00    -0.248 NA
ATOM     56  C   UNL A   1      46.588  29.923  30.500  1.00  0.00     0.031 C 
ATOM     57  C   UNL A   1      45.887  24.289  28.348  1.00  0.00     0.029 A 
ATOM     58  C   UNL A   1      45.630  25.584  28.772  1.00  0.00     0.049 A 
ATOM     59  H   UNL A   1      43.785  26.594  28.921  1.00  0.00     0.167 HD
ATOM     60  C   UNL A   1      46.231  27.828  29.640  1.00  0.00     0.074 A 
ATOM     61  C   UNL A   1      47.189  28.813  30.097  1.00  0.00     0.031 C 
ATOM     62  C   UNL A   1      46.563  26.579  29.231  1.00  0.00     0.031 A 
BRANCH  49  63
ATOM     63  C   UNL A   1      41.737  23.132  27.505  1.00  0.00    -0.014 A 
ATOM     64  C   UNL A   1      41.377  22.920  26.164  1.00  0.00     0.009 A 
ATOM     65  C   UNL A   1      41.625  22.069  28.413  1.00  0.00     0.009 A 
ATOM     66  C   UNL A   1      40.879  21.683  25.751  1.00  0.00     0.001 A 
ATOM     67  C   UNL A   1      41.155  20.824  27.991  1.00  0.00     0.001 A 
ATOM     68  C   UNL A   1      40.774  20.635  26.663  1.00  0.00     0.000 A 
ENDBRANCH  49  63
BRANCH  50  69
ATOM     69  C   UNL A   1      44.631  32.031  31.003  1.00  0.00    -0.014 A 
ATOM     70  C   UNL A   1      44.663  32.249  32.391  1.00  0.00     0.009 A 
ATOM     71  C   UNL A   1      45.004  33.074  30.144  1.00  0.00     0.009 A 
ATOM     72  C   UNL A   1      45.024  33.497  32.903  1.00  0.00     0.001 A 
ATOM     73  C   UNL A   1      45.392  34.313  30.661  1.00  0.00     0.001 A 
ATOM     74  C   UNL A   1      45.391  34.527  32.039  1.00  0.00     0.000 A 
ENDBRANCH  50  69
BRANCH  62  75
ATOM     75  C   UNL A   1      48.022  26.226  29.232  1.00  0.00    -0.014 A 
ATOM     76  C   UNL A   1      48.845  26.530  28.136  1.00  0.00     0.009 A 
ATOM     77  C   UNL A   1      48.586  25.607  30.358  1.00  0.00     0.009 A 
ATOM     78  C   UNL A   1      50.195  26.181  28.152  1.00  0.00     0.001 A 
ATOM     79  C   UNL A   1      49.944  25.287  30.383  1.00  0.00     0.001 A 
ATOM     80  C   UNL A   1      50.744  25.564  29.276  1.00  0.00     0.000 A 
ENDBRANCH  62  75
ENDBRANCH  36  37
ENDBRANCH  28  31
ENDBRANCH  26  27
ENDBRANCH  25  26
ENDBRANCH   1  25
TORSDOF 14
ENDMDL
