MODEL 1
REMARK VINA RESULT:     -11.4      0.000      0.000
REMARK SMILES Cc1cc(Br)cc2c1O[C@H](C(F)(F)F)C(C(=O)NCCCCNC(=O)c1ccc(-c3c4nc(c(-c5ccccc5)c5ccc([nH]5)c(-c5ccccc5)c5nc(c(-c6ccccc6)c6ccc3[nH]6)C=C5)C=C4)cc1)=C2
REMARK SMILES IDX 21 1 20 2 19 3 18 4 16 5 17 6 15 8 1 9 2 10 3 11 8 12 4 13
REMARK SMILES IDX 7 14 9 15 5 16 6 17 74 18 10 19 11 20 12 21 13 22 14 23
REMARK SMILES IDX 22 24 23 25 24 26 25 28 26 29 27 30 73 31 28 32 72 33 29 34
REMARK SMILES IDX 30 35 31 36 66 37 32 38 71 39 65 40 67 41 33 42 70 43 64 44
REMARK SMILES IDX 63 45 34 47 56 48 41 49 55 50 42 51 45 52 54 53 68 54 43 55
REMARK SMILES IDX 44 56 53 58 69 59 46 60 35 61 36 62 40 63 37 64 39 65 38 66
REMARK SMILES IDX 57 67 58 68 62 69 59 70 61 71 60 72 47 73 48 74 52 75 49 76
REMARK SMILES IDX 51 77 50 78
REMARK H PARENT 18 7 23 27 67 46 45 57
REMARK Flexibility Score: inf
ROOT
ATOM      1  C   UNL A   1      33.934  28.493  25.826  1.00  0.00     0.023 C 
ENDROOT
BRANCH   1   2
ATOM      2  C   UNL A   1      32.869  28.904  24.807  1.00  0.00     0.023 C 
BRANCH   2   3
ATOM      3  C   UNL A   1      32.069  27.739  24.234  1.00  0.00     0.116 C 
BRANCH   3   4
ATOM      4  N   UNL A   1      31.175  27.157  25.218  1.00  0.00    -0.352 N 
ATOM      5  C   UNL A   1      31.015  25.953  25.815  1.00  0.00     0.251 C 
ATOM      6  O   UNL A   1      30.080  25.890  26.619  1.00  0.00    -0.270 OA
ATOM      7  H   UNL A   1      30.509  27.809  25.533  1.00  0.00     0.163 HD
BRANCH   5   8
ATOM      8  C   UNL A   1      31.863  24.748  25.572  1.00  0.00     0.067 C 
ATOM      9  C   UNL A   1      33.765  20.036  24.811  1.00  0.00     0.048 C 
ATOM     10  C   UNL A   1      34.347  21.373  25.168  1.00  0.00    -0.007 A 
ATOM     11  C   UNL A   1      35.729  21.524  25.333  1.00  0.00     0.023 A 
ATOM     12  C   UNL A   1      33.519  22.489  25.357  1.00  0.00     0.130 A 
ATOM     13  C   UNL A   1      36.262  22.766  25.680  1.00  0.00     0.019 A 
ATOM     14  C   UNL A   1      34.052  23.733  25.713  1.00  0.00     0.019 A 
ATOM     15  O   UNL A   1      32.170  22.300  25.230  1.00  0.00    -0.475 OA
ATOM     16  Br  UNL A   1      38.131  22.951  25.901  1.00  0.00    -0.051 Br
ATOM     17  C   UNL A   1      35.433  23.871  25.873  1.00  0.00     0.027 A 
ATOM     18  C   UNL A   1      33.152  24.858  25.944  1.00  0.00     0.025 C 
ATOM     19  C   UNL A   1      31.383  23.482  24.921  1.00  0.00     0.314 C 
BRANCH  19  20
ATOM     20  C   UNL A   1      31.238  23.616  23.393  1.00  0.00     0.429 C 
ATOM     21  F   UNL A   1      31.464  22.422  22.790  1.00  0.00    -0.167 F 
ATOM     22  F   UNL A   1      29.992  24.001  23.024  1.00  0.00    -0.167 F 
ATOM     23  F   UNL A   1      32.099  24.510  22.861  1.00  0.00    -0.167 F 
ENDBRANCH  19  20
ENDBRANCH   5   8
ENDBRANCH   3   4
ENDBRANCH   2   3
ENDBRANCH   1   2
BRANCH   1  24
ATOM     24  C   UNL A   1      33.565  28.722  27.291  1.00  0.00     0.116 C 
BRANCH  24  25
ATOM     25  N   UNL A   1      33.586  30.119  27.697  1.00  0.00    -0.352 N 
ATOM     26  C   UNL A   1      34.642  30.827  28.223  1.00  0.00     0.251 C 
ATOM     27  H   UNL A   1      32.745  30.618  27.583  1.00  0.00     0.163 HD
ATOM     28  O   UNL A   1      34.509  31.991  28.583  1.00  0.00    -0.269 OA
BRANCH  26  29
ATOM     29  C   UNL A   1      35.931  30.133  28.398  1.00  0.00     0.039 A 
ATOM     30  C   UNL A   1      36.860  30.175  27.358  1.00  0.00     0.014 A 
ATOM     31  C   UNL A   1      36.249  29.540  29.624  1.00  0.00     0.014 A 
ATOM     32  C   UNL A   1      38.148  29.691  27.576  1.00  0.00     0.010 A 
ATOM     33  C   UNL A   1      37.551  29.112  29.857  1.00  0.00     0.010 A 
ATOM     34  C   UNL A   1      38.514  29.198  28.840  1.00  0.00    -0.014 A 
BRANCH  34  35
ATOM     35  C   UNL A   1      39.911  28.796  29.118  1.00  0.00     0.031 A 
ATOM     36  C   UNL A   1      40.398  27.433  28.722  1.00  0.00     0.074 A 
ATOM     37  C   UNL A   1      40.727  29.647  29.769  1.00  0.00     0.049 A 
ATOM     38  N   UNL A   1      41.584  26.906  28.885  1.00  0.00    -0.248 NA
ATOM     39  C   UNL A   1      39.422  26.540  28.080  1.00  0.00     0.031 C 
ATOM     40  C   UNL A   1      40.357  30.983  30.242  1.00  0.00     0.029 A 
ATOM     41  N   UNL A   1      42.042  29.516  30.137  1.00  0.00    -0.354 N 
ATOM     42  C   UNL A   1      41.496  25.621  28.369  1.00  0.00     0.074 A 
ATOM     43  C   UNL A   1      40.129  25.428  27.936  1.00  0.00     0.031 C 
ATOM     44  C   UNL A   1      41.432  31.565  30.797  1.00  0.00     0.029 A 
ATOM     45  C   UNL A   1      42.556  30.636  30.744  1.00  0.00     0.049 A 
ATOM     46  H   UNL A   1      42.568  28.699  29.980  1.00  0.00     0.167 HD
ATOM     47  C   UNL A   1      42.471  24.691  28.245  1.00  0.00     0.031 A 
ATOM     48  C   UNL A   1      43.799  30.890  31.193  1.00  0.00     0.031 A 
ATOM     49  C   UNL A   1      43.831  24.883  28.664  1.00  0.00     0.049 A 
ATOM     50  C   UNL A   1      44.863  29.841  31.051  1.00  0.00     0.074 A 
ATOM     51  C   UNL A   1      44.902  24.017  28.541  1.00  0.00     0.029 A 
ATOM     52  N   UNL A   1      44.308  26.028  29.285  1.00  0.00    -0.354 N 
ATOM     53  N   UNL A   1      44.777  28.649  30.514  1.00  0.00    -0.248 NA
ATOM     54  C   UNL A   1      46.198  30.175  31.570  1.00  0.00     0.031 C 
ATOM     55  C   UNL A   1      46.023  24.625  29.116  1.00  0.00     0.029 A 
ATOM     56  C   UNL A   1      45.656  25.884  29.563  1.00  0.00     0.049 A 
ATOM     57  H   UNL A   1      43.769  26.823  29.497  1.00  0.00     0.167 HD
ATOM     58  C   UNL A   1      46.047  28.098  30.608  1.00  0.00     0.074 A 
ATOM     59  C   UNL A   1      46.888  29.088  31.249  1.00  0.00     0.031 C 
ATOM     60  C   UNL A   1      46.476  26.880  30.199  1.00  0.00     0.031 A 
BRANCH  47  61
ATOM     61  C   UNL A   1      42.093  23.383  27.617  1.00  0.00    -0.014 A 
ATOM     62  C   UNL A   1      41.478  22.373  28.374  1.00  0.00     0.009 A 
ATOM     63  C   UNL A   1      42.328  23.165  26.251  1.00  0.00     0.009 A 
ATOM     64  C   UNL A   1      41.135  21.156  27.782  1.00  0.00     0.001 A 
ATOM     65  C   UNL A   1      41.962  21.955  25.657  1.00  0.00     0.001 A 
ATOM     66  C   UNL A   1      41.374  20.950  26.424  1.00  0.00     0.000 A 
ENDBRANCH  47  61
BRANCH  48  67
ATOM     67  C   UNL A   1      44.115  32.220  31.773  1.00  0.00    -0.014 A 
ATOM     68  C   UNL A   1      43.974  32.434  33.153  1.00  0.00     0.009 A 
ATOM     69  C   UNL A   1      44.579  33.267  30.964  1.00  0.00     0.009 A 
ATOM     70  C   UNL A   1      44.280  33.679  33.709  1.00  0.00     0.001 A 
ATOM     71  C   UNL A   1      44.900  34.505  31.526  1.00  0.00     0.001 A 
ATOM     72  C   UNL A   1      44.746  34.711  32.897  1.00  0.00     0.000 A 
ENDBRANCH  48  67
BRANCH  60  73
ATOM     73  C   UNL A   1      47.924  26.553  30.408  1.00  0.00    -0.014 A 
ATOM     74  C   UNL A   1      48.355  25.896  31.569  1.00  0.00     0.009 A 
ATOM     75  C   UNL A   1      48.854  26.836  29.395  1.00  0.00     0.009 A 
ATOM     76  C   UNL A   1      49.695  25.538  31.718  1.00  0.00     0.001 A 
ATOM     77  C   UNL A   1      50.190  26.460  29.539  1.00  0.00     0.001 A 
ATOM     78  C   UNL A   1      50.610  25.814  30.701  1.00  0.00     0.000 A 
ENDBRANCH  60  73
ENDBRANCH  34  35
ENDBRANCH  26  29
ENDBRANCH  24  25
ENDBRANCH   1  24
TORSDOF 12
ENDMDL
MODEL 2
REMARK VINA RESULT:     -11.3      2.660      7.597
REMARK SMILES Cc1cc(Br)cc2c1O[C@H](C(F)(F)F)C(C(=O)NCCCCNC(=O)c1ccc(-c3c4nc(c(-c5ccccc5)c5ccc([nH]5)c(-c5ccccc5)c5nc(c(-c6ccccc6)c6ccc3[nH]6)C=C5)C=C4)cc1)=C2
REMARK SMILES IDX 21 1 20 2 19 3 18 4 16 5 17 6 15 8 1 9 2 10 3 11 8 12 4 13
REMARK SMILES IDX 7 14 9 15 5 16 6 17 74 18 10 19 11 20 12 21 13 22 14 23
REMARK SMILES IDX 22 24 23 25 24 26 25 28 26 29 27 30 73 31 28 32 72 33 29 34
REMARK SMILES IDX 30 35 31 36 66 37 32 38 71 39 65 40 67 41 33 42 70 43 64 44
REMARK SMILES IDX 63 45 34 47 56 48 41 49 55 50 42 51 45 52 54 53 68 54 43 55
REMARK SMILES IDX 44 56 53 58 69 59 46 60 35 61 36 62 40 63 37 64 39 65 38 66
REMARK SMILES IDX 57 67 58 68 62 69 59 70 61 71 60 72 47 73 48 74 52 75 49 76
REMARK SMILES IDX 51 77 50 78
REMARK H PARENT 18 7 23 27 67 46 45 57
REMARK Flexibility Score: inf
ROOT
ATOM      1  C   UNL A   1      36.017  23.436  26.125  1.00  0.00     0.023 C 
ENDROOT
BRANCH   1   2
ATOM      2  C   UNL A   1      35.169  22.169  25.997  1.00  0.00     0.023 C 
BRANCH   2   3
ATOM      3  C   UNL A   1      33.830  22.382  25.297  1.00  0.00     0.116 C 
BRANCH   3   4
ATOM      4  N   UNL A   1      33.991  22.600  23.871  1.00  0.00    -0.352 N 
ATOM      5  C   UNL A   1      33.710  23.584  22.986  1.00  0.00     0.251 C 
ATOM      6  O   UNL A   1      34.019  23.337  21.816  1.00  0.00    -0.270 OA
ATOM      7  H   UNL A   1      34.415  21.827  23.432  1.00  0.00     0.163 HD
BRANCH   5   8
ATOM      8  C   UNL A   1      33.077  24.894  23.322  1.00  0.00     0.067 C 
ATOM      9  C   UNL A   1      30.351  29.248  23.461  1.00  0.00     0.048 C 
ATOM     10  C   UNL A   1      31.547  28.717  24.197  1.00  0.00    -0.007 A 
ATOM     11  C   UNL A   1      32.147  29.472  25.214  1.00  0.00     0.023 A 
ATOM     12  C   UNL A   1      32.095  27.467  23.873  1.00  0.00     0.130 A 
ATOM     13  C   UNL A   1      33.267  28.980  25.884  1.00  0.00     0.019 A 
ATOM     14  C   UNL A   1      33.223  26.977  24.540  1.00  0.00     0.019 A 
ATOM     15  O   UNL A   1      31.512  26.773  22.848  1.00  0.00    -0.475 OA
ATOM     16  Br  UNL A   1      34.065  30.013  27.251  1.00  0.00    -0.051 Br
ATOM     17  C   UNL A   1      33.811  27.739  25.552  1.00  0.00     0.027 A 
ATOM     18  C   UNL A   1      33.787  25.692  24.141  1.00  0.00     0.025 C 
ATOM     19  C   UNL A   1      31.721  25.335  22.847  1.00  0.00     0.314 C 
BRANCH  19  20
ATOM     20  C   UNL A   1      30.571  24.649  23.610  1.00  0.00     0.429 C 
ATOM     21  F   UNL A   1      30.893  24.506  24.920  1.00  0.00    -0.167 F 
ATOM     22  F   UNL A   1      29.425  25.370  23.574  1.00  0.00    -0.167 F 
ATOM     23  F   UNL A   1      30.279  23.422  23.127  1.00  0.00    -0.167 F 
ENDBRANCH  19  20
ENDBRANCH   5   8
ENDBRANCH   3   4
ENDBRANCH   2   3
ENDBRANCH   1   2
BRANCH   1  24
ATOM     24  C   UNL A   1      37.183  23.546  25.144  1.00  0.00     0.116 C 
BRANCH  24  25
ATOM     25  N   UNL A   1      38.303  22.669  25.450  1.00  0.00    -0.352 N 
ATOM     26  C   UNL A   1      39.416  22.956  26.207  1.00  0.00     0.251 C 
ATOM     27  H   UNL A   1      38.261  21.761  25.071  1.00  0.00     0.163 HD
ATOM     28  O   UNL A   1      40.321  22.141  26.338  1.00  0.00    -0.269 OA
BRANCH  26  29
ATOM     29  C   UNL A   1      39.521  24.295  26.815  1.00  0.00     0.039 A 
ATOM     30  C   UNL A   1      39.020  24.486  28.103  1.00  0.00     0.014 A 
ATOM     31  C   UNL A   1      40.205  25.317  26.150  1.00  0.00     0.014 A 
ATOM     32  C   UNL A   1      39.279  25.686  28.764  1.00  0.00     0.010 A 
ATOM     33  C   UNL A   1      40.512  26.488  26.832  1.00  0.00     0.010 A 
ATOM     34  C   UNL A   1      40.064  26.675  28.149  1.00  0.00    -0.014 A 
BRANCH  34  35
ATOM     35  C   UNL A   1      40.448  27.900  28.887  1.00  0.00     0.031 A 
ATOM     36  C   UNL A   1      39.481  29.039  29.014  1.00  0.00     0.074 A 
ATOM     37  C   UNL A   1      41.688  28.000  29.404  1.00  0.00     0.049 A 
ATOM     38  N   UNL A   1      39.640  30.188  29.620  1.00  0.00    -0.248 NA
ATOM     39  C   UNL A   1      38.174  28.877  28.360  1.00  0.00     0.031 C 
ATOM     40  C   UNL A   1      42.732  26.976  29.309  1.00  0.00     0.029 A 
ATOM     41  N   UNL A   1      42.277  29.010  30.121  1.00  0.00    -0.354 N 
ATOM     42  C   UNL A   1      38.458  30.885  29.417  1.00  0.00     0.074 A 
ATOM     43  C   UNL A   1      37.610  30.055  28.589  1.00  0.00     0.031 C 
ATOM     44  C   UNL A   1      43.816  27.392  29.982  1.00  0.00     0.029 A 
ATOM     45  C   UNL A   1      43.555  28.719  30.530  1.00  0.00     0.049 A 
ATOM     46  H   UNL A   1      41.826  29.861  30.323  1.00  0.00     0.167 HD
ATOM     47  C   UNL A   1      38.100  32.099  29.895  1.00  0.00     0.031 A 
ATOM     48  C   UNL A   1      44.415  29.436  31.277  1.00  0.00     0.031 A 
ATOM     49  C   UNL A   1      38.935  32.921  30.726  1.00  0.00     0.049 A 
ATOM     50  C   UNL A   1      43.998  30.783  31.792  1.00  0.00     0.074 A 
ATOM     51  C   UNL A   1      38.644  34.147  31.297  1.00  0.00     0.029 A 
ATOM     52  N   UNL A   1      40.227  32.594  31.108  1.00  0.00    -0.354 N 
ATOM     53  N   UNL A   1      42.857  31.407  31.634  1.00  0.00    -0.248 NA
ATOM     54  C   UNL A   1      44.984  31.522  32.593  1.00  0.00     0.031 C 
ATOM     55  C   UNL A   1      39.773  34.578  32.001  1.00  0.00     0.029 A 
ATOM     56  C   UNL A   1      40.751  33.603  31.897  1.00  0.00     0.049 A 
ATOM     57  H   UNL A   1      40.701  31.770  30.856  1.00  0.00     0.167 HD
ATOM     58  C   UNL A   1      42.977  32.599  32.333  1.00  0.00     0.074 A 
ATOM     59  C   UNL A   1      44.300  32.610  32.922  1.00  0.00     0.031 C 
ATOM     60  C   UNL A   1      42.069  33.595  32.475  1.00  0.00     0.031 A 
BRANCH  47  61
ATOM     61  C   UNL A   1      36.733  32.600  29.535  1.00  0.00    -0.014 A 
ATOM     62  C   UNL A   1      35.644  32.403  30.399  1.00  0.00     0.009 A 
ATOM     63  C   UNL A   1      36.533  33.297  28.334  1.00  0.00     0.009 A 
ATOM     64  C   UNL A   1      34.375  32.868  30.053  1.00  0.00     0.001 A 
ATOM     65  C   UNL A   1      35.267  33.781  28.001  1.00  0.00     0.001 A 
ATOM     66  C   UNL A   1      34.188  33.559  28.856  1.00  0.00     0.000 A 
ENDBRANCH  47  61
BRANCH  48  67
ATOM     67  C   UNL A   1      45.741  28.866  31.626  1.00  0.00    -0.014 A 
ATOM     68  C   UNL A   1      45.885  28.085  32.784  1.00  0.00     0.009 A 
ATOM     69  C   UNL A   1      46.856  29.075  30.802  1.00  0.00     0.009 A 
ATOM     70  C   UNL A   1      47.126  27.536  33.115  1.00  0.00     0.001 A 
ATOM     71  C   UNL A   1      48.090  28.509  31.126  1.00  0.00     0.001 A 
ATOM     72  C   UNL A   1      48.225  27.744  32.284  1.00  0.00     0.000 A 
ENDBRANCH  48  67
BRANCH  60  73
ATOM     73  C   UNL A   1      42.463  34.772  33.316  1.00  0.00    -0.014 A 
ATOM     74  C   UNL A   1      43.099  35.884  32.746  1.00  0.00     0.009 A 
ATOM     75  C   UNL A   1      42.120  34.800  34.677  1.00  0.00     0.009 A 
ATOM     76  C   UNL A   1      43.398  37.000  33.530  1.00  0.00     0.001 A 
ATOM     77  C   UNL A   1      42.403  35.924  35.452  1.00  0.00     0.001 A 
ATOM     78  C   UNL A   1      43.044  37.023  34.879  1.00  0.00     0.000 A 
ENDBRANCH  60  73
ENDBRANCH  34  35
ENDBRANCH  26  29
ENDBRANCH  24  25
ENDBRANCH   1  24
TORSDOF 12
ENDMDL
MODEL 3
REMARK VINA RESULT:     -11.3      0.383      5.973
REMARK SMILES Cc1cc(Br)cc2c1O[C@H](C(F)(F)F)C(C(=O)NCCCCNC(=O)c1ccc(-c3c4nc(c(-c5ccccc5)c5ccc([nH]5)c(-c5ccccc5)c5nc(c(-c6ccccc6)c6ccc3[nH]6)C=C5)C=C4)cc1)=C2
REMARK SMILES IDX 21 1 20 2 19 3 18 4 16 5 17 6 15 8 1 9 2 10 3 11 8 12 4 13
REMARK SMILES IDX 7 14 9 15 5 16 6 17 74 18 10 19 11 20 12 21 13 22 14 23
REMARK SMILES IDX 22 24 23 25 24 26 25 28 26 29 27 30 73 31 28 32 72 33 29 34
REMARK SMILES IDX 30 35 31 36 66 37 32 38 71 39 65 40 67 41 33 42 70 43 64 44
REMARK SMILES IDX 63 45 34 47 56 48 41 49 55 50 42 51 45 52 54 53 68 54 43 55
REMARK SMILES IDX 44 56 53 58 69 59 46 60 35 61 36 62 40 63 37 64 39 65 38 66
REMARK SMILES IDX 57 67 58 68 62 69 59 70 61 71 60 72 47 73 48 74 52 75 49 76
REMARK SMILES IDX 51 77 50 78
REMARK H PARENT 18 7 23 27 67 46 45 57
REMARK Flexibility Score: inf
ROOT
ATOM      1  C   UNL A   1      33.903  28.640  25.822  1.00  0.00     0.023 C 
ENDROOT
BRANCH   1   2
ATOM      2  C   UNL A   1      32.865  28.945  24.739  1.00  0.00     0.023 C 
BRANCH   2   3
ATOM      3  C   UNL A   1      32.112  27.720  24.233  1.00  0.00     0.116 C 
BRANCH   3   4
ATOM      4  N   UNL A   1      31.247  27.154  25.252  1.00  0.00    -0.352 N 
ATOM      5  C   UNL A   1      31.095  25.956  25.863  1.00  0.00     0.251 C 
ATOM      6  O   UNL A   1      30.188  25.908  26.700  1.00  0.00    -0.270 OA
ATOM      7  H   UNL A   1      30.598  27.815  25.586  1.00  0.00     0.163 HD
BRANCH   5   8
ATOM      8  C   UNL A   1      31.922  24.740  25.599  1.00  0.00     0.067 C 
ATOM      9  C   UNL A   1      33.742  20.010  24.754  1.00  0.00     0.048 C 
ATOM     10  C   UNL A   1      34.346  21.329  25.137  1.00  0.00    -0.007 A 
ATOM     11  C   UNL A   1      35.731  21.453  25.307  1.00  0.00     0.023 A 
ATOM     12  C   UNL A   1      33.538  22.457  25.345  1.00  0.00     0.130 A 
ATOM     13  C   UNL A   1      36.285  22.678  25.678  1.00  0.00     0.019 A 
ATOM     14  C   UNL A   1      34.093  23.684  25.725  1.00  0.00     0.019 A 
ATOM     15  O   UNL A   1      32.186  22.294  25.213  1.00  0.00    -0.475 OA
ATOM     16  Br  UNL A   1      38.156  22.826  25.906  1.00  0.00    -0.051 Br
ATOM     17  C   UNL A   1      35.475  23.794  25.890  1.00  0.00     0.027 A 
ATOM     18  C   UNL A   1      33.212  24.820  25.975  1.00  0.00     0.025 C 
ATOM     19  C   UNL A   1      31.421  23.496  24.924  1.00  0.00     0.314 C 
BRANCH  19  20
ATOM     20  C   UNL A   1      31.282  23.661  23.398  1.00  0.00     0.429 C 
ATOM     21  F   UNL A   1      31.481  22.473  22.774  1.00  0.00    -0.167 F 
ATOM     22  F   UNL A   1      30.046  24.081  23.034  1.00  0.00    -0.167 F 
ATOM     23  F   UNL A   1      32.164  24.544  22.883  1.00  0.00    -0.167 F 
ENDBRANCH  19  20
ENDBRANCH   5   8
ENDBRANCH   3   4
ENDBRANCH   2   3
ENDBRANCH   1   2
BRANCH   1  24
ATOM     24  C   UNL A   1      33.441  28.876  27.259  1.00  0.00     0.116 C 
BRANCH  24  25
ATOM     25  N   UNL A   1      33.500  30.269  27.681  1.00  0.00    -0.352 N 
ATOM     26  C   UNL A   1      34.574  30.941  28.217  1.00  0.00     0.251 C 
ATOM     27  H   UNL A   1      32.674  30.792  27.569  1.00  0.00     0.163 HD
ATOM     28  O   UNL A   1      34.472  32.104  28.589  1.00  0.00    -0.269 OA
BRANCH  26  29
ATOM     29  C   UNL A   1      35.842  30.210  28.388  1.00  0.00     0.039 A 
ATOM     30  C   UNL A   1      36.784  30.255  27.360  1.00  0.00     0.014 A 
ATOM     31  C   UNL A   1      36.130  29.576  29.601  1.00  0.00     0.014 A 
ATOM     32  C   UNL A   1      38.057  29.732  27.580  1.00  0.00     0.010 A 
ATOM     33  C   UNL A   1      37.417  29.109  29.838  1.00  0.00     0.010 A 
ATOM     34  C   UNL A   1      38.395  29.197  28.834  1.00  0.00    -0.014 A 
BRANCH  34  35
ATOM     35  C   UNL A   1      39.778  28.752  29.118  1.00  0.00     0.031 A 
ATOM     36  C   UNL A   1      40.725  29.652  29.854  1.00  0.00     0.074 A 
ATOM     37  C   UNL A   1      40.191  27.550  28.672  1.00  0.00     0.049 A 
ATOM     38  N   UNL A   1      41.970  29.435  30.191  1.00  0.00    -0.248 NA
ATOM     39  C   UNL A   1      40.215  30.976  30.243  1.00  0.00     0.031 C 
ATOM     40  C   UNL A   1      39.375  26.601  27.908  1.00  0.00     0.029 A 
ATOM     41  N   UNL A   1      41.400  26.916  28.805  1.00  0.00    -0.354 N 
ATOM     42  C   UNL A   1      42.393  30.593  30.827  1.00  0.00     0.074 A 
ATOM     43  C   UNL A   1      41.291  31.529  30.785  1.00  0.00     0.031 C 
ATOM     44  C   UNL A   1      40.093  25.490  27.680  1.00  0.00     0.029 A 
ATOM     45  C   UNL A   1      41.424  25.658  28.254  1.00  0.00     0.049 A 
ATOM     46  H   UNL A   1      42.176  27.324  29.252  1.00  0.00     0.167 HD
ATOM     47  C   UNL A   1      43.584  30.847  31.416  1.00  0.00     0.031 A 
ATOM     48  C   UNL A   1      42.405  24.737  28.230  1.00  0.00     0.031 A 
ATOM     49  C   UNL A   1      44.676  29.916  31.470  1.00  0.00     0.049 A 
ATOM     50  C   UNL A   1      43.720  25.043  28.884  1.00  0.00     0.074 A 
ATOM     51  C   UNL A   1      45.908  30.065  32.081  1.00  0.00     0.029 A 
ATOM     52  N   UNL A   1      44.664  28.656  30.890  1.00  0.00    -0.354 N 
ATOM     53  N   UNL A   1      44.087  26.124  29.527  1.00  0.00    -0.248 NA
ATOM     54  C   UNL A   1      44.755  24.001  28.815  1.00  0.00     0.031 C 
ATOM     55  C   UNL A   1      46.654  28.905  31.846  1.00  0.00     0.029 A 
ATOM     56  C   UNL A   1      45.872  28.022  31.120  1.00  0.00     0.049 A 
ATOM     57  H   UNL A   1      43.909  28.271  30.390  1.00  0.00     0.167 HD
ATOM     58  C   UNL A   1      45.384  25.885  29.960  1.00  0.00     0.074 A 
ATOM     59  C   UNL A   1      45.739  24.555  29.512  1.00  0.00     0.031 C 
ATOM     60  C   UNL A   1      46.205  26.698  30.667  1.00  0.00     0.031 A 
BRANCH  47  61
ATOM     61  C   UNL A   1      43.756  32.191  32.060  1.00  0.00    -0.014 A 
ATOM     62  C   UNL A   1      44.283  33.272  31.337  1.00  0.00     0.009 A 
ATOM     63  C   UNL A   1      43.365  32.387  33.393  1.00  0.00     0.009 A 
ATOM     64  C   UNL A   1      44.444  34.518  31.947  1.00  0.00     0.001 A 
ATOM     65  C   UNL A   1      43.506  33.639  33.993  1.00  0.00     0.001 A 
ATOM     66  C   UNL A   1      44.053  34.701  33.273  1.00  0.00     0.000 A 
ENDBRANCH  47  61
BRANCH  48  67
ATOM     67  C   UNL A   1      42.156  23.413  27.606  1.00  0.00    -0.014 A 
ATOM     68  C   UNL A   1      41.487  22.412  28.327  1.00  0.00     0.009 A 
ATOM     69  C   UNL A   1      42.561  23.149  26.289  1.00  0.00     0.009 A 
ATOM     70  C   UNL A   1      41.240  21.167  27.743  1.00  0.00     0.001 A 
ATOM     71  C   UNL A   1      42.296  21.910  25.702  1.00  0.00     0.001 A 
ATOM     72  C   UNL A   1      41.640  20.919  26.432  1.00  0.00     0.000 A 
ENDBRANCH  48  67
BRANCH  60  73
ATOM     73  C   UNL A   1      47.562  26.167  31.022  1.00  0.00    -0.014 A 
ATOM     74  C   UNL A   1      48.626  26.240  30.111  1.00  0.00     0.009 A 
ATOM     75  C   UNL A   1      47.796  25.662  32.311  1.00  0.00     0.009 A 
ATOM     76  C   UNL A   1      49.899  25.804  30.481  1.00  0.00     0.001 A 
ATOM     77  C   UNL A   1      49.074  25.244  32.683  1.00  0.00     0.001 A 
ATOM     78  C   UNL A   1      50.123  25.313  31.768  1.00  0.00     0.000 A 
ENDBRANCH  60  73
ENDBRANCH  34  35
ENDBRANCH  26  29
ENDBRANCH  24  25
ENDBRANCH   1  24
TORSDOF 12
ENDMDL
