MODEL 1
REMARK VINA RESULT:     -11.2      0.000      0.000
REMARK SMILES C[C@@H](Sc1nc2ccccc2c(=O)n1N)C(=O)NCCCCNC(=O)c1ccc(-c2c3nc(c(-c4ccccc4)c4ccc([nH]4)c(-c4ccccc4)c4nc(c(-c5ccccc5)c5ccc2[nH]5)C=C4)C=C3)cc1
REMARK SMILES IDX 20 1 19 2 18 3 16 4 17 5 2 7 1 8 3 9 4 10 5 11 14 12 6 13
REMARK SMILES IDX 12 14 7 15 11 16 13 17 8 18 10 19 9 20 15 21 21 24 22 25
REMARK SMILES IDX 23 26 24 27 25 29 26 30 27 31 73 32 28 33 72 34 29 35 30 36
REMARK SMILES IDX 31 37 66 38 32 39 71 40 65 41 67 42 33 43 70 44 64 45 63 46
REMARK SMILES IDX 34 48 56 49 41 50 55 51 42 52 45 53 54 54 68 55 43 56 44 57
REMARK SMILES IDX 53 59 69 60 46 61 35 62 36 63 40 64 37 65 39 66 38 67 57 68
REMARK SMILES IDX 58 69 62 70 59 71 61 72 60 73 47 74 48 75 52 76 49 77 51 78
REMARK SMILES IDX 50 79
REMARK H PARENT 18 6 15 22 15 23 23 28 67 47 45 58
REMARK Flexibility Score: inf
ROOT
ATOM      1  C   UNL A   1      36.368  20.868  25.024  1.00  0.00     0.023 C 
ENDROOT
BRANCH   1   2
ATOM      2  C   UNL A   1      36.445  22.360  24.712  1.00  0.00     0.116 C 
BRANCH   2   3
ATOM      3  N   UNL A   1      35.689  22.687  23.517  1.00  0.00    -0.355 N 
ATOM      4  C   UNL A   1      34.390  23.077  23.369  1.00  0.00     0.233 C 
ATOM      5  O   UNL A   1      33.999  23.305  22.220  1.00  0.00    -0.274 OA
ATOM      6  H   UNL A   1      36.196  22.616  22.676  1.00  0.00     0.163 HD
BRANCH   4   7
ATOM      7  C   UNL A   1      33.443  23.230  24.564  1.00  0.00     0.141 C 
ATOM      8  C   UNL A   1      33.418  24.655  25.105  1.00  0.00     0.030 C 
BRANCH   7   9
ATOM      9  S   UNL A   1      31.830  22.490  24.113  1.00  0.00    -0.073 SA
BRANCH   9  10
ATOM     10  C   UNL A   1      32.253  20.812  23.893  1.00  0.00     0.191 A 
ATOM     11  N   UNL A   1      32.565  20.143  24.955  1.00  0.00    -0.222 NA
ATOM     12  N   UNL A   1      32.157  20.258  22.623  1.00  0.00    -0.202 N 
ATOM     13  C   UNL A   1      32.795  18.765  24.822  1.00  0.00     0.079 A 
ATOM     14  C   UNL A   1      32.362  18.895  22.406  1.00  0.00     0.280 A 
ATOM     15  C   UNL A   1      33.089  18.021  25.968  1.00  0.00     0.029 A 
ATOM     16  C   UNL A   1      32.700  18.100  23.599  1.00  0.00     0.068 A 
ATOM     17  O   UNL A   1      32.249  18.359  21.303  1.00  0.00    -0.267 OA
ATOM     18  C   UNL A   1      33.278  16.638  25.890  1.00  0.00     0.002 A 
ATOM     19  C   UNL A   1      32.891  16.716  23.510  1.00  0.00     0.016 A 
ATOM     20  C   UNL A   1      33.179  15.986  24.661  1.00  0.00     0.001 A 
BRANCH  12  21
ATOM     21  N   UNL A   1      31.830  21.050  21.474  1.00  0.00    -0.334 N 
ATOM     22  H   UNL A   1      32.293  21.905  21.318  1.00  0.00     0.178 HD
ATOM     23  H   UNL A   1      31.142  20.740  20.842  1.00  0.00     0.178 HD
ENDBRANCH  12  21
ENDBRANCH   9  10
ENDBRANCH   7   9
ENDBRANCH   4   7
ENDBRANCH   2   3
ENDBRANCH   1   2
BRANCH   1  24
ATOM     24  C   UNL A   1      37.668  20.103  24.772  1.00  0.00     0.023 C 
BRANCH  24  25
ATOM     25  C   UNL A   1      38.817  20.452  25.713  1.00  0.00     0.116 C 
BRANCH  25  26
ATOM     26  N   UNL A   1      39.865  19.443  25.732  1.00  0.00    -0.352 N 
ATOM     27  C   UNL A   1      41.189  19.581  26.070  1.00  0.00     0.251 C 
ATOM     28  H   UNL A   1      39.586  18.536  25.468  1.00  0.00     0.163 HD
ATOM     29  O   UNL A   1      41.972  18.649  25.910  1.00  0.00    -0.269 OA
BRANCH  27  30
ATOM     30  C   UNL A   1      41.674  20.873  26.595  1.00  0.00     0.039 A 
ATOM     31  C   UNL A   1      42.140  21.834  25.695  1.00  0.00     0.014 A 
ATOM     32  C   UNL A   1      41.638  21.145  27.965  1.00  0.00     0.014 A 
ATOM     33  C   UNL A   1      42.507  23.096  26.164  1.00  0.00     0.010 A 
ATOM     34  C   UNL A   1      41.934  22.426  28.420  1.00  0.00     0.010 A 
ATOM     35  C   UNL A   1      42.369  23.414  27.525  1.00  0.00    -0.014 A 
BRANCH  35  36
ATOM     36  C   UNL A   1      42.667  24.777  28.030  1.00  0.00     0.031 A 
ATOM     37  C   UNL A   1      44.065  25.143  28.440  1.00  0.00     0.074 A 
ATOM     38  C   UNL A   1      41.665  25.665  28.183  1.00  0.00     0.049 A 
ATOM     39  N   UNL A   1      44.507  26.260  28.960  1.00  0.00    -0.248 NA
ATOM     40  C   UNL A   1      45.099  24.109  28.268  1.00  0.00     0.031 C 
ATOM     41  C   UNL A   1      40.257  25.420  27.863  1.00  0.00     0.029 A 
ATOM     42  N   UNL A   1      41.679  26.953  28.656  1.00  0.00    -0.354 N 
ATOM     43  C   UNL A   1      45.862  26.058  29.192  1.00  0.00     0.074 A 
ATOM     44  C   UNL A   1      46.158  24.696  28.804  1.00  0.00     0.031 C 
ATOM     45  C   UNL A   1      39.548  26.529  28.126  1.00  0.00     0.029 A 
ATOM     46  C   UNL A   1      40.441  27.548  28.667  1.00  0.00     0.049 A 
ATOM     47  H   UNL A   1      42.498  27.408  28.958  1.00  0.00     0.167 HD
ATOM     48  C   UNL A   1      46.782  26.931  29.664  1.00  0.00     0.031 A 
ATOM     49  C   UNL A   1      40.065  28.775  29.075  1.00  0.00     0.031 A 
ATOM     50  C   UNL A   1      46.490  28.288  30.044  1.00  0.00     0.049 A 
ATOM     51  C   UNL A   1      41.102  29.723  29.607  1.00  0.00     0.074 A 
ATOM     52  C   UNL A   1      47.364  29.267  30.483  1.00  0.00     0.029 A 
ATOM     53  N   UNL A   1      45.226  28.855  30.029  1.00  0.00    -0.354 N 
ATOM     54  N   UNL A   1      42.390  29.539  29.755  1.00  0.00    -0.248 NA
ATOM     55  C   UNL A   1      40.632  31.055  30.017  1.00  0.00     0.031 C 
ATOM     56  C   UNL A   1      46.619  30.413  30.783  1.00  0.00     0.029 A 
ATOM     57  C   UNL A   1      45.291  30.165  30.475  1.00  0.00     0.049 A 
ATOM     58  H   UNL A   1      44.403  28.395  29.745  1.00  0.00     0.167 HD
ATOM     59  C   UNL A   1      42.890  30.736  30.250  1.00  0.00     0.074 A 
ATOM     60  C   UNL A   1      41.767  31.645  30.361  1.00  0.00     0.031 C 
ATOM     61  C   UNL A   1      44.165  31.055  30.582  1.00  0.00     0.031 A 
BRANCH  48  62
ATOM     62  C   UNL A   1      48.195  26.437  29.802  1.00  0.00    -0.014 A 
ATOM     63  C   UNL A   1      48.633  25.807  30.980  1.00  0.00     0.009 A 
ATOM     64  C   UNL A   1      49.094  26.578  28.734  1.00  0.00     0.009 A 
ATOM     65  C   UNL A   1      49.953  25.368  31.099  1.00  0.00     0.001 A 
ATOM     66  C   UNL A   1      50.405  26.110  28.845  1.00  0.00     0.001 A 
ATOM     67  C   UNL A   1      50.836  25.516  30.030  1.00  0.00     0.000 A 
ENDBRANCH  48  62
BRANCH  49  68
ATOM     68  C   UNL A   1      38.639  29.184  28.981  1.00  0.00    -0.014 A 
ATOM     69  C   UNL A   1      37.796  29.086  30.099  1.00  0.00     0.009 A 
ATOM     70  C   UNL A   1      38.113  29.672  27.775  1.00  0.00     0.009 A 
ATOM     71  C   UNL A   1      36.450  29.445  30.003  1.00  0.00     0.001 A 
ATOM     72  C   UNL A   1      36.773  30.057  27.690  1.00  0.00     0.001 A 
ATOM     73  C   UNL A   1      35.940  29.935  28.801  1.00  0.00     0.000 A 
ENDBRANCH  49  68
BRANCH  61  74
ATOM     74  C   UNL A   1      44.419  32.456  31.065  1.00  0.00    -0.014 A 
ATOM     75  C   UNL A   1      44.693  33.498  30.166  1.00  0.00     0.009 A 
ATOM     76  C   UNL A   1      44.342  32.740  32.437  1.00  0.00     0.009 A 
ATOM     77  C   UNL A   1      44.917  34.793  30.638  1.00  0.00     0.001 A 
ATOM     78  C   UNL A   1      44.539  34.041  32.902  1.00  0.00     0.001 A 
ATOM     79  C   UNL A   1      44.835  35.064  32.003  1.00  0.00     0.000 A 
ENDBRANCH  61  74
ENDBRANCH  35  36
ENDBRANCH  27  30
ENDBRANCH  25  26
ENDBRANCH  24  25
ENDBRANCH   1  24
TORSDOF 14
ENDMDL
MODEL 2
REMARK VINA RESULT:     -11.0      2.090      7.171
REMARK SMILES C[C@@H](Sc1nc2ccccc2c(=O)n1N)C(=O)NCCCCNC(=O)c1ccc(-c2c3nc(c(-c4ccccc4)c4ccc([nH]4)c(-c4ccccc4)c4nc(c(-c5ccccc5)c5ccc2[nH]5)C=C4)C=C3)cc1
REMARK SMILES IDX 20 1 19 2 18 3 16 4 17 5 2 7 1 8 3 9 4 10 5 11 14 12 6 13
REMARK SMILES IDX 12 14 7 15 11 16 13 17 8 18 10 19 9 20 15 21 21 24 22 25
REMARK SMILES IDX 23 26 24 27 25 29 26 30 27 31 73 32 28 33 72 34 29 35 30 36
REMARK SMILES IDX 31 37 66 38 32 39 71 40 65 41 67 42 33 43 70 44 64 45 63 46
REMARK SMILES IDX 34 48 56 49 41 50 55 51 42 52 45 53 54 54 68 55 43 56 44 57
REMARK SMILES IDX 53 59 69 60 46 61 35 62 36 63 40 64 37 65 39 66 38 67 57 68
REMARK SMILES IDX 58 69 62 70 59 71 61 72 60 73 47 74 48 75 52 76 49 77 51 78
REMARK SMILES IDX 50 79
REMARK H PARENT 18 6 15 22 15 23 23 28 67 47 45 58
REMARK Flexibility Score: inf
ROOT
ATOM      1  C   UNL A   1      35.907  20.859  25.384  1.00  0.00     0.023 C 
ENDROOT
BRANCH   1   2
ATOM      2  C   UNL A   1      35.468  22.281  25.723  1.00  0.00     0.116 C 
BRANCH   2   3
ATOM      3  N   UNL A   1      34.656  22.308  26.926  1.00  0.00    -0.355 N 
ATOM      4  C   UNL A   1      33.304  22.410  27.080  1.00  0.00     0.233 C 
ATOM      5  O   UNL A   1      32.868  22.397  28.235  1.00  0.00    -0.274 OA
ATOM      6  H   UNL A   1      35.163  22.239  27.767  1.00  0.00     0.163 HD
BRANCH   4   7
ATOM      7  C   UNL A   1      32.353  22.538  25.885  1.00  0.00     0.141 C 
ATOM      8  C   UNL A   1      32.301  21.266  25.046  1.00  0.00     0.030 C 
BRANCH   7   9
ATOM      9  S   UNL A   1      30.755  23.191  26.494  1.00  0.00    -0.073 SA
BRANCH   9  10
ATOM     10  C   UNL A   1      30.825  24.855  25.975  1.00  0.00     0.191 A 
ATOM     11  N   UNL A   1      31.127  25.737  26.872  1.00  0.00    -0.222 NA
ATOM     12  N   UNL A   1      30.637  25.145  24.629  1.00  0.00    -0.202 N 
ATOM     13  C   UNL A   1      31.304  27.065  26.457  1.00  0.00     0.079 A 
ATOM     14  C   UNL A   1      30.802  26.440  24.133  1.00  0.00     0.280 A 
ATOM     15  C   UNL A   1      31.675  28.020  27.408  1.00  0.00     0.029 A 
ATOM     16  C   UNL A   1      31.167  27.464  25.127  1.00  0.00     0.068 A 
ATOM     17  O   UNL A   1      30.683  26.730  22.943  1.00  0.00    -0.267 OA
ATOM     18  C   UNL A   1      31.909  29.346  27.031  1.00  0.00     0.002 A 
ATOM     19  C   UNL A   1      31.395  28.789  24.740  1.00  0.00     0.016 A 
ATOM     20  C   UNL A   1      31.769  29.731  25.698  1.00  0.00     0.001 A 
BRANCH  12  21
ATOM     21  N   UNL A   1      30.280  24.134  23.679  1.00  0.00    -0.334 N 
ATOM     22  H   UNL A   1      30.630  24.176  22.760  1.00  0.00     0.178 HD
ATOM     23  H   UNL A   1      29.683  23.397  23.945  1.00  0.00     0.178 HD
ENDBRANCH  12  21
ENDBRANCH   9  10
ENDBRANCH   7   9
ENDBRANCH   4   7
ENDBRANCH   2   3
ENDBRANCH   1   2
BRANCH   1  24
ATOM     24  C   UNL A   1      37.278  20.767  24.711  1.00  0.00     0.023 C 
BRANCH  24  25
ATOM     25  C   UNL A   1      38.469  20.999  25.635  1.00  0.00     0.116 C 
BRANCH  25  26
ATOM     26  N   UNL A   1      39.427  19.904  25.617  1.00  0.00    -0.352 N 
ATOM     27  C   UNL A   1      40.751  19.910  25.981  1.00  0.00     0.251 C 
ATOM     28  H   UNL A   1      39.077  19.039  25.302  1.00  0.00     0.163 HD
ATOM     29  O   UNL A   1      41.455  18.924  25.785  1.00  0.00    -0.269 OA
BRANCH  27  30
ATOM     30  C   UNL A   1      41.334  21.128  26.579  1.00  0.00     0.039 A 
ATOM     31  C   UNL A   1      41.907  22.084  25.738  1.00  0.00     0.014 A 
ATOM     32  C   UNL A   1      41.287  21.338  27.960  1.00  0.00     0.014 A 
ATOM     33  C   UNL A   1      42.371  23.285  26.276  1.00  0.00     0.010 A 
ATOM     34  C   UNL A   1      41.682  22.564  28.484  1.00  0.00     0.010 A 
ATOM     35  C   UNL A   1      42.226  23.550  27.647  1.00  0.00    -0.014 A 
BRANCH  35  36
ATOM     36  C   UNL A   1      42.630  24.856  28.225  1.00  0.00     0.031 A 
ATOM     37  C   UNL A   1      41.606  25.934  28.445  1.00  0.00     0.074 A 
ATOM     38  C   UNL A   1      43.929  25.096  28.487  1.00  0.00     0.049 A 
ATOM     39  N   UNL A   1      41.776  27.156  28.880  1.00  0.00    -0.248 NA
ATOM     40  C   UNL A   1      40.212  25.604  28.108  1.00  0.00     0.031 C 
ATOM     41  C   UNL A   1      45.027  24.149  28.277  1.00  0.00     0.029 A 
ATOM     42  N   UNL A   1      44.547  26.217  28.981  1.00  0.00    -0.354 N 
ATOM     43  C   UNL A   1      40.518  27.744  28.853  1.00  0.00     0.074 A 
ATOM     44  C   UNL A   1      39.604  26.763  28.311  1.00  0.00     0.031 C 
ATOM     45  C   UNL A   1      46.179  24.721  28.663  1.00  0.00     0.029 A 
ATOM     46  C   UNL A   1      45.908  26.083  29.110  1.00  0.00     0.049 A 
ATOM     47  H   UNL A   1      44.062  27.039  29.221  1.00  0.00     0.167 HD
ATOM     48  C   UNL A   1      40.149  28.982  29.262  1.00  0.00     0.031 A 
ATOM     49  C   UNL A   1      46.837  26.962  29.533  1.00  0.00     0.031 A 
ATOM     50  C   UNL A   1      41.056  29.956  29.807  1.00  0.00     0.049 A 
ATOM     51  C   UNL A   1      46.406  28.333  29.970  1.00  0.00     0.074 A 
ATOM     52  C   UNL A   1      40.771  31.218  30.300  1.00  0.00     0.029 A 
ATOM     53  N   UNL A   1      42.425  29.777  29.931  1.00  0.00    -0.354 N 
ATOM     54  N   UNL A   1      45.202  28.849  30.003  1.00  0.00    -0.248 NA
ATOM     55  C   UNL A   1      47.464  29.239  30.441  1.00  0.00     0.031 C 
ATOM     56  C   UNL A   1      41.976  31.822  30.675  1.00  0.00     0.029 A 
ATOM     57  C   UNL A   1      43.002  30.915  30.470  1.00  0.00     0.049 A 
ATOM     58  H   UNL A   1      42.914  28.963  29.673  1.00  0.00     0.167 HD
ATOM     59  C   UNL A   1      45.352  30.129  30.520  1.00  0.00     0.074 A 
ATOM     60  C   UNL A   1      46.763  30.304  30.803  1.00  0.00     0.031 C 
ATOM     61  C   UNL A   1      44.407  31.074  30.743  1.00  0.00     0.031 A 
BRANCH  48  62
ATOM     62  C   UNL A   1      38.698  29.349  29.125  1.00  0.00    -0.014 A 
ATOM     63  C   UNL A   1      37.805  29.195  30.199  1.00  0.00     0.009 A 
ATOM     64  C   UNL A   1      38.221  29.879  27.917  1.00  0.00     0.009 A 
ATOM     65  C   UNL A   1      36.456  29.525  30.051  1.00  0.00     0.001 A 
ATOM     66  C   UNL A   1      36.878  30.237  27.781  1.00  0.00     0.001 A 
ATOM     67  C   UNL A   1      35.995  30.050  28.845  1.00  0.00     0.000 A 
ENDBRANCH  48  62
BRANCH  49  68
ATOM     68  C   UNL A   1      48.268  26.564  29.579  1.00  0.00    -0.014 A 
ATOM     69  C   UNL A   1      49.122  26.857  28.505  1.00  0.00     0.009 A 
ATOM     70  C   UNL A   1      48.788  25.890  30.695  1.00  0.00     0.009 A 
ATOM     71  C   UNL A   1      50.461  26.460  28.536  1.00  0.00     0.001 A 
ATOM     72  C   UNL A   1      50.134  25.520  30.736  1.00  0.00     0.001 A 
ATOM     73  C   UNL A   1      50.967  25.797  29.654  1.00  0.00     0.000 A 
ENDBRANCH  49  68
BRANCH  61  74
ATOM     74  C   UNL A   1      44.862  32.371  31.352  1.00  0.00    -0.014 A 
ATOM     75  C   UNL A   1      45.013  32.512  32.740  1.00  0.00     0.009 A 
ATOM     76  C   UNL A   1      45.184  33.453  30.517  1.00  0.00     0.009 A 
ATOM     77  C   UNL A   1      45.445  33.724  33.282  1.00  0.00     0.001 A 
ATOM     78  C   UNL A   1      45.644  34.654  31.061  1.00  0.00     0.001 A 
ATOM     79  C   UNL A   1      45.765  34.791  32.443  1.00  0.00     0.000 A 
ENDBRANCH  61  74
ENDBRANCH  35  36
ENDBRANCH  27  30
ENDBRANCH  25  26
ENDBRANCH  24  25
ENDBRANCH   1  24
TORSDOF 14
ENDMDL
MODEL 3
REMARK VINA RESULT:     -11.0      0.442      5.987
REMARK SMILES C[C@@H](Sc1nc2ccccc2c(=O)n1N)C(=O)NCCCCNC(=O)c1ccc(-c2c3nc(c(-c4ccccc4)c4ccc([nH]4)c(-c4ccccc4)c4nc(c(-c5ccccc5)c5ccc2[nH]5)C=C4)C=C3)cc1
REMARK SMILES IDX 20 1 19 2 18 3 16 4 17 5 2 7 1 8 3 9 4 10 5 11 14 12 6 13
REMARK SMILES IDX 12 14 7 15 11 16 13 17 8 18 10 19 9 20 15 21 21 24 22 25
REMARK SMILES IDX 23 26 24 27 25 29 26 30 27 31 73 32 28 33 72 34 29 35 30 36
REMARK SMILES IDX 31 37 66 38 32 39 71 40 65 41 67 42 33 43 70 44 64 45 63 46
REMARK SMILES IDX 34 48 56 49 41 50 55 51 42 52 45 53 54 54 68 55 43 56 44 57
REMARK SMILES IDX 53 59 69 60 46 61 35 62 36 63 40 64 37 65 39 66 38 67 57 68
REMARK SMILES IDX 58 69 62 70 59 71 61 72 60 73 47 74 48 75 52 76 49 77 51 78
REMARK SMILES IDX 50 79
REMARK H PARENT 18 6 15 22 15 23 23 28 67 47 45 58
REMARK Flexibility Score: inf
ROOT
ATOM      1  C   UNL A   1      36.084  20.228  24.967  1.00  0.00     0.023 C 
ENDROOT
BRANCH   1   2
ATOM      2  C   UNL A   1      36.240  21.746  24.928  1.00  0.00     0.116 C 
BRANCH   2   3
ATOM      3  N   UNL A   1      35.619  22.308  23.743  1.00  0.00    -0.355 N 
ATOM      4  C   UNL A   1      34.417  22.935  23.585  1.00  0.00     0.233 C 
ATOM      5  O   UNL A   1      34.135  23.332  22.450  1.00  0.00    -0.274 OA
ATOM      6  H   UNL A   1      36.151  22.224  22.919  1.00  0.00     0.163 HD
BRANCH   4   7
ATOM      7  C   UNL A   1      33.447  23.147  24.752  1.00  0.00     0.141 C 
ATOM      8  C   UNL A   1      33.449  24.586  25.254  1.00  0.00     0.030 C 
BRANCH   7   9
ATOM      9  S   UNL A   1      31.825  22.439  24.283  1.00  0.00    -0.073 SA
BRANCH   9  10
ATOM     10  C   UNL A   1      32.225  20.760  24.029  1.00  0.00     0.191 A 
ATOM     11  N   UNL A   1      32.492  20.056  25.080  1.00  0.00    -0.222 NA
ATOM     12  N   UNL A   1      32.159  20.243  22.741  1.00  0.00    -0.202 N 
ATOM     13  C   UNL A   1      32.702  18.679  24.916  1.00  0.00     0.079 A 
ATOM     14  C   UNL A   1      32.347  18.883  22.492  1.00  0.00     0.280 A 
ATOM     15  C   UNL A   1      32.947  17.898  26.049  1.00  0.00     0.029 A 
ATOM     16  C   UNL A   1      32.633  18.049  23.673  1.00  0.00     0.068 A 
ATOM     17  O   UNL A   1      32.258  18.380  21.372  1.00  0.00    -0.267 OA
ATOM     18  C   UNL A   1      33.115  16.515  25.938  1.00  0.00     0.002 A 
ATOM     19  C   UNL A   1      32.803  16.666  23.550  1.00  0.00     0.016 A 
ATOM     20  C   UNL A   1      33.042  15.899  24.689  1.00  0.00     0.001 A 
BRANCH  12  21
ATOM     21  N   UNL A   1      31.882  21.072  21.606  1.00  0.00    -0.334 N 
ATOM     22  H   UNL A   1      31.518  20.673  20.781  1.00  0.00     0.178 HD
ATOM     23  H   UNL A   1      32.055  22.040  21.648  1.00  0.00     0.178 HD
ENDBRANCH  12  21
ENDBRANCH   9  10
ENDBRANCH   7   9
ENDBRANCH   4   7
ENDBRANCH   2   3
ENDBRANCH   1   2
BRANCH   1  24
ATOM     24  C   UNL A   1      37.403  19.457  24.887  1.00  0.00     0.023 C 
BRANCH  24  25
ATOM     25  C   UNL A   1      38.611  20.177  25.479  1.00  0.00     0.116 C 
BRANCH  25  26
ATOM     26  N   UNL A   1      39.768  19.311  25.643  1.00  0.00    -0.352 N 
ATOM     27  C   UNL A   1      41.025  19.627  26.095  1.00  0.00     0.251 C 
ATOM     28  H   UNL A   1      39.629  18.367  25.398  1.00  0.00     0.163 HD
ATOM     29  O   UNL A   1      41.929  18.797  26.052  1.00  0.00    -0.269 OA
BRANCH  27  30
ATOM     30  C   UNL A   1      41.295  20.989  26.599  1.00  0.00     0.039 A 
ATOM     31  C   UNL A   1      41.090  21.259  27.953  1.00  0.00     0.014 A 
ATOM     32  C   UNL A   1      41.776  21.984  25.744  1.00  0.00     0.014 A 
ATOM     33  C   UNL A   1      41.435  22.510  28.466  1.00  0.00     0.010 A 
ATOM     34  C   UNL A   1      42.188  23.204  26.270  1.00  0.00     0.010 A 
ATOM     35  C   UNL A   1      42.023  23.478  27.636  1.00  0.00    -0.014 A 
BRANCH  35  36
ATOM     36  C   UNL A   1      42.481  24.781  28.179  1.00  0.00     0.031 A 
ATOM     37  C   UNL A   1      41.493  25.886  28.427  1.00  0.00     0.074 A 
ATOM     38  C   UNL A   1      43.795  24.993  28.385  1.00  0.00     0.049 A 
ATOM     39  N   UNL A   1      41.709  27.109  28.839  1.00  0.00    -0.248 NA
ATOM     40  C   UNL A   1      40.079  25.585  28.152  1.00  0.00     0.031 C 
ATOM     41  C   UNL A   1      44.861  24.017  28.143  1.00  0.00     0.029 A 
ATOM     42  N   UNL A   1      44.459  26.104  28.839  1.00  0.00    -0.354 N 
ATOM     43  C   UNL A   1      40.465  27.727  28.856  1.00  0.00     0.074 A 
ATOM     44  C   UNL A   1      39.507  26.761  28.365  1.00  0.00     0.031 C 
ATOM     45  C   UNL A   1      46.041  24.566  28.474  1.00  0.00     0.029 A 
ATOM     46  C   UNL A   1      45.821  25.939  28.914  1.00  0.00     0.049 A 
ATOM     47  H   UNL A   1      44.004  26.941  29.088  1.00  0.00     0.167 HD
ATOM     48  C   UNL A   1      40.144  28.978  29.264  1.00  0.00     0.031 A 
ATOM     49  C   UNL A   1      46.787  26.800  29.287  1.00  0.00     0.031 A 
ATOM     50  C   UNL A   1      41.095  29.937  29.758  1.00  0.00     0.049 A 
ATOM     51  C   UNL A   1      46.407  28.186  29.723  1.00  0.00     0.074 A 
ATOM     52  C   UNL A   1      40.860  31.211  30.245  1.00  0.00     0.029 A 
ATOM     53  N   UNL A   1      42.462  29.726  29.828  1.00  0.00    -0.354 N 
ATOM     54  N   UNL A   1      45.218  28.732  29.798  1.00  0.00    -0.248 NA
ATOM     55  C   UNL A   1      47.505  29.073  30.139  1.00  0.00     0.031 C 
ATOM     56  C   UNL A   1      42.093  31.790  30.563  1.00  0.00     0.029 A 
ATOM     57  C   UNL A   1      43.089  30.856  30.328  1.00  0.00     0.049 A 
ATOM     58  H   UNL A   1      42.922  28.897  29.561  1.00  0.00     0.167 HD
ATOM     59  C   UNL A   1      45.419  30.014  30.293  1.00  0.00     0.074 A 
ATOM     60  C   UNL A   1      46.844  30.158  30.515  1.00  0.00     0.031 C 
ATOM     61  C   UNL A   1      44.507  30.985  30.541  1.00  0.00     0.031 A 
BRANCH  48  62
ATOM     62  C   UNL A   1      38.697  29.379  29.181  1.00  0.00    -0.014 A 
ATOM     63  C   UNL A   1      37.823  29.173  30.262  1.00  0.00     0.009 A 
ATOM     64  C   UNL A   1      38.205  29.992  28.019  1.00  0.00     0.009 A 
ATOM     65  C   UNL A   1      36.478  29.535  30.164  1.00  0.00     0.001 A 
ATOM     66  C   UNL A   1      36.867  30.381  27.935  1.00  0.00     0.001 A 
ATOM     67  C   UNL A   1      36.003  30.143  29.003  1.00  0.00     0.000 A 
ENDBRANCH  48  62
BRANCH  49  68
ATOM     68  C   UNL A   1      48.209  26.369  29.280  1.00  0.00    -0.014 A 
ATOM     69  C   UNL A   1      48.776  25.769  30.415  1.00  0.00     0.009 A 
ATOM     70  C   UNL A   1      49.007  26.556  28.141  1.00  0.00     0.009 A 
ATOM     71  C   UNL A   1      50.120  25.388  30.417  1.00  0.00     0.001 A 
ATOM     72  C   UNL A   1      50.343  26.148  28.137  1.00  0.00     0.001 A 
ATOM     73  C   UNL A   1      50.900  25.573  29.277  1.00  0.00     0.000 A 
ENDBRANCH  49  68
BRANCH  61  74
ATOM     74  C   UNL A   1      45.017  32.277  31.114  1.00  0.00    -0.014 A 
ATOM     75  C   UNL A   1      45.445  33.324  30.284  1.00  0.00     0.009 A 
ATOM     76  C   UNL A   1      45.030  32.461  32.506  1.00  0.00     0.009 A 
ATOM     77  C   UNL A   1      45.907  34.519  30.839  1.00  0.00     0.001 A 
ATOM     78  C   UNL A   1      45.466  33.667  33.056  1.00  0.00     0.001 A 
ATOM     79  C   UNL A   1      45.912  34.692  32.223  1.00  0.00     0.000 A 
ENDBRANCH  61  74
ENDBRANCH  35  36
ENDBRANCH  27  30
ENDBRANCH  25  26
ENDBRANCH  24  25
ENDBRANCH   1  24
TORSDOF 14
ENDMDL
