MODEL 1
REMARK VINA RESULT:     -11.4      0.000      0.000
REMARK SMILES CC1(C)CCSC[C@@]1(Nc1ccccc1Br)C(=O)NCCCCNC(=O)c1ccc(-c2c3nc(c(-c4ccccc4)c4ccc([nH]4)c(-c4ccccc4)c4nc(c(-c5ccccc5)c5ccc2[nH]5)C=C4)C=C3)cc1
REMARK SMILES IDX 21 1 20 2 19 3 17 4 18 5 8 7 1 8 2 9 3 10 4 11 5 12 7 13
REMARK SMILES IDX 6 14 9 15 10 17 11 18 15 19 12 20 14 21 16 22 13 23 22 24
REMARK SMILES IDX 23 25 24 26 25 27 26 29 27 30 28 31 74 32 29 33 73 34 30 35
REMARK SMILES IDX 31 36 32 37 67 38 33 39 72 40 66 41 68 42 34 43 71 44 65 45
REMARK SMILES IDX 64 46 35 48 57 49 42 50 56 51 43 52 46 53 55 54 69 55 44 56
REMARK SMILES IDX 45 57 54 59 70 60 47 61 36 62 37 63 41 64 38 65 40 66 39 67
REMARK SMILES IDX 58 68 59 69 63 70 60 71 62 72 61 73 48 74 49 75 53 76 50 77
REMARK SMILES IDX 52 78 51 79
REMARK H PARENT 19 6 9 16 24 28 68 47 46 58
REMARK Flexibility Score: inf
ROOT
ATOM      1  C   UNL A   1      31.418  30.837  25.675  1.00  0.00     0.023 C 
ENDROOT
BRANCH   1   2
ATOM      2  C   UNL A   1      32.587  29.856  25.662  1.00  0.00     0.116 C 
BRANCH   2   3
ATOM      3  N   UNL A   1      33.131  29.576  24.342  1.00  0.00    -0.354 N 
ATOM      4  C   UNL A   1      32.923  28.548  23.460  1.00  0.00     0.247 C 
ATOM      5  O   UNL A   1      33.493  28.655  22.366  1.00  0.00    -0.272 OA
ATOM      6  H   UNL A   1      33.770  30.254  24.022  1.00  0.00     0.163 HD
BRANCH   4   7
ATOM      7  C   UNL A   1      31.945  27.361  23.738  1.00  0.00     0.131 C 
ATOM      8  C   UNL A   1      34.086  26.006  24.436  1.00  0.00     0.014 C 
ATOM      9  C   UNL A   1      32.808  25.997  23.540  1.00  0.00    -0.002 C 
ATOM     10  C   UNL A   1      33.338  25.768  22.103  1.00  0.00     0.014 C 
ATOM     11  C   UNL A   1      31.986  24.720  23.884  1.00  0.00     0.020 C 
ATOM     12  C   UNL A   1      31.449  24.638  25.302  1.00  0.00     0.070 C 
ATOM     13  C   UNL A   1      31.428  27.404  25.214  1.00  0.00     0.108 C 
ATOM     14  S   UNL A   1      30.333  26.002  25.678  1.00  0.00    -0.159 SA
BRANCH   7  15
ATOM     15  N   UNL A   1      30.750  27.396  22.843  1.00  0.00    -0.369 N 
ATOM     16  H   UNL A   1      30.678  26.620  22.240  1.00  0.00     0.161 HD
BRANCH  15  17
ATOM     17  C   UNL A   1      29.713  28.324  22.700  1.00  0.00     0.049 A 
ATOM     18  C   UNL A   1      30.120  29.558  22.128  1.00  0.00     0.027 A 
ATOM     19  C   UNL A   1      28.358  28.275  23.109  1.00  0.00     0.041 A 
ATOM     20  C   UNL A   1      29.276  30.670  22.001  1.00  0.00     0.002 A 
ATOM     21  C   UNL A   1      27.521  29.413  23.008  1.00  0.00     0.018 A 
ATOM     22  Br  UNL A   1      27.427  26.826  23.920  1.00  0.00    -0.049 Br
ATOM     23  C   UNL A   1      27.977  30.604  22.465  1.00  0.00     0.001 A 
ENDBRANCH  15  17
ENDBRANCH   7  15
ENDBRANCH   4   7
ENDBRANCH   2   3
ENDBRANCH   1   2
BRANCH   1  24
ATOM     24  C   UNL A   1      31.380  31.786  26.863  1.00  0.00     0.023 C 
BRANCH  24  25
ATOM     25  C   UNL A   1      32.679  32.538  27.081  1.00  0.00     0.116 C 
BRANCH  25  26
ATOM     26  N   UNL A   1      32.456  33.903  27.540  1.00  0.00    -0.352 N 
ATOM     27  C   UNL A   1      33.116  34.602  28.522  1.00  0.00     0.251 C 
ATOM     28  H   UNL A   1      31.733  34.391  27.084  1.00  0.00     0.163 HD
ATOM     29  O   UNL A   1      32.685  35.673  28.923  1.00  0.00    -0.269 OA
BRANCH  27  30
ATOM     30  C   UNL A   1      34.346  34.027  29.098  1.00  0.00     0.039 A 
ATOM     31  C   UNL A   1      34.244  33.136  30.168  1.00  0.00     0.014 A 
ATOM     32  C   UNL A   1      35.592  34.348  28.554  1.00  0.00     0.014 A 
ATOM     33  C   UNL A   1      35.397  32.522  30.657  1.00  0.00     0.010 A 
ATOM     34  C   UNL A   1      36.721  33.659  28.972  1.00  0.00     0.010 A 
ATOM     35  C   UNL A   1      36.637  32.755  30.040  1.00  0.00    -0.014 A 
BRANCH  35  36
ATOM     36  C   UNL A   1      37.871  32.087  30.511  1.00  0.00     0.031 A 
ATOM     37  C   UNL A   1      38.657  32.683  31.645  1.00  0.00     0.074 A 
ATOM     38  C   UNL A   1      38.315  30.984  29.880  1.00  0.00     0.049 A 
ATOM     39  N   UNL A   1      39.782  32.276  32.175  1.00  0.00    -0.248 NA
ATOM     40  C   UNL A   1      38.124  33.920  32.240  1.00  0.00     0.031 C 
ATOM     41  C   UNL A   1      37.658  30.332  28.744  1.00  0.00     0.029 A 
ATOM     42  N   UNL A   1      39.425  30.214  30.109  1.00  0.00    -0.354 N 
ATOM     43  C   UNL A   1      40.095  33.213  33.152  1.00  0.00     0.074 A 
ATOM     44  C   UNL A   1      39.085  34.245  33.090  1.00  0.00     0.031 C 
ATOM     45  C   UNL A   1      38.350  29.232  28.411  1.00  0.00     0.029 A 
ATOM     46  C   UNL A   1      39.522  29.129  29.274  1.00  0.00     0.049 A 
ATOM     47  H   UNL A   1      40.089  30.419  30.807  1.00  0.00     0.167 HD
ATOM     48  C   UNL A   1      41.117  33.205  34.040  1.00  0.00     0.031 A 
ATOM     49  C   UNL A   1      40.451  28.157  29.216  1.00  0.00     0.031 A 
ATOM     50  C   UNL A   1      42.122  32.178  34.092  1.00  0.00     0.049 A 
ATOM     51  C   UNL A   1      41.602  28.189  30.182  1.00  0.00     0.074 A 
ATOM     52  C   UNL A   1      43.176  32.045  34.978  1.00  0.00     0.029 A 
ATOM     53  N   UNL A   1      42.200  31.109  33.212  1.00  0.00    -0.354 N 
ATOM     54  N   UNL A   1      41.850  29.044  31.144  1.00  0.00    -0.248 NA
ATOM     55  C   UNL A   1      42.595  27.114  30.055  1.00  0.00     0.031 C 
ATOM     56  C   UNL A   1      43.928  30.928  34.596  1.00  0.00     0.029 A 
ATOM     57  C   UNL A   1      43.303  30.327  33.514  1.00  0.00     0.049 A 
ATOM     58  H   UNL A   1      41.566  30.932  32.481  1.00  0.00     0.167 HD
ATOM     59  C   UNL A   1      43.011  28.594  31.760  1.00  0.00     0.074 A 
ATOM     60  C   UNL A   1      43.407  27.383  31.068  1.00  0.00     0.031 C 
ATOM     61  C   UNL A   1      43.685  29.130  32.808  1.00  0.00     0.031 A 
BRANCH  48  62
ATOM     62  C   UNL A   1      41.193  34.357  35.004  1.00  0.00    -0.014 A 
ATOM     63  C   UNL A   1      40.525  34.322  36.241  1.00  0.00     0.009 A 
ATOM     64  C   UNL A   1      41.925  35.505  34.667  1.00  0.00     0.009 A 
ATOM     65  C   UNL A   1      40.540  35.431  37.088  1.00  0.00     0.001 A 
ATOM     66  C   UNL A   1      41.970  36.599  35.534  1.00  0.00     0.001 A 
ATOM     67  C   UNL A   1      41.264  36.568  36.735  1.00  0.00     0.000 A 
ENDBRANCH  48  62
BRANCH  49  68
ATOM     68  C   UNL A   1      40.303  27.047  28.239  1.00  0.00    -0.014 A 
ATOM     69  C   UNL A   1      39.576  25.897  28.584  1.00  0.00     0.009 A 
ATOM     70  C   UNL A   1      40.867  27.133  26.957  1.00  0.00     0.009 A 
ATOM     71  C   UNL A   1      39.434  24.848  27.674  1.00  0.00     0.001 A 
ATOM     72  C   UNL A   1      40.699  26.094  26.039  1.00  0.00     0.001 A 
ATOM     73  C   UNL A   1      39.991  24.950  26.400  1.00  0.00     0.000 A 
ENDBRANCH  49  68
BRANCH  61  74
ATOM     74  C   UNL A   1      44.902  28.390  33.291  1.00  0.00    -0.014 A 
ATOM     75  C   UNL A   1      44.809  27.389  34.271  1.00  0.00     0.009 A 
ATOM     76  C   UNL A   1      46.155  28.674  32.726  1.00  0.00     0.009 A 
ATOM     77  C   UNL A   1      45.955  26.716  34.701  1.00  0.00     0.001 A 
ATOM     78  C   UNL A   1      47.292  27.976  33.133  1.00  0.00     0.001 A 
ATOM     79  C   UNL A   1      47.193  27.005  34.127  1.00  0.00     0.000 A 
ENDBRANCH  61  74
ENDBRANCH  35  36
ENDBRANCH  27  30
ENDBRANCH  25  26
ENDBRANCH  24  25
ENDBRANCH   1  24
TORSDOF 13
ENDMDL
MODEL 2
REMARK VINA RESULT:     -11.4      5.273     10.112
REMARK SMILES CC1(C)CCSC[C@@]1(Nc1ccccc1Br)C(=O)NCCCCNC(=O)c1ccc(-c2c3nc(c(-c4ccccc4)c4ccc([nH]4)c(-c4ccccc4)c4nc(c(-c5ccccc5)c5ccc2[nH]5)C=C4)C=C3)cc1
REMARK SMILES IDX 21 1 20 2 19 3 17 4 18 5 8 7 1 8 2 9 3 10 4 11 5 12 7 13
REMARK SMILES IDX 6 14 9 15 10 17 11 18 15 19 12 20 14 21 16 22 13 23 22 24
REMARK SMILES IDX 23 25 24 26 25 27 26 29 27 30 28 31 74 32 29 33 73 34 30 35
REMARK SMILES IDX 31 36 32 37 67 38 33 39 72 40 66 41 68 42 34 43 71 44 65 45
REMARK SMILES IDX 64 46 35 48 57 49 42 50 56 51 43 52 46 53 55 54 69 55 44 56
REMARK SMILES IDX 45 57 54 59 70 60 47 61 36 62 37 63 41 64 38 65 40 66 39 67
REMARK SMILES IDX 58 68 59 69 63 70 60 71 62 72 61 73 48 74 49 75 53 76 50 77
REMARK SMILES IDX 52 78 51 79
REMARK H PARENT 19 6 9 16 24 28 68 47 46 58
REMARK Flexibility Score: inf
ROOT
ATOM      1  C   UNL A   1      36.750  19.941  24.999  1.00  0.00     0.023 C 
ENDROOT
BRANCH   1   2
ATOM      2  C   UNL A   1      36.417  21.373  25.407  1.00  0.00     0.116 C 
BRANCH   2   3
ATOM      3  N   UNL A   1      35.471  21.488  26.506  1.00  0.00    -0.354 N 
ATOM      4  C   UNL A   1      34.156  21.874  26.551  1.00  0.00     0.247 C 
ATOM      5  O   UNL A   1      33.606  21.781  27.657  1.00  0.00    -0.272 OA
ATOM      6  H   UNL A   1      35.845  21.242  27.383  1.00  0.00     0.163 HD
BRANCH   4   7
ATOM      7  C   UNL A   1      33.340  22.297  25.288  1.00  0.00     0.131 C 
ATOM      8  C   UNL A   1      33.680  24.764  26.126  1.00  0.00     0.014 C 
ATOM      9  C   UNL A   1      32.628  23.712  25.651  1.00  0.00    -0.002 C 
ATOM     10  C   UNL A   1      31.597  23.643  26.805  1.00  0.00     0.014 C 
ATOM     11  C   UNL A   1      31.853  24.315  24.443  1.00  0.00     0.020 C 
ATOM     12  C   UNL A   1      32.679  24.603  23.201  1.00  0.00     0.070 C 
ATOM     13  C   UNL A   1      34.290  22.526  24.066  1.00  0.00     0.108 C 
ATOM     14  S   UNL A   1      33.444  23.111  22.542  1.00  0.00    -0.159 SA
BRANCH   7  15
ATOM     15  N   UNL A   1      32.341  21.260  24.890  1.00  0.00    -0.369 N 
ATOM     16  H   UNL A   1      31.404  21.549  24.986  1.00  0.00     0.161 HD
BRANCH  15  17
ATOM     17  C   UNL A   1      32.486  19.955  24.406  1.00  0.00     0.049 A 
ATOM     18  C   UNL A   1      32.940  19.028  25.381  1.00  0.00     0.027 A 
ATOM     19  C   UNL A   1      32.346  19.426  23.100  1.00  0.00     0.041 A 
ATOM     20  C   UNL A   1      33.268  17.696  25.092  1.00  0.00     0.002 A 
ATOM     21  C   UNL A   1      32.710  18.090  22.809  1.00  0.00     0.018 A 
ATOM     22  Br  UNL A   1      31.778  20.327  21.523  1.00  0.00    -0.049 Br
ATOM     23  C   UNL A   1      33.175  17.231  23.794  1.00  0.00     0.001 A 
ENDBRANCH  15  17
ENDBRANCH   7  15
ENDBRANCH   4   7
ENDBRANCH   2   3
ENDBRANCH   1   2
BRANCH   1  24
ATOM     24  C   UNL A   1      38.206  19.690  24.638  1.00  0.00     0.023 C 
BRANCH  24  25
ATOM     25  C   UNL A   1      39.174  20.015  25.760  1.00  0.00     0.116 C 
BRANCH  25  26
ATOM     26  N   UNL A   1      40.224  19.013  25.891  1.00  0.00    -0.352 N 
ATOM     27  C   UNL A   1      41.570  19.195  26.091  1.00  0.00     0.251 C 
ATOM     28  H   UNL A   1      39.926  18.076  25.827  1.00  0.00     0.163 HD
ATOM     29  O   UNL A   1      42.349  18.259  25.987  1.00  0.00    -0.269 OA
BRANCH  27  30
ATOM     30  C   UNL A   1      42.064  20.546  26.415  1.00  0.00     0.039 A 
ATOM     31  C   UNL A   1      42.371  21.426  25.376  1.00  0.00     0.014 A 
ATOM     32  C   UNL A   1      42.188  20.947  27.748  1.00  0.00     0.014 A 
ATOM     33  C   UNL A   1      42.752  22.733  25.679  1.00  0.00     0.010 A 
ATOM     34  C   UNL A   1      42.466  22.273  28.044  1.00  0.00     0.010 A 
ATOM     35  C   UNL A   1      42.769  23.173  27.013  1.00  0.00    -0.014 A 
BRANCH  35  36
ATOM     36  C   UNL A   1      43.130  24.566  27.362  1.00  0.00     0.031 A 
ATOM     37  C   UNL A   1      44.568  25.001  27.307  1.00  0.00     0.074 A 
ATOM     38  C   UNL A   1      42.177  25.415  27.787  1.00  0.00     0.049 A 
ATOM     39  N   UNL A   1      45.094  26.160  27.612  1.00  0.00    -0.248 NA
ATOM     40  C   UNL A   1      45.549  23.988  26.881  1.00  0.00     0.031 C 
ATOM     41  C   UNL A   1      40.752  25.098  27.917  1.00  0.00     0.029 A 
ATOM     42  N   UNL A   1      42.264  26.724  28.185  1.00  0.00    -0.354 N 
ATOM     43  C   UNL A   1      46.462  26.008  27.431  1.00  0.00     0.074 A 
ATOM     44  C   UNL A   1      46.692  24.630  27.062  1.00  0.00     0.031 C 
ATOM     45  C   UNL A   1      40.094  26.199  28.315  1.00  0.00     0.029 A 
ATOM     46  C   UNL A   1      41.053  27.280  28.513  1.00  0.00     0.049 A 
ATOM     47  H   UNL A   1      43.115  27.218  28.230  1.00  0.00     0.167 HD
ATOM     48  C   UNL A   1      47.441  26.938  27.536  1.00  0.00     0.031 A 
ATOM     49  C   UNL A   1      40.751  28.526  28.923  1.00  0.00     0.031 A 
ATOM     50  C   UNL A   1      47.206  28.307  27.909  1.00  0.00     0.049 A 
ATOM     51  C   UNL A   1      41.856  29.532  29.076  1.00  0.00     0.074 A 
ATOM     52  C   UNL A   1      48.115  29.345  28.003  1.00  0.00     0.029 A 
ATOM     53  N   UNL A   1      45.967  28.825  28.259  1.00  0.00    -0.354 N 
ATOM     54  N   UNL A   1      43.139  29.395  28.837  1.00  0.00    -0.248 NA
ATOM     55  C   UNL A   1      41.468  30.867  29.548  1.00  0.00     0.031 C 
ATOM     56  C   UNL A   1      47.437  30.477  28.469  1.00  0.00     0.029 A 
ATOM     57  C   UNL A   1      46.093  30.161  28.599  1.00  0.00     0.049 A 
ATOM     58  H   UNL A   1      45.124  28.318  28.265  1.00  0.00     0.167 HD
ATOM     59  C   UNL A   1      43.707  30.635  29.099  1.00  0.00     0.074 A 
ATOM     60  C   UNL A   1      42.626  31.512  29.502  1.00  0.00     0.031 C 
ATOM     61  C   UNL A   1      45.006  31.016  29.007  1.00  0.00     0.031 A 
BRANCH  48  62
ATOM     62  C   UNL A   1      48.848  26.483  27.259  1.00  0.00    -0.014 A 
ATOM     63  C   UNL A   1      49.368  26.468  25.952  1.00  0.00     0.009 A 
ATOM     64  C   UNL A   1      49.662  26.045  28.313  1.00  0.00     0.009 A 
ATOM     65  C   UNL A   1      50.647  25.967  25.703  1.00  0.00     0.001 A 
ATOM     66  C   UNL A   1      50.955  25.580  28.065  1.00  0.00     0.001 A 
ATOM     67  C   UNL A   1      51.440  25.526  26.760  1.00  0.00     0.000 A 
ENDBRANCH  48  62
BRANCH  49  68
ATOM     68  C   UNL A   1      39.335  28.901  29.171  1.00  0.00    -0.014 A 
ATOM     69  C   UNL A   1      38.552  29.425  28.130  1.00  0.00     0.009 A 
ATOM     70  C   UNL A   1      38.751  28.726  30.435  1.00  0.00     0.009 A 
ATOM     71  C   UNL A   1      37.222  29.783  28.354  1.00  0.00     0.001 A 
ATOM     72  C   UNL A   1      37.412  29.060  30.649  1.00  0.00     0.001 A 
ATOM     73  C   UNL A   1      36.651  29.595  29.612  1.00  0.00     0.000 A 
ENDBRANCH  49  68
BRANCH  61  74
ATOM     74  C   UNL A   1      45.322  32.453  29.316  1.00  0.00    -0.014 A 
ATOM     75  C   UNL A   1      45.261  33.446  28.325  1.00  0.00     0.009 A 
ATOM     76  C   UNL A   1      45.647  32.823  30.630  1.00  0.00     0.009 A 
ATOM     77  C   UNL A   1      45.559  34.774  28.639  1.00  0.00     0.001 A 
ATOM     78  C   UNL A   1      45.909  34.155  30.948  1.00  0.00     0.001 A 
ATOM     79  C   UNL A   1      45.875  35.128  29.951  1.00  0.00     0.000 A 
ENDBRANCH  61  74
ENDBRANCH  35  36
ENDBRANCH  27  30
ENDBRANCH  25  26
ENDBRANCH  24  25
ENDBRANCH   1  24
TORSDOF 13
ENDMDL
MODEL 3
REMARK VINA RESULT:     -11.1      5.204      9.574
REMARK SMILES CC1(C)CCSC[C@@]1(Nc1ccccc1Br)C(=O)NCCCCNC(=O)c1ccc(-c2c3nc(c(-c4ccccc4)c4ccc([nH]4)c(-c4ccccc4)c4nc(c(-c5ccccc5)c5ccc2[nH]5)C=C4)C=C3)cc1
REMARK SMILES IDX 21 1 20 2 19 3 17 4 18 5 8 7 1 8 2 9 3 10 4 11 5 12 7 13
REMARK SMILES IDX 6 14 9 15 10 17 11 18 15 19 12 20 14 21 16 22 13 23 22 24
REMARK SMILES IDX 23 25 24 26 25 27 26 29 27 30 28 31 74 32 29 33 73 34 30 35
REMARK SMILES IDX 31 36 32 37 67 38 33 39 72 40 66 41 68 42 34 43 71 44 65 45
REMARK SMILES IDX 64 46 35 48 57 49 42 50 56 51 43 52 46 53 55 54 69 55 44 56
REMARK SMILES IDX 45 57 54 59 70 60 47 61 36 62 37 63 41 64 38 65 40 66 39 67
REMARK SMILES IDX 58 68 59 69 63 70 60 71 62 72 61 73 48 74 49 75 53 76 50 77
REMARK SMILES IDX 52 78 51 79
REMARK H PARENT 19 6 9 16 24 28 68 47 46 58
REMARK Flexibility Score: inf
ROOT
ATOM      1  C   UNL A   1      36.505  20.405  25.232  1.00  0.00     0.023 C 
ENDROOT
BRANCH   1   2
ATOM      2  C   UNL A   1      36.354  21.842  25.721  1.00  0.00     0.116 C 
BRANCH   2   3
ATOM      3  N   UNL A   1      35.336  22.033  26.743  1.00  0.00    -0.354 N 
ATOM      4  C   UNL A   1      34.032  22.448  26.676  1.00  0.00     0.247 C 
ATOM      5  O   UNL A   1      33.404  22.423  27.744  1.00  0.00    -0.272 OA
ATOM      6  H   UNL A   1      35.642  21.823  27.655  1.00  0.00     0.163 HD
BRANCH   4   7
ATOM      7  C   UNL A   1      33.316  22.824  25.339  1.00  0.00     0.131 C 
ATOM      8  C   UNL A   1      33.739  25.323  26.035  1.00  0.00     0.014 C 
ATOM      9  C   UNL A   1      32.662  24.296  25.565  1.00  0.00    -0.002 C 
ATOM     10  C   UNL A   1      31.562  24.357  26.653  1.00  0.00     0.014 C 
ATOM     11  C   UNL A   1      31.994  24.853  24.273  1.00  0.00     0.020 C 
ATOM     12  C   UNL A   1      32.907  25.013  23.070  1.00  0.00     0.070 C 
ATOM     13  C   UNL A   1      34.348  22.922  24.167  1.00  0.00     0.108 C 
ATOM     14  S   UNL A   1      33.627  23.442  22.559  1.00  0.00    -0.159 SA
BRANCH   7  15
ATOM     15  N   UNL A   1      32.288  21.815  24.948  1.00  0.00    -0.369 N 
ATOM     16  H   UNL A   1      31.364  22.156  24.967  1.00  0.00     0.161 HD
BRANCH  15  17
ATOM     17  C   UNL A   1      32.390  20.475  24.559  1.00  0.00     0.049 A 
ATOM     18  C   UNL A   1      32.777  19.599  25.608  1.00  0.00     0.027 A 
ATOM     19  C   UNL A   1      32.264  19.862  23.288  1.00  0.00     0.041 A 
ATOM     20  C   UNL A   1      33.056  18.239  25.420  1.00  0.00     0.002 A 
ATOM     21  C   UNL A   1      32.579  18.495  23.100  1.00  0.00     0.018 A 
ATOM     22  Br  UNL A   1      31.779  20.673  21.636  1.00  0.00    -0.049 Br
ATOM     23  C   UNL A   1      32.978  17.689  24.156  1.00  0.00     0.001 A 
ENDBRANCH  15  17
ENDBRANCH   7  15
ENDBRANCH   4   7
ENDBRANCH   2   3
ENDBRANCH   1   2
BRANCH   1  24
ATOM     24  C   UNL A   1      37.894  20.030  24.739  1.00  0.00     0.023 C 
BRANCH  24  25
ATOM     25  C   UNL A   1      38.998  20.365  25.724  1.00  0.00     0.116 C 
BRANCH  25  26
ATOM     26  N   UNL A   1      39.948  19.271  25.882  1.00  0.00    -0.352 N 
ATOM     27  C   UNL A   1      41.301  19.330  26.111  1.00  0.00     0.251 C 
ATOM     28  H   UNL A   1      39.567  18.366  25.815  1.00  0.00     0.163 HD
ATOM     29  O   UNL A   1      41.992  18.325  26.028  1.00  0.00    -0.269 OA
BRANCH  27  30
ATOM     30  C   UNL A   1      41.910  20.632  26.442  1.00  0.00     0.039 A 
ATOM     31  C   UNL A   1      42.294  21.486  25.407  1.00  0.00     0.014 A 
ATOM     32  C   UNL A   1      42.066  21.014  27.777  1.00  0.00     0.014 A 
ATOM     33  C   UNL A   1      42.786  22.753  25.716  1.00  0.00     0.010 A 
ATOM     34  C   UNL A   1      42.457  22.310  28.078  1.00  0.00     0.010 A 
ATOM     35  C   UNL A   1      42.839  23.185  27.051  1.00  0.00    -0.014 A 
BRANCH  35  36
ATOM     36  C   UNL A   1      43.320  24.540  27.406  1.00  0.00     0.031 A 
ATOM     37  C   UNL A   1      42.333  25.602  27.802  1.00  0.00     0.074 A 
ATOM     38  C   UNL A   1      44.631  24.829  27.311  1.00  0.00     0.049 A 
ATOM     39  N   UNL A   1      42.546  26.857  28.108  1.00  0.00    -0.248 NA
ATOM     40  C   UNL A   1      40.914  25.210  27.828  1.00  0.00     0.031 C 
ATOM     41  C   UNL A   1      45.680  23.891  26.903  1.00  0.00     0.029 A 
ATOM     42  N   UNL A   1      45.305  25.997  27.556  1.00  0.00    -0.354 N 
ATOM     43  C   UNL A   1      41.291  27.402  28.345  1.00  0.00     0.074 A 
ATOM     44  C   UNL A   1      40.320  26.366  28.077  1.00  0.00     0.031 C 
ATOM     45  C   UNL A   1      46.870  24.508  26.976  1.00  0.00     0.029 A 
ATOM     46  C   UNL A   1      46.663  25.892  27.387  1.00  0.00     0.049 A 
ATOM     47  H   UNL A   1      44.857  26.831  27.828  1.00  0.00     0.167 HD
ATOM     48  C   UNL A   1      40.974  28.647  28.773  1.00  0.00     0.031 A 
ATOM     49  C   UNL A   1      47.632  26.812  27.552  1.00  0.00     0.031 A 
ATOM     50  C   UNL A   1      41.945  29.675  29.034  1.00  0.00     0.049 A 
ATOM     51  C   UNL A   1      47.255  28.200  27.986  1.00  0.00     0.074 A 
ATOM     52  C   UNL A   1      41.739  30.956  29.513  1.00  0.00     0.029 A 
ATOM     53  N   UNL A   1      43.310  29.538  28.825  1.00  0.00    -0.354 N 
ATOM     54  N   UNL A   1      46.071  28.684  28.271  1.00  0.00    -0.248 NA
ATOM     55  C   UNL A   1      48.354  29.164  28.127  1.00  0.00     0.031 C 
ATOM     56  C   UNL A   1      42.974  31.615  29.538  1.00  0.00     0.029 A 
ATOM     57  C   UNL A   1      43.957  30.721  29.138  1.00  0.00     0.049 A 
ATOM     58  H   UNL A   1      43.752  28.720  28.504  1.00  0.00     0.167 HD
ATOM     59  C   UNL A   1      46.284  30.002  28.657  1.00  0.00     0.074 A 
ATOM     60  C   UNL A   1      47.712  30.233  28.580  1.00  0.00     0.031 C 
ATOM     61  C   UNL A   1      45.379  30.935  29.047  1.00  0.00     0.031 A 
BRANCH  48  62
ATOM     62  C   UNL A   1      39.512  28.951  28.963  1.00  0.00    -0.014 A 
ATOM     63  C   UNL A   1      38.877  28.748  30.201  1.00  0.00     0.009 A 
ATOM     64  C   UNL A   1      38.751  29.430  27.886  1.00  0.00     0.009 A 
ATOM     65  C   UNL A   1      37.504  28.959  30.338  1.00  0.00     0.001 A 
ATOM     66  C   UNL A   1      37.385  29.676  28.036  1.00  0.00     0.001 A 
ATOM     67  C   UNL A   1      36.760  29.425  29.256  1.00  0.00     0.000 A 
ENDBRANCH  48  62
BRANCH  49  68
ATOM     68  C   UNL A   1      49.055  26.432  27.352  1.00  0.00    -0.014 A 
ATOM     69  C   UNL A   1      49.824  25.984  28.438  1.00  0.00     0.009 A 
ATOM     70  C   UNL A   1      49.648  26.497  26.082  1.00  0.00     0.009 A 
ATOM     71  C   UNL A   1      51.162  25.628  28.260  1.00  0.00     0.001 A 
ATOM     72  C   UNL A   1      50.979  26.114  25.902  1.00  0.00     0.001 A 
ATOM     73  C   UNL A   1      51.737  25.688  26.991  1.00  0.00     0.000 A 
ENDBRANCH  49  68
BRANCH  61  74
ATOM     74  C   UNL A   1      45.914  32.280  29.453  1.00  0.00    -0.014 A 
ATOM     75  C   UNL A   1      46.321  32.539  30.771  1.00  0.00     0.009 A 
ATOM     76  C   UNL A   1      46.048  33.291  28.488  1.00  0.00     0.009 A 
ATOM     77  C   UNL A   1      46.816  33.797  31.121  1.00  0.00     0.001 A 
ATOM     78  C   UNL A   1      46.574  34.536  28.833  1.00  0.00     0.001 A 
ATOM     79  C   UNL A   1      46.948  34.792  30.151  1.00  0.00     0.000 A 
ENDBRANCH  61  74
ENDBRANCH  35  36
ENDBRANCH  27  30
ENDBRANCH  25  26
ENDBRANCH  24  25
ENDBRANCH   1  24
TORSDOF 13
ENDMDL
