MODEL 1
REMARK VINA RESULT:     -12.8      0.000      0.000
REMARK SMILES CC(C)(C)c1cc(Nc2ccccc2C(=O)NCCCCNC(=O)c2ccc(-c3c4nc(c(-c5ccccc5)c5ccc([nH]5)c(-c5ccccc5)c5nc(c(-c6ccccc6)c6ccc3[nH]6)C=C5)C=C4)cc2)cc2c1OCC2(C)C
REMARK SMILES IDX 19 1 18 2 17 3 15 4 16 5 14 7 9 8 10 9 11 10 13 11 12 12
REMARK SMILES IDX 8 13 7 15 5 16 6 17 75 18 74 19 76 20 73 21 78 22 77 23
REMARK SMILES IDX 79 24 80 25 2 26 1 27 3 28 4 29 20 30 21 31 22 32 23 33
REMARK SMILES IDX 24 35 25 36 26 37 72 38 27 39 71 40 28 41 29 42 30 43 65 44
REMARK SMILES IDX 31 45 70 46 64 47 66 48 32 49 69 50 63 51 62 52 33 54 55 55
REMARK SMILES IDX 40 56 54 57 41 58 44 59 53 60 67 61 42 62 43 63 52 65 68 66
REMARK SMILES IDX 45 67 34 68 35 69 39 70 36 71 38 72 37 73 56 74 57 75 61 76
REMARK SMILES IDX 58 77 60 78 59 79 46 80 47 81 51 82 48 83 50 84 49 85
REMARK H PARENT 17 6 8 14 22 34 66 53 44 64
REMARK Flexibility Score: inf
ROOT
ATOM      1  C   UNL A   1      33.352  28.750  24.440  1.00  0.00     0.023 C 
ENDROOT
BRANCH   1   2
ATOM      2  C   UNL A   1      33.674  27.437  23.753  1.00  0.00     0.116 C 
BRANCH   2   3
ATOM      3  N   UNL A   1      32.920  27.079  22.589  1.00  0.00    -0.352 N 
ATOM      4  C   UNL A   1      31.734  26.386  22.539  1.00  0.00     0.253 C 
ATOM      5  O   UNL A   1      31.186  26.317  21.433  1.00  0.00    -0.269 OA
ATOM      6  H   UNL A   1      33.295  27.363  21.724  1.00  0.00     0.163 HD
BRANCH   4   7
ATOM      7  C   UNL A   1      31.114  25.639  23.687  1.00  0.00     0.063 A 
ATOM      8  C   UNL A   1      31.142  24.257  23.998  1.00  0.00     0.051 A 
ATOM      9  C   UNL A   1      30.576  23.836  25.227  1.00  0.00     0.027 A 
ATOM     10  C   UNL A   1      29.908  24.711  26.081  1.00  0.00     0.002 A 
ATOM     11  C   UNL A   1      30.437  26.508  24.581  1.00  0.00     0.016 A 
ATOM     12  C   UNL A   1      29.822  26.052  25.748  1.00  0.00     0.001 A 
BRANCH   8  13
ATOM     13  N   UNL A   1      31.654  23.229  23.168  1.00  0.00    -0.355 N 
ATOM     14  H   UNL A   1      31.219  23.105  22.293  1.00  0.00     0.167 HD
BRANCH  13  15
ATOM     15  C   UNL A   1      32.738  22.358  23.478  1.00  0.00     0.039 A 
ATOM     16  C   UNL A   1      33.523  20.064  24.086  1.00  0.00     0.002 A 
ATOM     17  C   UNL A   1      32.555  20.948  23.526  1.00  0.00     0.034 A 
ATOM     18  C   UNL A   1      34.720  20.656  24.477  1.00  0.00     0.127 A 
ATOM     19  C   UNL A   1      34.927  22.020  24.420  1.00  0.00     0.006 A 
ATOM     20  O   UNL A   1      35.798  19.977  24.977  1.00  0.00    -0.492 OA
ATOM     21  C   UNL A   1      33.946  22.874  23.953  1.00  0.00     0.034 A 
ATOM     22  C   UNL A   1      36.272  22.377  24.947  1.00  0.00     0.028 C 
ATOM     23  C   UNL A   1      36.820  20.966  25.228  1.00  0.00     0.240 C 
ATOM     24  C   UNL A   1      37.094  23.105  23.881  1.00  0.00     0.020 C 
ATOM     25  C   UNL A   1      36.175  23.210  26.228  1.00  0.00     0.020 C 
BRANCH  16  26
ATOM     26  C   UNL A   1      33.286  18.558  24.308  1.00  0.00    -0.009 C 
ATOM     27  C   UNL A   1      32.687  18.320  25.705  1.00  0.00     0.016 C 
ATOM     28  C   UNL A   1      34.571  17.728  24.212  1.00  0.00     0.016 C 
ATOM     29  C   UNL A   1      32.346  17.953  23.230  1.00  0.00     0.016 C 
ENDBRANCH  16  26
ENDBRANCH  13  15
ENDBRANCH   8  13
ENDBRANCH   4   7
ENDBRANCH   2   3
ENDBRANCH   1   2
BRANCH   1  30
ATOM     30  C   UNL A   1      33.110  28.722  25.952  1.00  0.00     0.023 C 
BRANCH  30  31
ATOM     31  C   UNL A   1      34.307  28.914  26.884  1.00  0.00     0.116 C 
BRANCH  31  32
ATOM     32  N   UNL A   1      34.251  30.064  27.777  1.00  0.00    -0.352 N 
ATOM     33  C   UNL A   1      35.211  30.617  28.602  1.00  0.00     0.251 C 
ATOM     34  H   UNL A   1      33.381  30.525  27.797  1.00  0.00     0.163 HD
ATOM     35  O   UNL A   1      34.982  31.628  29.246  1.00  0.00    -0.269 OA
BRANCH  33  36
ATOM     36  C   UNL A   1      36.522  29.960  28.731  1.00  0.00     0.039 A 
ATOM     37  C   UNL A   1      37.413  30.037  27.669  1.00  0.00     0.014 A 
ATOM     38  C   UNL A   1      36.878  29.299  29.913  1.00  0.00     0.014 A 
ATOM     39  C   UNL A   1      38.579  29.302  27.709  1.00  0.00     0.010 A 
ATOM     40  C   UNL A   1      38.123  28.668  30.005  1.00  0.00     0.010 A 
ATOM     41  C   UNL A   1      38.972  28.649  28.891  1.00  0.00    -0.014 A 
BRANCH  41  42
ATOM     42  C   UNL A   1      40.348  28.096  28.910  1.00  0.00     0.031 A 
ATOM     43  C   UNL A   1      40.639  26.696  28.476  1.00  0.00     0.074 A 
ATOM     44  C   UNL A   1      41.345  28.972  29.155  1.00  0.00     0.049 A 
ATOM     45  N   UNL A   1      41.794  26.171  28.155  1.00  0.00    -0.248 NA
ATOM     46  C   UNL A   1      39.506  25.763  28.390  1.00  0.00     0.031 C 
ATOM     47  C   UNL A   1      41.142  30.360  29.588  1.00  0.00     0.029 A 
ATOM     48  N   UNL A   1      42.699  28.874  28.977  1.00  0.00    -0.354 N 
ATOM     49  C   UNL A   1      41.530  24.848  27.828  1.00  0.00     0.074 A 
ATOM     50  C   UNL A   1      40.111  24.639  28.022  1.00  0.00     0.031 C 
ATOM     51  C   UNL A   1      42.305  31.016  29.507  1.00  0.00     0.029 A 
ATOM     52  C   UNL A   1      43.348  30.081  29.107  1.00  0.00     0.049 A 
ATOM     53  H   UNL A   1      43.161  28.028  28.776  1.00  0.00     0.167 HD
ATOM     54  C   UNL A   1      42.402  23.905  27.401  1.00  0.00     0.031 A 
ATOM     55  C   UNL A   1      44.638  30.409  28.912  1.00  0.00     0.031 A 
ATOM     56  C   UNL A   1      43.813  24.138  27.227  1.00  0.00     0.049 A 
ATOM     57  C   UNL A   1      45.581  29.337  28.457  1.00  0.00     0.074 A 
ATOM     58  C   UNL A   1      44.782  23.251  26.789  1.00  0.00     0.029 A 
ATOM     59  N   UNL A   1      44.459  25.339  27.486  1.00  0.00    -0.354 N 
ATOM     60  N   UNL A   1      45.314  28.099  28.117  1.00  0.00    -0.248 NA
ATOM     61  C   UNL A   1      47.000  29.699  28.361  1.00  0.00     0.031 C 
ATOM     62  C   UNL A   1      46.021  23.894  26.854  1.00  0.00     0.029 A 
ATOM     63  C   UNL A   1      45.818  25.206  27.254  1.00  0.00     0.049 A 
ATOM     64  H   UNL A   1      44.016  26.165  27.789  1.00  0.00     0.167 HD
ATOM     65  C   UNL A   1      46.532  27.527  27.781  1.00  0.00     0.074 A 
ATOM     66  C   UNL A   1      47.530  28.571  27.909  1.00  0.00     0.031 C 
ATOM     67  C   UNL A   1      46.799  26.250  27.414  1.00  0.00     0.031 A 
BRANCH  54  68
ATOM     68  C   UNL A   1      41.873  22.527  27.106  1.00  0.00    -0.014 A 
ATOM     69  C   UNL A   1      40.935  22.345  26.076  1.00  0.00     0.009 A 
ATOM     70  C   UNL A   1      42.218  21.426  27.906  1.00  0.00     0.009 A 
ATOM     71  C   UNL A   1      40.340  21.100  25.866  1.00  0.00     0.001 A 
ATOM     72  C   UNL A   1      41.642  20.173  27.675  1.00  0.00     0.001 A 
ATOM     73  C   UNL A   1      40.696  20.014  26.663  1.00  0.00     0.000 A 
ENDBRANCH  54  68
BRANCH  55  74
ATOM     74  C   UNL A   1      45.081  31.811  29.147  1.00  0.00    -0.014 A 
ATOM     75  C   UNL A   1      45.094  32.735  28.087  1.00  0.00     0.009 A 
ATOM     76  C   UNL A   1      45.563  32.218  30.399  1.00  0.00     0.009 A 
ATOM     77  C   UNL A   1      45.620  34.016  28.261  1.00  0.00     0.001 A 
ATOM     78  C   UNL A   1      46.050  33.515  30.582  1.00  0.00     0.001 A 
ATOM     79  C   UNL A   1      46.093  34.407  29.510  1.00  0.00     0.000 A 
ENDBRANCH  55  74
BRANCH  67  80
ATOM     80  C   UNL A   1      48.237  25.898  27.153  1.00  0.00    -0.014 A 
ATOM     81  C   UNL A   1      49.029  25.366  28.184  1.00  0.00     0.009 A 
ATOM     82  C   UNL A   1      48.832  26.169  25.910  1.00  0.00     0.009 A 
ATOM     83  C   UNL A   1      50.388  25.126  27.980  1.00  0.00     0.001 A 
ATOM     84  C   UNL A   1      50.183  25.893  25.698  1.00  0.00     0.001 A 
ATOM     85  C   UNL A   1      50.962  25.382  26.736  1.00  0.00     0.000 A 
ENDBRANCH  67  80
ENDBRANCH  41  42
ENDBRANCH  33  36
ENDBRANCH  31  32
ENDBRANCH  30  31
ENDBRANCH   1  30
TORSDOF 14
ENDMDL
MODEL 2
REMARK VINA RESULT:     -12.8      4.083      9.332
REMARK SMILES CC(C)(C)c1cc(Nc2ccccc2C(=O)NCCCCNC(=O)c2ccc(-c3c4nc(c(-c5ccccc5)c5ccc([nH]5)c(-c5ccccc5)c5nc(c(-c6ccccc6)c6ccc3[nH]6)C=C5)C=C4)cc2)cc2c1OCC2(C)C
REMARK SMILES IDX 19 1 18 2 17 3 15 4 16 5 14 7 9 8 10 9 11 10 13 11 12 12
REMARK SMILES IDX 8 13 7 15 5 16 6 17 75 18 74 19 76 20 73 21 78 22 77 23
REMARK SMILES IDX 79 24 80 25 2 26 1 27 3 28 4 29 20 30 21 31 22 32 23 33
REMARK SMILES IDX 24 35 25 36 26 37 72 38 27 39 71 40 28 41 29 42 30 43 65 44
REMARK SMILES IDX 31 45 70 46 64 47 66 48 32 49 69 50 63 51 62 52 33 54 55 55
REMARK SMILES IDX 40 56 54 57 41 58 44 59 53 60 67 61 42 62 43 63 52 65 68 66
REMARK SMILES IDX 45 67 34 68 35 69 39 70 36 71 38 72 37 73 56 74 57 75 61 76
REMARK SMILES IDX 58 77 60 78 59 79 46 80 47 81 51 82 48 83 50 84 49 85
REMARK H PARENT 17 6 8 14 22 34 66 53 44 64
REMARK Flexibility Score: inf
ROOT
ATOM      1  C   UNL A   1      34.958  22.440  26.589  1.00  0.00     0.023 C 
ENDROOT
BRANCH   1   2
ATOM      2  C   UNL A   1      33.746  23.328  26.792  1.00  0.00     0.116 C 
BRANCH   2   3
ATOM      3  N   UNL A   1      32.447  22.727  26.734  1.00  0.00    -0.352 N 
ATOM      4  C   UNL A   1      31.679  22.498  25.617  1.00  0.00     0.253 C 
ATOM      5  O   UNL A   1      30.652  21.833  25.786  1.00  0.00    -0.269 OA
ATOM      6  H   UNL A   1      32.060  22.444  27.594  1.00  0.00     0.163 HD
BRANCH   4   7
ATOM      7  C   UNL A   1      31.941  23.067  24.249  1.00  0.00     0.063 A 
ATOM      8  C   UNL A   1      31.403  24.217  23.622  1.00  0.00     0.051 A 
ATOM      9  C   UNL A   1      31.928  24.598  22.362  1.00  0.00     0.027 A 
ATOM     10  C   UNL A   1      32.871  23.831  21.681  1.00  0.00     0.002 A 
ATOM     11  C   UNL A   1      32.907  22.310  23.538  1.00  0.00     0.016 A 
ATOM     12  C   UNL A   1      33.350  22.670  22.263  1.00  0.00     0.001 A 
BRANCH   8  13
ATOM     13  N   UNL A   1      30.344  25.017  24.119  1.00  0.00    -0.355 N 
ATOM     14  H   UNL A   1      29.479  24.569  24.264  1.00  0.00     0.167 HD
BRANCH  13  15
ATOM     15  C   UNL A   1      30.413  26.406  24.430  1.00  0.00     0.039 A 
ATOM     16  C   UNL A   1      29.829  28.758  23.817  1.00  0.00     0.002 A 
ATOM     17  C   UNL A   1      29.608  27.352  23.736  1.00  0.00     0.034 A 
ATOM     18  C   UNL A   1      30.812  29.159  24.718  1.00  0.00     0.127 A 
ATOM     19  C   UNL A   1      31.590  28.258  25.417  1.00  0.00     0.006 A 
ATOM     20  O   UNL A   1      31.132  30.461  24.992  1.00  0.00    -0.492 OA
ATOM     21  C   UNL A   1      31.420  26.895  25.263  1.00  0.00     0.034 A 
ATOM     22  C   UNL A   1      32.589  28.963  26.265  1.00  0.00     0.028 C 
ATOM     23  C   UNL A   1      32.177  30.420  25.988  1.00  0.00     0.240 C 
ATOM     24  C   UNL A   1      32.407  28.590  27.738  1.00  0.00     0.020 C 
ATOM     25  C   UNL A   1      34.022  28.684  25.801  1.00  0.00     0.020 C 
BRANCH  16  26
ATOM     26  C   UNL A   1      29.091  29.797  22.952  1.00  0.00    -0.009 C 
ATOM     27  C   UNL A   1      29.902  30.094  21.680  1.00  0.00     0.016 C 
ATOM     28  C   UNL A   1      28.866  31.129  23.675  1.00  0.00     0.016 C 
ATOM     29  C   UNL A   1      27.667  29.318  22.559  1.00  0.00     0.016 C 
ENDBRANCH  16  26
ENDBRANCH  13  15
ENDBRANCH   8  13
ENDBRANCH   4   7
ENDBRANCH   2   3
ENDBRANCH   1   2
BRANCH   1  30
ATOM     30  C   UNL A   1      35.928  22.804  25.461  1.00  0.00     0.023 C 
BRANCH  30  31
ATOM     31  C   UNL A   1      37.139  23.675  25.798  1.00  0.00     0.116 C 
BRANCH  31  32
ATOM     32  N   UNL A   1      38.432  23.004  25.814  1.00  0.00    -0.352 N 
ATOM     33  C   UNL A   1      39.638  23.375  26.376  1.00  0.00     0.251 C 
ATOM     34  H   UNL A   1      38.450  22.139  25.344  1.00  0.00     0.163 HD
ATOM     35  O   UNL A   1      40.611  22.641  26.323  1.00  0.00    -0.269 OA
BRANCH  33  36
ATOM     36  C   UNL A   1      39.761  24.692  27.023  1.00  0.00     0.039 A 
ATOM     37  C   UNL A   1      39.248  24.857  28.301  1.00  0.00     0.014 A 
ATOM     38  C   UNL A   1      40.414  25.748  26.375  1.00  0.00     0.014 A 
ATOM     39  C   UNL A   1      39.215  26.117  28.862  1.00  0.00     0.010 A 
ATOM     40  C   UNL A   1      40.503  26.996  27.004  1.00  0.00     0.010 A 
ATOM     41  C   UNL A   1      39.883  27.190  28.244  1.00  0.00    -0.014 A 
BRANCH  41  42
ATOM     42  C   UNL A   1      39.999  28.436  29.040  1.00  0.00     0.031 A 
ATOM     43  C   UNL A   1      38.944  29.494  29.002  1.00  0.00     0.074 A 
ATOM     44  C   UNL A   1      41.004  28.485  29.939  1.00  0.00     0.049 A 
ATOM     45  N   UNL A   1      38.753  30.478  29.843  1.00  0.00    -0.248 NA
ATOM     46  C   UNL A   1      37.983  29.455  27.890  1.00  0.00     0.031 C 
ATOM     47  C   UNL A   1      42.078  27.489  30.037  1.00  0.00     0.029 A 
ATOM     48  N   UNL A   1      41.232  29.325  30.996  1.00  0.00    -0.354 N 
ATOM     49  C   UNL A   1      37.652  31.176  29.366  1.00  0.00     0.074 A 
ATOM     50  C   UNL A   1      37.237  30.524  28.143  1.00  0.00     0.031 C 
ATOM     51  C   UNL A   1      42.761  27.695  31.169  1.00  0.00     0.029 A 
ATOM     52  C   UNL A   1      42.236  28.884  31.827  1.00  0.00     0.049 A 
ATOM     53  H   UNL A   1      40.729  30.158  31.147  1.00  0.00     0.167 HD
ATOM     54  C   UNL A   1      37.050  32.257  29.913  1.00  0.00     0.031 A 
ATOM     55  C   UNL A   1      42.681  29.370  33.001  1.00  0.00     0.031 A 
ATOM     56  C   UNL A   1      37.492  32.893  31.128  1.00  0.00     0.049 A 
ATOM     57  C   UNL A   1      42.004  30.580  33.569  1.00  0.00     0.074 A 
ATOM     58  C   UNL A   1      36.944  33.989  31.772  1.00  0.00     0.029 A 
ATOM     59  N   UNL A   1      38.589  32.495  31.880  1.00  0.00    -0.354 N 
ATOM     60  N   UNL A   1      40.942  31.210  33.127  1.00  0.00    -0.248 NA
ATOM     61  C   UNL A   1      42.583  31.151  34.791  1.00  0.00     0.031 C 
ATOM     62  C   UNL A   1      37.752  34.297  32.869  1.00  0.00     0.029 A 
ATOM     63  C   UNL A   1      38.757  33.347  32.959  1.00  0.00     0.049 A 
ATOM     64  H   UNL A   1      39.163  31.721  31.676  1.00  0.00     0.167 HD
ATOM     65  C   UNL A   1      40.732  32.260  34.007  1.00  0.00     0.074 A 
ATOM     66  C   UNL A   1      41.747  32.151  35.036  1.00  0.00     0.031 C 
ATOM     67  C   UNL A   1      39.792  33.236  33.957  1.00  0.00     0.031 A 
BRANCH  54  68
ATOM     68  C   UNL A   1      35.858  32.844  29.204  1.00  0.00    -0.014 A 
ATOM     69  C   UNL A   1      35.945  34.129  28.643  1.00  0.00     0.009 A 
ATOM     70  C   UNL A   1      34.623  32.178  29.178  1.00  0.00     0.009 A 
ATOM     71  C   UNL A   1      34.819  34.743  28.090  1.00  0.00     0.001 A 
ATOM     72  C   UNL A   1      33.504  32.783  28.597  1.00  0.00     0.001 A 
ATOM     73  C   UNL A   1      33.600  34.067  28.064  1.00  0.00     0.000 A 
ENDBRANCH  54  68
BRANCH  55  74
ATOM     74  C   UNL A   1      43.815  28.695  33.690  1.00  0.00    -0.014 A 
ATOM     75  C   UNL A   1      43.566  27.695  34.647  1.00  0.00     0.009 A 
ATOM     76  C   UNL A   1      45.140  29.089  33.461  1.00  0.00     0.009 A 
ATOM     77  C   UNL A   1      44.609  27.140  35.390  1.00  0.00     0.001 A 
ATOM     78  C   UNL A   1      46.187  28.501  34.175  1.00  0.00     0.001 A 
ATOM     79  C   UNL A   1      45.920  27.539  35.149  1.00  0.00     0.000 A 
ENDBRANCH  55  74
BRANCH  67  80
ATOM     80  C   UNL A   1      39.834  34.286  35.033  1.00  0.00    -0.014 A 
ATOM     81  C   UNL A   1      40.557  35.472  34.828  1.00  0.00     0.009 A 
ATOM     82  C   UNL A   1      39.229  34.065  36.280  1.00  0.00     0.009 A 
ATOM     83  C   UNL A   1      40.683  36.409  35.854  1.00  0.00     0.001 A 
ATOM     84  C   UNL A   1      39.326  35.021  37.292  1.00  0.00     0.001 A 
ATOM     85  C   UNL A   1      40.061  36.187  37.081  1.00  0.00     0.000 A 
ENDBRANCH  67  80
ENDBRANCH  41  42
ENDBRANCH  33  36
ENDBRANCH  31  32
ENDBRANCH  30  31
ENDBRANCH   1  30
TORSDOF 14
ENDMDL
MODEL 3
REMARK VINA RESULT:     -12.4      4.070      9.333
REMARK SMILES CC(C)(C)c1cc(Nc2ccccc2C(=O)NCCCCNC(=O)c2ccc(-c3c4nc(c(-c5ccccc5)c5ccc([nH]5)c(-c5ccccc5)c5nc(c(-c6ccccc6)c6ccc3[nH]6)C=C5)C=C4)cc2)cc2c1OCC2(C)C
REMARK SMILES IDX 19 1 18 2 17 3 15 4 16 5 14 7 9 8 10 9 11 10 13 11 12 12
REMARK SMILES IDX 8 13 7 15 5 16 6 17 75 18 74 19 76 20 73 21 78 22 77 23
REMARK SMILES IDX 79 24 80 25 2 26 1 27 3 28 4 29 20 30 21 31 22 32 23 33
REMARK SMILES IDX 24 35 25 36 26 37 72 38 27 39 71 40 28 41 29 42 30 43 65 44
REMARK SMILES IDX 31 45 70 46 64 47 66 48 32 49 69 50 63 51 62 52 33 54 55 55
REMARK SMILES IDX 40 56 54 57 41 58 44 59 53 60 67 61 42 62 43 63 52 65 68 66
REMARK SMILES IDX 45 67 34 68 35 69 39 70 36 71 38 72 37 73 56 74 57 75 61 76
REMARK SMILES IDX 58 77 60 78 59 79 46 80 47 81 51 82 48 83 50 84 49 85
REMARK H PARENT 17 6 8 14 22 34 66 53 44 64
REMARK Flexibility Score: inf
ROOT
ATOM      1  C   UNL A   1      35.965  23.285  23.738  1.00  0.00     0.023 C 
ENDROOT
BRANCH   1   2
ATOM      2  C   UNL A   1      34.615  23.731  23.210  1.00  0.00     0.116 C 
BRANCH   2   3
ATOM      3  N   UNL A   1      33.737  22.737  22.670  1.00  0.00    -0.352 N 
ATOM      4  C   UNL A   1      32.422  22.511  23.002  1.00  0.00     0.253 C 
ATOM      5  O   UNL A   1      31.814  21.693  22.304  1.00  0.00    -0.269 OA
ATOM      6  H   UNL A   1      34.119  22.147  21.980  1.00  0.00     0.163 HD
BRANCH   4   7
ATOM      7  C   UNL A   1      31.711  23.100  24.188  1.00  0.00     0.063 A 
ATOM      8  C   UNL A   1      30.990  24.314  24.309  1.00  0.00     0.051 A 
ATOM      9  C   UNL A   1      30.302  24.565  25.523  1.00  0.00     0.027 A 
ATOM     10  C   UNL A   1      30.395  23.717  26.624  1.00  0.00     0.002 A 
ATOM     11  C   UNL A   1      31.779  22.251  25.322  1.00  0.00     0.016 A 
ATOM     12  C   UNL A   1      31.152  22.562  26.531  1.00  0.00     0.001 A 
BRANCH   8  13
ATOM     13  N   UNL A   1      30.920  25.340  23.334  1.00  0.00    -0.355 N 
ATOM     14  H   UNL A   1      30.881  25.056  22.392  1.00  0.00     0.167 HD
BRANCH  13  15
ATOM     15  C   UNL A   1      30.900  26.742  23.587  1.00  0.00     0.039 A 
ATOM     16  C   UNL A   1      31.520  28.647  25.081  1.00  0.00     0.002 A 
ATOM     17  C   UNL A   1      31.701  27.312  24.615  1.00  0.00     0.034 A 
ATOM     18  C   UNL A   1      30.585  29.404  24.382  1.00  0.00     0.127 A 
ATOM     19  C   UNL A   1      29.812  28.877  23.368  1.00  0.00     0.006 A 
ATOM     20  O   UNL A   1      30.310  30.722  24.629  1.00  0.00    -0.492 OA
ATOM     21  C   UNL A   1      29.939  27.556  22.984  1.00  0.00     0.034 A 
ATOM     22  C   UNL A   1      28.865  29.894  22.836  1.00  0.00     0.028 C 
ATOM     23  C   UNL A   1      29.303  31.112  23.669  1.00  0.00     0.240 C 
ATOM     24  C   UNL A   1      29.094  30.115  21.339  1.00  0.00     0.020 C 
ATOM     25  C   UNL A   1      27.408  29.514  23.117  1.00  0.00     0.020 C 
BRANCH  16  26
ATOM     26  C   UNL A   1      32.252  29.239  26.302  1.00  0.00    -0.009 C 
ATOM     27  C   UNL A   1      33.771  29.222  26.063  1.00  0.00     0.016 C 
ATOM     28  C   UNL A   1      31.982  28.464  27.597  1.00  0.00     0.016 C 
ATOM     29  C   UNL A   1      31.790  30.689  26.608  1.00  0.00     0.016 C 
ENDBRANCH  16  26
ENDBRANCH  13  15
ENDBRANCH   8  13
ENDBRANCH   4   7
ENDBRANCH   2   3
ENDBRANCH   1   2
BRANCH   1  30
ATOM     30  C   UNL A   1      36.098  23.048  25.245  1.00  0.00     0.023 C 
BRANCH  30  31
ATOM     31  C   UNL A   1      37.235  23.745  25.993  1.00  0.00     0.116 C 
BRANCH  31  32
ATOM     32  N   UNL A   1      38.540  23.099  25.929  1.00  0.00    -0.352 N 
ATOM     33  C   UNL A   1      39.766  23.483  26.436  1.00  0.00     0.251 C 
ATOM     34  H   UNL A   1      38.550  22.244  25.441  1.00  0.00     0.163 HD
ATOM     35  O   UNL A   1      40.748  22.769  26.317  1.00  0.00    -0.269 OA
BRANCH  33  36
ATOM     36  C   UNL A   1      39.898  24.789  27.102  1.00  0.00     0.039 A 
ATOM     37  C   UNL A   1      39.393  24.936  28.386  1.00  0.00     0.014 A 
ATOM     38  C   UNL A   1      40.550  25.853  26.467  1.00  0.00     0.014 A 
ATOM     39  C   UNL A   1      39.368  26.187  28.967  1.00  0.00     0.010 A 
ATOM     40  C   UNL A   1      40.648  27.091  27.115  1.00  0.00     0.010 A 
ATOM     41  C   UNL A   1      40.036  27.267  28.362  1.00  0.00    -0.014 A 
BRANCH  41  42
ATOM     42  C   UNL A   1      40.161  28.500  29.177  1.00  0.00     0.031 A 
ATOM     43  C   UNL A   1      39.105  29.558  29.169  1.00  0.00     0.074 A 
ATOM     44  C   UNL A   1      41.176  28.534  30.064  1.00  0.00     0.049 A 
ATOM     45  N   UNL A   1      38.925  30.528  30.028  1.00  0.00    -0.248 NA
ATOM     46  C   UNL A   1      38.131  29.537  28.068  1.00  0.00     0.031 C 
ATOM     47  C   UNL A   1      42.252  27.538  30.134  1.00  0.00     0.029 A 
ATOM     48  N   UNL A   1      41.417  29.357  31.133  1.00  0.00    -0.354 N 
ATOM     49  C   UNL A   1      37.818  31.233  29.575  1.00  0.00     0.074 A 
ATOM     50  C   UNL A   1      37.388  30.602  28.347  1.00  0.00     0.031 C 
ATOM     51  C   UNL A   1      42.948  27.725  31.260  1.00  0.00     0.029 A 
ATOM     52  C   UNL A   1      42.431  28.903  31.944  1.00  0.00     0.049 A 
ATOM     53  H   UNL A   1      40.915  30.187  31.303  1.00  0.00     0.167 HD
ATOM     54  C   UNL A   1      37.221  32.305  30.147  1.00  0.00     0.031 A 
ATOM     55  C   UNL A   1      42.890  29.369  33.120  1.00  0.00     0.031 A 
ATOM     56  C   UNL A   1      37.678  32.921  31.367  1.00  0.00     0.049 A 
ATOM     57  C   UNL A   1      42.219  30.570  33.717  1.00  0.00     0.074 A 
ATOM     58  C   UNL A   1      37.138  34.006  32.036  1.00  0.00     0.029 A 
ATOM     59  N   UNL A   1      38.784  32.511  32.099  1.00  0.00    -0.354 N 
ATOM     60  N   UNL A   1      41.152  31.207  33.298  1.00  0.00    -0.248 NA
ATOM     61  C   UNL A   1      42.813  31.122  34.940  1.00  0.00     0.031 C 
ATOM     62  C   UNL A   1      37.959  34.297  33.128  1.00  0.00     0.029 A 
ATOM     63  C   UNL A   1      38.965  33.345  33.190  1.00  0.00     0.049 A 
ATOM     64  H   UNL A   1      39.356  31.741  31.876  1.00  0.00     0.167 HD
ATOM     65  C   UNL A   1      40.952  32.243  34.197  1.00  0.00     0.074 A 
ATOM     66  C   UNL A   1      41.980  32.117  35.212  1.00  0.00     0.031 C 
ATOM     67  C   UNL A   1      40.011  33.219  34.174  1.00  0.00     0.031 A 
BRANCH  54  68
ATOM     68  C   UNL A   1      36.022  32.903  29.462  1.00  0.00    -0.014 A 
ATOM     69  C   UNL A   1      34.783  32.244  29.524  1.00  0.00     0.009 A 
ATOM     70  C   UNL A   1      36.133  34.057  28.671  1.00  0.00     0.009 A 
ATOM     71  C   UNL A   1      33.688  32.713  28.796  1.00  0.00     0.001 A 
ATOM     72  C   UNL A   1      35.027  34.542  27.965  1.00  0.00     0.001 A 
ATOM     73  C   UNL A   1      33.811  33.864  28.019  1.00  0.00     0.000 A 
ENDBRANCH  54  68
BRANCH  55  74
ATOM     74  C   UNL A   1      44.031  28.684  33.785  1.00  0.00    -0.014 A 
ATOM     75  C   UNL A   1      45.353  29.038  33.463  1.00  0.00     0.009 A 
ATOM     76  C   UNL A   1      43.819  27.628  34.683  1.00  0.00     0.009 A 
ATOM     77  C   UNL A   1      46.433  28.324  33.985  1.00  0.00     0.001 A 
ATOM     78  C   UNL A   1      44.902  26.941  35.237  1.00  0.00     0.001 A 
ATOM     79  C   UNL A   1      46.207  27.279  34.877  1.00  0.00     0.000 A 
ENDBRANCH  55  74
BRANCH  67  80
ATOM     80  C   UNL A   1      40.066  34.251  35.266  1.00  0.00    -0.014 A 
ATOM     81  C   UNL A   1      39.384  34.032  36.474  1.00  0.00     0.009 A 
ATOM     82  C   UNL A   1      40.724  35.475  35.069  1.00  0.00     0.009 A 
ATOM     83  C   UNL A   1      39.349  35.023  37.456  1.00  0.00     0.001 A 
ATOM     84  C   UNL A   1      40.717  36.451  36.067  1.00  0.00     0.001 A 
ATOM     85  C   UNL A   1      40.022  36.227  37.255  1.00  0.00     0.000 A 
ENDBRANCH  67  80
ENDBRANCH  41  42
ENDBRANCH  33  36
ENDBRANCH  31  32
ENDBRANCH  30  31
ENDBRANCH   1  30
TORSDOF 14
ENDMDL
