MODEL 1
REMARK VINA RESULT:     -11.8      0.000      0.000
REMARK SMILES Cc1nc(-c2ccccc2Cl)nc2sc(C(=O)NCCCCNC(=O)c3ccc(-c4c5nc(c(-c6ccccc6)c6ccc([nH]6)c(-c6ccccc6)c6nc(c(-c7ccccc7)c7ccc4[nH]7)C=C6)C=C5)cc3)c(N)c12
REMARK SMILES IDX 21 1 20 2 19 3 18 4 16 5 17 6 15 8 1 9 2 10 3 11 76 12 4 13
REMARK SMILES IDX 13 14 74 15 12 16 14 17 5 18 6 19 10 20 7 21 9 22 11 23 8 24
REMARK SMILES IDX 75 25 22 28 23 29 24 30 25 32 26 33 27 34 73 35 28 36 72 37
REMARK SMILES IDX 29 38 30 39 31 40 66 41 32 42 71 43 65 44 67 45 33 46 70 47
REMARK SMILES IDX 64 48 63 49 34 51 56 52 41 53 55 54 42 55 45 56 54 57 68 58
REMARK SMILES IDX 43 59 44 60 53 62 69 63 46 64 35 65 36 66 40 67 37 68 39 69
REMARK SMILES IDX 38 70 57 71 58 72 62 73 59 74 61 75 60 76 47 77 48 78 52 79
REMARK SMILES IDX 49 80 51 81 50 82
REMARK H PARENT 18 7 75 26 75 27 23 31 67 50 45 61
REMARK Flexibility Score: inf
ROOT
ATOM      1  C   UNL A   1      39.059  21.343  25.934  1.00  0.00     0.023 C 
ENDROOT
BRANCH   1   2
ATOM      2  C   UNL A   1      37.885  22.242  25.526  1.00  0.00     0.023 C 
BRANCH   2   3
ATOM      3  C   UNL A   1      37.047  21.741  24.340  1.00  0.00     0.116 C 
BRANCH   3   4
ATOM      4  N   UNL A   1      35.810  21.087  24.754  1.00  0.00    -0.351 N 
ATOM      5  C   UNL A   1      34.519  21.549  24.951  1.00  0.00     0.263 C 
ATOM      6  O   UNL A   1      33.682  20.660  25.155  1.00  0.00    -0.268 OA
ATOM      7  H   UNL A   1      35.915  20.124  24.929  1.00  0.00     0.163 HD
BRANCH   5   8
ATOM      8  C   UNL A   1      34.140  22.960  24.882  1.00  0.00     0.118 A 
ATOM      9  C   UNL A   1      33.202  26.396  21.842  1.00  0.00     0.067 C 
ATOM     10  C   UNL A   1      33.489  26.330  23.311  1.00  0.00     0.052 A 
ATOM     11  N   UNL A   1      33.501  27.527  23.977  1.00  0.00    -0.233 NA
ATOM     12  C   UNL A   1      33.706  25.143  24.048  1.00  0.00     0.056 A 
ATOM     13  C   UNL A   1      33.656  27.536  25.313  1.00  0.00     0.162 A 
ATOM     14  C   UNL A   1      33.775  25.321  25.416  1.00  0.00     0.130 A 
ATOM     15  C   UNL A   1      33.895  23.738  23.748  1.00  0.00     0.067 A 
ATOM     16  N   UNL A   1      33.769  26.467  26.094  1.00  0.00    -0.217 NA
ATOM     17  S   UNL A   1      33.813  23.882  26.276  1.00  0.00    -0.108 S 
BRANCH  13  18
ATOM     18  C   UNL A   1      33.741  28.800  26.031  1.00  0.00     0.038 A 
ATOM     19  C   UNL A   1      34.840  29.027  26.888  1.00  0.00     0.013 A 
ATOM     20  C   UNL A   1      32.693  29.730  26.039  1.00  0.00     0.052 A 
ATOM     21  C   UNL A   1      34.883  30.139  27.732  1.00  0.00     0.001 A 
ATOM     22  C   UNL A   1      32.738  30.845  26.884  1.00  0.00     0.021 A 
ATOM     23  Cl  UNL A   1      31.270  29.515  25.077  1.00  0.00    -0.084 Cl
ATOM     24  C   UNL A   1      33.828  31.045  27.733  1.00  0.00     0.002 A 
ENDBRANCH  13  18
BRANCH  15  25
ATOM     25  N   UNL A   1      33.907  23.219  22.499  1.00  0.00    -0.397 N 
ATOM     26  H   UNL A   1      34.615  23.479  21.865  1.00  0.00     0.156 HD
ATOM     27  H   UNL A   1      33.209  22.583  22.223  1.00  0.00     0.156 HD
ENDBRANCH  15  25
ENDBRANCH   5   8
ENDBRANCH   3   4
ENDBRANCH   2   3
ENDBRANCH   1   2
BRANCH   1  28
ATOM     28  C   UNL A   1      40.074  21.996  26.862  1.00  0.00     0.116 C 
BRANCH  28  29
ATOM     29  N   UNL A   1      41.425  22.062  26.305  1.00  0.00    -0.352 N 
ATOM     30  C   UNL A   1      42.167  23.199  26.028  1.00  0.00     0.251 C 
ATOM     31  H   UNL A   1      41.856  21.200  26.103  1.00  0.00     0.163 HD
ATOM     32  O   UNL A   1      43.079  23.188  25.220  1.00  0.00    -0.269 OA
BRANCH  30  33
ATOM     33  C   UNL A   1      41.833  24.434  26.762  1.00  0.00     0.039 A 
ATOM     34  C   UNL A   1      42.365  24.709  28.023  1.00  0.00     0.014 A 
ATOM     35  C   UNL A   1      41.001  25.348  26.119  1.00  0.00     0.014 A 
ATOM     36  C   UNL A   1      42.117  25.957  28.590  1.00  0.00     0.010 A 
ATOM     37  C   UNL A   1      40.897  26.628  26.600  1.00  0.00     0.010 A 
ATOM     38  C   UNL A   1      41.402  26.923  27.858  1.00  0.00    -0.014 A 
BRANCH  38  39
ATOM     39  C   UNL A   1      41.244  28.279  28.363  1.00  0.00     0.031 A 
ATOM     40  C   UNL A   1      42.332  29.219  27.994  1.00  0.00     0.074 A 
ATOM     41  C   UNL A   1      40.140  28.721  29.002  1.00  0.00     0.049 A 
ATOM     42  N   UNL A   1      43.260  29.660  28.774  1.00  0.00    -0.248 NA
ATOM     43  C   UNL A   1      42.491  29.619  26.589  1.00  0.00     0.031 C 
ATOM     44  C   UNL A   1      38.855  28.048  29.225  1.00  0.00     0.029 A 
ATOM     45  N   UNL A   1      39.927  29.950  29.545  1.00  0.00    -0.354 N 
ATOM     46  C   UNL A   1      44.026  30.537  28.016  1.00  0.00     0.074 A 
ATOM     47  C   UNL A   1      43.598  30.364  26.650  1.00  0.00     0.031 C 
ATOM     48  C   UNL A   1      37.937  28.945  29.656  1.00  0.00     0.029 A 
ATOM     49  C   UNL A   1      38.615  30.199  29.923  1.00  0.00     0.049 A 
ATOM     50  H   UNL A   1      40.647  30.611  29.659  1.00  0.00     0.167 HD
ATOM     51  C   UNL A   1      44.803  31.483  28.613  1.00  0.00     0.031 A 
ATOM     52  C   UNL A   1      38.133  31.355  30.439  1.00  0.00     0.031 A 
ATOM     53  C   UNL A   1      44.955  31.230  30.025  1.00  0.00     0.049 A 
ATOM     54  C   UNL A   1      39.283  32.071  31.035  1.00  0.00     0.074 A 
ATOM     55  C   UNL A   1      45.489  30.202  30.776  1.00  0.00     0.029 A 
ATOM     56  N   UNL A   1      44.130  31.927  30.877  1.00  0.00    -0.354 N 
ATOM     57  N   UNL A   1      39.931  31.631  32.076  1.00  0.00    -0.248 NA
ATOM     58  C   UNL A   1      39.999  33.027  30.209  1.00  0.00     0.031 C 
ATOM     59  C   UNL A   1      44.584  30.040  31.867  1.00  0.00     0.029 A 
ATOM     60  C   UNL A   1      43.599  31.025  31.763  1.00  0.00     0.049 A 
ATOM     61  H   UNL A   1      43.952  32.895  30.854  1.00  0.00     0.167 HD
ATOM     62  C   UNL A   1      41.264  31.893  31.796  1.00  0.00     0.074 A 
ATOM     63  C   UNL A   1      41.235  32.840  30.681  1.00  0.00     0.031 C 
ATOM     64  C   UNL A   1      42.260  31.110  32.303  1.00  0.00     0.031 A 
BRANCH  51  65
ATOM     65  C   UNL A   1      45.099  32.835  28.019  1.00  0.00    -0.014 A 
ATOM     66  C   UNL A   1      44.021  33.699  27.742  1.00  0.00     0.009 A 
ATOM     67  C   UNL A   1      46.345  33.179  27.464  1.00  0.00     0.009 A 
ATOM     68  C   UNL A   1      44.170  34.800  26.891  1.00  0.00     0.001 A 
ATOM     69  C   UNL A   1      46.505  34.300  26.645  1.00  0.00     0.001 A 
ATOM     70  C   UNL A   1      45.409  35.094  26.335  1.00  0.00     0.000 A 
ENDBRANCH  51  65
BRANCH  52  71
ATOM     71  C   UNL A   1      36.833  32.015  30.202  1.00  0.00    -0.014 A 
ATOM     72  C   UNL A   1      35.783  31.875  31.125  1.00  0.00     0.009 A 
ATOM     73  C   UNL A   1      36.727  33.034  29.237  1.00  0.00     0.009 A 
ATOM     74  C   UNL A   1      34.696  32.761  31.120  1.00  0.00     0.001 A 
ATOM     75  C   UNL A   1      35.641  33.917  29.233  1.00  0.00     0.001 A 
ATOM     76  C   UNL A   1      34.636  33.792  30.186  1.00  0.00     0.000 A 
ENDBRANCH  52  71
BRANCH  64  77
ATOM     77  C   UNL A   1      41.889  30.066  33.334  1.00  0.00    -0.014 A 
ATOM     78  C   UNL A   1      41.487  28.760  32.993  1.00  0.00     0.009 A 
ATOM     79  C   UNL A   1      42.126  30.354  34.685  1.00  0.00     0.009 A 
ATOM     80  C   UNL A   1      41.315  27.782  33.981  1.00  0.00     0.001 A 
ATOM     81  C   UNL A   1      41.972  29.372  35.667  1.00  0.00     0.001 A 
ATOM     82  C   UNL A   1      41.566  28.088  35.316  1.00  0.00     0.000 A 
ENDBRANCH  64  77
ENDBRANCH  38  39
ENDBRANCH  30  33
ENDBRANCH  28  29
ENDBRANCH   1  28
TORSDOF 13
ENDMDL
MODEL 2
REMARK VINA RESULT:     -11.7      3.232      7.964
REMARK SMILES Cc1nc(-c2ccccc2Cl)nc2sc(C(=O)NCCCCNC(=O)c3ccc(-c4c5nc(c(-c6ccccc6)c6ccc([nH]6)c(-c6ccccc6)c6nc(c(-c7ccccc7)c7ccc4[nH]7)C=C6)C=C5)cc3)c(N)c12
REMARK SMILES IDX 21 1 20 2 19 3 18 4 16 5 17 6 15 8 1 9 2 10 3 11 76 12 4 13
REMARK SMILES IDX 13 14 74 15 12 16 14 17 5 18 6 19 10 20 7 21 9 22 11 23 8 24
REMARK SMILES IDX 75 25 22 28 23 29 24 30 25 32 26 33 27 34 73 35 28 36 72 37
REMARK SMILES IDX 29 38 30 39 31 40 66 41 32 42 71 43 65 44 67 45 33 46 70 47
REMARK SMILES IDX 64 48 63 49 34 51 56 52 41 53 55 54 42 55 45 56 54 57 68 58
REMARK SMILES IDX 43 59 44 60 53 62 69 63 46 64 35 65 36 66 40 67 37 68 39 69
REMARK SMILES IDX 38 70 57 71 58 72 62 73 59 74 61 75 60 76 47 77 48 78 52 79
REMARK SMILES IDX 49 80 51 81 50 82
REMARK H PARENT 18 7 75 26 75 27 23 31 67 50 45 61
REMARK Flexibility Score: inf
ROOT
ATOM      1  C   UNL A   1      34.042  28.693  27.299  1.00  0.00     0.023 C 
ENDROOT
BRANCH   1   2
ATOM      2  C   UNL A   1      32.899  29.589  26.806  1.00  0.00     0.023 C 
BRANCH   2   3
ATOM      3  C   UNL A   1      32.935  29.949  25.313  1.00  0.00     0.116 C 
BRANCH   3   4
ATOM      4  N   UNL A   1      31.770  29.461  24.583  1.00  0.00    -0.351 N 
ATOM      5  C   UNL A   1      31.286  28.191  24.318  1.00  0.00     0.263 C 
ATOM      6  O   UNL A   1      30.166  28.168  23.791  1.00  0.00    -0.268 OA
ATOM      7  H   UNL A   1      31.216  30.181  24.202  1.00  0.00     0.163 HD
BRANCH   5   8
ATOM      8  C   UNL A   1      31.998  26.961  24.663  1.00  0.00     0.118 A 
ATOM      9  C   UNL A   1      31.691  23.139  27.353  1.00  0.00     0.067 C 
ATOM     10  C   UNL A   1      32.783  23.796  26.566  1.00  0.00     0.052 A 
ATOM     11  N   UNL A   1      34.009  23.185  26.609  1.00  0.00    -0.233 NA
ATOM     12  C   UNL A   1      32.632  24.954  25.769  1.00  0.00     0.056 A 
ATOM     13  C   UNL A   1      35.011  23.664  25.850  1.00  0.00     0.162 A 
ATOM     14  C   UNL A   1      33.735  25.269  24.999  1.00  0.00     0.130 A 
ATOM     15  C   UNL A   1      31.601  25.946  25.540  1.00  0.00     0.067 A 
ATOM     16  N   UNL A   1      34.931  24.684  25.003  1.00  0.00    -0.217 NA
ATOM     17  S   UNL A   1      33.455  26.511  23.907  1.00  0.00    -0.108 S 
BRANCH  13  18
ATOM     18  C   UNL A   1      36.339  23.072  25.934  1.00  0.00     0.038 A 
ATOM     19  C   UNL A   1      37.417  23.870  26.376  1.00  0.00     0.013 A 
ATOM     20  C   UNL A   1      36.624  21.795  25.434  1.00  0.00     0.052 A 
ATOM     21  C   UNL A   1      38.734  23.411  26.308  1.00  0.00     0.001 A 
ATOM     22  C   UNL A   1      37.944  21.335  25.368  1.00  0.00     0.021 A 
ATOM     23  Cl  UNL A   1      35.386  20.759  24.807  1.00  0.00    -0.084 Cl
ATOM     24  C   UNL A   1      38.997  22.144  25.799  1.00  0.00     0.002 A 
ENDBRANCH  13  18
BRANCH  15  25
ATOM     25  N   UNL A   1      30.396  25.950  26.153  1.00  0.00    -0.397 N 
ATOM     26  H   UNL A   1      30.124  26.724  26.698  1.00  0.00     0.156 HD
ATOM     27  H   UNL A   1      29.791  25.180  26.055  1.00  0.00     0.156 HD
ENDBRANCH  15  25
ENDBRANCH   5   8
ENDBRANCH   3   4
ENDBRANCH   2   3
ENDBRANCH   1   2
BRANCH   1  28
ATOM     28  C   UNL A   1      35.354  29.418  27.568  1.00  0.00     0.116 C 
BRANCH  28  29
ATOM     29  N   UNL A   1      35.524  29.830  28.961  1.00  0.00    -0.352 N 
ATOM     30  C   UNL A   1      36.526  29.445  29.837  1.00  0.00     0.251 C 
ATOM     31  H   UNL A   1      34.848  30.452  29.318  1.00  0.00     0.163 HD
ATOM     32  O   UNL A   1      36.378  29.501  31.045  1.00  0.00    -0.269 OA
BRANCH  30  33
ATOM     33  C   UNL A   1      37.800  28.977  29.261  1.00  0.00     0.039 A 
ATOM     34  C   UNL A   1      38.348  29.559  28.115  1.00  0.00     0.014 A 
ATOM     35  C   UNL A   1      38.469  27.961  29.939  1.00  0.00     0.014 A 
ATOM     36  C   UNL A   1      39.621  29.161  27.713  1.00  0.00     0.010 A 
ATOM     37  C   UNL A   1      39.780  27.693  29.642  1.00  0.00     0.010 A 
ATOM     38  C   UNL A   1      40.343  28.244  28.499  1.00  0.00    -0.014 A 
BRANCH  38  39
ATOM     39  C   UNL A   1      41.725  27.912  28.184  1.00  0.00     0.031 A 
ATOM     40  C   UNL A   1      41.917  26.625  27.470  1.00  0.00     0.074 A 
ATOM     41  C   UNL A   1      42.765  28.750  28.384  1.00  0.00     0.049 A 
ATOM     42  N   UNL A   1      42.382  25.533  27.973  1.00  0.00    -0.248 NA
ATOM     43  C   UNL A   1      41.430  26.490  26.090  1.00  0.00     0.031 C 
ATOM     44  C   UNL A   1      42.767  30.153  28.815  1.00  0.00     0.029 A 
ATOM     45  N   UNL A   1      44.085  28.507  28.163  1.00  0.00    -0.354 N 
ATOM     46  C   UNL A   1      42.420  24.608  26.937  1.00  0.00     0.074 A 
ATOM     47  C   UNL A   1      41.692  25.203  25.843  1.00  0.00     0.031 C 
ATOM     48  C   UNL A   1      43.993  30.691  28.613  1.00  0.00     0.029 A 
ATOM     49  C   UNL A   1      44.901  29.628  28.229  1.00  0.00     0.049 A 
ATOM     50  H   UNL A   1      44.433  27.607  27.971  1.00  0.00     0.167 HD
ATOM     51  C   UNL A   1      43.231  23.515  27.002  1.00  0.00     0.031 A 
ATOM     52  C   UNL A   1      46.236  29.665  28.000  1.00  0.00     0.031 A 
ATOM     53  C   UNL A   1      43.737  23.311  28.338  1.00  0.00     0.049 A 
ATOM     54  C   UNL A   1      46.747  28.294  28.222  1.00  0.00     0.074 A 
ATOM     55  C   UNL A   1      43.161  23.058  29.567  1.00  0.00     0.029 A 
ATOM     56  N   UNL A   1      45.001  23.784  28.606  1.00  0.00    -0.354 N 
ATOM     57  N   UNL A   1      46.750  27.719  29.391  1.00  0.00    -0.248 NA
ATOM     58  C   UNL A   1      46.826  27.398  27.081  1.00  0.00     0.031 C 
ATOM     59  C   UNL A   1      43.906  23.854  30.488  1.00  0.00     0.029 A 
ATOM     60  C   UNL A   1      44.937  24.482  29.784  1.00  0.00     0.049 A 
ATOM     61  H   UNL A   1      45.804  23.647  28.053  1.00  0.00     0.167 HD
ATOM     62  C   UNL A   1      46.380  26.406  29.137  1.00  0.00     0.074 A 
ATOM     63  C   UNL A   1      46.536  26.244  27.690  1.00  0.00     0.031 C 
ATOM     64  C   UNL A   1      45.719  25.664  30.072  1.00  0.00     0.031 A 
BRANCH  51  65
ATOM     65  C   UNL A   1      43.878  22.868  25.807  1.00  0.00    -0.014 A 
ATOM     66  C   UNL A   1      43.789  21.469  25.668  1.00  0.00     0.009 A 
ATOM     67  C   UNL A   1      44.801  23.529  24.976  1.00  0.00     0.009 A 
ATOM     68  C   UNL A   1      44.635  20.767  24.801  1.00  0.00     0.001 A 
ATOM     69  C   UNL A   1      45.619  22.835  24.081  1.00  0.00     0.001 A 
ATOM     70  C   UNL A   1      45.556  21.450  24.016  1.00  0.00     0.000 A 
ENDBRANCH  51  65
BRANCH  52  71
ATOM     71  C   UNL A   1      47.042  30.706  27.330  1.00  0.00    -0.014 A 
ATOM     72  C   UNL A   1      46.428  31.856  26.806  1.00  0.00     0.009 A 
ATOM     73  C   UNL A   1      48.440  30.722  27.486  1.00  0.00     0.009 A 
ATOM     74  C   UNL A   1      47.179  33.001  26.506  1.00  0.00     0.001 A 
ATOM     75  C   UNL A   1      49.189  31.865  27.185  1.00  0.00     0.001 A 
ATOM     76  C   UNL A   1      48.556  33.011  26.713  1.00  0.00     0.000 A 
ENDBRANCH  52  71
BRANCH  64  77
ATOM     77  C   UNL A   1      45.569  26.241  31.462  1.00  0.00    -0.014 A 
ATOM     78  C   UNL A   1      46.505  26.020  32.490  1.00  0.00     0.009 A 
ATOM     79  C   UNL A   1      44.550  27.178  31.685  1.00  0.00     0.009 A 
ATOM     80  C   UNL A   1      46.410  26.708  33.707  1.00  0.00     0.001 A 
ATOM     81  C   UNL A   1      44.468  27.878  32.892  1.00  0.00     0.001 A 
ATOM     82  C   UNL A   1      45.397  27.642  33.902  1.00  0.00     0.000 A 
ENDBRANCH  64  77
ENDBRANCH  38  39
ENDBRANCH  30  33
ENDBRANCH  28  29
ENDBRANCH   1  28
TORSDOF 13
ENDMDL
MODEL 3
REMARK VINA RESULT:     -11.7      3.409      8.233
REMARK SMILES Cc1nc(-c2ccccc2Cl)nc2sc(C(=O)NCCCCNC(=O)c3ccc(-c4c5nc(c(-c6ccccc6)c6ccc([nH]6)c(-c6ccccc6)c6nc(c(-c7ccccc7)c7ccc4[nH]7)C=C6)C=C5)cc3)c(N)c12
REMARK SMILES IDX 21 1 20 2 19 3 18 4 16 5 17 6 15 8 1 9 2 10 3 11 76 12 4 13
REMARK SMILES IDX 13 14 74 15 12 16 14 17 5 18 6 19 10 20 7 21 9 22 11 23 8 24
REMARK SMILES IDX 75 25 22 28 23 29 24 30 25 32 26 33 27 34 73 35 28 36 72 37
REMARK SMILES IDX 29 38 30 39 31 40 66 41 32 42 71 43 65 44 67 45 33 46 70 47
REMARK SMILES IDX 64 48 63 49 34 51 56 52 41 53 55 54 42 55 45 56 54 57 68 58
REMARK SMILES IDX 43 59 44 60 53 62 69 63 46 64 35 65 36 66 40 67 37 68 39 69
REMARK SMILES IDX 38 70 57 71 58 72 62 73 59 74 61 75 60 76 47 77 48 78 52 79
REMARK SMILES IDX 49 80 51 81 50 82
REMARK H PARENT 18 7 75 26 75 27 23 31 67 50 45 61
REMARK Flexibility Score: inf
ROOT
ATOM      1  C   UNL A   1      34.017  29.049  27.090  1.00  0.00     0.023 C 
ENDROOT
BRANCH   1   2
ATOM      2  C   UNL A   1      34.042  27.743  26.286  1.00  0.00     0.023 C 
BRANCH   2   3
ATOM      3  C   UNL A   1      33.893  27.898  24.765  1.00  0.00     0.116 C 
BRANCH   3   4
ATOM      4  N   UNL A   1      32.534  28.237  24.359  1.00  0.00    -0.351 N 
ATOM      5  C   UNL A   1      31.379  27.486  24.208  1.00  0.00     0.263 C 
ATOM      6  O   UNL A   1      30.359  28.153  23.994  1.00  0.00    -0.268 OA
ATOM      7  H   UNL A   1      32.413  29.191  24.148  1.00  0.00     0.163 HD
BRANCH   5   8
ATOM      8  C   UNL A   1      31.334  26.030  24.332  1.00  0.00     0.118 A 
ATOM      9  C   UNL A   1      29.670  22.599  27.052  1.00  0.00     0.067 C 
ATOM     10  C   UNL A   1      30.677  22.681  25.946  1.00  0.00     0.052 A 
ATOM     11  N   UNL A   1      31.299  21.507  25.610  1.00  0.00    -0.233 NA
ATOM     12  C   UNL A   1      30.997  23.849  25.217  1.00  0.00     0.056 A 
ATOM     13  C   UNL A   1      32.144  21.486  24.564  1.00  0.00     0.162 A 
ATOM     14  C   UNL A   1      31.824  23.640  24.131  1.00  0.00     0.130 A 
ATOM     15  C   UNL A   1      30.691  25.263  25.308  1.00  0.00     0.067 A 
ATOM     16  N   UNL A   1      32.427  22.510  23.766  1.00  0.00    -0.217 NA
ATOM     17  S   UNL A   1      32.010  24.995  23.162  1.00  0.00    -0.108 S 
BRANCH  13  18
ATOM     18  C   UNL A   1      32.868  20.266  24.233  1.00  0.00     0.038 A 
ATOM     19  C   UNL A   1      32.232  19.287  23.438  1.00  0.00     0.013 A 
ATOM     20  C   UNL A   1      34.104  19.948  24.810  1.00  0.00     0.052 A 
ATOM     21  C   UNL A   1      32.807  18.030  23.239  1.00  0.00     0.001 A 
ATOM     22  C   UNL A   1      34.681  18.688  24.609  1.00  0.00     0.021 A 
ATOM     23  Cl  UNL A   1      34.939  21.049  25.854  1.00  0.00    -0.084 Cl
ATOM     24  C   UNL A   1      34.030  17.730  23.829  1.00  0.00     0.002 A 
ENDBRANCH  13  18
BRANCH  15  25
ATOM     25  N   UNL A   1      29.921  25.816  26.272  1.00  0.00    -0.397 N 
ATOM     26  H   UNL A   1      29.471  26.677  26.109  1.00  0.00     0.156 HD
ATOM     27  H   UNL A   1      29.811  25.360  27.137  1.00  0.00     0.156 HD
ENDBRANCH  15  25
ENDBRANCH   5   8
ENDBRANCH   3   4
ENDBRANCH   2   3
ENDBRANCH   1   2
BRANCH   1  28
ATOM     28  C   UNL A   1      35.387  29.596  27.466  1.00  0.00     0.116 C 
BRANCH  28  29
ATOM     29  N   UNL A   1      35.503  29.979  28.874  1.00  0.00    -0.352 N 
ATOM     30  C   UNL A   1      36.447  29.543  29.790  1.00  0.00     0.251 C 
ATOM     31  H   UNL A   1      34.832  30.618  29.208  1.00  0.00     0.163 HD
ATOM     32  O   UNL A   1      36.241  29.584  30.990  1.00  0.00    -0.269 OA
BRANCH  30  33
ATOM     33  C   UNL A   1      37.730  29.040  29.268  1.00  0.00     0.039 A 
ATOM     34  C   UNL A   1      38.341  29.603  28.146  1.00  0.00     0.014 A 
ATOM     35  C   UNL A   1      38.342  28.007  29.975  1.00  0.00     0.014 A 
ATOM     36  C   UNL A   1      39.618  29.170  27.797  1.00  0.00     0.010 A 
ATOM     37  C   UNL A   1      39.657  27.703  29.733  1.00  0.00     0.010 A 
ATOM     38  C   UNL A   1      40.282  28.235  28.614  1.00  0.00    -0.014 A 
BRANCH  38  39
ATOM     39  C   UNL A   1      41.666  27.866  28.357  1.00  0.00     0.031 A 
ATOM     40  C   UNL A   1      41.850  26.624  27.565  1.00  0.00     0.074 A 
ATOM     41  C   UNL A   1      42.724  28.640  28.678  1.00  0.00     0.049 A 
ATOM     42  N   UNL A   1      42.239  25.480  28.015  1.00  0.00    -0.248 NA
ATOM     43  C   UNL A   1      41.444  26.606  26.153  1.00  0.00     0.031 C 
ATOM     44  C   UNL A   1      42.756  30.009  29.207  1.00  0.00     0.029 A 
ATOM     45  N   UNL A   1      44.044  28.356  28.517  1.00  0.00    -0.354 N 
ATOM     46  C   UNL A   1      42.303  24.628  26.919  1.00  0.00     0.074 A 
ATOM     47  C   UNL A   1      41.669  25.329  25.830  1.00  0.00     0.031 C 
ATOM     48  C   UNL A   1      44.013  30.505  29.117  1.00  0.00     0.029 A 
ATOM     49  C   UNL A   1      44.899  29.432  28.711  1.00  0.00     0.049 A 
ATOM     50  H   UNL A   1      44.368  27.457  28.282  1.00  0.00     0.167 HD
ATOM     51  C   UNL A   1      43.064  23.499  26.953  1.00  0.00     0.031 A 
ATOM     52  C   UNL A   1      46.246  29.426  28.564  1.00  0.00     0.031 A 
ATOM     53  C   UNL A   1      43.479  23.181  28.298  1.00  0.00     0.049 A 
ATOM     54  C   UNL A   1      46.687  28.021  28.717  1.00  0.00     0.074 A 
ATOM     55  C   UNL A   1      42.819  22.868  29.469  1.00  0.00     0.029 A 
ATOM     56  N   UNL A   1      44.742  23.577  28.672  1.00  0.00    -0.354 N 
ATOM     57  N   UNL A   1      46.596  27.367  29.839  1.00  0.00    -0.248 NA
ATOM     58  C   UNL A   1      46.801  27.204  27.521  1.00  0.00     0.031 C 
ATOM     59  C   UNL A   1      43.537  23.565  30.487  1.00  0.00     0.029 A 
ATOM     60  C   UNL A   1      44.633  24.193  29.892  1.00  0.00     0.049 A 
ATOM     61  H   UNL A   1      45.571  23.443  28.159  1.00  0.00     0.167 HD
ATOM     62  C   UNL A   1      46.190  26.093  29.470  1.00  0.00     0.074 A 
ATOM     63  C   UNL A   1      46.428  26.025  28.027  1.00  0.00     0.031 C 
ATOM     64  C   UNL A   1      45.443  25.317  30.309  1.00  0.00     0.031 A 
BRANCH  51  65
ATOM     65  C   UNL A   1      43.758  22.908  25.754  1.00  0.00    -0.014 A 
ATOM     66  C   UNL A   1      43.836  21.506  25.645  1.00  0.00     0.009 A 
ATOM     67  C   UNL A   1      44.573  23.657  24.886  1.00  0.00     0.009 A 
ATOM     68  C   UNL A   1      44.740  20.892  24.770  1.00  0.00     0.001 A 
ATOM     69  C   UNL A   1      45.449  23.047  23.985  1.00  0.00     0.001 A 
ATOM     70  C   UNL A   1      45.553  21.663  23.948  1.00  0.00     0.000 A 
ENDBRANCH  51  65
BRANCH  52  71
ATOM     71  C   UNL A   1      47.132  30.474  28.019  1.00  0.00    -0.014 A 
ATOM     72  C   UNL A   1      46.730  31.246  26.917  1.00  0.00     0.009 A 
ATOM     73  C   UNL A   1      48.230  30.929  28.773  1.00  0.00     0.009 A 
ATOM     74  C   UNL A   1      47.364  32.459  26.616  1.00  0.00     0.001 A 
ATOM     75  C   UNL A   1      48.864  32.139  28.471  1.00  0.00     0.001 A 
ATOM     76  C   UNL A   1      48.419  32.914  27.405  1.00  0.00     0.000 A 
ENDBRANCH  52  71
BRANCH  64  77
ATOM     77  C   UNL A   1      45.231  25.803  31.726  1.00  0.00    -0.014 A 
ATOM     78  C   UNL A   1      44.180  26.665  32.093  1.00  0.00     0.009 A 
ATOM     79  C   UNL A   1      46.005  25.232  32.746  1.00  0.00     0.009 A 
ATOM     80  C   UNL A   1      43.926  26.954  33.440  1.00  0.00     0.001 A 
ATOM     81  C   UNL A   1      45.739  25.505  34.090  1.00  0.00     0.001 A 
ATOM     82  C   UNL A   1      44.701  26.367  34.437  1.00  0.00     0.000 A 
ENDBRANCH  64  77
ENDBRANCH  38  39
ENDBRANCH  30  33
ENDBRANCH  28  29
ENDBRANCH   1  28
TORSDOF 13
ENDMDL
