MODEL 1
REMARK VINA RESULT:     -12.9      0.000      0.000
REMARK SMILES O=C(Cc1ccccc1)Nc1cccc(C(=O)Nc2ccccc2C(=O)NCCCCNC(=O)c2ccc(-c3c4nc(c(-c5ccccc5)c5ccc([nH]5)c(-c5ccccc5)c5nc(c(-c6ccccc6)c6ccc3[nH]6)C=C5)C=C4)cc2)c1
REMARK SMILES IDX 28 1 27 2 25 3 26 4 24 6 19 7 20 8 21 9 23 10 22 11 18 12
REMARK SMILES IDX 16 13 17 14 15 16 11 17 12 18 83 19 13 20 14 21 10 22 1 23
REMARK SMILES IDX 2 24 3 26 4 27 5 28 9 29 6 30 8 31 7 32 29 33 30 34 31 35
REMARK SMILES IDX 32 36 33 37 34 39 35 40 36 41 82 42 37 43 81 44 38 45 39 46
REMARK SMILES IDX 40 47 75 48 41 49 80 50 74 51 76 52 42 53 79 54 73 55 72 56
REMARK SMILES IDX 43 58 65 59 50 60 64 61 51 62 54 63 63 64 77 65 52 66 53 67
REMARK SMILES IDX 62 69 78 70 55 71 44 72 45 73 49 74 46 75 48 76 47 77 66 78
REMARK SMILES IDX 67 79 71 80 68 81 70 82 69 83 56 84 57 85 61 86 58 87 60 88
REMARK SMILES IDX 59 89
REMARK H PARENT 27 5 18 15 10 25 32 38 76 57 54 68
REMARK Flexibility Score: inf
ROOT
ATOM      1  C   UNL A   1      37.013  22.331  24.776  1.00  0.00     0.116 C 
ENDROOT
BRANCH   1   2
ATOM      2  N   UNL A   1      36.191  22.458  25.960  1.00  0.00    -0.352 N 
ATOM      3  C   UNL A   1      34.881  22.099  26.155  1.00  0.00     0.253 C 
ATOM      4  O   UNL A   1      34.374  22.354  27.249  1.00  0.00    -0.269 OA
ATOM      5  H   UNL A   1      36.637  22.860  26.739  1.00  0.00     0.163 HD
BRANCH   3   6
ATOM      6  C   UNL A   1      34.030  21.528  25.071  1.00  0.00     0.063 A 
ATOM      7  C   UNL A   1      33.612  22.143  23.870  1.00  0.00     0.054 A 
ATOM      8  C   UNL A   1      32.659  21.477  23.075  1.00  0.00     0.027 A 
ATOM      9  C   UNL A   1      32.233  20.181  23.374  1.00  0.00     0.002 A 
ATOM     10  C   UNL A   1      33.598  20.209  25.347  1.00  0.00     0.016 A 
ATOM     11  C   UNL A   1      32.725  19.534  24.498  1.00  0.00     0.001 A 
BRANCH   7  12
ATOM     12  N   UNL A   1      34.082  23.350  23.291  1.00  0.00    -0.321 N 
ATOM     13  C   UNL A   1      33.568  24.633  23.282  1.00  0.00     0.255 C 
ATOM     14  O   UNL A   1      34.037  25.471  22.516  1.00  0.00    -0.269 OA
ATOM     15  H   UNL A   1      34.933  23.256  22.806  1.00  0.00     0.170 HD
BRANCH  13  16
ATOM     16  C   UNL A   1      32.479  25.022  24.199  1.00  0.00     0.042 A 
ATOM     17  C   UNL A   1      30.344  26.075  24.474  1.00  0.00     0.041 A 
ATOM     18  C   UNL A   1      30.628  26.259  25.834  1.00  0.00     0.026 A 
ATOM     19  C   UNL A   1      31.225  25.353  23.688  1.00  0.00     0.040 A 
ATOM     20  C   UNL A   1      31.805  25.755  26.390  1.00  0.00     0.003 A 
ATOM     21  C   UNL A   1      32.748  25.151  25.564  1.00  0.00     0.014 A 
BRANCH  17  22
ATOM     22  N   UNL A   1      29.260  26.777  23.926  1.00  0.00    -0.326 N 
ATOM     23  O   UNL A   1      30.285  28.376  22.565  1.00  0.00    -0.274 OA
ATOM     24  C   UNL A   1      29.294  27.898  23.110  1.00  0.00     0.228 C 
ATOM     25  H   UNL A   1      28.365  26.432  24.148  1.00  0.00     0.169 HD
BRANCH  24  26
ATOM     26  C   UNL A   1      27.921  28.534  22.938  1.00  0.00     0.135 C 
BRANCH  26  27
ATOM     27  C   UNL A   1      28.010  29.994  22.566  1.00  0.00    -0.039 A 
ATOM     28  C   UNL A   1      27.997  30.398  21.222  1.00  0.00     0.004 A 
ATOM     29  C   UNL A   1      28.154  30.967  23.563  1.00  0.00     0.004 A 
ATOM     30  C   UNL A   1      28.177  31.737  20.879  1.00  0.00     0.000 A 
ATOM     31  C   UNL A   1      28.305  32.312  23.218  1.00  0.00     0.000 A 
ATOM     32  C   UNL A   1      28.332  32.693  21.878  1.00  0.00     0.000 A 
ENDBRANCH  26  27
ENDBRANCH  24  26
ENDBRANCH  17  22
ENDBRANCH  13  16
ENDBRANCH   7  12
ENDBRANCH   3   6
ENDBRANCH   1   2
BRANCH   1  33
ATOM     33  C   UNL A   1      37.136  20.904  24.256  1.00  0.00     0.023 C 
BRANCH  33  34
ATOM     34  C   UNL A   1      37.808  19.898  25.194  1.00  0.00     0.023 C 
BRANCH  34  35
ATOM     35  C   UNL A   1      39.140  20.313  25.817  1.00  0.00     0.116 C 
BRANCH  35  36
ATOM     36  N   UNL A   1      40.135  19.255  25.859  1.00  0.00    -0.352 N 
ATOM     37  C   UNL A   1      41.481  19.302  26.147  1.00  0.00     0.251 C 
ATOM     38  H   UNL A   1      39.792  18.357  25.648  1.00  0.00     0.163 HD
ATOM     39  O   UNL A   1      42.178  18.305  26.017  1.00  0.00    -0.269 OA
BRANCH  37  40
ATOM     40  C   UNL A   1      42.104  20.576  26.571  1.00  0.00     0.039 A 
ATOM     41  C   UNL A   1      42.665  21.405  25.596  1.00  0.00     0.014 A 
ATOM     42  C   UNL A   1      42.126  20.961  27.913  1.00  0.00     0.014 A 
ATOM     43  C   UNL A   1      43.140  22.670  25.951  1.00  0.00     0.010 A 
ATOM     44  C   UNL A   1      42.525  22.252  28.255  1.00  0.00     0.010 A 
ATOM     45  C   UNL A   1      43.016  23.127  27.274  1.00  0.00    -0.014 A 
BRANCH  45  46
ATOM     46  C   UNL A   1      43.339  24.533  27.631  1.00  0.00     0.031 A 
ATOM     47  C   UNL A   1      44.763  25.008  27.689  1.00  0.00     0.074 A 
ATOM     48  C   UNL A   1      42.340  25.371  27.980  1.00  0.00     0.049 A 
ATOM     49  N   UNL A   1      45.225  26.188  28.023  1.00  0.00    -0.248 NA
ATOM     50  C   UNL A   1      45.806  24.026  27.356  1.00  0.00     0.031 C 
ATOM     51  C   UNL A   1      40.917  25.024  28.024  1.00  0.00     0.029 A 
ATOM     52  N   UNL A   1      42.370  26.687  28.370  1.00  0.00    -0.354 N 
ATOM     53  C   UNL A   1      46.609  26.085  27.955  1.00  0.00     0.074 A 
ATOM     54  C   UNL A   1      46.912  24.715  27.596  1.00  0.00     0.031 C 
ATOM     55  C   UNL A   1      40.210  26.106  28.383  1.00  0.00     0.029 A 
ATOM     56  C   UNL A   1      41.128  27.212  28.633  1.00  0.00     0.049 A 
ATOM     57  H   UNL A   1      43.204  27.205  28.453  1.00  0.00     0.167 HD
ATOM     58  C   UNL A   1      47.543  27.045  28.153  1.00  0.00     0.031 A 
ATOM     59  C   UNL A   1      40.764  28.446  29.032  1.00  0.00     0.031 A 
ATOM     60  C   UNL A   1      47.246  28.411  28.499  1.00  0.00     0.049 A 
ATOM     61  C   UNL A   1      41.820  29.494  29.243  1.00  0.00     0.074 A 
ATOM     62  C   UNL A   1      48.124  29.470  28.655  1.00  0.00     0.029 A 
ATOM     63  N   UNL A   1      45.975  28.904  28.745  1.00  0.00    -0.354 N 
ATOM     64  N   UNL A   1      43.119  29.399  29.098  1.00  0.00    -0.248 NA
ATOM     65  C   UNL A   1      41.354  30.823  29.664  1.00  0.00     0.031 C 
ATOM     66  C   UNL A   1      47.387  30.595  29.042  1.00  0.00     0.029 A 
ATOM     67  C   UNL A   1      46.046  30.248  29.076  1.00  0.00     0.049 A 
ATOM     68  H   UNL A   1      45.144  28.378  28.693  1.00  0.00     0.167 HD
ATOM     69  C   UNL A   1      43.623  30.659  29.386  1.00  0.00     0.074 A 
ATOM     70  C   UNL A   1      42.490  31.506  29.698  1.00  0.00     0.031 C 
ATOM     71  C   UNL A   1      44.913  31.077  29.391  1.00  0.00     0.031 A 
BRANCH  58  72
ATOM     72  C   UNL A   1      48.985  26.646  28.002  1.00  0.00    -0.014 A 
ATOM     73  C   UNL A   1      49.602  26.623  26.741  1.00  0.00     0.009 A 
ATOM     74  C   UNL A   1      49.743  26.320  29.136  1.00  0.00     0.009 A 
ATOM     75  C   UNL A   1      50.939  26.242  26.616  1.00  0.00     0.001 A 
ATOM     76  C   UNL A   1      51.088  25.967  29.010  1.00  0.00     0.001 A 
ATOM     77  C   UNL A   1      51.682  25.918  27.750  1.00  0.00     0.000 A 
ENDBRANCH  58  72
BRANCH  59  78
ATOM     78  C   UNL A   1      39.328  28.768  29.232  1.00  0.00    -0.014 A 
ATOM     79  C   UNL A   1      38.528  29.149  28.144  1.00  0.00     0.009 A 
ATOM     80  C   UNL A   1      38.751  28.700  30.509  1.00  0.00     0.009 A 
ATOM     81  C   UNL A   1      37.185  29.479  28.333  1.00  0.00     0.001 A 
ATOM     82  C   UNL A   1      37.400  29.005  30.691  1.00  0.00     0.001 A 
ATOM     83  C   UNL A   1      36.621  29.403  29.606  1.00  0.00     0.000 A 
ENDBRANCH  59  78
BRANCH  71  84
ATOM     84  C   UNL A   1      45.163  32.521  29.720  1.00  0.00    -0.014 A 
ATOM     85  C   UNL A   1      45.339  32.946  31.045  1.00  0.00     0.009 A 
ATOM     86  C   UNL A   1      45.255  33.465  28.685  1.00  0.00     0.009 A 
ATOM     87  C   UNL A   1      45.569  34.294  31.330  1.00  0.00     0.001 A 
ATOM     88  C   UNL A   1      45.513  34.806  28.970  1.00  0.00     0.001 A 
ATOM     89  C   UNL A   1      45.661  35.221  30.292  1.00  0.00     0.000 A 
ENDBRANCH  71  84
ENDBRANCH  45  46
ENDBRANCH  37  40
ENDBRANCH  35  36
ENDBRANCH  34  35
ENDBRANCH  33  34
ENDBRANCH   1  33
TORSDOF 16
ENDMDL
MODEL 2
REMARK VINA RESULT:     -12.8      1.754      2.752
REMARK SMILES O=C(Cc1ccccc1)Nc1cccc(C(=O)Nc2ccccc2C(=O)NCCCCNC(=O)c2ccc(-c3c4nc(c(-c5ccccc5)c5ccc([nH]5)c(-c5ccccc5)c5nc(c(-c6ccccc6)c6ccc3[nH]6)C=C5)C=C4)cc2)c1
REMARK SMILES IDX 28 1 27 2 25 3 26 4 24 6 19 7 20 8 21 9 23 10 22 11 18 12
REMARK SMILES IDX 16 13 17 14 15 16 11 17 12 18 83 19 13 20 14 21 10 22 1 23
REMARK SMILES IDX 2 24 3 26 4 27 5 28 9 29 6 30 8 31 7 32 29 33 30 34 31 35
REMARK SMILES IDX 32 36 33 37 34 39 35 40 36 41 82 42 37 43 81 44 38 45 39 46
REMARK SMILES IDX 40 47 75 48 41 49 80 50 74 51 76 52 42 53 79 54 73 55 72 56
REMARK SMILES IDX 43 58 65 59 50 60 64 61 51 62 54 63 63 64 77 65 52 66 53 67
REMARK SMILES IDX 62 69 78 70 55 71 44 72 45 73 49 74 46 75 48 76 47 77 66 78
REMARK SMILES IDX 67 79 71 80 68 81 70 82 69 83 56 84 57 85 61 86 58 87 60 88
REMARK SMILES IDX 59 89
REMARK H PARENT 27 5 18 15 10 25 32 38 76 57 54 68
REMARK Flexibility Score: inf
ROOT
ATOM      1  C   UNL A   1      35.264  20.180  25.003  1.00  0.00     0.116 C 
ENDROOT
BRANCH   1   2
ATOM      2  N   UNL A   1      34.184  19.222  25.087  1.00  0.00    -0.352 N 
ATOM      3  C   UNL A   1      32.852  19.382  24.798  1.00  0.00     0.253 C 
ATOM      4  O   UNL A   1      32.104  18.423  24.996  1.00  0.00    -0.269 OA
ATOM      5  H   UNL A   1      34.443  18.324  25.395  1.00  0.00     0.163 HD
BRANCH   3   6
ATOM      6  C   UNL A   1      32.268  20.687  24.372  1.00  0.00     0.063 A 
ATOM      7  C   UNL A   1      31.749  21.720  25.184  1.00  0.00     0.054 A 
ATOM      8  C   UNL A   1      31.082  22.790  24.557  1.00  0.00     0.027 A 
ATOM      9  C   UNL A   1      31.048  22.918  23.167  1.00  0.00     0.002 A 
ATOM     10  C   UNL A   1      32.237  20.844  22.967  1.00  0.00     0.016 A 
ATOM     11  C   UNL A   1      31.652  21.957  22.369  1.00  0.00     0.001 A 
BRANCH   7  12
ATOM     12  N   UNL A   1      31.866  21.876  26.589  1.00  0.00    -0.321 N 
ATOM     13  C   UNL A   1      32.833  22.474  27.376  1.00  0.00     0.255 C 
ATOM     14  O   UNL A   1      32.832  22.283  28.590  1.00  0.00    -0.269 OA
ATOM     15  H   UNL A   1      31.119  21.487  27.099  1.00  0.00     0.170 HD
BRANCH  13  16
ATOM     16  C   UNL A   1      33.852  23.362  26.785  1.00  0.00     0.042 A 
ATOM     17  C   UNL A   1      34.336  25.186  25.309  1.00  0.00     0.041 A 
ATOM     18  C   UNL A   1      35.662  24.742  25.220  1.00  0.00     0.026 A 
ATOM     19  C   UNL A   1      33.466  24.558  26.184  1.00  0.00     0.040 A 
ATOM     20  C   UNL A   1      36.100  23.653  25.976  1.00  0.00     0.003 A 
ATOM     21  C   UNL A   1      35.185  22.944  26.747  1.00  0.00     0.014 A 
BRANCH  17  22
ATOM     22  N   UNL A   1      33.898  26.142  24.380  1.00  0.00    -0.326 N 
ATOM     23  O   UNL A   1      33.861  24.958  22.366  1.00  0.00    -0.274 OA
ATOM     24  C   UNL A   1      33.779  26.004  23.004  1.00  0.00     0.228 C 
ATOM     25  H   UNL A   1      33.643  27.019  24.749  1.00  0.00     0.169 HD
BRANCH  24  26
ATOM     26  C   UNL A   1      33.530  27.333  22.305  1.00  0.00     0.135 C 
BRANCH  26  27
ATOM     27  C   UNL A   1      32.220  27.959  22.716  1.00  0.00    -0.039 A 
ATOM     28  C   UNL A   1      32.188  29.062  23.583  1.00  0.00     0.004 A 
ATOM     29  C   UNL A   1      31.009  27.415  22.270  1.00  0.00     0.004 A 
ATOM     30  C   UNL A   1      30.975  29.575  24.037  1.00  0.00     0.000 A 
ATOM     31  C   UNL A   1      29.794  27.950  22.703  1.00  0.00     0.000 A 
ATOM     32  C   UNL A   1      29.779  29.019  23.597  1.00  0.00     0.000 A 
ENDBRANCH  26  27
ENDBRANCH  24  26
ENDBRANCH  17  22
ENDBRANCH  13  16
ENDBRANCH   7  12
ENDBRANCH   3   6
ENDBRANCH   1   2
BRANCH   1  33
ATOM     33  C   UNL A   1      36.651  19.550  24.950  1.00  0.00     0.023 C 
BRANCH  33  34
ATOM     34  C   UNL A   1      37.823  20.512  24.742  1.00  0.00     0.023 C 
BRANCH  34  35
ATOM     35  C   UNL A   1      38.856  20.598  25.865  1.00  0.00     0.116 C 
BRANCH  35  36
ATOM     36  N   UNL A   1      39.887  19.574  25.809  1.00  0.00    -0.352 N 
ATOM     37  C   UNL A   1      41.233  19.642  26.091  1.00  0.00     0.251 C 
ATOM     38  H   UNL A   1      39.571  18.687  25.523  1.00  0.00     0.163 HD
ATOM     39  O   UNL A   1      41.961  18.684  25.871  1.00  0.00    -0.269 OA
BRANCH  37  40
ATOM     40  C   UNL A   1      41.818  20.894  26.619  1.00  0.00     0.039 A 
ATOM     41  C   UNL A   1      42.309  21.839  25.714  1.00  0.00     0.014 A 
ATOM     42  C   UNL A   1      41.871  21.147  27.991  1.00  0.00     0.014 A 
ATOM     43  C   UNL A   1      42.744  23.083  26.178  1.00  0.00     0.010 A 
ATOM     44  C   UNL A   1      42.228  22.415  28.447  1.00  0.00     0.010 A 
ATOM     45  C   UNL A   1      42.648  23.402  27.544  1.00  0.00    -0.014 A 
BRANCH  45  46
ATOM     46  C   UNL A   1      42.925  24.780  28.028  1.00  0.00     0.031 A 
ATOM     47  C   UNL A   1      44.319  25.204  28.397  1.00  0.00     0.074 A 
ATOM     48  C   UNL A   1      41.897  25.635  28.208  1.00  0.00     0.049 A 
ATOM     49  N   UNL A   1      44.731  26.352  28.875  1.00  0.00    -0.248 NA
ATOM     50  C   UNL A   1      45.384  24.202  28.234  1.00  0.00     0.031 C 
ATOM     51  C   UNL A   1      40.487  25.334  27.946  1.00  0.00     0.029 A 
ATOM     52  N   UNL A   1      41.879  26.931  28.662  1.00  0.00    -0.354 N 
ATOM     53  C   UNL A   1      46.097  26.205  29.084  1.00  0.00     0.074 A 
ATOM     54  C   UNL A   1      46.434  24.843  28.726  1.00  0.00     0.031 C 
ATOM     55  C   UNL A   1      39.748  26.424  28.208  1.00  0.00     0.029 A 
ATOM     56  C   UNL A   1      40.623  27.486  28.693  1.00  0.00     0.049 A 
ATOM     57  H   UNL A   1      42.690  27.416  28.938  1.00  0.00     0.167 HD
ATOM     58  C   UNL A   1      46.994  27.123  29.515  1.00  0.00     0.031 A 
ATOM     59  C   UNL A   1      40.215  28.713  29.071  1.00  0.00     0.031 A 
ATOM     60  C   UNL A   1      46.667  28.482  29.861  1.00  0.00     0.049 A 
ATOM     61  C   UNL A   1      41.230  29.713  29.544  1.00  0.00     0.074 A 
ATOM     62  C   UNL A   1      47.519  29.503  30.244  1.00  0.00     0.029 A 
ATOM     63  N   UNL A   1      45.384  29.006  29.869  1.00  0.00    -0.354 N 
ATOM     64  N   UNL A   1      42.529  29.581  29.660  1.00  0.00    -0.248 NA
ATOM     65  C   UNL A   1      40.721  31.038  29.927  1.00  0.00     0.031 C 
ATOM     66  C   UNL A   1      46.746  30.634  30.529  1.00  0.00     0.029 A 
ATOM     67  C   UNL A   1      45.419  30.331  30.273  1.00  0.00     0.049 A 
ATOM     68  H   UNL A   1      44.569  28.511  29.623  1.00  0.00     0.167 HD
ATOM     69  C   UNL A   1      42.994  30.810  30.107  1.00  0.00     0.074 A 
ATOM     70  C   UNL A   1      41.842  31.680  30.224  1.00  0.00     0.031 C 
ATOM     71  C   UNL A   1      44.265  31.183  30.393  1.00  0.00     0.031 A 
BRANCH  58  72
ATOM     72  C   UNL A   1      48.426  26.682  29.639  1.00  0.00    -0.014 A 
ATOM     73  C   UNL A   1      48.900  26.079  30.816  1.00  0.00     0.009 A 
ATOM     74  C   UNL A   1      49.305  26.844  28.558  1.00  0.00     0.009 A 
ATOM     75  C   UNL A   1      50.234  25.683  30.920  1.00  0.00     0.001 A 
ATOM     76  C   UNL A   1      50.632  26.420  28.654  1.00  0.00     0.001 A 
ATOM     77  C   UNL A   1      51.098  25.850  29.838  1.00  0.00     0.000 A 
ENDBRANCH  58  72
BRANCH  59  78
ATOM     78  C   UNL A   1      38.776  29.074  28.992  1.00  0.00    -0.014 A 
ATOM     79  C   UNL A   1      38.231  29.556  27.792  1.00  0.00     0.009 A 
ATOM     80  C   UNL A   1      37.943  28.943  30.113  1.00  0.00     0.009 A 
ATOM     81  C   UNL A   1      36.886  29.922  27.723  1.00  0.00     0.001 A 
ATOM     82  C   UNL A   1      36.591  29.285  30.033  1.00  0.00     0.001 A 
ATOM     83  C   UNL A   1      36.066  29.783  28.842  1.00  0.00     0.000 A 
ENDBRANCH  59  78
BRANCH  71  84
ATOM     84  C   UNL A   1      44.478  32.603  30.837  1.00  0.00    -0.014 A 
ATOM     85  C   UNL A   1      44.461  32.950  32.196  1.00  0.00     0.009 A 
ATOM     86  C   UNL A   1      44.731  33.600  29.883  1.00  0.00     0.009 A 
ATOM     87  C   UNL A   1      44.659  34.276  32.588  1.00  0.00     0.001 A 
ATOM     88  C   UNL A   1      44.957  34.919  30.278  1.00  0.00     0.001 A 
ATOM     89  C   UNL A   1      44.912  35.257  31.630  1.00  0.00     0.000 A 
ENDBRANCH  71  84
ENDBRANCH  45  46
ENDBRANCH  37  40
ENDBRANCH  35  36
ENDBRANCH  34  35
ENDBRANCH  33  34
ENDBRANCH   1  33
TORSDOF 16
ENDMDL
MODEL 3
REMARK VINA RESULT:     -12.8      0.742      5.631
REMARK SMILES O=C(Cc1ccccc1)Nc1cccc(C(=O)Nc2ccccc2C(=O)NCCCCNC(=O)c2ccc(-c3c4nc(c(-c5ccccc5)c5ccc([nH]5)c(-c5ccccc5)c5nc(c(-c6ccccc6)c6ccc3[nH]6)C=C5)C=C4)cc2)c1
REMARK SMILES IDX 28 1 27 2 25 3 26 4 24 6 19 7 20 8 21 9 23 10 22 11 18 12
REMARK SMILES IDX 16 13 17 14 15 16 11 17 12 18 83 19 13 20 14 21 10 22 1 23
REMARK SMILES IDX 2 24 3 26 4 27 5 28 9 29 6 30 8 31 7 32 29 33 30 34 31 35
REMARK SMILES IDX 32 36 33 37 34 39 35 40 36 41 82 42 37 43 81 44 38 45 39 46
REMARK SMILES IDX 40 47 75 48 41 49 80 50 74 51 76 52 42 53 79 54 73 55 72 56
REMARK SMILES IDX 43 58 65 59 50 60 64 61 51 62 54 63 63 64 77 65 52 66 53 67
REMARK SMILES IDX 62 69 78 70 55 71 44 72 45 73 49 74 46 75 48 76 47 77 66 78
REMARK SMILES IDX 67 79 71 80 68 81 70 82 69 83 56 84 57 85 61 86 58 87 60 88
REMARK SMILES IDX 59 89
REMARK H PARENT 27 5 18 15 10 25 32 38 76 57 54 68
REMARK Flexibility Score: inf
ROOT
ATOM      1  C   UNL A   1      36.721  22.970  24.773  1.00  0.00     0.116 C 
ENDROOT
BRANCH   1   2
ATOM      2  N   UNL A   1      35.875  22.942  25.945  1.00  0.00    -0.352 N 
ATOM      3  C   UNL A   1      34.614  22.424  26.099  1.00  0.00     0.253 C 
ATOM      4  O   UNL A   1      34.067  22.563  27.194  1.00  0.00    -0.269 OA
ATOM      5  H   UNL A   1      36.262  23.353  26.752  1.00  0.00     0.163 HD
BRANCH   3   6
ATOM      6  C   UNL A   1      33.848  21.814  24.973  1.00  0.00     0.063 A 
ATOM      7  C   UNL A   1      33.506  22.394  23.732  1.00  0.00     0.054 A 
ATOM      8  C   UNL A   1      32.620  21.694  22.889  1.00  0.00     0.027 A 
ATOM      9  C   UNL A   1      32.194  20.398  23.189  1.00  0.00     0.002 A 
ATOM     10  C   UNL A   1      33.419  20.495  25.250  1.00  0.00     0.016 A 
ATOM     11  C   UNL A   1      32.617  19.785  24.360  1.00  0.00     0.001 A 
BRANCH   7  12
ATOM     12  N   UNL A   1      33.996  23.595  23.158  1.00  0.00    -0.321 N 
ATOM     13  C   UNL A   1      33.523  24.893  23.185  1.00  0.00     0.255 C 
ATOM     14  O   UNL A   1      33.996  25.730  22.418  1.00  0.00    -0.269 OA
ATOM     15  H   UNL A   1      34.828  23.483  22.644  1.00  0.00     0.170 HD
BRANCH  13  16
ATOM     16  C   UNL A   1      32.477  25.302  24.142  1.00  0.00     0.042 A 
ATOM     17  C   UNL A   1      30.340  26.330  24.488  1.00  0.00     0.041 A 
ATOM     18  C   UNL A   1      30.691  26.574  25.822  1.00  0.00     0.026 A 
ATOM     19  C   UNL A   1      31.193  25.592  23.685  1.00  0.00     0.040 A 
ATOM     20  C   UNL A   1      31.904  26.111  26.335  1.00  0.00     0.003 A 
ATOM     21  C   UNL A   1      32.814  25.490  25.485  1.00  0.00     0.014 A 
BRANCH  17  22
ATOM     22  N   UNL A   1      29.216  26.993  23.970  1.00  0.00    -0.326 N 
ATOM     23  O   UNL A   1      30.103  28.287  22.239  1.00  0.00    -0.274 OA
ATOM     24  C   UNL A   1      29.178  27.961  22.978  1.00  0.00     0.228 C 
ATOM     25  H   UNL A   1      28.348  26.738  24.359  1.00  0.00     0.169 HD
BRANCH  24  26
ATOM     26  C   UNL A   1      27.817  28.636  22.876  1.00  0.00     0.135 C 
BRANCH  26  27
ATOM     27  C   UNL A   1      27.928  30.093  22.498  1.00  0.00    -0.039 A 
ATOM     28  C   UNL A   1      27.963  30.488  21.152  1.00  0.00     0.004 A 
ATOM     29  C   UNL A   1      28.044  31.072  23.493  1.00  0.00     0.004 A 
ATOM     30  C   UNL A   1      28.164  31.823  20.807  1.00  0.00     0.000 A 
ATOM     31  C   UNL A   1      28.215  32.413  23.145  1.00  0.00     0.000 A 
ATOM     32  C   UNL A   1      28.290  32.785  21.803  1.00  0.00     0.000 A 
ENDBRANCH  26  27
ENDBRANCH  24  26
ENDBRANCH  17  22
ENDBRANCH  13  16
ENDBRANCH   7  12
ENDBRANCH   3   6
ENDBRANCH   1   2
BRANCH   1  33
ATOM     33  C   UNL A   1      36.998  21.598  24.173  1.00  0.00     0.023 C 
BRANCH  33  34
ATOM     34  C   UNL A   1      37.600  20.555  25.118  1.00  0.00     0.023 C 
BRANCH  34  35
ATOM     35  C   UNL A   1      38.934  20.903  25.776  1.00  0.00     0.116 C 
BRANCH  35  36
ATOM     36  N   UNL A   1      39.905  19.821  25.767  1.00  0.00    -0.352 N 
ATOM     37  C   UNL A   1      41.240  19.813  26.102  1.00  0.00     0.251 C 
ATOM     38  H   UNL A   1      39.550  18.951  25.474  1.00  0.00     0.163 HD
ATOM     39  O   UNL A   1      41.920  18.812  25.918  1.00  0.00    -0.269 OA
BRANCH  37  40
ATOM     40  C   UNL A   1      41.876  21.034  26.646  1.00  0.00     0.039 A 
ATOM     41  C   UNL A   1      42.379  21.983  25.752  1.00  0.00     0.014 A 
ATOM     42  C   UNL A   1      41.965  21.253  28.022  1.00  0.00     0.014 A 
ATOM     43  C   UNL A   1      42.862  23.201  26.235  1.00  0.00     0.010 A 
ATOM     44  C   UNL A   1      42.372  22.498  28.499  1.00  0.00     0.010 A 
ATOM     45  C   UNL A   1      42.805  23.493  27.609  1.00  0.00    -0.014 A 
BRANCH  45  46
ATOM     46  C   UNL A   1      43.135  24.849  28.118  1.00  0.00     0.031 A 
ATOM     47  C   UNL A   1      42.060  25.876  28.338  1.00  0.00     0.074 A 
ATOM     48  C   UNL A   1      44.428  25.184  28.311  1.00  0.00     0.049 A 
ATOM     49  N   UNL A   1      42.177  27.118  28.737  1.00  0.00    -0.248 NA
ATOM     50  C   UNL A   1      40.678  25.464  28.049  1.00  0.00     0.031 C 
ATOM     51  C   UNL A   1      45.576  24.304  28.079  1.00  0.00     0.029 A 
ATOM     52  N   UNL A   1      44.995  26.358  28.742  1.00  0.00    -0.354 N 
ATOM     53  C   UNL A   1      40.889  27.639  28.731  1.00  0.00     0.074 A 
ATOM     54  C   UNL A   1      40.014  26.593  28.243  1.00  0.00     0.031 C 
ATOM     55  C   UNL A   1      46.704  24.955  28.404  1.00  0.00     0.029 A 
ATOM     56  C   UNL A   1      46.365  26.309  28.828  1.00  0.00     0.049 A 
ATOM     57  H   UNL A   1      44.468  27.159  28.968  1.00  0.00     0.167 HD
ATOM     58  C   UNL A   1      40.467  28.868  29.114  1.00  0.00     0.031 A 
ATOM     59  C   UNL A   1      47.254  27.248  29.206  1.00  0.00     0.031 A 
ATOM     60  C   UNL A   1      41.332  29.907  29.610  1.00  0.00     0.049 A 
ATOM     61  C   UNL A   1      46.760  28.603  29.628  1.00  0.00     0.074 A 
ATOM     62  C   UNL A   1      40.987  31.160  30.085  1.00  0.00     0.029 A 
ATOM     63  N   UNL A   1      42.712  29.813  29.692  1.00  0.00    -0.354 N 
ATOM     64  N   UNL A   1      45.531  29.052  29.690  1.00  0.00    -0.248 NA
ATOM     65  C   UNL A   1      47.781  29.576  30.042  1.00  0.00     0.031 C 
ATOM     66  C   UNL A   1      42.164  31.843  30.411  1.00  0.00     0.029 A 
ATOM     67  C   UNL A   1      43.237  30.996  30.187  1.00  0.00     0.049 A 
ATOM     68  H   UNL A   1      43.241  29.023  29.437  1.00  0.00     0.167 HD
ATOM     69  C   UNL A   1      45.627  30.350  30.172  1.00  0.00     0.074 A 
ATOM     70  C   UNL A   1      47.034  30.610  30.401  1.00  0.00     0.031 C 
ATOM     71  C   UNL A   1      44.637  31.245  30.404  1.00  0.00     0.031 A 
BRANCH  58  72
ATOM     72  C   UNL A   1      38.996  29.156  29.008  1.00  0.00    -0.014 A 
ATOM     73  C   UNL A   1      38.139  28.969  30.105  1.00  0.00     0.009 A 
ATOM     74  C   UNL A   1      38.464  29.650  27.807  1.00  0.00     0.009 A 
ATOM     75  C   UNL A   1      36.773  29.234  29.988  1.00  0.00     0.001 A 
ATOM     76  C   UNL A   1      37.103  29.941  27.702  1.00  0.00     0.001 A 
ATOM     77  C   UNL A   1      36.257  29.722  28.789  1.00  0.00     0.000 A 
ENDBRANCH  58  72
BRANCH  59  78
ATOM     78  C   UNL A   1      48.705  26.931  29.228  1.00  0.00    -0.014 A 
ATOM     79  C   UNL A   1      49.502  27.179  28.100  1.00  0.00     0.009 A 
ATOM     80  C   UNL A   1      49.299  26.376  30.371  1.00  0.00     0.009 A 
ATOM     81  C   UNL A   1      50.859  26.856  28.107  1.00  0.00     0.001 A 
ATOM     82  C   UNL A   1      50.664  26.079  30.385  1.00  0.00     0.001 A 
ATOM     83  C   UNL A   1      51.440  26.310  29.252  1.00  0.00     0.000 A 
ENDBRANCH  59  78
BRANCH  71  84
ATOM     84  C   UNL A   1      45.040  32.583  30.958  1.00  0.00    -0.014 A 
ATOM     85  C   UNL A   1      45.089  32.812  32.342  1.00  0.00     0.009 A 
ATOM     86  C   UNL A   1      45.404  33.617  30.083  1.00  0.00     0.009 A 
ATOM     87  C   UNL A   1      45.464  34.063  32.836  1.00  0.00     0.001 A 
ATOM     88  C   UNL A   1      45.806  34.857  30.581  1.00  0.00     0.001 A 
ATOM     89  C   UNL A   1      45.826  35.082  31.957  1.00  0.00     0.000 A 
ENDBRANCH  71  84
ENDBRANCH  45  46
ENDBRANCH  37  40
ENDBRANCH  35  36
ENDBRANCH  34  35
ENDBRANCH  33  34
ENDBRANCH   1  33
TORSDOF 16
ENDMDL
