MODEL 1
REMARK VINA RESULT:     -12.8      0.000      0.000
REMARK SMILES Cc1ccc(-c2cc(Cl)cc3c2O[C@@H](C(F)(F)F)C(C(=O)NCCCCNC(=O)c2ccc(-c4c5nc(c(-c6ccccc6)c6ccc([nH]6)c(-c6ccccc6)c6nc(c(-c7ccccc7)c7ccc4[nH]7)C=C6)C=C5)cc2)=C3)cc1
REMARK SMILES IDX 25 1 24 2 23 3 22 4 20 5 21 6 19 8 6 9 7 10 12 11 8 12 11 13
REMARK SMILES IDX 13 14 9 15 10 16 78 17 14 18 5 19 1 20 2 21 3 22 80 23 4 24
REMARK SMILES IDX 79 25 15 26 16 27 17 28 18 29 26 30 27 31 28 32 29 34 30 35
REMARK SMILES IDX 31 36 77 37 32 38 76 39 33 40 34 41 35 42 70 43 36 44 75 45
REMARK SMILES IDX 69 46 71 47 37 48 74 49 68 50 67 51 38 53 60 54 45 55 59 56
REMARK SMILES IDX 46 57 49 58 58 59 72 60 47 61 48 62 57 64 73 65 50 66 39 67
REMARK SMILES IDX 40 68 44 69 41 70 43 71 42 72 61 73 62 74 66 75 63 76 65 77
REMARK SMILES IDX 64 78 51 79 52 80 56 81 53 82 55 83 54 84
REMARK H PARENT 22 7 27 33 71 52 49 63
REMARK Flexibility Score: inf
ROOT
ATOM      1  C   UNL A   1      37.886  22.658  24.982  1.00  0.00     0.023 C 
ENDROOT
BRANCH   1   2
ATOM      2  C   UNL A   1      36.840  23.749  25.238  1.00  0.00     0.023 C 
BRANCH   2   3
ATOM      3  C   UNL A   1      35.394  23.322  25.546  1.00  0.00     0.116 C 
BRANCH   3   4
ATOM      4  N   UNL A   1      34.474  24.385  25.923  1.00  0.00    -0.352 N 
ATOM      5  C   UNL A   1      33.105  24.475  25.907  1.00  0.00     0.251 C 
ATOM      6  O   UNL A   1      32.594  25.145  26.811  1.00  0.00    -0.270 OA
ATOM      7  H   UNL A   1      34.920  25.197  26.253  1.00  0.00     0.163 HD
BRANCH   5   8
ATOM      8  C   UNL A   1      32.213  23.920  24.788  1.00  0.00     0.067 C 
ATOM      9  C   UNL A   1      31.808  27.787  23.903  1.00  0.00     0.026 A 
ATOM     10  C   UNL A   1      30.580  28.319  23.461  1.00  0.00     0.033 A 
ATOM     11  C   UNL A   1      31.866  26.396  23.922  1.00  0.00     0.135 A 
ATOM     12  C   UNL A   1      29.429  27.523  23.464  1.00  0.00     0.042 A 
ATOM     13  C   UNL A   1      30.707  25.667  24.285  1.00  0.00     0.019 A 
ATOM     14  O   UNL A   1      32.998  25.701  23.432  1.00  0.00    -0.475 OA
ATOM     15  Cl  UNL A   1      27.924  28.212  22.991  1.00  0.00    -0.084 Cl
ATOM     16  C   UNL A   1      29.470  26.223  23.978  1.00  0.00     0.032 A 
ATOM     17  C   UNL A   1      30.912  24.310  24.908  1.00  0.00     0.025 C 
ATOM     18  C   UNL A   1      32.659  24.276  23.383  1.00  0.00     0.314 C 
BRANCH   9  19
ATOM     19  C   UNL A   1      32.389  28.539  25.060  1.00  0.00    -0.015 A 
ATOM     20  C   UNL A   1      34.093  31.297  27.955  1.00  0.00     0.044 C 
ATOM     21  C   UNL A   1      33.480  30.313  26.999  1.00  0.00    -0.051 A 
ATOM     22  C   UNL A   1      34.177  29.166  26.585  1.00  0.00     0.004 A 
ATOM     23  C   UNL A   1      32.205  30.537  26.494  1.00  0.00     0.004 A 
ATOM     24  C   UNL A   1      33.641  28.287  25.621  1.00  0.00     0.009 A 
ATOM     25  C   UNL A   1      31.670  29.660  25.550  1.00  0.00     0.009 A 
ENDBRANCH   9  19
BRANCH  18  26
ATOM     26  C   UNL A   1      33.508  23.213  22.671  1.00  0.00     0.429 C 
ATOM     27  F   UNL A   1      34.810  23.611  22.617  1.00  0.00    -0.167 F 
ATOM     28  F   UNL A   1      33.493  22.010  23.270  1.00  0.00    -0.167 F 
ATOM     29  F   UNL A   1      33.146  23.048  21.374  1.00  0.00    -0.167 F 
ENDBRANCH  18  26
ENDBRANCH   5   8
ENDBRANCH   3   4
ENDBRANCH   2   3
ENDBRANCH   1   2
BRANCH   1  30
ATOM     30  C   UNL A   1      38.649  22.133  26.190  1.00  0.00     0.116 C 
BRANCH  30  31
ATOM     31  N   UNL A   1      40.094  22.307  26.213  1.00  0.00    -0.352 N 
ATOM     32  C   UNL A   1      40.831  23.489  26.331  1.00  0.00     0.251 C 
ATOM     33  H   UNL A   1      40.624  21.481  26.135  1.00  0.00     0.163 HD
ATOM     34  O   UNL A   1      42.039  23.465  26.212  1.00  0.00    -0.269 OA
BRANCH  32  35
ATOM     35  C   UNL A   1      40.151  24.752  26.752  1.00  0.00     0.039 A 
ATOM     36  C   UNL A   1      40.530  25.943  26.118  1.00  0.00     0.014 A 
ATOM     37  C   UNL A   1      39.366  24.811  27.896  1.00  0.00     0.014 A 
ATOM     38  C   UNL A   1      40.397  27.153  26.798  1.00  0.00     0.010 A 
ATOM     39  C   UNL A   1      39.361  25.974  28.634  1.00  0.00     0.010 A 
ATOM     40  C   UNL A   1      39.939  27.130  28.112  1.00  0.00    -0.014 A 
BRANCH  40  41
ATOM     41  C   UNL A   1      40.129  28.222  29.056  1.00  0.00     0.031 A 
ATOM     42  C   UNL A   1      39.069  29.222  29.262  1.00  0.00     0.074 A 
ATOM     43  C   UNL A   1      41.251  28.269  29.807  1.00  0.00     0.049 A 
ATOM     44  N   UNL A   1      39.288  30.440  29.624  1.00  0.00    -0.248 NA
ATOM     45  C   UNL A   1      37.659  28.927  29.035  1.00  0.00     0.031 C 
ATOM     46  C   UNL A   1      41.515  29.117  30.965  1.00  0.00     0.029 A 
ATOM     47  N   UNL A   1      42.477  27.673  29.531  1.00  0.00    -0.354 N 
ATOM     48  C   UNL A   1      38.073  30.984  29.972  1.00  0.00     0.074 A 
ATOM     49  C   UNL A   1      37.086  30.040  29.499  1.00  0.00     0.031 C 
ATOM     50  C   UNL A   1      42.843  29.187  31.157  1.00  0.00     0.029 A 
ATOM     51  C   UNL A   1      43.486  28.499  30.049  1.00  0.00     0.049 A 
ATOM     52  H   UNL A   1      42.613  26.821  29.057  1.00  0.00     0.167 HD
ATOM     53  C   UNL A   1      38.032  32.091  30.765  1.00  0.00     0.031 A 
ATOM     54  C   UNL A   1      44.408  29.063  29.215  1.00  0.00     0.031 A 
ATOM     55  C   UNL A   1      39.373  32.565  31.104  1.00  0.00     0.049 A 
ATOM     56  C   UNL A   1      44.318  30.573  29.141  1.00  0.00     0.074 A 
ATOM     57  C   UNL A   1      40.154  32.428  32.241  1.00  0.00     0.029 A 
ATOM     58  N   UNL A   1      40.218  33.017  30.098  1.00  0.00    -0.354 N 
ATOM     59  N   UNL A   1      43.310  31.270  29.588  1.00  0.00    -0.248 NA
ATOM     60  C   UNL A   1      45.341  31.416  28.527  1.00  0.00     0.031 C 
ATOM     61  C   UNL A   1      41.495  32.741  31.893  1.00  0.00     0.029 A 
ATOM     62  C   UNL A   1      41.520  33.095  30.556  1.00  0.00     0.049 A 
ATOM     63  H   UNL A   1      39.930  33.248  29.186  1.00  0.00     0.167 HD
ATOM     64  C   UNL A   1      43.513  32.600  29.332  1.00  0.00     0.074 A 
ATOM     65  C   UNL A   1      44.811  32.642  28.683  1.00  0.00     0.031 C 
ATOM     66  C   UNL A   1      42.588  33.547  29.671  1.00  0.00     0.031 A 
BRANCH  53  67
ATOM     67  C   UNL A   1      36.780  32.538  31.481  1.00  0.00    -0.014 A 
ATOM     68  C   UNL A   1      35.796  33.259  30.780  1.00  0.00     0.009 A 
ATOM     69  C   UNL A   1      36.529  32.328  32.848  1.00  0.00     0.009 A 
ATOM     70  C   UNL A   1      34.689  33.829  31.425  1.00  0.00     0.001 A 
ATOM     71  C   UNL A   1      35.451  32.932  33.510  1.00  0.00     0.001 A 
ATOM     72  C   UNL A   1      34.536  33.694  32.798  1.00  0.00     0.000 A 
ENDBRANCH  53  67
BRANCH  54  73
ATOM     73  C   UNL A   1      44.806  28.165  28.094  1.00  0.00    -0.014 A 
ATOM     74  C   UNL A   1      45.499  26.980  28.414  1.00  0.00     0.009 A 
ATOM     75  C   UNL A   1      44.175  28.253  26.845  1.00  0.00     0.009 A 
ATOM     76  C   UNL A   1      45.454  25.871  27.564  1.00  0.00     0.001 A 
ATOM     77  C   UNL A   1      44.139  27.140  25.993  1.00  0.00     0.001 A 
ATOM     78  C   UNL A   1      44.743  25.940  26.370  1.00  0.00     0.000 A 
ENDBRANCH  54  73
BRANCH  66  79
ATOM     79  C   UNL A   1      42.602  35.008  29.277  1.00  0.00    -0.014 A 
ATOM     80  C   UNL A   1      43.360  36.001  29.910  1.00  0.00     0.009 A 
ATOM     81  C   UNL A   1      41.898  35.403  28.114  1.00  0.00     0.009 A 
ATOM     82  C   UNL A   1      43.380  37.320  29.433  1.00  0.00     0.001 A 
ATOM     83  C   UNL A   1      41.955  36.703  27.607  1.00  0.00     0.001 A 
ATOM     84  C   UNL A   1      42.688  37.668  28.277  1.00  0.00     0.000 A 
ENDBRANCH  66  79
ENDBRANCH  40  41
ENDBRANCH  32  35
ENDBRANCH  30  31
ENDBRANCH   1  30
TORSDOF 13
ENDMDL
MODEL 2
REMARK VINA RESULT:     -12.8      3.221      8.460
REMARK SMILES Cc1ccc(-c2cc(Cl)cc3c2O[C@@H](C(F)(F)F)C(C(=O)NCCCCNC(=O)c2ccc(-c4c5nc(c(-c6ccccc6)c6ccc([nH]6)c(-c6ccccc6)c6nc(c(-c7ccccc7)c7ccc4[nH]7)C=C6)C=C5)cc2)=C3)cc1
REMARK SMILES IDX 25 1 24 2 23 3 22 4 20 5 21 6 19 8 6 9 7 10 12 11 8 12 11 13
REMARK SMILES IDX 13 14 9 15 10 16 78 17 14 18 5 19 1 20 2 21 3 22 80 23 4 24
REMARK SMILES IDX 79 25 15 26 16 27 17 28 18 29 26 30 27 31 28 32 29 34 30 35
REMARK SMILES IDX 31 36 77 37 32 38 76 39 33 40 34 41 35 42 70 43 36 44 75 45
REMARK SMILES IDX 69 46 71 47 37 48 74 49 68 50 67 51 38 53 60 54 45 55 59 56
REMARK SMILES IDX 46 57 49 58 58 59 72 60 47 61 48 62 57 64 73 65 50 66 39 67
REMARK SMILES IDX 40 68 44 69 41 70 43 71 42 72 61 73 62 74 66 75 63 76 65 77
REMARK SMILES IDX 64 78 51 79 52 80 56 81 53 82 55 83 54 84
REMARK H PARENT 22 7 27 33 71 52 49 63
REMARK Flexibility Score: inf
ROOT
ATOM      1  C   UNL A   1      33.134  29.758  27.345  1.00  0.00     0.023 C 
ENDROOT
BRANCH   1   2
ATOM      2  C   UNL A   1      33.624  28.377  26.894  1.00  0.00     0.023 C 
BRANCH   2   3
ATOM      3  C   UNL A   1      33.362  27.944  25.440  1.00  0.00     0.116 C 
BRANCH   3   4
ATOM      4  N   UNL A   1      34.000  26.708  25.011  1.00  0.00    -0.352 N 
ATOM      5  C   UNL A   1      33.661  25.769  24.071  1.00  0.00     0.251 C 
ATOM      6  O   UNL A   1      34.602  25.227  23.481  1.00  0.00    -0.270 OA
ATOM      7  H   UNL A   1      34.837  26.507  25.488  1.00  0.00     0.163 HD
BRANCH   5   8
ATOM      8  C   UNL A   1      32.231  25.272  23.816  1.00  0.00     0.067 C 
ATOM      9  C   UNL A   1      33.697  21.879  25.311  1.00  0.00     0.026 A 
ATOM     10  C   UNL A   1      33.318  20.622  24.799  1.00  0.00     0.033 A 
ATOM     11  C   UNL A   1      32.916  22.945  24.871  1.00  0.00     0.135 A 
ATOM     12  C   UNL A   1      32.525  20.543  23.648  1.00  0.00     0.042 A 
ATOM     13  C   UNL A   1      32.434  22.937  23.539  1.00  0.00     0.019 A 
ATOM     14  O   UNL A   1      32.464  23.944  25.767  1.00  0.00    -0.475 OA
ATOM     15  Cl  UNL A   1      32.135  18.999  22.995  1.00  0.00    -0.084 Cl
ATOM     16  C   UNL A   1      32.170  21.704  22.954  1.00  0.00     0.032 A 
ATOM     17  C   UNL A   1      32.176  24.274  22.891  1.00  0.00     0.025 C 
ATOM     18  C   UNL A   1      31.499  24.782  25.051  1.00  0.00     0.314 C 
BRANCH   9  19
ATOM     19  C   UNL A   1      35.181  22.062  25.374  1.00  0.00    -0.015 A 
ATOM     20  C   UNL A   1      39.476  22.033  26.039  1.00  0.00     0.044 C 
ATOM     21  C   UNL A   1      38.001  22.066  25.755  1.00  0.00    -0.051 A 
ATOM     22  C   UNL A   1      37.218  23.184  26.087  1.00  0.00     0.004 A 
ATOM     23  C   UNL A   1      37.381  20.969  25.167  1.00  0.00     0.004 A 
ATOM     24  C   UNL A   1      35.820  23.183  25.903  1.00  0.00     0.009 A 
ATOM     25  C   UNL A   1      36.000  20.975  24.974  1.00  0.00     0.009 A 
ENDBRANCH   9  19
BRANCH  18  26
ATOM     26  C   UNL A   1      30.582  25.811  25.726  1.00  0.00     0.429 C 
ATOM     27  F   UNL A   1      31.187  26.320  26.836  1.00  0.00    -0.167 F 
ATOM     28  F   UNL A   1      30.261  26.855  24.944  1.00  0.00    -0.167 F 
ATOM     29  F   UNL A   1      29.433  25.254  26.188  1.00  0.00    -0.167 F 
ENDBRANCH  18  26
ENDBRANCH   5   8
ENDBRANCH   3   4
ENDBRANCH   2   3
ENDBRANCH   1   2
BRANCH   1  30
ATOM     30  C   UNL A   1      34.012  30.952  26.997  1.00  0.00     0.116 C 
BRANCH  30  31
ATOM     31  N   UNL A   1      34.551  31.744  28.092  1.00  0.00    -0.352 N 
ATOM     32  C   UNL A   1      35.545  31.402  29.013  1.00  0.00     0.251 C 
ATOM     33  H   UNL A   1      34.163  32.642  28.199  1.00  0.00     0.163 HD
ATOM     34  O   UNL A   1      35.792  32.142  29.944  1.00  0.00    -0.269 OA
BRANCH  32  35
ATOM     35  C   UNL A   1      36.404  30.202  28.770  1.00  0.00     0.039 A 
ATOM     36  C   UNL A   1      36.639  29.336  29.847  1.00  0.00     0.014 A 
ATOM     37  C   UNL A   1      37.160  30.069  27.613  1.00  0.00     0.014 A 
ATOM     38  C   UNL A   1      37.811  28.581  29.874  1.00  0.00     0.010 A 
ATOM     39  C   UNL A   1      38.384  29.444  27.692  1.00  0.00     0.010 A 
ATOM     40  C   UNL A   1      38.740  28.756  28.852  1.00  0.00    -0.014 A 
BRANCH  40  41
ATOM     41  C   UNL A   1      40.138  28.365  28.950  1.00  0.00     0.031 A 
ATOM     42  C   UNL A   1      40.599  27.094  28.368  1.00  0.00     0.074 A 
ATOM     43  C   UNL A   1      41.032  29.212  29.506  1.00  0.00     0.049 A 
ATOM     44  N   UNL A   1      41.603  26.420  28.814  1.00  0.00    -0.248 NA
ATOM     45  C   UNL A   1      39.925  26.458  27.242  1.00  0.00     0.031 C 
ATOM     46  C   UNL A   1      42.488  29.120  29.472  1.00  0.00     0.029 A 
ATOM     47  N   UNL A   1      40.773  30.244  30.400  1.00  0.00    -0.354 N 
ATOM     48  C   UNL A   1      41.894  25.458  27.874  1.00  0.00     0.074 A 
ATOM     49  C   UNL A   1      40.769  25.461  26.967  1.00  0.00     0.031 C 
ATOM     50  C   UNL A   1      42.992  29.869  30.467  1.00  0.00     0.029 A 
ATOM     51  C   UNL A   1      41.876  30.359  31.260  1.00  0.00     0.049 A 
ATOM     52  H   UNL A   1      39.960  30.798  30.425  1.00  0.00     0.167 HD
ATOM     53  C   UNL A   1      43.126  24.875  27.865  1.00  0.00     0.031 A 
ATOM     54  C   UNL A   1      41.727  30.151  32.601  1.00  0.00     0.031 A 
ATOM     55  C   UNL A   1      43.971  25.376  28.947  1.00  0.00     0.049 A 
ATOM     56  C   UNL A   1      42.466  28.933  33.114  1.00  0.00     0.074 A 
ATOM     57  C   UNL A   1      44.996  26.308  28.979  1.00  0.00     0.029 A 
ATOM     58  N   UNL A   1      43.604  25.151  30.268  1.00  0.00    -0.354 N 
ATOM     59  N   UNL A   1      42.969  28.004  32.348  1.00  0.00    -0.248 NA
ATOM     60  C   UNL A   1      42.669  28.647  34.532  1.00  0.00     0.031 C 
ATOM     61  C   UNL A   1      45.200  26.692  30.331  1.00  0.00     0.029 A 
ATOM     62  C   UNL A   1      44.320  25.971  31.119  1.00  0.00     0.049 A 
ATOM     63  H   UNL A   1      42.927  24.498  30.558  1.00  0.00     0.167 HD
ATOM     64  C   UNL A   1      43.533  27.021  33.117  1.00  0.00     0.074 A 
ATOM     65  C   UNL A   1      43.336  27.480  34.480  1.00  0.00     0.031 C 
ATOM     66  C   UNL A   1      44.104  25.911  32.560  1.00  0.00     0.031 A 
BRANCH  53  67
ATOM     67  C   UNL A   1      43.652  24.094  26.684  1.00  0.00    -0.014 A 
ATOM     68  C   UNL A   1      44.737  24.597  25.943  1.00  0.00     0.009 A 
ATOM     69  C   UNL A   1      43.100  22.888  26.221  1.00  0.00     0.009 A 
ATOM     70  C   UNL A   1      45.168  23.996  24.753  1.00  0.00     0.001 A 
ATOM     71  C   UNL A   1      43.494  22.304  25.008  1.00  0.00     0.001 A 
ATOM     72  C   UNL A   1      44.523  22.867  24.267  1.00  0.00     0.000 A 
ENDBRANCH  53  67
BRANCH  54  73
ATOM     73  C   UNL A   1      40.428  30.658  33.128  1.00  0.00    -0.014 A 
ATOM     74  C   UNL A   1      40.138  32.027  32.955  1.00  0.00     0.009 A 
ATOM     75  C   UNL A   1      39.369  29.780  33.396  1.00  0.00     0.009 A 
ATOM     76  C   UNL A   1      38.816  32.482  32.924  1.00  0.00     0.001 A 
ATOM     77  C   UNL A   1      38.045  30.243  33.371  1.00  0.00     0.001 A 
ATOM     78  C   UNL A   1      37.769  31.582  33.097  1.00  0.00     0.000 A 
ENDBRANCH  54  73
BRANCH  66  79
ATOM     79  C   UNL A   1      44.583  24.676  33.292  1.00  0.00    -0.014 A 
ATOM     80  C   UNL A   1      43.857  23.485  33.412  1.00  0.00     0.009 A 
ATOM     81  C   UNL A   1      45.905  24.658  33.798  1.00  0.00     0.009 A 
ATOM     82  C   UNL A   1      44.404  22.356  34.039  1.00  0.00     0.001 A 
ATOM     83  C   UNL A   1      46.472  23.522  34.378  1.00  0.00     0.001 A 
ATOM     84  C   UNL A   1      45.714  22.370  34.510  1.00  0.00     0.000 A 
ENDBRANCH  66  79
ENDBRANCH  40  41
ENDBRANCH  32  35
ENDBRANCH  30  31
ENDBRANCH   1  30
TORSDOF 13
ENDMDL
MODEL 3
REMARK VINA RESULT:     -12.2      4.516      9.134
REMARK SMILES Cc1ccc(-c2cc(Cl)cc3c2O[C@@H](C(F)(F)F)C(C(=O)NCCCCNC(=O)c2ccc(-c4c5nc(c(-c6ccccc6)c6ccc([nH]6)c(-c6ccccc6)c6nc(c(-c7ccccc7)c7ccc4[nH]7)C=C6)C=C5)cc2)=C3)cc1
REMARK SMILES IDX 25 1 24 2 23 3 22 4 20 5 21 6 19 8 6 9 7 10 12 11 8 12 11 13
REMARK SMILES IDX 13 14 9 15 10 16 78 17 14 18 5 19 1 20 2 21 3 22 80 23 4 24
REMARK SMILES IDX 79 25 15 26 16 27 17 28 18 29 26 30 27 31 28 32 29 34 30 35
REMARK SMILES IDX 31 36 77 37 32 38 76 39 33 40 34 41 35 42 70 43 36 44 75 45
REMARK SMILES IDX 69 46 71 47 37 48 74 49 68 50 67 51 38 53 60 54 45 55 59 56
REMARK SMILES IDX 46 57 49 58 58 59 72 60 47 61 48 62 57 64 73 65 50 66 39 67
REMARK SMILES IDX 40 68 44 69 41 70 43 71 42 72 61 73 62 74 66 75 63 76 65 77
REMARK SMILES IDX 64 78 51 79 52 80 56 81 53 82 55 83 54 84
REMARK H PARENT 22 7 27 33 71 52 49 63
REMARK Flexibility Score: inf
ROOT
ATOM      1  C   UNL A   1      37.953  23.931  25.909  1.00  0.00     0.023 C 
ENDROOT
BRANCH   1   2
ATOM      2  C   UNL A   1      36.609  23.239  26.161  1.00  0.00     0.023 C 
BRANCH   2   3
ATOM      3  C   UNL A   1      35.430  23.560  25.225  1.00  0.00     0.116 C 
BRANCH   3   4
ATOM      4  N   UNL A   1      34.445  24.507  25.730  1.00  0.00    -0.352 N 
ATOM      5  C   UNL A   1      33.075  24.474  25.790  1.00  0.00     0.251 C 
ATOM      6  O   UNL A   1      32.562  25.027  26.768  1.00  0.00    -0.270 OA
ATOM      7  H   UNL A   1      34.839  25.329  26.099  1.00  0.00     0.163 HD
BRANCH   5   8
ATOM      8  C   UNL A   1      32.171  23.926  24.677  1.00  0.00     0.067 C 
ATOM      9  C   UNL A   1      31.717  27.800  23.849  1.00  0.00     0.026 A 
ATOM     10  C   UNL A   1      30.478  28.326  23.433  1.00  0.00     0.033 A 
ATOM     11  C   UNL A   1      31.788  26.409  23.849  1.00  0.00     0.135 A 
ATOM     12  C   UNL A   1      29.334  27.519  23.443  1.00  0.00     0.042 A 
ATOM     13  C   UNL A   1      30.641  25.665  24.220  1.00  0.00     0.019 A 
ATOM     14  O   UNL A   1      32.919  25.731  23.333  1.00  0.00    -0.475 OA
ATOM     15  Cl  UNL A   1      27.816  28.200  23.003  1.00  0.00    -0.084 Cl
ATOM     16  C   UNL A   1      29.394  26.213  23.940  1.00  0.00     0.032 A 
ATOM     17  C   UNL A   1      30.869  24.301  24.823  1.00  0.00     0.025 C 
ATOM     18  C   UNL A   1      32.593  24.304  23.270  1.00  0.00     0.314 C 
BRANCH   9  19
ATOM     19  C   UNL A   1      32.309  28.542  25.007  1.00  0.00    -0.015 A 
ATOM     20  C   UNL A   1      34.061  31.270  27.901  1.00  0.00     0.044 C 
ATOM     21  C   UNL A   1      33.431  30.297  26.946  1.00  0.00    -0.051 A 
ATOM     22  C   UNL A   1      34.102  29.132  26.541  1.00  0.00     0.004 A 
ATOM     23  C   UNL A   1      32.164  30.549  26.432  1.00  0.00     0.004 A 
ATOM     24  C   UNL A   1      33.551  28.262  25.577  1.00  0.00     0.009 A 
ATOM     25  C   UNL A   1      31.614  29.681  25.488  1.00  0.00     0.009 A 
ENDBRANCH   9  19
BRANCH  18  26
ATOM     26  C   UNL A   1      33.439  23.258  22.532  1.00  0.00     0.429 C 
ATOM     27  F   UNL A   1      34.732  23.679  22.444  1.00  0.00    -0.167 F 
ATOM     28  F   UNL A   1      33.462  22.053  23.128  1.00  0.00    -0.167 F 
ATOM     29  F   UNL A   1      33.045  23.090  21.244  1.00  0.00    -0.167 F 
ENDBRANCH  18  26
ENDBRANCH   5   8
ENDBRANCH   3   4
ENDBRANCH   2   3
ENDBRANCH   1   2
BRANCH   1  30
ATOM     30  C   UNL A   1      39.118  23.525  26.800  1.00  0.00     0.116 C 
BRANCH  30  31
ATOM     31  N   UNL A   1      40.057  22.538  26.288  1.00  0.00    -0.352 N 
ATOM     32  C   UNL A   1      41.442  22.475  26.463  1.00  0.00     0.251 C 
ATOM     33  H   UNL A   1      39.664  21.818  25.744  1.00  0.00     0.163 HD
ATOM     34  O   UNL A   1      42.093  21.644  25.862  1.00  0.00    -0.269 OA
BRANCH  32  35
ATOM     35  C   UNL A   1      42.102  23.327  27.499  1.00  0.00     0.039 A 
ATOM     36  C   UNL A   1      42.137  24.712  27.284  1.00  0.00     0.014 A 
ATOM     37  C   UNL A   1      42.880  22.776  28.508  1.00  0.00     0.014 A 
ATOM     38  C   UNL A   1      43.165  25.466  27.848  1.00  0.00     0.010 A 
ATOM     39  C   UNL A   1      43.979  23.478  28.953  1.00  0.00     0.010 A 
ATOM     40  C   UNL A   1      44.158  24.805  28.565  1.00  0.00    -0.014 A 
BRANCH  40  41
ATOM     41  C   UNL A   1      45.466  25.376  28.853  1.00  0.00     0.031 A 
ATOM     42  C   UNL A   1      46.616  25.081  27.983  1.00  0.00     0.074 A 
ATOM     43  C   UNL A   1      45.605  26.247  29.876  1.00  0.00     0.049 A 
ATOM     44  N   UNL A   1      47.840  25.072  28.386  1.00  0.00    -0.248 NA
ATOM     45  C   UNL A   1      46.464  24.730  26.577  1.00  0.00     0.031 C 
ATOM     46  C   UNL A   1      46.747  27.107  30.168  1.00  0.00     0.029 A 
ATOM     47  N   UNL A   1      44.784  26.378  30.991  1.00  0.00    -0.354 N 
ATOM     48  C   UNL A   1      48.636  25.027  27.265  1.00  0.00     0.074 A 
ATOM     49  C   UNL A   1      47.737  24.719  26.175  1.00  0.00     0.031 C 
ATOM     50  C   UNL A   1      46.689  27.483  31.456  1.00  0.00     0.029 A 
ATOM     51  C   UNL A   1      45.584  26.768  32.075  1.00  0.00     0.049 A 
ATOM     52  H   UNL A   1      43.812  26.224  31.015  1.00  0.00     0.167 HD
ATOM     53  C   UNL A   1      49.939  25.414  27.347  1.00  0.00     0.031 A 
ATOM     54  C   UNL A   1      45.698  25.962  33.172  1.00  0.00     0.031 A 
ATOM     55  C   UNL A   1      50.306  25.802  28.707  1.00  0.00     0.049 A 
ATOM     56  C   UNL A   1      47.090  25.404  33.374  1.00  0.00     0.074 A 
ATOM     57  C   UNL A   1      50.451  27.036  29.322  1.00  0.00     0.029 A 
ATOM     58  N   UNL A   1      50.267  24.859  29.727  1.00  0.00    -0.354 N 
ATOM     59  N   UNL A   1      48.032  25.438  32.473  1.00  0.00    -0.248 NA
ATOM     60  C   UNL A   1      47.523  24.733  34.598  1.00  0.00     0.031 C 
ATOM     61  C   UNL A   1      50.436  26.833  30.727  1.00  0.00     0.029 A 
ATOM     62  C   UNL A   1      50.310  25.475  30.963  1.00  0.00     0.049 A 
ATOM     63  H   UNL A   1      50.215  23.885  29.588  1.00  0.00     0.167 HD
ATOM     64  C   UNL A   1      49.155  24.814  32.948  1.00  0.00     0.074 A 
ATOM     65  C   UNL A   1      48.792  24.406  34.293  1.00  0.00     0.031 C 
ATOM     66  C   UNL A   1      50.282  24.681  32.186  1.00  0.00     0.031 A 
BRANCH  53  67
ATOM     67  C   UNL A   1      50.775  25.738  26.130  1.00  0.00    -0.014 A 
ATOM     68  C   UNL A   1      52.037  25.137  25.971  1.00  0.00     0.009 A 
ATOM     69  C   UNL A   1      50.403  26.657  25.134  1.00  0.00     0.009 A 
ATOM     70  C   UNL A   1      52.916  25.512  24.947  1.00  0.00     0.001 A 
ATOM     71  C   UNL A   1      51.293  27.072  24.133  1.00  0.00     0.001 A 
ATOM     72  C   UNL A   1      52.556  26.507  24.047  1.00  0.00     0.000 A 
ENDBRANCH  53  67
BRANCH  54  73
ATOM     73  C   UNL A   1      44.428  25.261  33.512  1.00  0.00    -0.014 A 
ATOM     74  C   UNL A   1      44.332  23.888  33.209  1.00  0.00     0.009 A 
ATOM     75  C   UNL A   1      43.540  25.800  34.455  1.00  0.00     0.009 A 
ATOM     76  C   UNL A   1      43.462  23.054  33.919  1.00  0.00     0.001 A 
ATOM     77  C   UNL A   1      42.664  24.960  35.159  1.00  0.00     0.001 A 
ATOM     78  C   UNL A   1      42.655  23.586  34.919  1.00  0.00     0.000 A 
ENDBRANCH  54  73
BRANCH  66  79
ATOM     79  C   UNL A   1      51.506  23.856  32.516  1.00  0.00    -0.014 A 
ATOM     80  C   UNL A   1      51.503  22.475  32.744  1.00  0.00     0.009 A 
ATOM     81  C   UNL A   1      52.776  24.482  32.482  1.00  0.00     0.009 A 
ATOM     82  C   UNL A   1      52.693  21.767  32.967  1.00  0.00     0.001 A 
ATOM     83  C   UNL A   1      53.967  23.774  32.653  1.00  0.00     0.001 A 
ATOM     84  C   UNL A   1      53.925  22.414  32.909  1.00  0.00     0.000 A 
ENDBRANCH  66  79
ENDBRANCH  40  41
ENDBRANCH  32  35
ENDBRANCH  30  31
ENDBRANCH   1  30
TORSDOF 13
ENDMDL
