MODEL 1
REMARK VINA RESULT:     -12.7      0.000      0.000
REMARK SMILES O=C(NCCCCNC(=O)[C@@H](Cc1ccc(O)cc1)Nc1c2ccccc2nc2ccccc12)c1ccc(-c2c3nc(c(-c4ccccc4)c4ccc([nH]4)c(-c4ccccc4)c4nc(c(-c5ccccc5)c5ccc2[nH]5)C=C4)C=C3)cc1
REMARK SMILES IDX 6 1 5 2 4 3 3 4 1 5 2 6 35 8 36 9 82 10 37 11 81 12 38 13
REMARK SMILES IDX 39 14 40 15 75 16 41 17 80 18 74 19 76 20 42 21 79 22 73 23
REMARK SMILES IDX 72 24 43 26 65 27 50 28 64 29 51 30 54 31 63 32 77 33 52 34
REMARK SMILES IDX 53 35 62 37 78 38 55 39 44 40 45 41 49 42 46 43 48 44 47 45
REMARK SMILES IDX 66 46 67 47 71 48 68 49 70 50 69 51 56 52 57 53 61 54 58 55
REMARK SMILES IDX 60 56 59 57 7 58 8 59 9 60 10 62 11 63 12 64 13 65 14 66
REMARK SMILES IDX 19 67 15 68 18 69 16 70 17 71 20 73 21 75 22 76 34 77 23 78
REMARK SMILES IDX 27 79 29 80 33 81 24 82 26 83 28 84 30 85 32 86 25 87 31 88
REMARK H PARENT 3 7 76 25 54 36 8 61 17 72 20 74
REMARK Flexibility Score: inf
ROOT
ATOM      1  C   UNL A   1      31.530  27.500  26.760  1.00  0.00     0.023 C 
ENDROOT
BRANCH   1   2
ATOM      2  C   UNL A   1      32.197  28.822  26.437  1.00  0.00     0.023 C 
BRANCH   2   3
ATOM      3  C   UNL A   1      33.496  29.063  27.184  1.00  0.00     0.116 C 
BRANCH   3   4
ATOM      4  N   UNL A   1      33.619  30.379  27.811  1.00  0.00    -0.352 N 
ATOM      5  O   UNL A   1      34.688  32.062  28.897  1.00  0.00    -0.269 OA
ATOM      6  C   UNL A   1      34.734  30.946  28.391  1.00  0.00     0.251 C 
ATOM      7  H   UNL A   1      32.802  30.929  27.819  1.00  0.00     0.163 HD
BRANCH   6   8
ATOM      8  C   UNL A   1      35.974  30.144  28.438  1.00  0.00     0.039 A 
ATOM      9  C   UNL A   1      36.286  29.448  29.601  1.00  0.00     0.014 A 
ATOM     10  C   UNL A   1      36.895  30.227  27.389  1.00  0.00     0.014 A 
ATOM     11  C   UNL A   1      37.597  29.061  29.818  1.00  0.00     0.010 A 
ATOM     12  C   UNL A   1      38.181  29.703  27.560  1.00  0.00     0.010 A 
ATOM     13  C   UNL A   1      38.564  29.170  28.799  1.00  0.00    -0.014 A 
BRANCH  13  14
ATOM     14  C   UNL A   1      39.942  28.694  29.093  1.00  0.00     0.031 A 
ATOM     15  C   UNL A   1      40.445  27.358  28.612  1.00  0.00     0.074 A 
ATOM     16  C   UNL A   1      40.787  29.552  29.700  1.00  0.00     0.049 A 
ATOM     17  N   UNL A   1      41.656  26.859  28.707  1.00  0.00    -0.248 NA
ATOM     18  C   UNL A   1      39.483  26.459  27.955  1.00  0.00     0.031 C 
ATOM     19  C   UNL A   1      40.415  30.874  30.215  1.00  0.00     0.029 A 
ATOM     20  N   UNL A   1      42.139  29.484  29.913  1.00  0.00    -0.354 N 
ATOM     21  C   UNL A   1      41.589  25.581  28.166  1.00  0.00     0.074 A 
ATOM     22  C   UNL A   1      40.220  25.376  27.741  1.00  0.00     0.031 C 
ATOM     23  C   UNL A   1      41.524  31.539  30.561  1.00  0.00     0.029 A 
ATOM     24  C   UNL A   1      42.673  30.659  30.387  1.00  0.00     0.049 A 
ATOM     25  H   UNL A   1      42.675  28.674  29.746  1.00  0.00     0.167 HD
ATOM     26  C   UNL A   1      42.576  24.662  28.041  1.00  0.00     0.031 A 
ATOM     27  C   UNL A   1      43.944  30.999  30.657  1.00  0.00     0.031 A 
ATOM     28  C   UNL A   1      43.943  24.877  28.439  1.00  0.00     0.049 A 
ATOM     29  C   UNL A   1      45.022  29.979  30.467  1.00  0.00     0.074 A 
ATOM     30  C   UNL A   1      45.013  23.999  28.366  1.00  0.00     0.029 A 
ATOM     31  N   UNL A   1      44.435  26.059  28.968  1.00  0.00    -0.354 N 
ATOM     32  N   UNL A   1      44.926  28.762  29.993  1.00  0.00    -0.248 NA
ATOM     33  C   UNL A   1      46.378  30.371  30.872  1.00  0.00     0.031 C 
ATOM     34  C   UNL A   1      46.146  24.643  28.876  1.00  0.00     0.029 A 
ATOM     35  C   UNL A   1      45.789  25.934  29.230  1.00  0.00     0.049 A 
ATOM     36  H   UNL A   1      43.901  26.870  29.132  1.00  0.00     0.167 HD
ATOM     37  C   UNL A   1      46.203  28.230  30.068  1.00  0.00     0.074 A 
ATOM     38  C   UNL A   1      47.065  29.276  30.582  1.00  0.00     0.031 C 
ATOM     39  C   UNL A   1      46.622  26.977  29.763  1.00  0.00     0.031 A 
BRANCH  26  40
ATOM     40  C   UNL A   1      42.214  23.317  27.476  1.00  0.00    -0.014 A 
ATOM     41  C   UNL A   1      42.516  22.975  26.150  1.00  0.00     0.009 A 
ATOM     42  C   UNL A   1      41.623  22.352  28.309  1.00  0.00     0.009 A 
ATOM     43  C   UNL A   1      42.219  21.698  25.664  1.00  0.00     0.001 A 
ATOM     44  C   UNL A   1      41.344  21.072  27.827  1.00  0.00     0.001 A 
ATOM     45  C   UNL A   1      41.639  20.747  26.504  1.00  0.00     0.000 A 
ENDBRANCH  26  40
BRANCH  27  46
ATOM     46  C   UNL A   1      44.250  32.360  31.166  1.00  0.00    -0.014 A 
ATOM     47  C   UNL A   1      44.523  33.411  30.279  1.00  0.00     0.009 A 
ATOM     48  C   UNL A   1      44.234  32.618  32.546  1.00  0.00     0.009 A 
ATOM     49  C   UNL A   1      44.783  34.695  30.768  1.00  0.00     0.001 A 
ATOM     50  C   UNL A   1      44.462  33.907  33.028  1.00  0.00     0.001 A 
ATOM     51  C   UNL A   1      44.743  34.942  32.140  1.00  0.00     0.000 A 
ENDBRANCH  27  46
BRANCH  39  52
ATOM     52  C   UNL A   1      48.073  26.685  30.001  1.00  0.00    -0.014 A 
ATOM     53  C   UNL A   1      49.007  26.809  28.960  1.00  0.00     0.009 A 
ATOM     54  C   UNL A   1      48.508  26.275  31.268  1.00  0.00     0.009 A 
ATOM     55  C   UNL A   1      50.347  26.490  29.177  1.00  0.00     0.001 A 
ATOM     56  C   UNL A   1      49.853  25.975  31.487  1.00  0.00     0.001 A 
ATOM     57  C   UNL A   1      50.768  26.073  30.439  1.00  0.00     0.000 A 
ENDBRANCH  39  52
ENDBRANCH  13  14
ENDBRANCH   6   8
ENDBRANCH   3   4
ENDBRANCH   2   3
ENDBRANCH   1   2
BRANCH   1  58
ATOM     58  C   UNL A   1      32.242  26.244  26.275  1.00  0.00     0.116 C 
BRANCH  58  59
ATOM     59  N   UNL A   1      31.798  25.089  27.017  1.00  0.00    -0.354 N 
ATOM     60  C   UNL A   1      31.466  23.832  26.613  1.00  0.00     0.242 C 
ATOM     61  H   UNL A   1      31.720  25.236  27.987  1.00  0.00     0.163 HD
ATOM     62  O   UNL A   1      30.872  23.145  27.455  1.00  0.00    -0.273 OA
BRANCH  60  63
ATOM     63  C   UNL A   1      31.765  23.244  25.208  1.00  0.00     0.173 C 
BRANCH  63  64
ATOM     64  C   UNL A   1      30.763  23.662  24.095  1.00  0.00     0.070 C 
BRANCH  64  65
ATOM     65  C   UNL A   1      30.629  25.079  23.572  1.00  0.00    -0.045 A 
ATOM     66  C   UNL A   1      29.642  25.975  24.007  1.00  0.00     0.007 A 
ATOM     67  C   UNL A   1      31.592  25.557  22.660  1.00  0.00     0.007 A 
ATOM     68  C   UNL A   1      29.525  27.252  23.438  1.00  0.00     0.046 A 
ATOM     69  C   UNL A   1      31.489  26.834  22.103  1.00  0.00     0.046 A 
ATOM     70  C   UNL A   1      30.435  27.658  22.470  1.00  0.00     0.115 A 
BRANCH  70  71
ATOM     71  O   UNL A   1      30.322  28.858  21.835  1.00  0.00    -0.508 OA
ATOM     72  H   UNL A   1      30.094  29.626  22.321  1.00  0.00     0.293 HD
ENDBRANCH  70  71
ENDBRANCH  64  65
ENDBRANCH  63  64
BRANCH  63  73
ATOM     73  N   UNL A   1      33.182  23.352  24.819  1.00  0.00    -0.372 N 
ATOM     74  H   UNL A   1      33.502  24.218  24.476  1.00  0.00     0.161 HD
BRANCH  73  75
ATOM     75  C   UNL A   1      34.107  22.295  24.907  1.00  0.00     0.054 A 
ATOM     76  C   UNL A   1      33.759  20.936  24.621  1.00  0.00     0.024 A 
ATOM     77  C   UNL A   1      35.454  22.590  25.300  1.00  0.00     0.024 A 
ATOM     78  C   UNL A   1      32.491  20.481  24.174  1.00  0.00     0.012 A 
ATOM     79  C   UNL A   1      34.774  19.965  24.744  1.00  0.00     0.073 A 
ATOM     80  C   UNL A   1      36.371  21.521  25.332  1.00  0.00     0.073 A 
ATOM     81  C   UNL A   1      35.936  23.877  25.664  1.00  0.00     0.012 A 
ATOM     82  C   UNL A   1      32.213  19.133  23.944  1.00  0.00     0.001 A 
ATOM     83  C   UNL A   1      34.487  18.628  24.497  1.00  0.00     0.029 A 
ATOM     84  N   UNL A   1      36.034  20.256  25.072  1.00  0.00    -0.248 NA
ATOM     85  C   UNL A   1      37.702  21.763  25.649  1.00  0.00     0.029 A 
ATOM     86  C   UNL A   1      37.275  24.097  25.992  1.00  0.00     0.001 A 
ATOM     87  C   UNL A   1      33.217  18.199  24.115  1.00  0.00     0.002 A 
ATOM     88  C   UNL A   1      38.165  23.037  25.971  1.00  0.00     0.002 A 
ENDBRANCH  73  75
ENDBRANCH  63  73
ENDBRANCH  60  63
ENDBRANCH  58  59
ENDBRANCH   1  58
TORSDOF 16
ENDMDL
MODEL 2
REMARK VINA RESULT:     -12.6      0.219      2.213
REMARK SMILES O=C(NCCCCNC(=O)[C@@H](Cc1ccc(O)cc1)Nc1c2ccccc2nc2ccccc12)c1ccc(-c2c3nc(c(-c4ccccc4)c4ccc([nH]4)c(-c4ccccc4)c4nc(c(-c5ccccc5)c5ccc2[nH]5)C=C4)C=C3)cc1
REMARK SMILES IDX 6 1 5 2 4 3 3 4 1 5 2 6 35 8 36 9 82 10 37 11 81 12 38 13
REMARK SMILES IDX 39 14 40 15 75 16 41 17 80 18 74 19 76 20 42 21 79 22 73 23
REMARK SMILES IDX 72 24 43 26 65 27 50 28 64 29 51 30 54 31 63 32 77 33 52 34
REMARK SMILES IDX 53 35 62 37 78 38 55 39 44 40 45 41 49 42 46 43 48 44 47 45
REMARK SMILES IDX 66 46 67 47 71 48 68 49 70 50 69 51 56 52 57 53 61 54 58 55
REMARK SMILES IDX 60 56 59 57 7 58 8 59 9 60 10 62 11 63 12 64 13 65 14 66
REMARK SMILES IDX 19 67 15 68 18 69 16 70 17 71 20 73 21 75 22 76 34 77 23 78
REMARK SMILES IDX 27 79 29 80 33 81 24 82 26 83 28 84 30 85 32 86 25 87 31 88
REMARK H PARENT 3 7 76 25 54 36 8 61 17 72 20 74
REMARK Flexibility Score: inf
ROOT
ATOM      1  C   UNL A   1      31.581  27.527  26.798  1.00  0.00     0.023 C 
ENDROOT
BRANCH   1   2
ATOM      2  C   UNL A   1      32.207  28.878  26.517  1.00  0.00     0.023 C 
BRANCH   2   3
ATOM      3  C   UNL A   1      33.527  29.114  27.229  1.00  0.00     0.116 C 
BRANCH   3   4
ATOM      4  N   UNL A   1      33.633  30.390  27.935  1.00  0.00    -0.352 N 
ATOM      5  O   UNL A   1      34.680  32.013  29.130  1.00  0.00    -0.269 OA
ATOM      6  C   UNL A   1      34.739  30.929  28.558  1.00  0.00     0.251 C 
ATOM      7  H   UNL A   1      32.811  30.932  27.971  1.00  0.00     0.163 HD
BRANCH   6   8
ATOM      8  C   UNL A   1      35.986  30.136  28.566  1.00  0.00     0.039 A 
ATOM      9  C   UNL A   1      36.341  29.445  29.720  1.00  0.00     0.014 A 
ATOM     10  C   UNL A   1      36.871  30.224  27.488  1.00  0.00     0.014 A 
ATOM     11  C   UNL A   1      37.661  29.068  29.895  1.00  0.00     0.010 A 
ATOM     12  C   UNL A   1      38.166  29.708  27.617  1.00  0.00     0.010 A 
ATOM     13  C   UNL A   1      38.593  29.181  28.844  1.00  0.00    -0.014 A 
BRANCH  13  14
ATOM     14  C   UNL A   1      39.983  28.715  29.094  1.00  0.00     0.031 A 
ATOM     15  C   UNL A   1      40.470  27.368  28.629  1.00  0.00     0.074 A 
ATOM     16  C   UNL A   1      40.851  29.591  29.642  1.00  0.00     0.049 A 
ATOM     17  N   UNL A   1      41.684  26.874  28.687  1.00  0.00    -0.248 NA
ATOM     18  C   UNL A   1      39.483  26.450  28.037  1.00  0.00     0.031 C 
ATOM     19  C   UNL A   1      40.497  30.926  30.135  1.00  0.00     0.029 A 
ATOM     20  N   UNL A   1      42.210  29.531  29.800  1.00  0.00    -0.354 N 
ATOM     21  C   UNL A   1      41.598  25.581  28.184  1.00  0.00     0.074 A 
ATOM     22  C   UNL A   1      40.214  25.362  27.822  1.00  0.00     0.031 C 
ATOM     23  C   UNL A   1      41.617  31.602  30.416  1.00  0.00     0.029 A 
ATOM     24  C   UNL A   1      42.760  30.719  30.219  1.00  0.00     0.049 A 
ATOM     25  H   UNL A   1      42.740  28.718  29.633  1.00  0.00     0.167 HD
ATOM     26  C   UNL A   1      42.582  24.660  28.044  1.00  0.00     0.031 A 
ATOM     27  C   UNL A   1      44.041  31.069  30.426  1.00  0.00     0.031 A 
ATOM     28  C   UNL A   1      43.964  24.888  28.379  1.00  0.00     0.049 A 
ATOM     29  C   UNL A   1      45.112  30.046  30.220  1.00  0.00     0.074 A 
ATOM     30  C   UNL A   1      45.032  24.010  28.286  1.00  0.00     0.029 A 
ATOM     31  N   UNL A   1      44.474  26.085  28.854  1.00  0.00    -0.354 N 
ATOM     32  N   UNL A   1      45.000  28.815  29.784  1.00  0.00    -0.248 NA
ATOM     33  C   UNL A   1      46.483  30.450  30.559  1.00  0.00     0.031 C 
ATOM     34  C   UNL A   1      46.183  24.669  28.731  1.00  0.00     0.029 A 
ATOM     35  C   UNL A   1      45.838  25.969  29.063  1.00  0.00     0.049 A 
ATOM     36  H   UNL A   1      43.945  26.899  29.019  1.00  0.00     0.167 HD
ATOM     37  C   UNL A   1      46.280  28.287  29.821  1.00  0.00     0.074 A 
ATOM     38  C   UNL A   1      47.160  29.348  30.270  1.00  0.00     0.031 C 
ATOM     39  C   UNL A   1      46.689  27.028  29.533  1.00  0.00     0.031 A 
BRANCH  26  40
ATOM     40  C   UNL A   1      42.200  23.300  27.532  1.00  0.00    -0.014 A 
ATOM     41  C   UNL A   1      41.633  22.333  28.376  1.00  0.00     0.009 A 
ATOM     42  C   UNL A   1      42.346  23.007  26.166  1.00  0.00     0.009 A 
ATOM     43  C   UNL A   1      41.235  21.094  27.864  1.00  0.00     0.001 A 
ATOM     44  C   UNL A   1      41.930  21.777  25.654  1.00  0.00     0.001 A 
ATOM     45  C   UNL A   1      41.378  20.820  26.504  1.00  0.00     0.000 A 
ENDBRANCH  26  40
BRANCH  27  46
ATOM     46  C   UNL A   1      44.363  32.443  30.885  1.00  0.00    -0.014 A 
ATOM     47  C   UNL A   1      44.614  33.466  29.960  1.00  0.00     0.009 A 
ATOM     48  C   UNL A   1      44.387  32.743  32.257  1.00  0.00     0.009 A 
ATOM     49  C   UNL A   1      44.890  34.763  30.402  1.00  0.00     0.001 A 
ATOM     50  C   UNL A   1      44.631  34.045  32.693  1.00  0.00     0.001 A 
ATOM     51  C   UNL A   1      44.890  35.052  31.766  1.00  0.00     0.000 A 
ENDBRANCH  27  46
BRANCH  39  52
ATOM     52  C   UNL A   1      48.149  26.744  29.719  1.00  0.00    -0.014 A 
ATOM     53  C   UNL A   1      48.616  26.145  30.900  1.00  0.00     0.009 A 
ATOM     54  C   UNL A   1      49.065  27.084  28.713  1.00  0.00     0.009 A 
ATOM     55  C   UNL A   1      49.981  25.928  31.086  1.00  0.00     0.001 A 
ATOM     56  C   UNL A   1      50.428  26.847  28.895  1.00  0.00     0.001 A 
ATOM     57  C   UNL A   1      50.885  26.279  30.084  1.00  0.00     0.000 A 
ENDBRANCH  39  52
ENDBRANCH  13  14
ENDBRANCH   6   8
ENDBRANCH   3   4
ENDBRANCH   2   3
ENDBRANCH   1   2
BRANCH   1  58
ATOM     58  C   UNL A   1      32.314  26.311  26.248  1.00  0.00     0.116 C 
BRANCH  58  59
ATOM     59  N   UNL A   1      32.049  25.147  27.059  1.00  0.00    -0.354 N 
ATOM     60  C   UNL A   1      31.730  23.868  26.722  1.00  0.00     0.242 C 
ATOM     61  H   UNL A   1      32.111  25.307  28.028  1.00  0.00     0.163 HD
ATOM     62  O   UNL A   1      31.308  23.165  27.650  1.00  0.00    -0.273 OA
BRANCH  60  63
ATOM     63  C   UNL A   1      31.846  23.272  25.293  1.00  0.00     0.173 C 
BRANCH  63  64
ATOM     64  C   UNL A   1      30.722  23.702  24.309  1.00  0.00     0.070 C 
BRANCH  64  65
ATOM     65  C   UNL A   1      30.706  25.030  23.578  1.00  0.00    -0.045 A 
ATOM     66  C   UNL A   1      31.560  25.335  22.508  1.00  0.00     0.007 A 
ATOM     67  C   UNL A   1      29.732  25.985  23.932  1.00  0.00     0.007 A 
ATOM     68  C   UNL A   1      31.545  26.606  21.913  1.00  0.00     0.046 A 
ATOM     69  C   UNL A   1      29.703  27.246  23.331  1.00  0.00     0.046 A 
ATOM     70  C   UNL A   1      30.634  27.559  22.351  1.00  0.00     0.115 A 
BRANCH  70  71
ATOM     71  O   UNL A   1      30.628  28.828  21.858  1.00  0.00    -0.508 OA
ATOM     72  H   UNL A   1      31.184  29.054  21.138  1.00  0.00     0.293 HD
ENDBRANCH  70  71
ENDBRANCH  64  65
ENDBRANCH  63  64
BRANCH  63  73
ATOM     73  N   UNL A   1      33.206  23.357  24.733  1.00  0.00    -0.372 N 
ATOM     74  H   UNL A   1      33.457  24.179  24.252  1.00  0.00     0.161 HD
BRANCH  73  75
ATOM     75  C   UNL A   1      34.171  22.338  24.844  1.00  0.00     0.054 A 
ATOM     76  C   UNL A   1      35.522  22.592  25.243  1.00  0.00     0.024 A 
ATOM     77  C   UNL A   1      33.786  20.990  24.547  1.00  0.00     0.024 A 
ATOM     78  C   UNL A   1      36.053  23.853  25.619  1.00  0.00     0.012 A 
ATOM     79  C   UNL A   1      36.397  21.488  25.318  1.00  0.00     0.073 A 
ATOM     80  C   UNL A   1      34.757  19.983  24.714  1.00  0.00     0.073 A 
ATOM     81  C   UNL A   1      32.500  20.589  24.091  1.00  0.00     0.012 A 
ATOM     82  C   UNL A   1      37.392  24.033  25.966  1.00  0.00     0.001 A 
ATOM     83  C   UNL A   1      37.724  21.680  25.681  1.00  0.00     0.029 A 
ATOM     84  N   UNL A   1      36.017  20.232  25.077  1.00  0.00    -0.248 NA
ATOM     85  C   UNL A   1      34.418  18.654  24.495  1.00  0.00     0.029 A 
ATOM     86  C   UNL A   1      32.183  19.248  23.864  1.00  0.00     0.001 A 
ATOM     87  C   UNL A   1      38.236  22.938  25.990  1.00  0.00     0.002 A 
ATOM     88  C   UNL A   1      33.143  18.275  24.081  1.00  0.00     0.002 A 
ENDBRANCH  73  75
ENDBRANCH  63  73
ENDBRANCH  60  63
ENDBRANCH  58  59
ENDBRANCH   1  58
TORSDOF 16
ENDMDL
MODEL 3
REMARK VINA RESULT:     -12.6      2.561      8.208
REMARK SMILES O=C(NCCCCNC(=O)[C@@H](Cc1ccc(O)cc1)Nc1c2ccccc2nc2ccccc12)c1ccc(-c2c3nc(c(-c4ccccc4)c4ccc([nH]4)c(-c4ccccc4)c4nc(c(-c5ccccc5)c5ccc2[nH]5)C=C4)C=C3)cc1
REMARK SMILES IDX 6 1 5 2 4 3 3 4 1 5 2 6 35 8 36 9 82 10 37 11 81 12 38 13
REMARK SMILES IDX 39 14 40 15 75 16 41 17 80 18 74 19 76 20 42 21 79 22 73 23
REMARK SMILES IDX 72 24 43 26 65 27 50 28 64 29 51 30 54 31 63 32 77 33 52 34
REMARK SMILES IDX 53 35 62 37 78 38 55 39 44 40 45 41 49 42 46 43 48 44 47 45
REMARK SMILES IDX 66 46 67 47 71 48 68 49 70 50 69 51 56 52 57 53 61 54 58 55
REMARK SMILES IDX 60 56 59 57 7 58 8 59 9 60 10 62 11 63 12 64 13 65 14 66
REMARK SMILES IDX 19 67 15 68 18 69 16 70 17 71 20 73 21 75 22 76 34 77 23 78
REMARK SMILES IDX 27 79 29 80 33 81 24 82 26 83 28 84 30 85 32 86 25 87 31 88
REMARK H PARENT 3 7 76 25 54 36 8 61 17 72 20 74
REMARK Flexibility Score: inf
ROOT
ATOM      1  C   UNL A   1      34.907  23.339  25.351  1.00  0.00     0.023 C 
ENDROOT
BRANCH   1   2
ATOM      2  C   UNL A   1      36.251  23.146  26.023  1.00  0.00     0.023 C 
BRANCH   2   3
ATOM      3  C   UNL A   1      37.439  23.250  25.083  1.00  0.00     0.116 C 
BRANCH   3   4
ATOM      4  N   UNL A   1      38.630  22.511  25.500  1.00  0.00    -0.352 N 
ATOM      5  O   UNL A   1      40.591  22.198  26.600  1.00  0.00    -0.269 OA
ATOM      6  C   UNL A   1      39.635  22.924  26.349  1.00  0.00     0.251 C 
ATOM      7  H   UNL A   1      38.726  21.604  25.126  1.00  0.00     0.163 HD
BRANCH   6   8
ATOM      8  C   UNL A   1      39.555  24.290  26.904  1.00  0.00     0.039 A 
ATOM      9  C   UNL A   1      40.147  25.339  26.207  1.00  0.00     0.014 A 
ATOM     10  C   UNL A   1      39.043  24.490  28.189  1.00  0.00     0.014 A 
ATOM     11  C   UNL A   1      40.455  26.505  26.886  1.00  0.00     0.010 A 
ATOM     12  C   UNL A   1      39.230  25.725  28.821  1.00  0.00     0.010 A 
ATOM     13  C   UNL A   1      39.993  26.723  28.199  1.00  0.00    -0.014 A 
BRANCH  13  14
ATOM     14  C   UNL A   1      40.328  28.018  28.848  1.00  0.00     0.031 A 
ATOM     15  C   UNL A   1      39.310  29.116  29.015  1.00  0.00     0.074 A 
ATOM     16  C   UNL A   1      41.549  28.143  29.408  1.00  0.00     0.049 A 
ATOM     17  N   UNL A   1      39.436  30.256  29.654  1.00  0.00    -0.248 NA
ATOM     18  C   UNL A   1      37.993  28.930  28.386  1.00  0.00     0.031 C 
ATOM     19  C   UNL A   1      42.623  27.149  29.310  1.00  0.00     0.029 A 
ATOM     20  N   UNL A   1      42.066  29.107  30.233  1.00  0.00    -0.354 N 
ATOM     21  C   UNL A   1      38.239  30.936  29.465  1.00  0.00     0.074 A 
ATOM     22  C   UNL A   1      37.394  30.084  28.655  1.00  0.00     0.031 C 
ATOM     23  C   UNL A   1      43.612  27.487  30.145  1.00  0.00     0.029 A 
ATOM     24  C   UNL A   1      43.290  28.768  30.761  1.00  0.00     0.049 A 
ATOM     25  H   UNL A   1      41.609  29.957  30.428  1.00  0.00     0.167 HD
ATOM     26  C   UNL A   1      37.880  32.161  29.921  1.00  0.00     0.031 A 
ATOM     27  C   UNL A   1      44.074  29.413  31.642  1.00  0.00     0.031 A 
ATOM     28  C   UNL A   1      38.710  32.995  30.750  1.00  0.00     0.049 A 
ATOM     29  C   UNL A   1      43.633  30.743  32.165  1.00  0.00     0.074 A 
ATOM     30  C   UNL A   1      38.440  34.260  31.250  1.00  0.00     0.029 A 
ATOM     31  N   UNL A   1      39.966  32.644  31.218  1.00  0.00    -0.354 N 
ATOM     32  N   UNL A   1      42.514  31.385  31.938  1.00  0.00    -0.248 NA
ATOM     33  C   UNL A   1      44.573  31.449  33.045  1.00  0.00     0.031 C 
ATOM     34  C   UNL A   1      39.544  34.683  31.997  1.00  0.00     0.029 A 
ATOM     35  C   UNL A   1      40.485  33.666  31.995  1.00  0.00     0.049 A 
ATOM     36  H   UNL A   1      40.422  31.793  31.026  1.00  0.00     0.167 HD
ATOM     37  C   UNL A   1      42.625  32.583  32.624  1.00  0.00     0.074 A 
ATOM     38  C   UNL A   1      43.896  32.555  33.319  1.00  0.00     0.031 C 
ATOM     39  C   UNL A   1      41.761  33.627  32.656  1.00  0.00     0.031 A 
BRANCH  26  40
ATOM     40  C   UNL A   1      36.537  32.696  29.510  1.00  0.00    -0.014 A 
ATOM     41  C   UNL A   1      35.436  32.652  30.377  1.00  0.00     0.009 A 
ATOM     42  C   UNL A   1      36.393  33.317  28.258  1.00  0.00     0.009 A 
ATOM     43  C   UNL A   1      34.211  33.206  29.992  1.00  0.00     0.001 A 
ATOM     44  C   UNL A   1      35.174  33.886  27.884  1.00  0.00     0.001 A 
ATOM     45  C   UNL A   1      34.083  33.827  28.749  1.00  0.00     0.000 A 
ENDBRANCH  26  40
BRANCH  27  46
ATOM     46  C   UNL A   1      45.369  28.813  32.051  1.00  0.00    -0.014 A 
ATOM     47  C   UNL A   1      46.538  29.067  31.320  1.00  0.00     0.009 A 
ATOM     48  C   UNL A   1      45.444  28.009  33.200  1.00  0.00     0.009 A 
ATOM     49  C   UNL A   1      47.757  28.519  31.729  1.00  0.00     0.001 A 
ATOM     50  C   UNL A   1      46.667  27.491  33.623  1.00  0.00     0.001 A 
ATOM     51  C   UNL A   1      47.821  27.740  32.884  1.00  0.00     0.000 A 
ENDBRANCH  27  46
BRANCH  39  52
ATOM     52  C   UNL A   1      42.189  34.820  33.457  1.00  0.00    -0.014 A 
ATOM     53  C   UNL A   1      41.799  34.956  34.799  1.00  0.00     0.009 A 
ATOM     54  C   UNL A   1      42.979  35.816  32.867  1.00  0.00     0.009 A 
ATOM     55  C   UNL A   1      42.162  36.092  35.524  1.00  0.00     0.001 A 
ATOM     56  C   UNL A   1      43.356  36.941  33.601  1.00  0.00     0.001 A 
ATOM     57  C   UNL A   1      42.939  37.082  34.925  1.00  0.00     0.000 A 
ENDBRANCH  39  52
ENDBRANCH  13  14
ENDBRANCH   6   8
ENDBRANCH   3   4
ENDBRANCH   2   3
ENDBRANCH   1   2
BRANCH   1  58
ATOM     58  C   UNL A   1      34.357  24.759  25.328  1.00  0.00     0.116 C 
BRANCH  58  59
ATOM     59  N   UNL A   1      34.478  25.329  24.008  1.00  0.00    -0.354 N 
ATOM     60  C   UNL A   1      33.537  25.681  23.089  1.00  0.00     0.242 C 
ATOM     61  H   UNL A   1      35.404  25.493  23.720  1.00  0.00     0.163 HD
ATOM     62  O   UNL A   1      33.966  25.900  21.949  1.00  0.00    -0.273 OA
BRANCH  60  63
ATOM     63  C   UNL A   1      32.017  25.804  23.379  1.00  0.00     0.173 C 
BRANCH  63  64
ATOM     64  C   UNL A   1      31.196  24.507  23.133  1.00  0.00     0.070 C 
BRANCH  64  65
ATOM     65  C   UNL A   1      31.548  23.160  23.735  1.00  0.00    -0.045 A 
ATOM     66  C   UNL A   1      32.226  22.152  23.034  1.00  0.00     0.007 A 
ATOM     67  C   UNL A   1      31.257  22.930  25.094  1.00  0.00     0.007 A 
ATOM     68  C   UNL A   1      32.466  20.901  23.622  1.00  0.00     0.046 A 
ATOM     69  C   UNL A   1      31.509  21.691  25.689  1.00  0.00     0.046 A 
ATOM     70  C   UNL A   1      32.079  20.674  24.936  1.00  0.00     0.115 A 
BRANCH  70  71
ATOM     71  O   UNL A   1      32.223  19.456  25.528  1.00  0.00    -0.508 OA
ATOM     72  H   UNL A   1      31.472  18.914  25.674  1.00  0.00     0.293 HD
ENDBRANCH  70  71
ENDBRANCH  64  65
ENDBRANCH  63  64
BRANCH  63  73
ATOM     73  N   UNL A   1      31.717  26.477  24.655  1.00  0.00    -0.372 N 
ATOM     74  H   UNL A   1      31.659  25.923  25.467  1.00  0.00     0.161 HD
BRANCH  73  75
ATOM     75  C   UNL A   1      31.508  27.863  24.786  1.00  0.00     0.054 A 
ATOM     76  C   UNL A   1      30.461  28.556  24.097  1.00  0.00     0.024 A 
ATOM     77  C   UNL A   1      32.379  28.612  25.643  1.00  0.00     0.024 A 
ATOM     78  C   UNL A   1      29.487  27.961  23.255  1.00  0.00     0.012 A 
ATOM     79  C   UNL A   1      30.353  29.946  24.310  1.00  0.00     0.073 A 
ATOM     80  C   UNL A   1      32.117  29.988  25.795  1.00  0.00     0.073 A 
ATOM     81  C   UNL A   1      33.491  28.076  26.350  1.00  0.00     0.012 A 
ATOM     82  C   UNL A   1      28.512  28.705  22.590  1.00  0.00     0.001 A 
ATOM     83  C   UNL A   1      29.367  30.671  23.653  1.00  0.00     0.029 A 
ATOM     84  N   UNL A   1      31.144  30.626  25.141  1.00  0.00    -0.248 NA
ATOM     85  C   UNL A   1      32.895  30.747  26.659  1.00  0.00     0.029 A 
ATOM     86  C   UNL A   1      34.268  28.860  27.204  1.00  0.00     0.001 A 
ATOM     87  C   UNL A   1      28.457  30.072  22.784  1.00  0.00     0.002 A 
ATOM     88  C   UNL A   1      33.960  30.199  27.370  1.00  0.00     0.002 A 
ENDBRANCH  73  75
ENDBRANCH  63  73
ENDBRANCH  60  63
ENDBRANCH  58  59
ENDBRANCH   1  58
TORSDOF 16
ENDMDL
