MODEL 1
REMARK VINA RESULT:     -10.6      0.000      0.000
REMARK SMILES O=C(NCCCCNC(=O)c1cccc(OCC(F)F)c1)c1ccc(-c2c3nc(c(-c4ccccc4)c4ccc([nH]4)c(-c4ccccc4)c4nc(c(-c5ccccc5)c5ccc2[nH]5)C=C4)C=C3)cc1
REMARK SMILES IDX 6 1 5 2 4 3 3 4 1 5 2 6 22 8 23 9 69 10 24 11 68 12 25 13
REMARK SMILES IDX 26 14 27 15 62 16 28 17 67 18 61 19 63 20 29 21 66 22 60 23
REMARK SMILES IDX 59 24 30 26 52 27 37 28 51 29 38 30 41 31 50 32 64 33 39 34
REMARK SMILES IDX 40 35 49 37 65 38 42 39 31 40 32 41 36 42 33 43 35 44 34 45
REMARK SMILES IDX 53 46 54 47 58 48 55 49 57 50 56 51 43 52 44 53 48 54 45 55
REMARK SMILES IDX 47 56 46 57 7 58 8 59 9 60 10 62 11 63 12 64 21 65 13 66
REMARK SMILES IDX 15 67 14 68 16 69 17 70 18 71 19 72 20 73
REMARK H PARENT 3 7 63 25 41 36 8 61
REMARK Flexibility Score: inf
ROOT
ATOM      1  C   UNL A   1      36.598  20.163  25.037  1.00  0.00     0.023 C 
ENDROOT
BRANCH   1   2
ATOM      2  C   UNL A   1      38.049  19.800  24.734  1.00  0.00     0.023 C 
BRANCH   2   3
ATOM      3  C   UNL A   1      39.041  20.106  25.850  1.00  0.00     0.116 C 
BRANCH   3   4
ATOM      4  N   UNL A   1      40.144  19.157  25.908  1.00  0.00    -0.352 N 
ATOM      5  O   UNL A   1      42.287  18.462  26.027  1.00  0.00    -0.269 OA
ATOM      6  C   UNL A   1      41.475  19.370  26.176  1.00  0.00     0.251 C 
ATOM      7  H   UNL A   1      39.899  18.221  25.725  1.00  0.00     0.163 HD
BRANCH   6   8
ATOM      8  C   UNL A   1      41.940  20.702  26.619  1.00  0.00     0.039 A 
ATOM      9  C   UNL A   1      42.005  21.025  27.976  1.00  0.00     0.014 A 
ATOM     10  C   UNL A   1      42.325  21.644  25.658  1.00  0.00     0.014 A 
ATOM     11  C   UNL A   1      42.292  22.330  28.363  1.00  0.00     0.010 A 
ATOM     12  C   UNL A   1      42.701  22.930  26.055  1.00  0.00     0.010 A 
ATOM     13  C   UNL A   1      42.648  23.296  27.409  1.00  0.00    -0.014 A 
BRANCH  13  14
ATOM     14  C   UNL A   1      43.003  24.667  27.855  1.00  0.00     0.031 A 
ATOM     15  C   UNL A   1      44.438  25.104  27.963  1.00  0.00     0.074 A 
ATOM     16  C   UNL A   1      42.013  25.536  28.137  1.00  0.00     0.049 A 
ATOM     17  N   UNL A   1      44.917  26.271  28.320  1.00  0.00    -0.248 NA
ATOM     18  C   UNL A   1      45.469  24.107  27.637  1.00  0.00     0.031 C 
ATOM     19  C   UNL A   1      40.581  25.233  28.070  1.00  0.00     0.029 A 
ATOM     20  N   UNL A   1      42.057  26.853  28.515  1.00  0.00    -0.354 N 
ATOM     21  C   UNL A   1      46.300  26.142  28.281  1.00  0.00     0.074 A 
ATOM     22  C   UNL A   1      46.585  24.779  27.888  1.00  0.00     0.031 C 
ATOM     23  C   UNL A   1      39.884  26.344  28.350  1.00  0.00     0.029 A 
ATOM     24  C   UNL A   1      40.816  27.418  28.674  1.00  0.00     0.049 A 
ATOM     25  H   UNL A   1      42.898  27.345  28.659  1.00  0.00     0.167 HD
ATOM     26  C   UNL A   1      47.246  27.076  28.545  1.00  0.00     0.031 A 
ATOM     27  C   UNL A   1      40.461  28.659  29.052  1.00  0.00     0.031 A 
ATOM     28  C   UNL A   1      46.964  28.434  28.932  1.00  0.00     0.049 A 
ATOM     29  C   UNL A   1      41.528  29.664  29.368  1.00  0.00     0.074 A 
ATOM     30  C   UNL A   1      47.858  29.461  29.190  1.00  0.00     0.029 A 
ATOM     31  N   UNL A   1      45.693  28.955  29.119  1.00  0.00    -0.354 N 
ATOM     32  N   UNL A   1      42.831  29.531  29.301  1.00  0.00    -0.248 NA
ATOM     33  C   UNL A   1      41.075  30.988  29.813  1.00  0.00     0.031 C 
ATOM     34  C   UNL A   1      47.128  30.589  29.577  1.00  0.00     0.029 A 
ATOM     35  C   UNL A   1      45.780  30.281  29.513  1.00  0.00     0.049 A 
ATOM     36  H   UNL A   1      44.854  28.457  28.992  1.00  0.00     0.167 HD
ATOM     37  C   UNL A   1      43.353  30.758  29.682  1.00  0.00     0.074 A 
ATOM     38  C   UNL A   1      42.228  31.628  29.958  1.00  0.00     0.031 C 
ATOM     39  C   UNL A   1      44.652  31.129  29.794  1.00  0.00     0.031 A 
BRANCH  26  40
ATOM     40  C   UNL A   1      48.686  26.651  28.453  1.00  0.00    -0.014 A 
ATOM     41  C   UNL A   1      49.378  26.169  29.574  1.00  0.00     0.009 A 
ATOM     42  C   UNL A   1      49.344  26.693  27.213  1.00  0.00     0.009 A 
ATOM     43  C   UNL A   1      50.711  25.764  29.462  1.00  0.00     0.001 A 
ATOM     44  C   UNL A   1      50.668  26.266  27.099  1.00  0.00     0.001 A 
ATOM     45  C   UNL A   1      51.353  25.809  28.224  1.00  0.00     0.000 A 
ENDBRANCH  26  40
BRANCH  27  46
ATOM     46  C   UNL A   1      39.022  29.008  29.164  1.00  0.00    -0.014 A 
ATOM     47  C   UNL A   1      38.335  28.819  30.371  1.00  0.00     0.009 A 
ATOM     48  C   UNL A   1      38.338  29.557  28.068  1.00  0.00     0.009 A 
ATOM     49  C   UNL A   1      36.984  29.159  30.474  1.00  0.00     0.001 A 
ATOM     50  C   UNL A   1      36.995  29.920  28.182  1.00  0.00     0.001 A 
ATOM     51  C   UNL A   1      36.318  29.715  29.382  1.00  0.00     0.000 A 
ENDBRANCH  27  46
BRANCH  39  52
ATOM     52  C   UNL A   1      44.919  32.546  30.213  1.00  0.00    -0.014 A 
ATOM     53  C   UNL A   1      45.094  32.882  31.564  1.00  0.00     0.009 A 
ATOM     54  C   UNL A   1      45.021  33.552  29.239  1.00  0.00     0.009 A 
ATOM     55  C   UNL A   1      45.335  34.206  31.935  1.00  0.00     0.001 A 
ATOM     56  C   UNL A   1      45.286  34.870  29.612  1.00  0.00     0.001 A 
ATOM     57  C   UNL A   1      45.435  35.198  30.959  1.00  0.00     0.000 A 
ENDBRANCH  39  52
ENDBRANCH  13  14
ENDBRANCH   6   8
ENDBRANCH   3   4
ENDBRANCH   2   3
ENDBRANCH   1   2
BRANCH   1  58
ATOM     58  C   UNL A   1      36.361  21.609  25.458  1.00  0.00     0.116 C 
BRANCH  58  59
ATOM     59  N   UNL A   1      35.505  21.741  26.628  1.00  0.00    -0.352 N 
ATOM     60  C   UNL A   1      34.147  21.546  26.710  1.00  0.00     0.251 C 
ATOM     61  H   UNL A   1      35.956  22.002  27.463  1.00  0.00     0.163 HD
ATOM     62  O   UNL A   1      33.545  21.760  27.756  1.00  0.00    -0.269 OA
BRANCH  60  63
ATOM     63  C   UNL A   1      33.410  21.107  25.507  1.00  0.00     0.043 A 
ATOM     64  C   UNL A   1      33.056  22.065  24.556  1.00  0.00     0.014 A 
ATOM     65  C   UNL A   1      33.116  19.751  25.310  1.00  0.00     0.060 A 
ATOM     66  C   UNL A   1      32.456  21.652  23.370  1.00  0.00     0.005 A 
ATOM     67  C   UNL A   1      32.549  19.333  24.110  1.00  0.00     0.120 A 
ATOM     68  C   UNL A   1      32.218  20.293  23.147  1.00  0.00     0.046 A 
BRANCH  67  69
ATOM     69  O   UNL A   1      32.286  18.043  23.746  1.00  0.00    -0.488 OA
BRANCH  69  70
ATOM     70  C   UNL A   1      32.982  16.981  24.410  1.00  0.00     0.302 C 
BRANCH  70  71
ATOM     71  C   UNL A   1      34.303  16.635  23.738  1.00  0.00     0.379 C 
ATOM     72  F   UNL A   1      34.290  17.021  22.435  1.00  0.00    -0.207 F 
ATOM     73  F   UNL A   1      35.305  17.341  24.323  1.00  0.00    -0.207 F 
ENDBRANCH  70  71
ENDBRANCH  69  70
ENDBRANCH  67  69
ENDBRANCH  60  63
ENDBRANCH  58  59
ENDBRANCH   1  58
TORSDOF 14
ENDMDL
MODEL 2
REMARK VINA RESULT:     -10.2      6.038     10.416
REMARK SMILES O=C(NCCCCNC(=O)c1cccc(OCC(F)F)c1)c1ccc(-c2c3nc(c(-c4ccccc4)c4ccc([nH]4)c(-c4ccccc4)c4nc(c(-c5ccccc5)c5ccc2[nH]5)C=C4)C=C3)cc1
REMARK SMILES IDX 6 1 5 2 4 3 3 4 1 5 2 6 22 8 23 9 69 10 24 11 68 12 25 13
REMARK SMILES IDX 26 14 27 15 62 16 28 17 67 18 61 19 63 20 29 21 66 22 60 23
REMARK SMILES IDX 59 24 30 26 52 27 37 28 51 29 38 30 41 31 50 32 64 33 39 34
REMARK SMILES IDX 40 35 49 37 65 38 42 39 31 40 32 41 36 42 33 43 35 44 34 45
REMARK SMILES IDX 53 46 54 47 58 48 55 49 57 50 56 51 43 52 44 53 48 54 45 55
REMARK SMILES IDX 47 56 46 57 7 58 8 59 9 60 10 62 11 63 12 64 21 65 13 66
REMARK SMILES IDX 15 67 14 68 16 69 17 70 18 71 19 72 20 73
REMARK H PARENT 3 7 63 25 41 36 8 61
REMARK Flexibility Score: inf
ROOT
ATOM      1  C   UNL A   1      31.378  30.632  25.900  1.00  0.00     0.023 C 
ENDROOT
BRANCH   1   2
ATOM      2  C   UNL A   1      31.406  32.127  26.206  1.00  0.00     0.023 C 
BRANCH   2   3
ATOM      3  C   UNL A   1      32.440  32.559  27.239  1.00  0.00     0.116 C 
BRANCH   3   4
ATOM      4  N   UNL A   1      32.296  33.951  27.642  1.00  0.00    -0.352 N 
ATOM      5  O   UNL A   1      32.691  35.823  28.838  1.00  0.00    -0.269 OA
ATOM      6  C   UNL A   1      33.062  34.701  28.502  1.00  0.00     0.251 C 
ATOM      7  H   UNL A   1      31.534  34.425  27.238  1.00  0.00     0.163 HD
BRANCH   6   8
ATOM      8  C   UNL A   1      34.321  34.152  29.049  1.00  0.00     0.039 A 
ATOM      9  C   UNL A   1      35.538  34.358  28.395  1.00  0.00     0.014 A 
ATOM     10  C   UNL A   1      34.285  33.422  30.242  1.00  0.00     0.014 A 
ATOM     11  C   UNL A   1      36.681  33.702  28.839  1.00  0.00     0.010 A 
ATOM     12  C   UNL A   1      35.454  32.837  30.737  1.00  0.00     0.010 A 
ATOM     13  C   UNL A   1      36.655  32.939  30.017  1.00  0.00    -0.014 A 
BRANCH  13  14
ATOM     14  C   UNL A   1      37.903  32.293  30.497  1.00  0.00     0.031 A 
ATOM     15  C   UNL A   1      38.684  32.868  31.647  1.00  0.00     0.074 A 
ATOM     16  C   UNL A   1      38.317  31.157  29.904  1.00  0.00     0.049 A 
ATOM     17  N   UNL A   1      39.783  32.417  32.200  1.00  0.00    -0.248 NA
ATOM     18  C   UNL A   1      38.173  34.108  32.251  1.00  0.00     0.031 C 
ATOM     19  C   UNL A   1      37.646  30.499  28.780  1.00  0.00     0.029 A 
ATOM     20  N   UNL A   1      39.387  30.343  30.176  1.00  0.00    -0.354 N 
ATOM     21  C   UNL A   1      40.106  33.326  33.200  1.00  0.00     0.074 A 
ATOM     22  C   UNL A   1      39.101  34.366  33.164  1.00  0.00     0.031 C 
ATOM     23  C   UNL A   1      38.292  29.361  28.489  1.00  0.00     0.029 A 
ATOM     24  C   UNL A   1      39.453  29.239  29.363  1.00  0.00     0.049 A 
ATOM     25  H   UNL A   1      40.043  30.533  30.885  1.00  0.00     0.167 HD
ATOM     26  C   UNL A   1      41.144  33.296  34.071  1.00  0.00     0.031 A 
ATOM     27  C   UNL A   1      40.354  28.242  29.313  1.00  0.00     0.031 A 
ATOM     28  C   UNL A   1      42.143  32.260  34.111  1.00  0.00     0.049 A 
ATOM     29  C   UNL A   1      41.510  28.248  30.269  1.00  0.00     0.074 A 
ATOM     30  C   UNL A   1      43.215  32.128  34.979  1.00  0.00     0.029 A 
ATOM     31  N   UNL A   1      42.196  31.179  33.244  1.00  0.00    -0.354 N 
ATOM     32  N   UNL A   1      41.785  29.103  31.223  1.00  0.00    -0.248 NA
ATOM     33  C   UNL A   1      42.480  27.153  30.137  1.00  0.00     0.031 C 
ATOM     34  C   UNL A   1      43.942  30.991  34.607  1.00  0.00     0.029 A 
ATOM     35  C   UNL A   1      43.295  30.389  33.541  1.00  0.00     0.049 A 
ATOM     36  H   UNL A   1      41.549  30.999  32.524  1.00  0.00     0.167 HD
ATOM     37  C   UNL A   1      42.951  28.643  31.816  1.00  0.00     0.074 A 
ATOM     38  C   UNL A   1      43.321  27.423  31.127  1.00  0.00     0.031 C 
ATOM     39  C   UNL A   1      43.654  29.184  32.840  1.00  0.00     0.031 A 
BRANCH  26  40
ATOM     40  C   UNL A   1      41.271  34.438  35.040  1.00  0.00    -0.014 A 
ATOM     41  C   UNL A   1      40.672  34.388  36.308  1.00  0.00     0.009 A 
ATOM     42  C   UNL A   1      42.040  35.561  34.695  1.00  0.00     0.009 A 
ATOM     43  C   UNL A   1      40.816  35.455  37.200  1.00  0.00     0.001 A 
ATOM     44  C   UNL A   1      42.202  36.614  35.597  1.00  0.00     0.001 A 
ATOM     45  C   UNL A   1      41.584  36.564  36.846  1.00  0.00     0.000 A 
ENDBRANCH  26  40
BRANCH  27  46
ATOM     46  C   UNL A   1      40.198  27.161  28.307  1.00  0.00    -0.014 A 
ATOM     47  C   UNL A   1      40.797  27.272  27.044  1.00  0.00     0.009 A 
ATOM     48  C   UNL A   1      39.469  26.003  28.617  1.00  0.00     0.009 A 
ATOM     49  C   UNL A   1      40.655  26.248  26.104  1.00  0.00     0.001 A 
ATOM     50  C   UNL A   1      39.352  24.970  27.685  1.00  0.00     0.001 A 
ATOM     51  C   UNL A   1      39.939  25.096  26.428  1.00  0.00     0.000 A 
ENDBRANCH  27  46
BRANCH  39  52
ATOM     52  C   UNL A   1      44.882  28.445  33.287  1.00  0.00    -0.014 A 
ATOM     53  C   UNL A   1      44.809  27.447  34.272  1.00  0.00     0.009 A 
ATOM     54  C   UNL A   1      46.122  28.734  32.698  1.00  0.00     0.009 A 
ATOM     55  C   UNL A   1      45.962  26.776  34.681  1.00  0.00     0.001 A 
ATOM     56  C   UNL A   1      47.269  28.043  33.091  1.00  0.00     0.001 A 
ATOM     57  C   UNL A   1      47.190  27.071  34.088  1.00  0.00     0.000 A 
ENDBRANCH  39  52
ENDBRANCH  13  14
ENDBRANCH   6   8
ENDBRANCH   3   4
ENDBRANCH   2   3
ENDBRANCH   1   2
BRANCH   1  58
ATOM     58  C   UNL A   1      32.654  29.872  26.242  1.00  0.00     0.116 C 
BRANCH  58  59
ATOM     59  N   UNL A   1      33.542  29.687  25.104  1.00  0.00    -0.352 N 
ATOM     60  C   UNL A   1      33.283  29.031  23.924  1.00  0.00     0.251 C 
ATOM     61  H   UNL A   1      34.440  30.080  25.191  1.00  0.00     0.163 HD
ATOM     62  O   UNL A   1      34.157  28.896  23.076  1.00  0.00    -0.269 OA
BRANCH  60  63
ATOM     63  C   UNL A   1      31.941  28.455  23.703  1.00  0.00     0.043 A 
ATOM     64  C   UNL A   1      31.572  27.322  24.431  1.00  0.00     0.014 A 
ATOM     65  C   UNL A   1      31.045  29.063  22.814  1.00  0.00     0.060 A 
ATOM     66  C   UNL A   1      30.276  26.831  24.311  1.00  0.00     0.005 A 
ATOM     67  C   UNL A   1      29.737  28.596  22.720  1.00  0.00     0.120 A 
ATOM     68  C   UNL A   1      29.363  27.475  23.471  1.00  0.00     0.046 A 
BRANCH  67  69
ATOM     69  O   UNL A   1      28.737  29.138  21.965  1.00  0.00    -0.488 OA
BRANCH  69  70
ATOM     70  C   UNL A   1      27.672  29.835  22.623  1.00  0.00     0.302 C 
BRANCH  70  71
ATOM     71  C   UNL A   1      27.992  31.304  22.861  1.00  0.00     0.379 C 
ATOM     72  F   UNL A   1      28.573  31.474  24.078  1.00  0.00    -0.207 F 
ATOM     73  F   UNL A   1      28.911  31.719  21.951  1.00  0.00    -0.207 F 
ENDBRANCH  70  71
ENDBRANCH  69  70
ENDBRANCH  67  69
ENDBRANCH  60  63
ENDBRANCH  58  59
ENDBRANCH   1  58
TORSDOF 14
ENDMDL
MODEL 3
REMARK VINA RESULT:     -10.2      0.751      6.208
REMARK SMILES O=C(NCCCCNC(=O)c1cccc(OCC(F)F)c1)c1ccc(-c2c3nc(c(-c4ccccc4)c4ccc([nH]4)c(-c4ccccc4)c4nc(c(-c5ccccc5)c5ccc2[nH]5)C=C4)C=C3)cc1
REMARK SMILES IDX 6 1 5 2 4 3 3 4 1 5 2 6 22 8 23 9 69 10 24 11 68 12 25 13
REMARK SMILES IDX 26 14 27 15 62 16 28 17 67 18 61 19 63 20 29 21 66 22 60 23
REMARK SMILES IDX 59 24 30 26 52 27 37 28 51 29 38 30 41 31 50 32 64 33 39 34
REMARK SMILES IDX 40 35 49 37 65 38 42 39 31 40 32 41 36 42 33 43 35 44 34 45
REMARK SMILES IDX 53 46 54 47 58 48 55 49 57 50 56 51 43 52 44 53 48 54 45 55
REMARK SMILES IDX 47 56 46 57 7 58 8 59 9 60 10 62 11 63 12 64 21 65 13 66
REMARK SMILES IDX 15 67 14 68 16 69 17 70 18 71 19 72 20 73
REMARK H PARENT 3 7 63 25 41 36 8 61
REMARK Flexibility Score: inf
ROOT
ATOM      1  C   UNL A   1      36.567  19.917  24.993  1.00  0.00     0.023 C 
ENDROOT
BRANCH   1   2
ATOM      2  C   UNL A   1      37.911  19.194  25.004  1.00  0.00     0.023 C 
BRANCH   2   3
ATOM      3  C   UNL A   1      39.064  19.976  25.622  1.00  0.00     0.116 C 
BRANCH   3   4
ATOM      4  N   UNL A   1      40.269  19.177  25.791  1.00  0.00    -0.352 N 
ATOM      5  O   UNL A   1      42.462  18.762  26.123  1.00  0.00    -0.269 OA
ATOM      6  C   UNL A   1      41.529  19.558  26.188  1.00  0.00     0.251 C 
ATOM      7  H   UNL A   1      40.165  18.219  25.590  1.00  0.00     0.163 HD
BRANCH   6   8
ATOM      8  C   UNL A   1      41.772  20.935  26.668  1.00  0.00     0.039 A 
ATOM      9  C   UNL A   1      42.087  21.961  25.774  1.00  0.00     0.014 A 
ATOM     10  C   UNL A   1      41.677  21.207  28.037  1.00  0.00     0.014 A 
ATOM     11  C   UNL A   1      42.467  23.208  26.259  1.00  0.00     0.010 A 
ATOM     12  C   UNL A   1      41.971  22.487  28.515  1.00  0.00     0.010 A 
ATOM     13  C   UNL A   1      42.408  23.488  27.633  1.00  0.00    -0.014 A 
BRANCH  13  14
ATOM     14  C   UNL A   1      42.767  24.845  28.118  1.00  0.00     0.031 A 
ATOM     15  C   UNL A   1      41.712  25.891  28.357  1.00  0.00     0.074 A 
ATOM     16  C   UNL A   1      44.060  25.124  28.373  1.00  0.00     0.049 A 
ATOM     17  N   UNL A   1      41.856  27.117  28.796  1.00  0.00    -0.248 NA
ATOM     18  C   UNL A   1      40.320  25.519  28.062  1.00  0.00     0.031 C 
ATOM     19  C   UNL A   1      45.176  24.195  28.182  1.00  0.00     0.029 A 
ATOM     20  N   UNL A   1      44.651  26.258  28.866  1.00  0.00    -0.354 N 
ATOM     21  C   UNL A   1      40.581  27.668  28.809  1.00  0.00     0.074 A 
ATOM     22  C   UNL A   1      39.678  26.652  28.314  1.00  0.00     0.031 C 
ATOM     23  C   UNL A   1      46.309  24.780  28.597  1.00  0.00     0.029 A 
ATOM     24  C   UNL A   1      46.010  26.141  29.025  1.00  0.00     0.049 A 
ATOM     25  H   UNL A   1      44.150  27.077  29.084  1.00  0.00     0.167 HD
ATOM     26  C   UNL A   1      40.196  28.907  29.201  1.00  0.00     0.031 A 
ATOM     27  C   UNL A   1      46.921  27.032  29.455  1.00  0.00     0.031 A 
ATOM     28  C   UNL A   1      41.092  29.919  29.698  1.00  0.00     0.049 A 
ATOM     29  C   UNL A   1      46.472  28.406  29.854  1.00  0.00     0.074 A 
ATOM     30  C   UNL A   1      40.790  31.194  30.149  1.00  0.00     0.029 A 
ATOM     31  N   UNL A   1      42.467  29.772  29.807  1.00  0.00    -0.354 N 
ATOM     32  N   UNL A   1      45.258  28.900  29.884  1.00  0.00    -0.248 NA
ATOM     33  C   UNL A   1      47.520  29.344  30.277  1.00  0.00     0.031 C 
ATOM     34  C   UNL A   1      41.988  31.833  30.487  1.00  0.00     0.029 A 
ATOM     35  C   UNL A   1      43.029  30.941  30.294  1.00  0.00     0.049 A 
ATOM     36  H   UNL A   1      42.969  28.959  29.572  1.00  0.00     0.167 HD
ATOM     37  C   UNL A   1      45.394  30.203  30.341  1.00  0.00     0.074 A 
ATOM     38  C   UNL A   1      46.805  30.415  30.596  1.00  0.00     0.031 C 
ATOM     39  C   UNL A   1      44.435  31.140  30.532  1.00  0.00     0.031 A 
BRANCH  26  40
ATOM     40  C   UNL A   1      38.737  29.252  29.082  1.00  0.00    -0.014 A 
ATOM     41  C   UNL A   1      37.865  29.120  30.172  1.00  0.00     0.009 A 
ATOM     42  C   UNL A   1      38.240  29.760  27.870  1.00  0.00     0.009 A 
ATOM     43  C   UNL A   1      36.516  29.461  30.043  1.00  0.00     0.001 A 
ATOM     44  C   UNL A   1      36.897  30.123  27.752  1.00  0.00     0.001 A 
ATOM     45  C   UNL A   1      36.034  29.966  28.836  1.00  0.00     0.000 A 
ENDBRANCH  26  40
BRANCH  27  46
ATOM     46  C   UNL A   1      48.353  26.646  29.514  1.00  0.00    -0.014 A 
ATOM     47  C   UNL A   1      49.220  26.963  28.458  1.00  0.00     0.009 A 
ATOM     48  C   UNL A   1      48.863  25.981  30.639  1.00  0.00     0.009 A 
ATOM     49  C   UNL A   1      50.569  26.606  28.523  1.00  0.00     0.001 A 
ATOM     50  C   UNL A   1      50.217  25.650  30.713  1.00  0.00     0.001 A 
ATOM     51  C   UNL A   1      51.068  25.957  29.653  1.00  0.00     0.000 A 
ENDBRANCH  27  46
BRANCH  39  52
ATOM     52  C   UNL A   1      44.881  32.472  31.062  1.00  0.00    -0.014 A 
ATOM     53  C   UNL A   1      44.959  32.713  32.443  1.00  0.00     0.009 A 
ATOM     54  C   UNL A   1      45.251  33.488  30.168  1.00  0.00     0.009 A 
ATOM     55  C   UNL A   1      45.370  33.961  32.917  1.00  0.00     0.001 A 
ATOM     56  C   UNL A   1      45.683  34.726  30.646  1.00  0.00     0.001 A 
ATOM     57  C   UNL A   1      45.735  34.964  32.019  1.00  0.00     0.000 A 
ENDBRANCH  39  52
ENDBRANCH  13  14
ENDBRANCH   6   8
ENDBRANCH   3   4
ENDBRANCH   2   3
ENDBRANCH   1   2
BRANCH   1  58
ATOM     58  C   UNL A   1      36.633  21.420  25.230  1.00  0.00     0.116 C 
BRANCH  58  59
ATOM     59  N   UNL A   1      35.894  21.856  26.406  1.00  0.00    -0.352 N 
ATOM     60  C   UNL A   1      34.533  21.852  26.601  1.00  0.00     0.251 C 
ATOM     61  H   UNL A   1      36.436  22.196  27.154  1.00  0.00     0.163 HD
ATOM     62  O   UNL A   1      34.045  22.315  27.626  1.00  0.00    -0.269 OA
BRANCH  60  63
ATOM     63  C   UNL A   1      33.657  21.313  25.541  1.00  0.00     0.043 A 
ATOM     64  C   UNL A   1      33.345  22.130  24.453  1.00  0.00     0.014 A 
ATOM     65  C   UNL A   1      33.189  19.993  25.609  1.00  0.00     0.060 A 
ATOM     66  C   UNL A   1      32.609  21.601  23.397  1.00  0.00     0.005 A 
ATOM     67  C   UNL A   1      32.484  19.453  24.538  1.00  0.00     0.120 A 
ATOM     68  C   UNL A   1      32.195  20.267  23.437  1.00  0.00     0.046 A 
BRANCH  67  69
ATOM     69  O   UNL A   1      32.042  18.164  24.429  1.00  0.00    -0.488 OA
BRANCH  69  70
ATOM     70  C   UNL A   1      32.587  17.169  25.303  1.00  0.00     0.302 C 
BRANCH  70  71
ATOM     71  C   UNL A   1      33.545  16.224  24.590  1.00  0.00     0.379 C 
ATOM     72  F   UNL A   1      34.696  16.869  24.264  1.00  0.00    -0.207 F 
ATOM     73  F   UNL A   1      33.907  15.226  25.437  1.00  0.00    -0.207 F 
ENDBRANCH  70  71
ENDBRANCH  69  70
ENDBRANCH  67  69
ENDBRANCH  60  63
ENDBRANCH  58  59
ENDBRANCH   1  58
TORSDOF 14
ENDMDL
