MODEL 1
REMARK VINA RESULT:     -11.6      0.000      0.000
REMARK SMILES CCCCc1cc(S(F)(F)(F)(F)F)cc2c1O[C@@H](C(F)(F)F)C(C(=O)NCCCCNC(=O)c1ccc(-c3c4nc(c(-c5ccccc5)c5ccc([nH]5)c(-c5ccccc5)c5nc(c(-c6ccccc6)c6ccc3[nH]6)C=C5)C=C4)cc1)=C2
REMARK SMILES IDX 28 1 27 2 26 3 24 4 25 5 23 7 5 8 6 9 16 10 7 11 15 12 17 13
REMARK SMILES IDX 14 14 82 15 18 16 4 17 3 18 2 19 1 20 8 21 9 22 10 23 11 24
REMARK SMILES IDX 12 25 13 26 19 27 20 28 21 29 22 30 29 31 30 32 31 33 32 34
REMARK SMILES IDX 33 36 34 37 35 38 81 39 36 40 80 41 37 42 38 43 39 44 74 45
REMARK SMILES IDX 40 46 79 47 73 48 75 49 41 50 78 51 72 52 71 53 42 55 64 56
REMARK SMILES IDX 49 57 63 58 50 59 53 60 62 61 76 62 51 63 52 64 61 66 77 67
REMARK SMILES IDX 54 68 43 69 44 70 48 71 45 72 47 73 46 74 65 75 66 76 70 77
REMARK SMILES IDX 67 78 69 79 68 80 55 81 56 82 60 83 57 84 59 85 58 86
REMARK H PARENT 26 6 31 35 75 54 53 65
REMARK Flexibility Score: inf
ROOT
ATOM      1  C   UNL A   1      35.682  22.216  24.249  1.00  0.00     0.023 C 
ENDROOT
BRANCH   1   2
ATOM      2  C   UNL A   1      34.433  22.287  23.385  1.00  0.00     0.116 C 
BRANCH   2   3
ATOM      3  N   UNL A   1      33.439  21.324  23.880  1.00  0.00    -0.352 N 
ATOM      4  C   UNL A   1      32.272  21.796  24.639  1.00  0.00     0.251 C 
ATOM      5  O   UNL A   1      31.412  20.963  25.066  1.00  0.00    -0.270 OA
ATOM      6  H   UNL A   1      33.556  20.362  23.704  1.00  0.00     0.163 HD
BRANCH   4   7
ATOM      7  C   UNL A   1      32.092  23.281  24.911  1.00  0.00     0.067 C 
ATOM      8  C   UNL A   1      31.243  27.224  25.995  1.00  0.00    -0.004 A 
ATOM      9  C   UNL A   1      30.651  28.078  25.083  1.00  0.00     0.032 A 
ATOM     10  C   UNL A   1      31.463  25.918  25.630  1.00  0.00     0.131 A 
ATOM     11  C   UNL A   1      30.283  27.636  23.840  1.00  0.00     0.108 A 
ATOM     12  C   UNL A   1      31.121  25.441  24.377  1.00  0.00     0.019 A 
ATOM     13  O   UNL A   1      31.947  25.055  26.583  1.00  0.00    -0.475 OA
ATOM     14  C   UNL A   1      30.524  26.325  23.487  1.00  0.00     0.036 A 
ATOM     15  C   UNL A   1      31.358  24.035  24.101  1.00  0.00     0.025 C 
ATOM     16  C   UNL A   1      32.751  23.936  26.116  1.00  0.00     0.314 C 
BRANCH   8  17
ATOM     17  C   UNL A   1      31.644  27.720  27.375  1.00  0.00     0.039 C 
BRANCH  17  18
ATOM     18  C   UNL A   1      32.249  29.110  27.258  1.00  0.00     0.005 C 
BRANCH  18  19
ATOM     19  C   UNL A   1      33.764  29.001  27.215  1.00  0.00    -0.003 C 
ATOM     20  C   UNL A   1      34.374  30.391  27.284  1.00  0.00     0.004 C 
ENDBRANCH  18  19
ENDBRANCH  17  18
ENDBRANCH   8  17
BRANCH  11  21
ATOM     21  S   UNL A   1      29.486  28.765  22.670  1.00  0.00     0.310 S 
ATOM     22  F   UNL A   1      29.469  29.947  23.727  1.00  0.00    -0.094 F 
ATOM     23  F   UNL A   1      28.086  28.325  23.243  1.00  0.00    -0.094 F 
ATOM     24  F   UNL A   1      28.803  29.735  21.666  1.00  0.00    -0.094 F 
ATOM     25  F   UNL A   1      30.900  29.295  22.208  1.00  0.00    -0.094 F 
ATOM     26  F   UNL A   1      30.195  27.869  23.763  1.00  0.00    -0.094 F 
ENDBRANCH  11  21
BRANCH  16  27
ATOM     27  C   UNL A   1      32.872  22.912  27.233  1.00  0.00     0.429 C 
ATOM     28  F   UNL A   1      33.453  23.473  28.289  1.00  0.00    -0.167 F 
ATOM     29  F   UNL A   1      31.660  22.480  27.571  1.00  0.00    -0.167 F 
ATOM     30  F   UNL A   1      33.606  21.885  26.816  1.00  0.00    -0.167 F 
ENDBRANCH  16  27
ENDBRANCH   4   7
ENDBRANCH   2   3
ENDBRANCH   1   2
BRANCH   1  31
ATOM     31  C   UNL A   1      36.064  23.614  24.704  1.00  0.00     0.023 C 
BRANCH  31  32
ATOM     32  C   UNL A   1      36.851  23.529  26.002  1.00  0.00     0.116 C 
BRANCH  32  33
ATOM     33  N   UNL A   1      37.825  22.432  25.912  1.00  0.00    -0.352 N 
ATOM     34  C   UNL A   1      39.203  22.632  26.382  1.00  0.00     0.251 C 
ATOM     35  H   UNL A   1      37.555  21.563  25.537  1.00  0.00     0.163 HD
ATOM     36  O   UNL A   1      40.045  21.684  26.305  1.00  0.00    -0.269 OA
BRANCH  34  37
ATOM     37  C   UNL A   1      39.621  23.974  26.961  1.00  0.00     0.039 A 
ATOM     38  C   UNL A   1      39.433  24.207  28.313  1.00  0.00     0.014 A 
ATOM     39  C   UNL A   1      40.158  24.897  26.172  1.00  0.00     0.014 A 
ATOM     40  C   UNL A   1      39.581  25.563  28.689  1.00  0.00     0.010 A 
ATOM     41  C   UNL A   1      40.401  26.165  26.643  1.00  0.00     0.010 A 
ATOM     42  C   UNL A   1      40.183  26.480  27.956  1.00  0.00    -0.014 A 
BRANCH  42  43
ATOM     43  C   UNL A   1      40.611  27.817  28.538  1.00  0.00     0.031 A 
ATOM     44  C   UNL A   1      41.951  27.974  28.901  1.00  0.00     0.074 A 
ATOM     45  C   UNL A   1      39.651  28.805  28.675  1.00  0.00     0.049 A 
ATOM     46  N   UNL A   1      42.538  29.066  29.393  1.00  0.00    -0.248 NA
ATOM     47  C   UNL A   1      42.964  26.915  28.789  1.00  0.00     0.031 C 
ATOM     48  C   UNL A   1      38.301  28.659  28.303  1.00  0.00     0.029 A 
ATOM     49  N   UNL A   1      39.813  30.077  29.181  1.00  0.00    -0.354 N 
ATOM     50  C   UNL A   1      43.837  28.837  29.601  1.00  0.00     0.074 A 
ATOM     51  C   UNL A   1      44.128  27.448  29.220  1.00  0.00     0.031 C 
ATOM     52  C   UNL A   1      37.656  29.819  28.592  1.00  0.00     0.029 A 
ATOM     53  C   UNL A   1      38.592  30.712  29.148  1.00  0.00     0.049 A 
ATOM     54  H   UNL A   1      40.657  30.464  29.510  1.00  0.00     0.167 HD
ATOM     55  C   UNL A   1      44.789  29.733  30.089  1.00  0.00     0.031 A 
ATOM     56  C   UNL A   1      38.291  31.995  29.575  1.00  0.00     0.031 A 
ATOM     57  C   UNL A   1      44.496  31.031  30.476  1.00  0.00     0.049 A 
ATOM     58  C   UNL A   1      39.232  32.873  30.119  1.00  0.00     0.074 A 
ATOM     59  C   UNL A   1      45.445  31.949  30.964  1.00  0.00     0.029 A 
ATOM     60  N   UNL A   1      43.269  31.658  30.465  1.00  0.00    -0.354 N 
ATOM     61  N   UNL A   1      40.538  32.657  30.288  1.00  0.00    -0.248 NA
ATOM     62  C   UNL A   1      38.918  34.223  30.605  1.00  0.00     0.031 C 
ATOM     63  C   UNL A   1      44.800  33.111  31.251  1.00  0.00     0.029 A 
ATOM     64  C   UNL A   1      43.436  32.936  30.950  1.00  0.00     0.049 A 
ATOM     65  H   UNL A   1      42.420  31.261  30.163  1.00  0.00     0.167 HD
ATOM     66  C   UNL A   1      41.117  33.735  30.820  1.00  0.00     0.074 A 
ATOM     67  C   UNL A   1      40.082  34.756  31.038  1.00  0.00     0.031 C 
ATOM     68  C   UNL A   1      42.467  33.911  31.128  1.00  0.00     0.031 A 
BRANCH  55  69
ATOM     69  C   UNL A   1      46.228  29.258  30.203  1.00  0.00    -0.014 A 
ATOM     70  C   UNL A   1      47.083  29.416  29.125  1.00  0.00     0.009 A 
ATOM     71  C   UNL A   1      46.640  28.692  31.333  1.00  0.00     0.009 A 
ATOM     72  C   UNL A   1      48.287  28.680  29.235  1.00  0.00     0.001 A 
ATOM     73  C   UNL A   1      47.882  28.111  31.411  1.00  0.00     0.001 A 
ATOM     74  C   UNL A   1      48.757  28.179  30.362  1.00  0.00     0.000 A 
ENDBRANCH  55  69
BRANCH  56  75
ATOM     75  C   UNL A   1      36.855  32.476  29.444  1.00  0.00    -0.014 A 
ATOM     76  C   UNL A   1      36.478  33.197  28.323  1.00  0.00     0.009 A 
ATOM     77  C   UNL A   1      35.984  32.194  30.406  1.00  0.00     0.009 A 
ATOM     78  C   UNL A   1      35.219  33.830  28.445  1.00  0.00     0.001 A 
ATOM     79  C   UNL A   1      34.723  32.740  30.390  1.00  0.00     0.001 A 
ATOM     80  C   UNL A   1      34.304  33.511  29.342  1.00  0.00     0.000 A 
ENDBRANCH  56  75
BRANCH  68  81
ATOM     81  C   UNL A   1      42.901  35.254  31.694  1.00  0.00    -0.014 A 
ATOM     82  C   UNL A   1      43.423  36.205  30.834  1.00  0.00     0.009 A 
ATOM     83  C   UNL A   1      42.773  35.497  32.993  1.00  0.00     0.009 A 
ATOM     84  C   UNL A   1      44.054  37.288  31.490  1.00  0.00     0.001 A 
ATOM     85  C   UNL A   1      43.296  36.640  33.546  1.00  0.00     0.001 A 
ATOM     86  C   UNL A   1      43.879  37.597  32.762  1.00  0.00     0.000 A 
ENDBRANCH  68  81
ENDBRANCH  42  43
ENDBRANCH  34  37
ENDBRANCH  32  33
ENDBRANCH  31  32
ENDBRANCH   1  31
TORSDOF 16
ENDMDL
MODEL 2
REMARK VINA RESULT:     -11.6      0.253      5.564
REMARK SMILES CCCCc1cc(S(F)(F)(F)(F)F)cc2c1O[C@@H](C(F)(F)F)C(C(=O)NCCCCNC(=O)c1ccc(-c3c4nc(c(-c5ccccc5)c5ccc([nH]5)c(-c5ccccc5)c5nc(c(-c6ccccc6)c6ccc3[nH]6)C=C5)C=C4)cc1)=C2
REMARK SMILES IDX 28 1 27 2 26 3 24 4 25 5 23 7 5 8 6 9 16 10 7 11 15 12 17 13
REMARK SMILES IDX 14 14 82 15 18 16 4 17 3 18 2 19 1 20 8 21 9 22 10 23 11 24
REMARK SMILES IDX 12 25 13 26 19 27 20 28 21 29 22 30 29 31 30 32 31 33 32 34
REMARK SMILES IDX 33 36 34 37 35 38 81 39 36 40 80 41 37 42 38 43 39 44 74 45
REMARK SMILES IDX 40 46 79 47 73 48 75 49 41 50 78 51 72 52 71 53 42 55 64 56
REMARK SMILES IDX 49 57 63 58 50 59 53 60 62 61 76 62 51 63 52 64 61 66 77 67
REMARK SMILES IDX 54 68 43 69 44 70 48 71 45 72 47 73 46 74 65 75 66 76 70 77
REMARK SMILES IDX 67 78 69 79 68 80 55 81 56 82 60 83 57 84 59 85 58 86
REMARK H PARENT 26 6 31 35 75 54 53 65
REMARK Flexibility Score: inf
ROOT
ATOM      1  C   UNL A   1      35.633  22.219  24.160  1.00  0.00     0.023 C 
ENDROOT
BRANCH   1   2
ATOM      2  C   UNL A   1      34.372  22.251  23.311  1.00  0.00     0.116 C 
BRANCH   2   3
ATOM      3  N   UNL A   1      33.387  21.307  23.860  1.00  0.00    -0.352 N 
ATOM      4  C   UNL A   1      32.253  21.805  24.652  1.00  0.00     0.251 C 
ATOM      5  O   UNL A   1      31.402  20.988  25.125  1.00  0.00    -0.270 OA
ATOM      6  H   UNL A   1      33.488  20.341  23.697  1.00  0.00     0.163 HD
BRANCH   4   7
ATOM      7  C   UNL A   1      32.098  23.296  24.903  1.00  0.00     0.067 C 
ATOM      8  C   UNL A   1      31.334  27.266  25.950  1.00  0.00    -0.004 A 
ATOM      9  C   UNL A   1      30.702  28.107  25.052  1.00  0.00     0.032 A 
ATOM     10  C   UNL A   1      31.525  25.952  25.600  1.00  0.00     0.131 A 
ATOM     11  C   UNL A   1      30.268  27.644  23.838  1.00  0.00     0.108 A 
ATOM     12  C   UNL A   1      31.117  25.454  24.376  1.00  0.00     0.019 A 
ATOM     13  O   UNL A   1      32.051  25.104  26.544  1.00  0.00    -0.475 OA
ATOM     14  C   UNL A   1      30.482  26.324  23.500  1.00  0.00     0.036 A 
ATOM     15  C   UNL A   1      31.330  24.040  24.116  1.00  0.00     0.025 C 
ATOM     16  C   UNL A   1      32.823  23.969  26.060  1.00  0.00     0.314 C 
BRANCH   8  17
ATOM     17  C   UNL A   1      31.808  27.786  27.297  1.00  0.00     0.039 C 
BRANCH  17  18
ATOM     18  C   UNL A   1      32.165  29.259  27.175  1.00  0.00     0.005 C 
BRANCH  18  19
ATOM     19  C   UNL A   1      33.665  29.401  26.971  1.00  0.00    -0.003 C 
ATOM     20  C   UNL A   1      34.135  30.716  27.570  1.00  0.00     0.004 C 
ENDBRANCH  18  19
ENDBRANCH  17  18
ENDBRANCH   8  17
BRANCH  11  21
ATOM     21  S   UNL A   1      29.422  28.756  22.688  1.00  0.00     0.310 S 
ATOM     22  F   UNL A   1      29.433  29.948  23.734  1.00  0.00    -0.094 F 
ATOM     23  F   UNL A   1      28.046  28.310  23.314  1.00  0.00    -0.094 F 
ATOM     24  F   UNL A   1      28.695  29.711  21.700  1.00  0.00    -0.094 F 
ATOM     25  F   UNL A   1      30.814  29.293  22.171  1.00  0.00    -0.094 F 
ATOM     26  F   UNL A   1      30.176  27.875  23.762  1.00  0.00    -0.094 F 
ENDBRANCH  11  21
BRANCH  16  27
ATOM     27  C   UNL A   1      32.992  22.966  27.189  1.00  0.00     0.429 C 
ATOM     28  F   UNL A   1      33.659  23.533  28.190  1.00  0.00    -0.167 F 
ATOM     29  F   UNL A   1      31.796  22.576  27.619  1.00  0.00    -0.167 F 
ATOM     30  F   UNL A   1      33.669  21.910  26.747  1.00  0.00    -0.167 F 
ENDBRANCH  16  27
ENDBRANCH   4   7
ENDBRANCH   2   3
ENDBRANCH   1   2
BRANCH   1  31
ATOM     31  C   UNL A   1      36.040  23.640  24.516  1.00  0.00     0.023 C 
BRANCH  31  32
ATOM     32  C   UNL A   1      36.820  23.633  25.820  1.00  0.00     0.116 C 
BRANCH  32  33
ATOM     33  N   UNL A   1      37.760  22.504  25.823  1.00  0.00    -0.352 N 
ATOM     34  C   UNL A   1      39.116  22.678  26.363  1.00  0.00     0.251 C 
ATOM     35  H   UNL A   1      37.483  21.631  25.461  1.00  0.00     0.163 HD
ATOM     36  O   UNL A   1      39.929  21.702  26.366  1.00  0.00    -0.269 OA
BRANCH  34  37
ATOM     37  C   UNL A   1      39.544  24.025  26.920  1.00  0.00     0.039 A 
ATOM     38  C   UNL A   1      39.314  24.300  28.259  1.00  0.00     0.014 A 
ATOM     39  C   UNL A   1      40.130  24.913  26.127  1.00  0.00     0.014 A 
ATOM     40  C   UNL A   1      39.481  25.662  28.603  1.00  0.00     0.010 A 
ATOM     41  C   UNL A   1      40.386  26.188  26.572  1.00  0.00     0.010 A 
ATOM     42  C   UNL A   1      40.130  26.545  27.867  1.00  0.00    -0.014 A 
BRANCH  42  43
ATOM     43  C   UNL A   1      40.569  27.888  28.428  1.00  0.00     0.031 A 
ATOM     44  C   UNL A   1      39.590  28.863  28.630  1.00  0.00     0.074 A 
ATOM     45  C   UNL A   1      41.912  28.068  28.710  1.00  0.00     0.049 A 
ATOM     46  N   UNL A   1      39.753  30.085  29.141  1.00  0.00    -0.248 NA
ATOM     47  C   UNL A   1      38.169  28.686  28.300  1.00  0.00     0.031 C 
ATOM     48  C   UNL A   1      42.903  27.086  28.518  1.00  0.00     0.029 A 
ATOM     49  N   UNL A   1      42.526  29.194  29.212  1.00  0.00    -0.354 N 
ATOM     50  C   UNL A   1      38.581  30.722  29.195  1.00  0.00     0.074 A 
ATOM     51  C   UNL A   1      37.546  29.833  28.650  1.00  0.00     0.031 C 
ATOM     52  C   UNL A   1      44.099  27.617  28.886  1.00  0.00     0.029 A 
ATOM     53  C   UNL A   1      43.875  28.938  29.317  1.00  0.00     0.049 A 
ATOM     54  H   UNL A   1      42.078  30.037  29.454  1.00  0.00     0.167 HD
ATOM     55  C   UNL A   1      38.335  32.008  29.680  1.00  0.00     0.031 A 
ATOM     56  C   UNL A   1      44.870  29.796  29.759  1.00  0.00     0.031 A 
ATOM     57  C   UNL A   1      39.325  32.849  30.163  1.00  0.00     0.049 A 
ATOM     58  C   UNL A   1      44.633  31.103  30.190  1.00  0.00     0.074 A 
ATOM     59  C   UNL A   1      39.093  34.145  30.662  1.00  0.00     0.029 A 
ATOM     60  N   UNL A   1      40.677  32.601  30.245  1.00  0.00    -0.354 N 
ATOM     61  N   UNL A   1      43.456  31.725  30.281  1.00  0.00    -0.248 NA
ATOM     62  C   UNL A   1      45.683  32.031  30.629  1.00  0.00     0.031 C 
ATOM     63  C   UNL A   1      40.289  34.675  31.032  1.00  0.00     0.029 A 
ATOM     64  C   UNL A   1      41.288  33.719  30.768  1.00  0.00     0.049 A 
ATOM     65  H   UNL A   1      41.129  31.769  29.976  1.00  0.00     0.167 HD
ATOM     66  C   UNL A   1      43.625  32.961  30.753  1.00  0.00     0.074 A 
ATOM     67  C   UNL A   1      45.061  33.179  30.977  1.00  0.00     0.031 C 
ATOM     68  C   UNL A   1      42.639  33.916  31.010  1.00  0.00     0.031 A 
BRANCH  55  69
ATOM     69  C   UNL A   1      36.902  32.512  29.679  1.00  0.00    -0.014 A 
ATOM     70  C   UNL A   1      36.474  33.341  28.656  1.00  0.00     0.009 A 
ATOM     71  C   UNL A   1      36.084  32.153  30.663  1.00  0.00     0.009 A 
ATOM     72  C   UNL A   1      35.237  33.979  28.913  1.00  0.00     0.001 A 
ATOM     73  C   UNL A   1      34.836  32.717  30.775  1.00  0.00     0.001 A 
ATOM     74  C   UNL A   1      34.371  33.590  29.832  1.00  0.00     0.000 A 
ENDBRANCH  55  69
BRANCH  56  75
ATOM     75  C   UNL A   1      46.302  29.284  29.777  1.00  0.00    -0.014 A 
ATOM     76  C   UNL A   1      47.102  29.464  28.661  1.00  0.00     0.009 A 
ATOM     77  C   UNL A   1      46.762  28.676  30.864  1.00  0.00     0.009 A 
ATOM     78  C   UNL A   1      48.296  28.704  28.684  1.00  0.00     0.001 A 
ATOM     79  C   UNL A   1      47.996  28.072  30.858  1.00  0.00     0.001 A 
ATOM     80  C   UNL A   1      48.816  28.158  29.768  1.00  0.00     0.000 A 
ENDBRANCH  56  75
BRANCH  68  81
ATOM     81  C   UNL A   1      43.073  35.253  31.588  1.00  0.00    -0.014 A 
ATOM     82  C   UNL A   1      43.508  36.244  30.724  1.00  0.00     0.009 A 
ATOM     83  C   UNL A   1      43.030  35.452  32.900  1.00  0.00     0.009 A 
ATOM     84  C   UNL A   1      44.153  37.325  31.371  1.00  0.00     0.001 A 
ATOM     85  C   UNL A   1      43.559  36.594  33.452  1.00  0.00     0.001 A 
ATOM     86  C   UNL A   1      44.059  37.591  32.661  1.00  0.00     0.000 A 
ENDBRANCH  68  81
ENDBRANCH  42  43
ENDBRANCH  34  37
ENDBRANCH  32  33
ENDBRANCH  31  32
ENDBRANCH   1  31
TORSDOF 16
ENDMDL
MODEL 3
REMARK VINA RESULT:     -11.3      1.981      6.143
REMARK SMILES CCCCc1cc(S(F)(F)(F)(F)F)cc2c1O[C@@H](C(F)(F)F)C(C(=O)NCCCCNC(=O)c1ccc(-c3c4nc(c(-c5ccccc5)c5ccc([nH]5)c(-c5ccccc5)c5nc(c(-c6ccccc6)c6ccc3[nH]6)C=C5)C=C4)cc1)=C2
REMARK SMILES IDX 28 1 27 2 26 3 24 4 25 5 23 7 5 8 6 9 16 10 7 11 15 12 17 13
REMARK SMILES IDX 14 14 82 15 18 16 4 17 3 18 2 19 1 20 8 21 9 22 10 23 11 24
REMARK SMILES IDX 12 25 13 26 19 27 20 28 21 29 22 30 29 31 30 32 31 33 32 34
REMARK SMILES IDX 33 36 34 37 35 38 81 39 36 40 80 41 37 42 38 43 39 44 74 45
REMARK SMILES IDX 40 46 79 47 73 48 75 49 41 50 78 51 72 52 71 53 42 55 64 56
REMARK SMILES IDX 49 57 63 58 50 59 53 60 62 61 76 62 51 63 52 64 61 66 77 67
REMARK SMILES IDX 54 68 43 69 44 70 48 71 45 72 47 73 46 74 65 75 66 76 70 77
REMARK SMILES IDX 67 78 69 79 68 80 55 81 56 82 60 83 57 84 59 85 58 86
REMARK H PARENT 26 6 31 35 75 54 53 65
REMARK Flexibility Score: inf
ROOT
ATOM      1  C   UNL A   1      36.541  23.061  23.933  1.00  0.00     0.023 C 
ENDROOT
BRANCH   1   2
ATOM      2  C   UNL A   1      35.082  22.843  23.565  1.00  0.00     0.116 C 
BRANCH   2   3
ATOM      3  N   UNL A   1      34.464  21.924  24.532  1.00  0.00    -0.352 N 
ATOM      4  C   UNL A   1      33.357  22.386  25.381  1.00  0.00     0.251 C 
ATOM      5  O   UNL A   1      32.823  21.591  26.217  1.00  0.00    -0.270 OA
ATOM      6  H   UNL A   1      34.794  20.999  24.611  1.00  0.00     0.163 HD
BRANCH   4   7
ATOM      7  C   UNL A   1      32.850  23.813  25.259  1.00  0.00     0.067 C 
ATOM      8  C   UNL A   1      31.651  27.732  24.451  1.00  0.00    -0.004 A 
ATOM      9  C   UNL A   1      32.226  28.785  25.139  1.00  0.00     0.032 A 
ATOM     10  C   UNL A   1      32.101  26.458  24.699  1.00  0.00     0.131 A 
ATOM     11  C   UNL A   1      33.229  28.570  26.047  1.00  0.00     0.108 A 
ATOM     12  C   UNL A   1      33.099  26.201  25.622  1.00  0.00     0.019 A 
ATOM     13  O   UNL A   1      31.601  25.437  23.928  1.00  0.00    -0.475 OA
ATOM     14  C   UNL A   1      33.658  27.282  26.292  1.00  0.00     0.036 A 
ATOM     15  C   UNL A   1      33.533  24.824  25.782  1.00  0.00     0.025 C 
ATOM     16  C   UNL A   1      31.545  24.115  24.534  1.00  0.00     0.314 C 
BRANCH   8  17
ATOM     17  C   UNL A   1      30.542  27.979  23.442  1.00  0.00     0.039 C 
BRANCH  17  18
ATOM     18  C   UNL A   1      30.015  29.396  23.604  1.00  0.00     0.005 C 
BRANCH  18  19
ATOM     19  C   UNL A   1      28.699  29.535  22.857  1.00  0.00    -0.003 C 
ATOM     20  C   UNL A   1      27.933  30.731  23.399  1.00  0.00     0.004 C 
ENDBRANCH  18  19
ENDBRANCH  17  18
ENDBRANCH   8  17
BRANCH  11  21
ATOM     21  S   UNL A   1      33.984  29.965  26.919  1.00  0.00     0.310 S 
ATOM     22  F   UNL A   1      34.397  29.054  28.149  1.00  0.00    -0.094 F 
ATOM     23  F   UNL A   1      32.612  30.214  27.652  1.00  0.00    -0.094 F 
ATOM     24  F   UNL A   1      34.633  31.163  27.667  1.00  0.00    -0.094 F 
ATOM     25  F   UNL A   1      35.386  29.614  26.281  1.00  0.00    -0.094 F 
ATOM     26  F   UNL A   1      33.368  28.677  26.239  1.00  0.00    -0.094 F 
ENDBRANCH  11  21
BRANCH  16  27
ATOM     27  C   UNL A   1      31.333  23.078  23.443  1.00  0.00     0.429 C 
ATOM     28  F   UNL A   1      31.387  21.860  23.972  1.00  0.00    -0.167 F 
ATOM     29  F   UNL A   1      30.142  23.264  22.880  1.00  0.00    -0.167 F 
ATOM     30  F   UNL A   1      32.283  23.204  22.521  1.00  0.00    -0.167 F 
ENDBRANCH  16  27
ENDBRANCH   4   7
ENDBRANCH   2   3
ENDBRANCH   1   2
BRANCH   1  31
ATOM     31  C   UNL A   1      36.634  24.087  25.050  1.00  0.00     0.023 C 
BRANCH  31  32
ATOM     32  C   UNL A   1      36.970  23.386  26.356  1.00  0.00     0.116 C 
BRANCH  32  33
ATOM     33  N   UNL A   1      37.994  22.360  26.112  1.00  0.00    -0.352 N 
ATOM     34  C   UNL A   1      39.407  22.651  26.392  1.00  0.00     0.251 C 
ATOM     35  H   UNL A   1      37.733  21.478  25.760  1.00  0.00     0.163 HD
ATOM     36  O   UNL A   1      40.292  21.764  26.181  1.00  0.00    -0.269 OA
BRANCH  34  37
ATOM     37  C   UNL A   1      39.809  24.012  26.934  1.00  0.00     0.039 A 
ATOM     38  C   UNL A   1      39.686  24.255  28.293  1.00  0.00     0.014 A 
ATOM     39  C   UNL A   1      40.271  24.943  26.109  1.00  0.00     0.014 A 
ATOM     40  C   UNL A   1      39.808  25.619  28.646  1.00  0.00     0.010 A 
ATOM     41  C   UNL A   1      40.496  26.224  26.553  1.00  0.00     0.010 A 
ATOM     42  C   UNL A   1      40.338  26.548  27.872  1.00  0.00    -0.014 A 
BRANCH  42  43
ATOM     43  C   UNL A   1      40.751  27.905  28.418  1.00  0.00     0.031 A 
ATOM     44  C   UNL A   1      39.750  28.854  28.638  1.00  0.00     0.074 A 
ATOM     45  C   UNL A   1      42.095  28.125  28.668  1.00  0.00     0.049 A 
ATOM     46  N   UNL A   1      39.891  30.082  29.140  1.00  0.00    -0.248 NA
ATOM     47  C   UNL A   1      38.328  28.635  28.341  1.00  0.00     0.031 C 
ATOM     48  C   UNL A   1      43.109  27.170  28.458  1.00  0.00     0.029 A 
ATOM     49  N   UNL A   1      42.688  29.270  29.151  1.00  0.00    -0.354 N 
ATOM     50  C   UNL A   1      38.702  30.686  29.217  1.00  0.00     0.074 A 
ATOM     51  C   UNL A   1      37.681  29.766  28.699  1.00  0.00     0.031 C 
ATOM     52  C   UNL A   1      44.297  27.736  28.797  1.00  0.00     0.029 A 
ATOM     53  C   UNL A   1      44.046  29.053  29.227  1.00  0.00     0.049 A 
ATOM     54  H   UNL A   1      42.222  30.101  29.400  1.00  0.00     0.167 HD
ATOM     55  C   UNL A   1      38.431  31.966  29.702  1.00  0.00     0.031 A 
ATOM     56  C   UNL A   1      45.026  29.940  29.642  1.00  0.00     0.031 A 
ATOM     57  C   UNL A   1      39.407  32.838  30.159  1.00  0.00     0.049 A 
ATOM     58  C   UNL A   1      44.761  31.242  30.073  1.00  0.00     0.074 A 
ATOM     59  C   UNL A   1      39.150  34.129  30.657  1.00  0.00     0.029 A 
ATOM     60  N   UNL A   1      40.767  32.629  30.211  1.00  0.00    -0.354 N 
ATOM     61  N   UNL A   1      43.570  31.831  30.188  1.00  0.00    -0.248 NA
ATOM     62  C   UNL A   1      45.795  32.202  30.484  1.00  0.00     0.031 C 
ATOM     63  C   UNL A   1      40.338  34.695  30.998  1.00  0.00     0.029 A 
ATOM     64  C   UNL A   1      41.358  33.766  30.715  1.00  0.00     0.049 A 
ATOM     65  H   UNL A   1      41.237  31.808  29.935  1.00  0.00     0.167 HD
ATOM     66  C   UNL A   1      43.714  33.074  30.650  1.00  0.00     0.074 A 
ATOM     67  C   UNL A   1      45.148  33.333  30.841  1.00  0.00     0.031 C 
ATOM     68  C   UNL A   1      42.707  34.002  30.926  1.00  0.00     0.031 A 
BRANCH  55  69
ATOM     69  C   UNL A   1      36.984  32.430  29.732  1.00  0.00    -0.014 A 
ATOM     70  C   UNL A   1      36.542  33.336  28.782  1.00  0.00     0.009 A 
ATOM     71  C   UNL A   1      36.169  31.963  30.671  1.00  0.00     0.009 A 
ATOM     72  C   UNL A   1      35.285  33.914  29.082  1.00  0.00     0.001 A 
ATOM     73  C   UNL A   1      34.905  32.481  30.821  1.00  0.00     0.001 A 
ATOM     74  C   UNL A   1      34.424  33.421  29.953  1.00  0.00     0.000 A 
ENDBRANCH  55  69
BRANCH  56  75
ATOM     75  C   UNL A   1      46.472  29.469  29.630  1.00  0.00    -0.014 A 
ATOM     76  C   UNL A   1      47.239  29.658  28.492  1.00  0.00     0.009 A 
ATOM     77  C   UNL A   1      46.976  28.888  30.712  1.00  0.00     0.009 A 
ATOM     78  C   UNL A   1      48.454  28.932  28.494  1.00  0.00     0.001 A 
ATOM     79  C   UNL A   1      48.226  28.318  30.682  1.00  0.00     0.001 A 
ATOM     80  C   UNL A   1      49.016  28.415  29.570  1.00  0.00     0.000 A 
ENDBRANCH  56  75
BRANCH  68  81
ATOM     81  C   UNL A   1      43.117  35.353  31.488  1.00  0.00    -0.014 A 
ATOM     82  C   UNL A   1      43.599  36.320  30.621  1.00  0.00     0.009 A 
ATOM     83  C   UNL A   1      43.008  35.590  32.790  1.00  0.00     0.009 A 
ATOM     84  C   UNL A   1      44.214  37.416  31.269  1.00  0.00     0.001 A 
ATOM     85  C   UNL A   1      43.512  36.745  33.336  1.00  0.00     0.001 A 
ATOM     86  C   UNL A   1      44.055  37.718  32.545  1.00  0.00     0.000 A 
ENDBRANCH  68  81
ENDBRANCH  42  43
ENDBRANCH  34  37
ENDBRANCH  32  33
ENDBRANCH  31  32
ENDBRANCH   1  31
TORSDOF 16
ENDMDL
