MODEL 1
REMARK VINA RESULT:     -12.4      0.000      0.000
REMARK SMILES O=C(CCC(=O)N1Cc2[nH]cnc2C[C@H]1C(=O)NCc1ccccc1)NCCCCNC(=O)c1ccc(-c2c3nc(c(-c4ccccc4)c4ccc([nH]4)c(-c4ccccc4)c4nc(c(-c5ccccc5)c5ccc2[nH]5)C=C4)C=C3)cc1
REMARK SMILES IDX 1 1 2 2 26 3 3 5 4 6 5 7 6 8 7 9 8 10 15 11 9 12 14 13 10 14
REMARK SMILES IDX 13 15 11 16 12 18 16 19 17 20 18 21 19 23 20 24 21 25 25 26
REMARK SMILES IDX 22 27 24 28 23 29 27 30 28 31 29 32 30 33 31 34 32 35 33 37
REMARK SMILES IDX 34 38 35 39 81 40 36 41 80 42 37 43 38 44 39 45 74 46 40 47
REMARK SMILES IDX 79 48 73 49 75 50 41 51 78 52 72 53 71 54 42 56 64 57 49 58
REMARK SMILES IDX 63 59 50 60 53 61 62 62 76 63 51 64 52 65 61 67 77 68 54 69
REMARK SMILES IDX 43 70 44 71 48 72 45 73 47 74 46 75 65 76 66 77 70 78 67 79
REMARK SMILES IDX 69 80 68 81 55 82 56 83 60 84 57 85 59 86 58 87
REMARK H PARENT 26 4 10 17 18 22 31 36 75 55 53 66
REMARK Flexibility Score: inf
ROOT
ATOM      1  O   UNL A   1      37.988  20.513  25.303  1.00  0.00    -0.275 OA
ATOM      2  C   UNL A   1      38.223  21.719  25.339  1.00  0.00     0.220 C 
ATOM      3  N   UNL A   1      39.384  22.231  25.949  1.00  0.00    -0.356 N 
ATOM      4  H   UNL A   1      39.645  23.164  25.775  1.00  0.00     0.163 HD
ENDROOT
BRANCH   2   5
ATOM      5  C   UNL A   1      37.143  22.769  24.904  1.00  0.00     0.110 C 
BRANCH   5   6
ATOM      6  C   UNL A   1      36.458  23.575  26.063  1.00  0.00     0.110 C 
BRANCH   6   7
ATOM      7  C   UNL A   1      34.937  23.363  26.335  1.00  0.00     0.224 C 
ATOM      8  O   UNL A   1      34.551  22.675  27.259  1.00  0.00    -0.275 OA
BRANCH   7   9
ATOM      9  N   UNL A   1      34.048  24.031  25.498  1.00  0.00    -0.324 N 
ATOM     10  C   UNL A   1      34.367  25.343  24.913  1.00  0.00     0.176 C 
ATOM     11  C   UNL A   1      32.630  23.676  25.537  1.00  0.00     0.180 C 
ATOM     12  C   UNL A   1      33.220  26.233  25.227  1.00  0.00     0.058 A 
ATOM     13  C   UNL A   1      31.948  24.595  26.558  1.00  0.00     0.093 C 
ATOM     14  N   UNL A   1      32.645  27.094  24.340  1.00  0.00    -0.347 N 
ATOM     15  C   UNL A   1      32.198  25.968  26.118  1.00  0.00     0.066 A 
ATOM     16  C   UNL A   1      31.341  27.164  24.719  1.00  0.00     0.197 A 
ATOM     17  H   UNL A   1      33.078  27.562  23.590  1.00  0.00     0.167 HD
ATOM     18  N   UNL A   1      31.149  26.783  25.952  1.00  0.00    -0.242 NA
BRANCH  11  19
ATOM     19  C   UNL A   1      32.085  22.981  24.274  1.00  0.00     0.243 C 
ATOM     20  O   UNL A   1      31.473  23.655  23.432  1.00  0.00    -0.273 OA
ATOM     21  N   UNL A   1      32.333  21.697  23.920  1.00  0.00    -0.350 N 
ATOM     22  H   UNL A   1      32.640  21.545  22.997  1.00  0.00     0.163 HD
BRANCH  21  23
ATOM     23  C   UNL A   1      32.194  20.535  24.752  1.00  0.00     0.151 C 
BRANCH  23  24
ATOM     24  C   UNL A   1      32.994  19.373  24.217  1.00  0.00    -0.029 A 
ATOM     25  C   UNL A   1      32.423  18.523  23.262  1.00  0.00     0.005 A 
ATOM     26  C   UNL A   1      34.290  19.082  24.680  1.00  0.00     0.005 A 
ATOM     27  C   UNL A   1      33.066  17.338  22.904  1.00  0.00     0.000 A 
ATOM     28  C   UNL A   1      34.927  17.900  24.331  1.00  0.00     0.000 A 
ATOM     29  C   UNL A   1      34.297  17.008  23.470  1.00  0.00     0.000 A 
ENDBRANCH  23  24
ENDBRANCH  21  23
ENDBRANCH  11  19
ENDBRANCH   7   9
ENDBRANCH   6   7
ENDBRANCH   5   6
ENDBRANCH   2   5
BRANCH   3  30
ATOM     30  C   UNL A   1      40.227  21.401  26.846  1.00  0.00     0.116 C 
BRANCH  30  31
ATOM     31  C   UNL A   1      41.516  20.731  26.281  1.00  0.00     0.023 C 
BRANCH  31  32
ATOM     32  C   UNL A   1      41.688  19.209  25.884  1.00  0.00     0.023 C 
BRANCH  32  33
ATOM     33  C   UNL A   1      43.066  18.467  25.994  1.00  0.00     0.116 C 
BRANCH  33  34
ATOM     34  N   UNL A   1      43.952  18.578  24.800  1.00  0.00    -0.352 N 
ATOM     35  C   UNL A   1      44.933  19.484  24.387  1.00  0.00     0.251 C 
ATOM     36  H   UNL A   1      43.816  17.846  24.156  1.00  0.00     0.163 HD
ATOM     37  O   UNL A   1      45.810  19.073  23.626  1.00  0.00    -0.269 OA
BRANCH  35  38
ATOM     38  C   UNL A   1      44.998  20.926  24.768  1.00  0.00     0.039 A 
ATOM     39  C   UNL A   1      46.075  21.473  25.501  1.00  0.00     0.014 A 
ATOM     40  C   UNL A   1      44.089  21.823  24.243  1.00  0.00     0.014 A 
ATOM     41  C   UNL A   1      46.041  22.806  26.011  1.00  0.00     0.010 A 
ATOM     42  C   UNL A   1      44.111  23.165  24.678  1.00  0.00     0.010 A 
ATOM     43  C   UNL A   1      44.961  23.635  25.724  1.00  0.00    -0.014 A 
BRANCH  43  44
ATOM     44  C   UNL A   1      44.530  24.875  26.501  1.00  0.00     0.031 A 
ATOM     45  C   UNL A   1      45.392  26.037  26.237  1.00  0.00     0.074 A 
ATOM     46  C   UNL A   1      43.452  25.208  27.281  1.00  0.00     0.049 A 
ATOM     47  N   UNL A   1      46.459  26.272  26.924  1.00  0.00    -0.248 NA
ATOM     48  C   UNL A   1      45.195  26.913  25.073  1.00  0.00     0.031 C 
ATOM     49  C   UNL A   1      42.378  24.361  27.780  1.00  0.00     0.029 A 
ATOM     50  N   UNL A   1      43.032  26.460  27.741  1.00  0.00    -0.354 N 
ATOM     51  C   UNL A   1      46.927  27.466  26.434  1.00  0.00     0.074 A 
ATOM     52  C   UNL A   1      46.331  27.613  25.129  1.00  0.00     0.031 C 
ATOM     53  C   UNL A   1      41.369  25.113  28.297  1.00  0.00     0.029 A 
ATOM     54  C   UNL A   1      41.724  26.515  28.249  1.00  0.00     0.049 A 
ATOM     55  H   UNL A   1      43.616  27.251  27.711  1.00  0.00     0.167 HD
ATOM     56  C   UNL A   1      47.440  28.404  27.273  1.00  0.00     0.031 A 
ATOM     57  C   UNL A   1      41.056  27.511  28.904  1.00  0.00     0.031 A 
ATOM     58  C   UNL A   1      47.599  27.902  28.626  1.00  0.00     0.049 A 
ATOM     59  C   UNL A   1      42.067  28.248  29.671  1.00  0.00     0.074 A 
ATOM     60  C   UNL A   1      48.161  26.777  29.206  1.00  0.00     0.029 A 
ATOM     61  N   UNL A   1      46.774  28.430  29.592  1.00  0.00    -0.354 N 
ATOM     62  N   UNL A   1      42.661  27.759  30.717  1.00  0.00    -0.248 NA
ATOM     63  C   UNL A   1      42.694  29.397  29.055  1.00  0.00     0.031 C 
ATOM     64  C   UNL A   1      47.306  26.438  30.298  1.00  0.00     0.029 A 
ATOM     65  C   UNL A   1      46.309  27.407  30.378  1.00  0.00     0.049 A 
ATOM     66  H   UNL A   1      46.554  29.383  29.701  1.00  0.00     0.167 HD
ATOM     67  C   UNL A   1      43.968  28.179  30.565  1.00  0.00     0.074 A 
ATOM     68  C   UNL A   1      43.900  29.284  29.611  1.00  0.00     0.031 C 
ATOM     69  C   UNL A   1      44.999  27.395  30.993  1.00  0.00     0.031 A 
BRANCH  56  70
ATOM     70  C   UNL A   1      47.381  29.877  26.966  1.00  0.00    -0.014 A 
ATOM     71  C   UNL A   1      48.540  30.644  27.153  1.00  0.00     0.009 A 
ATOM     72  C   UNL A   1      46.189  30.583  26.708  1.00  0.00     0.009 A 
ATOM     73  C   UNL A   1      48.494  32.040  27.124  1.00  0.00     0.001 A 
ATOM     74  C   UNL A   1      46.148  31.973  26.622  1.00  0.00     0.001 A 
ATOM     75  C   UNL A   1      47.300  32.705  26.854  1.00  0.00     0.000 A 
ENDBRANCH  56  70
BRANCH  57  76
ATOM     76  C   UNL A   1      39.653  28.029  28.853  1.00  0.00    -0.014 A 
ATOM     77  C   UNL A   1      38.829  28.009  30.003  1.00  0.00     0.009 A 
ATOM     78  C   UNL A   1      39.224  28.834  27.786  1.00  0.00     0.009 A 
ATOM     79  C   UNL A   1      37.673  28.803  30.105  1.00  0.00     0.001 A 
ATOM     80  C   UNL A   1      38.065  29.628  27.886  1.00  0.00     0.001 A 
ATOM     81  C   UNL A   1      37.301  29.628  29.051  1.00  0.00     0.000 A 
ENDBRANCH  57  76
BRANCH  69  82
ATOM     82  C   UNL A   1      44.696  26.289  31.981  1.00  0.00    -0.014 A 
ATOM     83  C   UNL A   1      44.504  24.940  31.627  1.00  0.00     0.009 A 
ATOM     84  C   UNL A   1      44.691  26.615  33.345  1.00  0.00     0.009 A 
ATOM     85  C   UNL A   1      44.278  23.962  32.605  1.00  0.00     0.001 A 
ATOM     86  C   UNL A   1      44.491  25.637  34.323  1.00  0.00     0.001 A 
ATOM     87  C   UNL A   1      44.278  24.311  33.953  1.00  0.00     0.000 A 
ENDBRANCH  69  82
ENDBRANCH  43  44
ENDBRANCH  35  38
ENDBRANCH  33  34
ENDBRANCH  32  33
ENDBRANCH  31  32
ENDBRANCH  30  31
ENDBRANCH   3  30
TORSDOF 17
ENDMDL
MODEL 2
REMARK VINA RESULT:     -12.4      1.389      3.479
REMARK SMILES O=C(CCC(=O)N1Cc2[nH]cnc2C[C@H]1C(=O)NCc1ccccc1)NCCCCNC(=O)c1ccc(-c2c3nc(c(-c4ccccc4)c4ccc([nH]4)c(-c4ccccc4)c4nc(c(-c5ccccc5)c5ccc2[nH]5)C=C4)C=C3)cc1
REMARK SMILES IDX 1 1 2 2 26 3 3 5 4 6 5 7 6 8 7 9 8 10 15 11 9 12 14 13 10 14
REMARK SMILES IDX 13 15 11 16 12 18 16 19 17 20 18 21 19 23 20 24 21 25 25 26
REMARK SMILES IDX 22 27 24 28 23 29 27 30 28 31 29 32 30 33 31 34 32 35 33 37
REMARK SMILES IDX 34 38 35 39 81 40 36 41 80 42 37 43 38 44 39 45 74 46 40 47
REMARK SMILES IDX 79 48 73 49 75 50 41 51 78 52 72 53 71 54 42 56 64 57 49 58
REMARK SMILES IDX 63 59 50 60 53 61 62 62 76 63 51 64 52 65 61 67 77 68 54 69
REMARK SMILES IDX 43 70 44 71 48 72 45 73 47 74 46 75 65 76 66 77 70 78 67 79
REMARK SMILES IDX 69 80 68 81 55 82 56 83 60 84 57 85 59 86 58 87
REMARK H PARENT 26 4 10 17 18 22 31 36 75 55 53 66
REMARK Flexibility Score: inf
ROOT
ATOM      1  O   UNL A   1      38.533  23.262  26.185  1.00  0.00    -0.275 OA
ATOM      2  C   UNL A   1      38.123  22.196  25.734  1.00  0.00     0.220 C 
ATOM      3  N   UNL A   1      38.862  21.003  25.861  1.00  0.00    -0.356 N 
ATOM      4  H   UNL A   1      38.417  20.143  25.684  1.00  0.00     0.163 HD
ENDROOT
BRANCH   2   5
ATOM      5  C   UNL A   1      36.862  22.139  24.803  1.00  0.00     0.110 C 
BRANCH   5   6
ATOM      6  C   UNL A   1      35.724  21.154  25.245  1.00  0.00     0.110 C 
BRANCH   6   7
ATOM      7  C   UNL A   1      34.558  21.693  26.128  1.00  0.00     0.224 C 
ATOM      8  O   UNL A   1      34.516  21.470  27.322  1.00  0.00    -0.275 OA
BRANCH   7   9
ATOM      9  N   UNL A   1      33.595  22.475  25.495  1.00  0.00    -0.324 N 
ATOM     10  C   UNL A   1      33.028  22.103  24.189  1.00  0.00     0.176 C 
ATOM     11  C   UNL A   1      33.455  23.879  25.878  1.00  0.00     0.180 C 
ATOM     12  C   UNL A   1      33.167  23.296  23.316  1.00  0.00     0.058 A 
ATOM     13  C   UNL A   1      34.355  24.706  24.951  1.00  0.00     0.093 C 
ATOM     14  N   UNL A   1      32.192  23.763  22.485  1.00  0.00    -0.347 N 
ATOM     15  C   UNL A   1      33.920  24.423  23.583  1.00  0.00     0.066 A 
ATOM     16  C   UNL A   1      32.393  25.107  22.433  1.00  0.00     0.197 A 
ATOM     17  H   UNL A   1      31.496  23.242  22.023  1.00  0.00     0.167 HD
ATOM     18  N   UNL A   1      33.599  25.454  22.792  1.00  0.00    -0.242 NA
BRANCH  11  19
ATOM     19  C   UNL A   1      32.147  24.240  26.608  1.00  0.00     0.243 C 
ATOM     20  O   UNL A   1      31.463  23.334  27.105  1.00  0.00    -0.273 OA
ATOM     21  N   UNL A   1      31.728  25.499  26.884  1.00  0.00    -0.350 N 
ATOM     22  H   UNL A   1      31.452  25.679  27.812  1.00  0.00     0.163 HD
BRANCH  21  23
ATOM     23  C   UNL A   1      31.646  26.598  25.964  1.00  0.00     0.151 C 
BRANCH  23  24
ATOM     24  C   UNL A   1      32.427  27.791  26.456  1.00  0.00    -0.029 A 
ATOM     25  C   UNL A   1      31.741  28.927  26.905  1.00  0.00     0.005 A 
ATOM     26  C   UNL A   1      33.833  27.824  26.439  1.00  0.00     0.005 A 
ATOM     27  C   UNL A   1      32.438  30.105  27.175  1.00  0.00     0.000 A 
ATOM     28  C   UNL A   1      34.527  28.997  26.700  1.00  0.00     0.000 A 
ATOM     29  C   UNL A   1      33.825  30.150  27.033  1.00  0.00     0.000 A 
ENDBRANCH  23  24
ENDBRANCH  21  23
ENDBRANCH  11  19
ENDBRANCH   7   9
ENDBRANCH   6   7
ENDBRANCH   5   6
ENDBRANCH   2   5
BRANCH   3  30
ATOM     30  C   UNL A   1      40.293  21.008  26.256  1.00  0.00     0.116 C 
BRANCH  30  31
ATOM     31  C   UNL A   1      41.137  19.708  26.088  1.00  0.00     0.023 C 
BRANCH  31  32
ATOM     32  C   UNL A   1      42.334  19.239  27.011  1.00  0.00     0.023 C 
BRANCH  32  33
ATOM     33  C   UNL A   1      43.382  18.170  26.541  1.00  0.00     0.116 C 
BRANCH  33  34
ATOM     34  N   UNL A   1      43.882  18.330  25.146  1.00  0.00    -0.352 N 
ATOM     35  C   UNL A   1      44.635  19.300  24.479  1.00  0.00     0.251 C 
ATOM     36  H   UNL A   1      43.622  17.581  24.562  1.00  0.00     0.163 HD
ATOM     37  O   UNL A   1      45.288  18.944  23.496  1.00  0.00    -0.269 OA
BRANCH  35  38
ATOM     38  C   UNL A   1      44.700  20.747  24.838  1.00  0.00     0.039 A 
ATOM     39  C   UNL A   1      45.826  21.329  25.462  1.00  0.00     0.014 A 
ATOM     40  C   UNL A   1      43.724  21.616  24.391  1.00  0.00     0.014 A 
ATOM     41  C   UNL A   1      45.806  22.667  25.960  1.00  0.00     0.010 A 
ATOM     42  C   UNL A   1      43.752  22.963  24.808  1.00  0.00     0.010 A 
ATOM     43  C   UNL A   1      44.684  23.466  25.766  1.00  0.00    -0.014 A 
BRANCH  43  44
ATOM     44  C   UNL A   1      44.297  24.705  26.568  1.00  0.00     0.031 A 
ATOM     45  C   UNL A   1      45.192  25.845  26.318  1.00  0.00     0.074 A 
ATOM     46  C   UNL A   1      43.234  25.057  27.359  1.00  0.00     0.049 A 
ATOM     47  N   UNL A   1      46.270  26.035  27.002  1.00  0.00    -0.248 NA
ATOM     48  C   UNL A   1      45.015  26.746  25.170  1.00  0.00     0.031 C 
ATOM     49  C   UNL A   1      42.137  24.235  27.851  1.00  0.00     0.029 A 
ATOM     50  N   UNL A   1      42.855  26.313  27.844  1.00  0.00    -0.354 N 
ATOM     51  C   UNL A   1      46.772  27.222  26.529  1.00  0.00     0.074 A 
ATOM     52  C   UNL A   1      46.173  27.410  25.231  1.00  0.00     0.031 C 
ATOM     53  C   UNL A   1      41.155  25.008  28.388  1.00  0.00     0.029 A 
ATOM     54  C   UNL A   1      41.553  26.400  28.361  1.00  0.00     0.049 A 
ATOM     55  H   UNL A   1      43.463  27.087  27.825  1.00  0.00     0.167 HD
ATOM     56  C   UNL A   1      47.318  28.129  27.382  1.00  0.00     0.031 A 
ATOM     57  C   UNL A   1      40.919  27.404  29.038  1.00  0.00     0.031 A 
ATOM     58  C   UNL A   1      47.470  27.598  28.724  1.00  0.00     0.049 A 
ATOM     59  C   UNL A   1      41.957  28.096  29.812  1.00  0.00     0.074 A 
ATOM     60  C   UNL A   1      48.000  26.446  29.281  1.00  0.00     0.029 A 
ATOM     61  N   UNL A   1      46.668  28.135  29.704  1.00  0.00    -0.354 N 
ATOM     62  N   UNL A   1      42.542  27.571  30.845  1.00  0.00    -0.248 NA
ATOM     63  C   UNL A   1      42.616  29.235  29.211  1.00  0.00     0.031 C 
ATOM     64  C   UNL A   1      47.142  26.115  30.373  1.00  0.00     0.029 A 
ATOM     65  C   UNL A   1      46.175  27.113  30.476  1.00  0.00     0.049 A 
ATOM     66  H   UNL A   1      46.477  29.092  29.831  1.00  0.00     0.167 HD
ATOM     67  C   UNL A   1      43.861  27.953  30.691  1.00  0.00     0.074 A 
ATOM     68  C   UNL A   1      43.821  29.076  29.757  1.00  0.00     0.031 C 
ATOM     69  C   UNL A   1      44.870  27.130  31.099  1.00  0.00     0.031 A 
BRANCH  56  70
ATOM     70  C   UNL A   1      47.303  29.608  27.100  1.00  0.00    -0.014 A 
ATOM     71  C   UNL A   1      48.512  30.314  27.178  1.00  0.00     0.009 A 
ATOM     72  C   UNL A   1      46.128  30.375  26.973  1.00  0.00     0.009 A 
ATOM     73  C   UNL A   1      48.534  31.711  27.172  1.00  0.00     0.001 A 
ATOM     74  C   UNL A   1      46.149  31.768  26.909  1.00  0.00     0.001 A 
ATOM     75  C   UNL A   1      47.353  32.438  27.033  1.00  0.00     0.000 A 
ENDBRANCH  56  70
BRANCH  57  76
ATOM     76  C   UNL A   1      39.533  27.965  29.005  1.00  0.00    -0.014 A 
ATOM     77  C   UNL A   1      38.739  28.008  30.176  1.00  0.00     0.009 A 
ATOM     78  C   UNL A   1      39.103  28.751  27.924  1.00  0.00     0.009 A 
ATOM     79  C   UNL A   1      37.611  28.842  30.281  1.00  0.00     0.001 A 
ATOM     80  C   UNL A   1      37.973  29.585  28.028  1.00  0.00     0.001 A 
ATOM     81  C   UNL A   1      37.239  29.646  29.211  1.00  0.00     0.000 A 
ENDBRANCH  57  76
BRANCH  69  82
ATOM     82  C   UNL A   1      44.539  26.016  32.069  1.00  0.00    -0.014 A 
ATOM     83  C   UNL A   1      44.439  24.658  31.714  1.00  0.00     0.009 A 
ATOM     84  C   UNL A   1      44.407  26.350  33.426  1.00  0.00     0.009 A 
ATOM     85  C   UNL A   1      44.180  23.676  32.679  1.00  0.00     0.001 A 
ATOM     86  C   UNL A   1      44.173  25.369  34.393  1.00  0.00     0.001 A 
ATOM     87  C   UNL A   1      44.053  24.033  34.020  1.00  0.00     0.000 A 
ENDBRANCH  69  82
ENDBRANCH  43  44
ENDBRANCH  35  38
ENDBRANCH  33  34
ENDBRANCH  32  33
ENDBRANCH  31  32
ENDBRANCH  30  31
ENDBRANCH   3  30
TORSDOF 17
ENDMDL
MODEL 3
REMARK VINA RESULT:     -12.1      1.331      3.613
REMARK SMILES O=C(CCC(=O)N1Cc2[nH]cnc2C[C@H]1C(=O)NCc1ccccc1)NCCCCNC(=O)c1ccc(-c2c3nc(c(-c4ccccc4)c4ccc([nH]4)c(-c4ccccc4)c4nc(c(-c5ccccc5)c5ccc2[nH]5)C=C4)C=C3)cc1
REMARK SMILES IDX 1 1 2 2 26 3 3 5 4 6 5 7 6 8 7 9 8 10 15 11 9 12 14 13 10 14
REMARK SMILES IDX 13 15 11 16 12 18 16 19 17 20 18 21 19 23 20 24 21 25 25 26
REMARK SMILES IDX 22 27 24 28 23 29 27 30 28 31 29 32 30 33 31 34 32 35 33 37
REMARK SMILES IDX 34 38 35 39 81 40 36 41 80 42 37 43 38 44 39 45 74 46 40 47
REMARK SMILES IDX 79 48 73 49 75 50 41 51 78 52 72 53 71 54 42 56 64 57 49 58
REMARK SMILES IDX 63 59 50 60 53 61 62 62 76 63 51 64 52 65 61 67 77 68 54 69
REMARK SMILES IDX 43 70 44 71 48 72 45 73 47 74 46 75 65 76 66 77 70 78 67 79
REMARK SMILES IDX 69 80 68 81 55 82 56 83 60 84 57 85 59 86 58 87
REMARK H PARENT 26 4 10 17 18 22 31 36 75 55 53 66
REMARK Flexibility Score: inf
ROOT
ATOM      1  O   UNL A   1      38.678  24.020  26.819  1.00  0.00    -0.275 OA
ATOM      2  C   UNL A   1      38.252  23.189  26.021  1.00  0.00     0.220 C 
ATOM      3  N   UNL A   1      38.949  21.995  25.750  1.00  0.00    -0.356 N 
ATOM      4  H   UNL A   1      38.485  21.266  25.279  1.00  0.00     0.163 HD
ENDROOT
BRANCH   2   5
ATOM      5  C   UNL A   1      37.025  23.504  25.097  1.00  0.00     0.110 C 
BRANCH   5   6
ATOM      6  C   UNL A   1      35.773  24.132  25.805  1.00  0.00     0.110 C 
BRANCH   6   7
ATOM      7  C   UNL A   1      34.381  24.025  25.111  1.00  0.00     0.224 C 
ATOM      8  O   UNL A   1      34.041  24.816  24.254  1.00  0.00    -0.275 OA
BRANCH   7   9
ATOM      9  N   UNL A   1      33.568  22.960  25.489  1.00  0.00    -0.324 N 
ATOM     10  C   UNL A   1      34.057  21.881  26.362  1.00  0.00     0.176 C 
ATOM     11  C   UNL A   1      32.383  22.651  24.690  1.00  0.00     0.180 C 
ATOM     12  C   UNL A   1      33.741  20.606  25.669  1.00  0.00     0.058 A 
ATOM     13  C   UNL A   1      32.792  21.618  23.633  1.00  0.00     0.093 C 
ATOM     14  N   UNL A   1      33.217  19.504  26.278  1.00  0.00    -0.347 N 
ATOM     15  C   UNL A   1      33.330  20.467  24.357  1.00  0.00     0.066 A 
ATOM     16  C   UNL A   1      32.472  18.896  25.316  1.00  0.00     0.197 A 
ATOM     17  H   UNL A   1      33.349  19.212  27.209  1.00  0.00     0.167 HD
ATOM     18  N   UNL A   1      32.808  19.259  24.108  1.00  0.00    -0.242 NA
BRANCH  11  19
ATOM     19  C   UNL A   1      31.030  22.916  25.379  1.00  0.00     0.243 C 
ATOM     20  O   UNL A   1      30.414  21.966  25.883  1.00  0.00    -0.273 OA
ATOM     21  N   UNL A   1      30.499  24.140  25.612  1.00  0.00    -0.350 N 
ATOM     22  H   UNL A   1      30.184  24.318  26.528  1.00  0.00     0.163 HD
BRANCH  21  23
ATOM     23  C   UNL A   1      30.348  25.206  24.661  1.00  0.00     0.151 C 
BRANCH  23  24
ATOM     24  C   UNL A   1      30.955  26.491  25.170  1.00  0.00    -0.029 A 
ATOM     25  C   UNL A   1      31.459  26.546  26.475  1.00  0.00     0.005 A 
ATOM     26  C   UNL A   1      30.992  27.660  24.389  1.00  0.00     0.005 A 
ATOM     27  C   UNL A   1      31.840  27.769  27.028  1.00  0.00     0.000 A 
ATOM     28  C   UNL A   1      31.364  28.878  24.940  1.00  0.00     0.000 A 
ATOM     29  C   UNL A   1      31.753  28.939  26.273  1.00  0.00     0.000 A 
ENDBRANCH  23  24
ENDBRANCH  21  23
ENDBRANCH  11  19
ENDBRANCH   7   9
ENDBRANCH   6   7
ENDBRANCH   5   6
ENDBRANCH   2   5
BRANCH   3  30
ATOM     30  C   UNL A   1      40.364  21.806  26.157  1.00  0.00     0.116 C 
BRANCH  30  31
ATOM     31  C   UNL A   1      40.836  20.407  26.658  1.00  0.00     0.023 C 
BRANCH  31  32
ATOM     32  C   UNL A   1      42.333  19.940  26.869  1.00  0.00     0.023 C 
BRANCH  32  33
ATOM     33  C   UNL A   1      42.898  18.626  26.223  1.00  0.00     0.116 C 
BRANCH  33  34
ATOM     34  N   UNL A   1      43.674  18.812  24.964  1.00  0.00    -0.352 N 
ATOM     35  C   UNL A   1      44.596  19.759  24.510  1.00  0.00     0.251 C 
ATOM     36  H   UNL A   1      43.497  18.105  24.302  1.00  0.00     0.163 HD
ATOM     37  O   UNL A   1      45.412  19.404  23.658  1.00  0.00    -0.269 OA
BRANCH  35  38
ATOM     38  C   UNL A   1      44.663  21.184  24.950  1.00  0.00     0.039 A 
ATOM     39  C   UNL A   1      45.715  21.686  25.748  1.00  0.00     0.014 A 
ATOM     40  C   UNL A   1      43.789  22.114  24.424  1.00  0.00     0.014 A 
ATOM     41  C   UNL A   1      45.678  23.000  26.308  1.00  0.00     0.010 A 
ATOM     42  C   UNL A   1      43.809  23.437  24.911  1.00  0.00     0.010 A 
ATOM     43  C   UNL A   1      44.621  23.854  26.010  1.00  0.00    -0.014 A 
BRANCH  43  44
ATOM     44  C   UNL A   1      44.175  25.069  26.817  1.00  0.00     0.031 A 
ATOM     45  C   UNL A   1      44.991  26.262  26.545  1.00  0.00     0.074 A 
ATOM     46  C   UNL A   1      43.109  25.357  27.631  1.00  0.00     0.049 A 
ATOM     47  N   UNL A   1      46.070  26.522  27.204  1.00  0.00    -0.248 NA
ATOM     48  C   UNL A   1      44.733  27.146  25.399  1.00  0.00     0.031 C 
ATOM     49  C   UNL A   1      42.077  24.470  28.148  1.00  0.00     0.029 A 
ATOM     50  N   UNL A   1      42.664  26.589  28.121  1.00  0.00    -0.354 N 
ATOM     51  C   UNL A   1      46.485  27.737  26.718  1.00  0.00     0.074 A 
ATOM     52  C   UNL A   1      45.847  27.882  25.432  1.00  0.00     0.031 C 
ATOM     53  C   UNL A   1      41.061  25.182  28.706  1.00  0.00     0.029 A 
ATOM     54  C   UNL A   1      41.370  26.595  28.667  1.00  0.00     0.049 A 
ATOM     55  H   UNL A   1      43.221  27.399  28.086  1.00  0.00     0.167 HD
ATOM     56  C   UNL A   1      46.993  28.679  27.555  1.00  0.00     0.031 A 
ATOM     57  C   UNL A   1      40.690  27.561  29.355  1.00  0.00     0.031 A 
ATOM     58  C   UNL A   1      47.207  28.164  28.896  1.00  0.00     0.049 A 
ATOM     59  C   UNL A   1      41.699  28.319  30.104  1.00  0.00     0.074 A 
ATOM     60  C   UNL A   1      47.820  27.050  29.443  1.00  0.00     0.029 A 
ATOM     61  N   UNL A   1      46.394  28.653  29.892  1.00  0.00    -0.354 N 
ATOM     62  N   UNL A   1      42.338  27.836  31.125  1.00  0.00    -0.248 NA
ATOM     63  C   UNL A   1      42.271  29.495  29.486  1.00  0.00     0.031 C 
ATOM     64  C   UNL A   1      47.009  26.669  30.554  1.00  0.00     0.029 A 
ATOM     65  C   UNL A   1      45.984  27.605  30.677  1.00  0.00     0.049 A 
ATOM     66  H   UNL A   1      46.147  29.597  30.021  1.00  0.00     0.167 HD
ATOM     67  C   UNL A   1      43.627  28.299  30.941  1.00  0.00     0.074 A 
ATOM     68  C   UNL A   1      43.496  29.414  30.006  1.00  0.00     0.031 C 
ATOM     69  C   UNL A   1      44.694  27.542  31.328  1.00  0.00     0.031 A 
BRANCH  56  70
ATOM     70  C   UNL A   1      46.878  30.153  27.271  1.00  0.00    -0.014 A 
ATOM     71  C   UNL A   1      48.057  30.891  27.096  1.00  0.00     0.009 A 
ATOM     72  C   UNL A   1      45.681  30.888  27.379  1.00  0.00     0.009 A 
ATOM     73  C   UNL A   1      48.037  32.289  27.074  1.00  0.00     0.001 A 
ATOM     74  C   UNL A   1      45.648  32.279  27.301  1.00  0.00     0.001 A 
ATOM     75  C   UNL A   1      46.833  32.982  27.172  1.00  0.00     0.000 A 
ENDBRANCH  56  70
BRANCH  57  76
ATOM     76  C   UNL A   1      39.271  28.034  29.352  1.00  0.00    -0.014 A 
ATOM     77  C   UNL A   1      38.559  28.204  30.563  1.00  0.00     0.009 A 
ATOM     78  C   UNL A   1      38.716  28.627  28.207  1.00  0.00     0.009 A 
ATOM     79  C   UNL A   1      37.389  28.981  30.637  1.00  0.00     0.001 A 
ATOM     80  C   UNL A   1      37.542  29.404  28.280  1.00  0.00     0.001 A 
ATOM     81  C   UNL A   1      36.890  29.597  29.496  1.00  0.00     0.000 A 
ENDBRANCH  57  76
BRANCH  69  82
ATOM     82  C   UNL A   1      44.455  26.414  32.309  1.00  0.00    -0.014 A 
ATOM     83  C   UNL A   1      44.125  26.597  33.664  1.00  0.00     0.009 A 
ATOM     84  C   UNL A   1      44.482  25.101  31.812  1.00  0.00     0.009 A 
ATOM     85  C   UNL A   1      43.866  25.501  34.499  1.00  0.00     0.001 A 
ATOM     86  C   UNL A   1      44.200  24.009  32.637  1.00  0.00     0.001 A 
ATOM     87  C   UNL A   1      43.899  24.208  33.982  1.00  0.00     0.000 A 
ENDBRANCH  69  82
ENDBRANCH  43  44
ENDBRANCH  35  38
ENDBRANCH  33  34
ENDBRANCH  32  33
ENDBRANCH  31  32
ENDBRANCH  30  31
ENDBRANCH   3  30
TORSDOF 17
ENDMDL
