MODEL 1
REMARK VINA RESULT:     -13.1      0.000      0.000
REMARK SMILES Cc1ccc(-c2nc(NC(=O)[C@H]3[C@@H](C(=O)NCCCCNC(=O)c4ccc(-c5c6nc(c(-c7ccccc7)c7ccc([nH]7)c(-c7ccccc7)c7nc(c(-c8ccccc8)c8ccc5[nH]8)C=C7)C=C6)cc4)[C@@H]4CC[C@H]3O4)sc2C)cc1
REMARK SMILES IDX 18 1 17 2 16 3 14 4 15 5 13 7 12 8 75 9 72 10 74 11 76 12
REMARK SMILES IDX 73 13 10 14 9 15 11 17 8 18 6 19 7 20 78 21 77 22 79 23 5 24
REMARK SMILES IDX 1 25 2 26 3 27 81 28 4 29 80 30 19 31 20 32 21 33 22 34
REMARK SMILES IDX 23 36 24 37 25 38 71 39 26 40 70 41 27 42 28 43 29 44 64 45
REMARK SMILES IDX 30 46 69 47 63 48 65 49 31 50 68 51 62 52 61 53 32 55 54 56
REMARK SMILES IDX 39 57 53 58 40 59 43 60 52 61 66 62 41 63 42 64 51 66 67 67
REMARK SMILES IDX 44 68 33 69 34 70 38 71 35 72 37 73 36 74 55 75 56 76 60 77
REMARK SMILES IDX 57 78 59 79 58 80 45 81 46 82 50 83 47 84 49 85 48 86
REMARK H PARENT 16 6 9 16 21 35 65 54 43 65
REMARK Flexibility Score: inf
ROOT
ATOM      1  C   UNL A   1      38.205  21.343  25.435  1.00  0.00     0.023 C 
ENDROOT
BRANCH   1   2
ATOM      2  C   UNL A   1      37.126  21.610  24.371  1.00  0.00     0.116 C 
BRANCH   2   3
ATOM      3  N   UNL A   1      36.555  22.929  24.156  1.00  0.00    -0.356 N 
ATOM      4  C   UNL A   1      35.309  23.426  24.493  1.00  0.00     0.226 C 
ATOM      5  O   UNL A   1      35.185  24.547  24.979  1.00  0.00    -0.275 OA
ATOM      6  H   UNL A   1      37.148  23.570  23.700  1.00  0.00     0.163 HD
BRANCH   4   7
ATOM      7  C   UNL A   1      34.143  22.549  24.268  1.00  0.00     0.122 C 
ATOM      8  C   UNL A   1      33.506  22.458  22.901  1.00  0.00     0.123 C 
ATOM      9  C   UNL A   1      32.185  21.781  23.328  1.00  0.00     0.132 C 
ATOM     10  C   UNL A   1      32.895  22.642  25.188  1.00  0.00     0.132 C 
ATOM     11  C   UNL A   1      32.397  20.548  24.270  1.00  0.00     0.035 C 
ATOM     12  O   UNL A   1      31.775  22.798  24.262  1.00  0.00    -0.373 OA
ATOM     13  C   UNL A   1      32.566  21.223  25.646  1.00  0.00     0.035 C 
BRANCH   8  14
ATOM     14  C   UNL A   1      33.205  23.545  21.802  1.00  0.00     0.232 C 
ATOM     15  N   UNL A   1      32.570  24.744  21.700  1.00  0.00    -0.302 N 
ATOM     16  H   UNL A   1      32.443  24.959  20.748  1.00  0.00     0.172 HD
ATOM     17  O   UNL A   1      33.645  23.198  20.677  1.00  0.00    -0.274 OA
BRANCH  15  18
ATOM     18  C   UNL A   1      32.044  25.760  22.462  1.00  0.00     0.190 A 
ATOM     19  C   UNL A   1      30.715  27.354  23.297  1.00  0.00     0.086 A 
ATOM     20  N   UNL A   1      31.107  26.646  22.121  1.00  0.00    -0.220 NA
ATOM     21  C   UNL A   1      31.209  26.735  24.431  1.00  0.00     0.031 A 
ATOM     22  S   UNL A   1      32.724  26.213  23.911  1.00  0.00    -0.101 S 
ATOM     23  C   UNL A   1      30.834  26.624  25.856  1.00  0.00     0.059 C 
BRANCH  19  24
ATOM     24  C   UNL A   1      29.919  28.582  23.388  1.00  0.00     0.001 A 
ATOM     25  C   UNL A   1      27.456  32.154  23.314  1.00  0.00     0.044 C 
ATOM     26  C   UNL A   1      28.293  30.910  23.382  1.00  0.00    -0.051 A 
ATOM     27  C   UNL A   1      29.587  30.924  23.931  1.00  0.00     0.004 A 
ATOM     28  C   UNL A   1      27.789  29.709  22.895  1.00  0.00     0.004 A 
ATOM     29  C   UNL A   1      30.395  29.769  23.937  1.00  0.00     0.010 A 
ATOM     30  C   UNL A   1      28.583  28.565  22.925  1.00  0.00     0.010 A 
ENDBRANCH  19  24
ENDBRANCH  15  18
ENDBRANCH   8  14
ENDBRANCH   4   7
ENDBRANCH   2   3
ENDBRANCH   1   2
BRANCH   1  31
ATOM     31  C   UNL A   1      38.915  22.505  26.115  1.00  0.00     0.023 C 
BRANCH  31  32
ATOM     32  C   UNL A   1      40.122  22.094  26.923  1.00  0.00     0.116 C 
BRANCH  32  33
ATOM     33  N   UNL A   1      40.980  21.141  26.228  1.00  0.00    -0.352 N 
ATOM     34  C   UNL A   1      42.354  21.074  26.083  1.00  0.00     0.251 C 
ATOM     35  H   UNL A   1      40.493  20.412  25.781  1.00  0.00     0.163 HD
ATOM     36  O   UNL A   1      42.834  20.200  25.382  1.00  0.00    -0.269 OA
BRANCH  34  37
ATOM     37  C   UNL A   1      43.238  21.907  26.944  1.00  0.00     0.039 A 
ATOM     38  C   UNL A   1      42.942  21.841  28.313  1.00  0.00     0.014 A 
ATOM     39  C   UNL A   1      43.846  23.032  26.416  1.00  0.00     0.014 A 
ATOM     40  C   UNL A   1      42.883  23.019  29.035  1.00  0.00     0.010 A 
ATOM     41  C   UNL A   1      43.591  24.219  27.043  1.00  0.00     0.010 A 
ATOM     42  C   UNL A   1      43.067  24.203  28.335  1.00  0.00    -0.014 A 
BRANCH  42  43
ATOM     43  C   UNL A   1      42.905  25.517  28.903  1.00  0.00     0.031 A 
ATOM     44  C   UNL A   1      41.725  26.258  28.451  1.00  0.00     0.074 A 
ATOM     45  C   UNL A   1      43.729  25.933  29.884  1.00  0.00     0.049 A 
ATOM     46  N   UNL A   1      41.646  27.537  28.435  1.00  0.00    -0.248 NA
ATOM     47  C   UNL A   1      40.542  25.595  27.899  1.00  0.00     0.031 C 
ATOM     48  C   UNL A   1      43.572  27.073  30.776  1.00  0.00     0.029 A 
ATOM     49  N   UNL A   1      45.023  25.483  30.130  1.00  0.00    -0.354 N 
ATOM     50  C   UNL A   1      40.321  27.838  28.228  1.00  0.00     0.074 A 
ATOM     51  C   UNL A   1      39.704  26.623  27.761  1.00  0.00     0.031 C 
ATOM     52  C   UNL A   1      44.778  27.399  31.277  1.00  0.00     0.029 A 
ATOM     53  C   UNL A   1      45.769  26.580  30.596  1.00  0.00     0.049 A 
ATOM     54  H   UNL A   1      45.354  24.564  30.002  1.00  0.00     0.167 HD
ATOM     55  C   UNL A   1      39.856  29.035  28.667  1.00  0.00     0.031 A 
ATOM     56  C   UNL A   1      46.786  27.068  29.819  1.00  0.00     0.031 A 
ATOM     57  C   UNL A   1      40.936  29.826  29.255  1.00  0.00     0.049 A 
ATOM     58  C   UNL A   1      46.497  28.445  29.245  1.00  0.00     0.074 A 
ATOM     59  C   UNL A   1      41.348  30.052  30.558  1.00  0.00     0.029 A 
ATOM     60  N   UNL A   1      42.009  30.170  28.451  1.00  0.00    -0.354 N 
ATOM     61  N   UNL A   1      45.333  29.035  29.294  1.00  0.00    -0.248 NA
ATOM     62  C   UNL A   1      47.481  29.240  28.509  1.00  0.00     0.031 C 
ATOM     63  C   UNL A   1      42.688  30.537  30.519  1.00  0.00     0.029 A 
ATOM     64  C   UNL A   1      43.076  30.628  29.194  1.00  0.00     0.049 A 
ATOM     65  H   UNL A   1      42.011  30.097  27.468  1.00  0.00     0.167 HD
ATOM     66  C   UNL A   1      45.379  30.225  28.620  1.00  0.00     0.074 A 
ATOM     67  C   UNL A   1      46.744  30.296  28.123  1.00  0.00     0.031 C 
ATOM     68  C   UNL A   1      44.289  31.042  28.503  1.00  0.00     0.031 A 
BRANCH  55  69
ATOM     69  C   UNL A   1      38.396  29.346  28.832  1.00  0.00    -0.014 A 
ATOM     70  C   UNL A   1      37.665  29.770  27.710  1.00  0.00     0.009 A 
ATOM     71  C   UNL A   1      37.688  29.274  30.045  1.00  0.00     0.009 A 
ATOM     72  C   UNL A   1      36.328  30.168  27.803  1.00  0.00     0.001 A 
ATOM     73  C   UNL A   1      36.359  29.702  30.153  1.00  0.00     0.001 A 
ATOM     74  C   UNL A   1      35.679  30.154  29.031  1.00  0.00     0.000 A 
ENDBRANCH  55  69
BRANCH  56  75
ATOM     75  C   UNL A   1      47.511  25.967  29.104  1.00  0.00    -0.014 A 
ATOM     76  C   UNL A   1      47.110  25.673  27.783  1.00  0.00     0.009 A 
ATOM     77  C   UNL A   1      48.805  25.602  29.505  1.00  0.00     0.009 A 
ATOM     78  C   UNL A   1      48.035  25.204  26.842  1.00  0.00     0.001 A 
ATOM     79  C   UNL A   1      49.720  25.114  28.561  1.00  0.00     0.001 A 
ATOM     80  C   UNL A   1      49.352  24.968  27.224  1.00  0.00     0.000 A 
ENDBRANCH  56  75
BRANCH  68  81
ATOM     81  C   UNL A   1      44.248  32.319  27.700  1.00  0.00    -0.014 A 
ATOM     82  C   UNL A   1      44.067  33.583  28.270  1.00  0.00     0.009 A 
ATOM     83  C   UNL A   1      44.295  32.269  26.287  1.00  0.00     0.009 A 
ATOM     84  C   UNL A   1      44.028  34.738  27.477  1.00  0.00     0.001 A 
ATOM     85  C   UNL A   1      44.229  33.412  25.489  1.00  0.00     0.001 A 
ATOM     86  C   UNL A   1      44.116  34.653  26.089  1.00  0.00     0.000 A 
ENDBRANCH  68  81
ENDBRANCH  42  43
ENDBRANCH  34  37
ENDBRANCH  32  33
ENDBRANCH  31  32
ENDBRANCH   1  31
TORSDOF 14
ENDMDL
MODEL 2
REMARK VINA RESULT:     -13.1      3.987      9.347
REMARK SMILES Cc1ccc(-c2nc(NC(=O)[C@H]3[C@@H](C(=O)NCCCCNC(=O)c4ccc(-c5c6nc(c(-c7ccccc7)c7ccc([nH]7)c(-c7ccccc7)c7nc(c(-c8ccccc8)c8ccc5[nH]8)C=C7)C=C6)cc4)[C@@H]4CC[C@H]3O4)sc2C)cc1
REMARK SMILES IDX 18 1 17 2 16 3 14 4 15 5 13 7 12 8 75 9 72 10 74 11 76 12
REMARK SMILES IDX 73 13 10 14 9 15 11 17 8 18 6 19 7 20 78 21 77 22 79 23 5 24
REMARK SMILES IDX 1 25 2 26 3 27 81 28 4 29 80 30 19 31 20 32 21 33 22 34
REMARK SMILES IDX 23 36 24 37 25 38 71 39 26 40 70 41 27 42 28 43 29 44 64 45
REMARK SMILES IDX 30 46 69 47 63 48 65 49 31 50 68 51 62 52 61 53 32 55 54 56
REMARK SMILES IDX 39 57 53 58 40 59 43 60 52 61 66 62 41 63 42 64 51 66 67 67
REMARK SMILES IDX 44 68 33 69 34 70 38 71 35 72 37 73 36 74 55 75 56 76 60 77
REMARK SMILES IDX 57 78 59 79 58 80 45 81 46 82 50 83 47 84 49 85 48 86
REMARK H PARENT 16 6 9 16 21 35 65 54 43 65
REMARK Flexibility Score: inf
ROOT
ATOM      1  C   UNL A   1      34.276  29.937  27.351  1.00  0.00     0.023 C 
ENDROOT
BRANCH   1   2
ATOM      2  C   UNL A   1      32.795  30.261  27.089  1.00  0.00     0.116 C 
BRANCH   2   3
ATOM      3  N   UNL A   1      31.749  29.256  27.188  1.00  0.00    -0.356 N 
ATOM      4  C   UNL A   1      31.635  28.026  26.566  1.00  0.00     0.226 C 
ATOM      5  O   UNL A   1      31.264  27.034  27.189  1.00  0.00    -0.275 OA
ATOM      6  H   UNL A   1      31.006  29.486  27.792  1.00  0.00     0.163 HD
BRANCH   4   7
ATOM      7  C   UNL A   1      31.998  27.948  25.137  1.00  0.00     0.122 C 
ATOM      8  C   UNL A   1      31.027  27.376  24.131  1.00  0.00     0.123 C 
ATOM      9  C   UNL A   1      32.023  27.171  22.969  1.00  0.00     0.132 C 
ATOM     10  C   UNL A   1      33.332  27.287  24.695  1.00  0.00     0.132 C 
ATOM     11  C   UNL A   1      32.919  28.427  22.693  1.00  0.00     0.035 C 
ATOM     12  O   UNL A   1      32.932  26.312  23.682  1.00  0.00    -0.373 OA
ATOM     13  C   UNL A   1      34.029  28.265  23.752  1.00  0.00     0.035 C 
BRANCH   8  14
ATOM     14  C   UNL A   1      30.040  26.151  24.195  1.00  0.00     0.232 C 
ATOM     15  N   UNL A   1      30.102  24.796  24.305  1.00  0.00    -0.302 N 
ATOM     16  H   UNL A   1      29.222  24.416  24.076  1.00  0.00     0.172 HD
ATOM     17  O   UNL A   1      28.843  26.515  24.076  1.00  0.00    -0.274 OA
BRANCH  15  18
ATOM     18  C   UNL A   1      30.962  23.772  24.623  1.00  0.00     0.190 A 
ATOM     19  C   UNL A   1      32.360  22.029  24.521  1.00  0.00     0.086 A 
ATOM     20  N   UNL A   1      31.251  22.685  23.906  1.00  0.00    -0.220 NA
ATOM     21  C   UNL A   1      32.946  22.842  25.474  1.00  0.00     0.031 A 
ATOM     22  S   UNL A   1      31.606  23.610  26.148  1.00  0.00    -0.101 S 
ATOM     23  C   UNL A   1      34.283  23.012  26.081  1.00  0.00     0.059 C 
BRANCH  19  24
ATOM     24  C   UNL A   1      32.869  20.679  24.259  1.00  0.00     0.001 A 
ATOM     25  C   UNL A   1      34.029  16.564  23.515  1.00  0.00     0.044 C 
ATOM     26  C   UNL A   1      33.657  18.001  23.739  1.00  0.00    -0.051 A 
ATOM     27  C   UNL A   1      34.402  18.828  24.596  1.00  0.00     0.004 A 
ATOM     28  C   UNL A   1      32.551  18.538  23.090  1.00  0.00     0.004 A 
ATOM     29  C   UNL A   1      34.014  20.159  24.854  1.00  0.00     0.010 A 
ATOM     30  C   UNL A   1      32.185  19.861  23.329  1.00  0.00     0.010 A 
ENDBRANCH  19  24
ENDBRANCH  15  18
ENDBRANCH   8  14
ENDBRANCH   4   7
ENDBRANCH   2   3
ENDBRANCH   1   2
BRANCH   1  31
ATOM     31  C   UNL A   1      35.222  31.019  27.850  1.00  0.00     0.023 C 
BRANCH  31  32
ATOM     32  C   UNL A   1      35.117  31.285  29.332  1.00  0.00     0.116 C 
BRANCH  32  33
ATOM     33  N   UNL A   1      34.278  32.434  29.652  1.00  0.00    -0.352 N 
ATOM     34  C   UNL A   1      34.491  33.533  30.463  1.00  0.00     0.251 C 
ATOM     35  H   UNL A   1      33.399  32.425  29.209  1.00  0.00     0.163 HD
ATOM     36  O   UNL A   1      33.588  34.336  30.622  1.00  0.00    -0.269 OA
BRANCH  34  37
ATOM     37  C   UNL A   1      35.863  33.850  30.947  1.00  0.00     0.039 A 
ATOM     38  C   UNL A   1      36.758  34.236  29.939  1.00  0.00     0.014 A 
ATOM     39  C   UNL A   1      36.332  33.262  32.108  1.00  0.00     0.014 A 
ATOM     40  C   UNL A   1      38.022  33.676  29.926  1.00  0.00     0.010 A 
ATOM     41  C   UNL A   1      37.486  32.537  32.006  1.00  0.00     0.010 A 
ATOM     42  C   UNL A   1      38.302  32.716  30.889  1.00  0.00    -0.014 A 
BRANCH  42  43
ATOM     43  C   UNL A   1      39.514  31.941  30.936  1.00  0.00     0.031 A 
ATOM     44  C   UNL A   1      39.491  30.687  30.177  1.00  0.00     0.074 A 
ATOM     45  C   UNL A   1      40.614  32.443  31.532  1.00  0.00     0.049 A 
ATOM     46  N   UNL A   1      40.217  29.669  30.455  1.00  0.00    -0.248 NA
ATOM     47  C   UNL A   1      38.568  30.459  29.064  1.00  0.00     0.031 C 
ATOM     48  C   UNL A   1      41.987  31.969  31.445  1.00  0.00     0.029 A 
ATOM     49  N   UNL A   1      40.649  33.410  32.531  1.00  0.00    -0.354 N 
ATOM     50  C   UNL A   1      40.124  28.825  29.374  1.00  0.00     0.074 A 
ATOM     51  C   UNL A   1      38.992  29.279  28.609  1.00  0.00     0.031 C 
ATOM     52  C   UNL A   1      42.675  32.439  32.502  1.00  0.00     0.029 A 
ATOM     53  C   UNL A   1      41.722  33.095  33.385  1.00  0.00     0.049 A 
ATOM     54  H   UNL A   1      40.035  34.175  32.624  1.00  0.00     0.167 HD
ATOM     55  C   UNL A   1      41.142  27.956  29.147  1.00  0.00     0.031 A 
ATOM     56  C   UNL A   1      41.455  32.709  34.672  1.00  0.00     0.031 A 
ATOM     57  C   UNL A   1      42.160  28.066  30.189  1.00  0.00     0.049 A 
ATOM     58  C   UNL A   1      41.770  31.247  34.940  1.00  0.00     0.074 A 
ATOM     59  C   UNL A   1      43.378  28.722  30.264  1.00  0.00     0.029 A 
ATOM     60  N   UNL A   1      41.791  27.798  31.497  1.00  0.00    -0.354 N 
ATOM     61  N   UNL A   1      42.066  30.375  34.013  1.00  0.00    -0.248 NA
ATOM     62  C   UNL A   1      41.713  30.635  36.267  1.00  0.00     0.031 C 
ATOM     63  C   UNL A   1      43.730  28.843  31.640  1.00  0.00     0.029 A 
ATOM     64  C   UNL A   1      42.741  28.239  32.394  1.00  0.00     0.049 A 
ATOM     65  H   UNL A   1      40.954  27.348  31.755  1.00  0.00     0.167 HD
ATOM     66  C   UNL A   1      42.216  29.132  34.567  1.00  0.00     0.074 A 
ATOM     67  C   UNL A   1      41.960  29.344  35.982  1.00  0.00     0.031 C 
ATOM     68  C   UNL A   1      42.515  28.028  33.817  1.00  0.00     0.031 A 
BRANCH  55  69
ATOM     69  C   UNL A   1      41.345  27.244  27.840  1.00  0.00    -0.014 A 
ATOM     70  C   UNL A   1      40.743  25.988  27.654  1.00  0.00     0.009 A 
ATOM     71  C   UNL A   1      42.126  27.724  26.773  1.00  0.00     0.009 A 
ATOM     72  C   UNL A   1      40.963  25.223  26.505  1.00  0.00     0.001 A 
ATOM     73  C   UNL A   1      42.378  26.949  25.633  1.00  0.00     0.001 A 
ATOM     74  C   UNL A   1      41.799  25.695  25.501  1.00  0.00     0.000 A 
ENDBRANCH  55  69
BRANCH  56  75
ATOM     75  C   UNL A   1      40.290  33.462  35.243  1.00  0.00    -0.014 A 
ATOM     76  C   UNL A   1      39.060  32.776  35.350  1.00  0.00     0.009 A 
ATOM     77  C   UNL A   1      40.509  34.572  36.072  1.00  0.00     0.009 A 
ATOM     78  C   UNL A   1      38.163  33.074  36.382  1.00  0.00     0.001 A 
ATOM     79  C   UNL A   1      39.596  34.877  37.091  1.00  0.00     0.001 A 
ATOM     80  C   UNL A   1      38.455  34.097  37.280  1.00  0.00     0.000 A 
ENDBRANCH  56  75
BRANCH  68  81
ATOM     81  C   UNL A   1      42.606  26.620  34.350  1.00  0.00    -0.014 A 
ATOM     82  C   UNL A   1      41.592  26.009  35.094  1.00  0.00     0.009 A 
ATOM     83  C   UNL A   1      43.802  25.881  34.194  1.00  0.00     0.009 A 
ATOM     84  C   UNL A   1      41.733  24.699  35.573  1.00  0.00     0.001 A 
ATOM     85  C   UNL A   1      43.960  24.587  34.692  1.00  0.00     0.001 A 
ATOM     86  C   UNL A   1      42.912  23.987  35.366  1.00  0.00     0.000 A 
ENDBRANCH  68  81
ENDBRANCH  42  43
ENDBRANCH  34  37
ENDBRANCH  32  33
ENDBRANCH  31  32
ENDBRANCH   1  31
TORSDOF 14
ENDMDL
MODEL 3
REMARK VINA RESULT:     -12.9      3.598      9.231
REMARK SMILES Cc1ccc(-c2nc(NC(=O)[C@H]3[C@@H](C(=O)NCCCCNC(=O)c4ccc(-c5c6nc(c(-c7ccccc7)c7ccc([nH]7)c(-c7ccccc7)c7nc(c(-c8ccccc8)c8ccc5[nH]8)C=C7)C=C6)cc4)[C@@H]4CC[C@H]3O4)sc2C)cc1
REMARK SMILES IDX 18 1 17 2 16 3 14 4 15 5 13 7 12 8 75 9 72 10 74 11 76 12
REMARK SMILES IDX 73 13 10 14 9 15 11 17 8 18 6 19 7 20 78 21 77 22 79 23 5 24
REMARK SMILES IDX 1 25 2 26 3 27 81 28 4 29 80 30 19 31 20 32 21 33 22 34
REMARK SMILES IDX 23 36 24 37 25 38 71 39 26 40 70 41 27 42 28 43 29 44 64 45
REMARK SMILES IDX 30 46 69 47 63 48 65 49 31 50 68 51 62 52 61 53 32 55 54 56
REMARK SMILES IDX 39 57 53 58 40 59 43 60 52 61 66 62 41 63 42 64 51 66 67 67
REMARK SMILES IDX 44 68 33 69 34 70 38 71 35 72 37 73 36 74 55 75 56 76 60 77
REMARK SMILES IDX 57 78 59 79 58 80 45 81 46 82 50 83 47 84 49 85 48 86
REMARK H PARENT 16 6 9 16 21 35 65 54 43 65
REMARK Flexibility Score: inf
ROOT
ATOM      1  C   UNL A   1      33.301  29.756  27.308  1.00  0.00     0.023 C 
ENDROOT
BRANCH   1   2
ATOM      2  C   UNL A   1      32.485  28.453  27.277  1.00  0.00     0.116 C 
BRANCH   2   3
ATOM      3  N   UNL A   1      32.906  27.290  26.512  1.00  0.00    -0.356 N 
ATOM      4  C   UNL A   1      32.956  27.095  25.144  1.00  0.00     0.226 C 
ATOM      5  O   UNL A   1      33.921  26.546  24.617  1.00  0.00    -0.275 OA
ATOM      6  H   UNL A   1      33.202  26.522  27.052  1.00  0.00     0.163 HD
BRANCH   4   7
ATOM      7  C   UNL A   1      31.820  27.591  24.342  1.00  0.00     0.122 C 
ATOM      8  C   UNL A   1      31.255  26.756  23.216  1.00  0.00     0.123 C 
ATOM      9  C   UNL A   1      30.436  27.865  22.521  1.00  0.00     0.132 C 
ATOM     10  C   UNL A   1      31.866  29.001  23.693  1.00  0.00     0.132 C 
ATOM     11  C   UNL A   1      29.552  28.696  23.513  1.00  0.00     0.035 C 
ATOM     12  O   UNL A   1      31.539  28.761  22.288  1.00  0.00    -0.373 OA
ATOM     13  C   UNL A   1      30.569  29.713  24.071  1.00  0.00     0.035 C 
BRANCH   8  14
ATOM     14  C   UNL A   1      31.941  25.852  22.125  1.00  0.00     0.232 C 
ATOM     15  N   UNL A   1      32.904  24.894  22.053  1.00  0.00    -0.302 N 
ATOM     16  H   UNL A   1      33.160  24.767  21.110  1.00  0.00     0.172 HD
ATOM     17  O   UNL A   1      31.505  26.106  20.974  1.00  0.00    -0.274 OA
BRANCH  15  18
ATOM     18  C   UNL A   1      33.645  24.040  22.836  1.00  0.00     0.190 A 
ATOM     19  C   UNL A   1      35.160  23.180  24.238  1.00  0.00     0.086 A 
ATOM     20  N   UNL A   1      34.893  24.201  23.278  1.00  0.00    -0.220 NA
ATOM     21  C   UNL A   1      33.994  22.531  24.604  1.00  0.00     0.031 A 
ATOM     22  S   UNL A   1      33.151  22.483  23.146  1.00  0.00    -0.101 S 
ATOM     23  C   UNL A   1      33.484  21.799  25.782  1.00  0.00     0.059 C 
BRANCH  19  24
ATOM     24  C   UNL A   1      36.455  22.786  24.802  1.00  0.00     0.001 A 
ATOM     25  C   UNL A   1      40.129  21.307  26.576  1.00  0.00     0.044 C 
ATOM     26  C   UNL A   1      38.882  21.835  25.927  1.00  0.00    -0.051 A 
ATOM     27  C   UNL A   1      38.459  23.161  26.120  1.00  0.00     0.004 A 
ATOM     28  C   UNL A   1      38.121  21.003  25.114  1.00  0.00     0.004 A 
ATOM     29  C   UNL A   1      37.255  23.636  25.561  1.00  0.00     0.010 A 
ATOM     30  C   UNL A   1      36.944  21.484  24.545  1.00  0.00     0.010 A 
ENDBRANCH  19  24
ENDBRANCH  15  18
ENDBRANCH   8  14
ENDBRANCH   4   7
ENDBRANCH   2   3
ENDBRANCH   1   2
BRANCH   1  31
ATOM     31  C   UNL A   1      34.779  29.728  27.669  1.00  0.00     0.023 C 
BRANCH  31  32
ATOM     32  C   UNL A   1      35.402  31.096  27.799  1.00  0.00     0.116 C 
BRANCH  32  33
ATOM     33  N   UNL A   1      34.433  32.141  28.109  1.00  0.00    -0.352 N 
ATOM     34  C   UNL A   1      34.377  33.072  29.130  1.00  0.00     0.251 C 
ATOM     35  H   UNL A   1      33.682  32.194  27.475  1.00  0.00     0.163 HD
ATOM     36  O   UNL A   1      33.407  33.807  29.209  1.00  0.00    -0.269 OA
BRANCH  34  37
ATOM     37  C   UNL A   1      35.575  33.327  29.976  1.00  0.00     0.039 A 
ATOM     38  C   UNL A   1      36.619  33.992  29.317  1.00  0.00     0.014 A 
ATOM     39  C   UNL A   1      35.846  32.495  31.048  1.00  0.00     0.014 A 
ATOM     40  C   UNL A   1      37.908  33.514  29.468  1.00  0.00     0.010 A 
ATOM     41  C   UNL A   1      37.063  31.874  31.051  1.00  0.00     0.010 A 
ATOM     42  C   UNL A   1      38.074  32.362  30.224  1.00  0.00    -0.014 A 
BRANCH  42  43
ATOM     43  C   UNL A   1      39.323  31.659  30.370  1.00  0.00     0.031 A 
ATOM     44  C   UNL A   1      39.403  30.367  29.683  1.00  0.00     0.074 A 
ATOM     45  C   UNL A   1      40.363  32.253  30.985  1.00  0.00     0.049 A 
ATOM     46  N   UNL A   1      40.167  29.407  30.052  1.00  0.00    -0.248 NA
ATOM     47  C   UNL A   1      38.547  30.027  28.544  1.00  0.00     0.031 C 
ATOM     48  C   UNL A   1      41.763  31.853  30.988  1.00  0.00     0.029 A 
ATOM     49  N   UNL A   1      40.299  33.274  31.929  1.00  0.00    -0.354 N 
ATOM     50  C   UNL A   1      40.171  28.501  29.018  1.00  0.00     0.074 A 
ATOM     51  C   UNL A   1      39.055  28.849  28.178  1.00  0.00     0.031 C 
ATOM     52  C   UNL A   1      42.373  32.417  32.046  1.00  0.00     0.029 A 
ATOM     53  C   UNL A   1      41.345  33.066  32.846  1.00  0.00     0.049 A 
ATOM     54  H   UNL A   1      39.642  34.007  31.950  1.00  0.00     0.167 HD
ATOM     55  C   UNL A   1      41.243  27.679  28.887  1.00  0.00     0.031 A 
ATOM     56  C   UNL A   1      41.036  32.737  34.140  1.00  0.00     0.031 A 
ATOM     57  C   UNL A   1      42.203  27.902  29.967  1.00  0.00     0.049 A 
ATOM     58  C   UNL A   1      41.415  31.311  34.505  1.00  0.00     0.074 A 
ATOM     59  C   UNL A   1      43.379  28.628  30.059  1.00  0.00     0.029 A 
ATOM     60  N   UNL A   1      41.786  27.686  31.269  1.00  0.00    -0.354 N 
ATOM     61  N   UNL A   1      41.801  30.408  33.645  1.00  0.00    -0.248 NA
ATOM     62  C   UNL A   1      41.326  30.770  35.861  1.00  0.00     0.031 C 
ATOM     63  C   UNL A   1      43.657  28.844  31.440  1.00  0.00     0.029 A 
ATOM     64  C   UNL A   1      42.666  28.227  32.182  1.00  0.00     0.049 A 
ATOM     65  H   UNL A   1      40.962  27.205  31.514  1.00  0.00     0.167 HD
ATOM     66  C   UNL A   1      41.990  29.208  34.274  1.00  0.00     0.074 A 
ATOM     67  C   UNL A   1      41.655  29.482  35.662  1.00  0.00     0.031 C 
ATOM     68  C   UNL A   1      42.383  28.082  33.603  1.00  0.00     0.031 A 
BRANCH  55  69
ATOM     69  C   UNL A   1      41.548  26.909  27.634  1.00  0.00    -0.014 A 
ATOM     70  C   UNL A   1      41.456  25.507  27.663  1.00  0.00     0.009 A 
ATOM     71  C   UNL A   1      41.951  27.481  26.414  1.00  0.00     0.009 A 
ATOM     72  C   UNL A   1      41.814  24.718  26.566  1.00  0.00     0.001 A 
ATOM     73  C   UNL A   1      42.344  26.695  25.322  1.00  0.00     0.001 A 
ATOM     74  C   UNL A   1      42.279  25.311  25.401  1.00  0.00     0.000 A 
ENDBRANCH  55  69
BRANCH  56  75
ATOM     75  C   UNL A   1      39.807  33.454  34.613  1.00  0.00    -0.014 A 
ATOM     76  C   UNL A   1      38.557  32.859  34.334  1.00  0.00     0.009 A 
ATOM     77  C   UNL A   1      39.889  34.361  35.679  1.00  0.00     0.009 A 
ATOM     78  C   UNL A   1      37.477  33.021  35.208  1.00  0.00     0.001 A 
ATOM     79  C   UNL A   1      38.796  34.534  36.540  1.00  0.00     0.001 A 
ATOM     80  C   UNL A   1      37.613  33.824  36.337  1.00  0.00     0.000 A 
ENDBRANCH  56  75
BRANCH  68  81
ATOM     81  C   UNL A   1      42.523  26.713  34.220  1.00  0.00    -0.014 A 
ATOM     82  C   UNL A   1      43.602  25.861  33.968  1.00  0.00     0.009 A 
ATOM     83  C   UNL A   1      41.483  26.188  35.023  1.00  0.00     0.009 A 
ATOM     84  C   UNL A   1      43.679  24.593  34.562  1.00  0.00     0.001 A 
ATOM     85  C   UNL A   1      41.539  24.917  35.595  1.00  0.00     0.001 A 
ATOM     86  C   UNL A   1      42.652  24.125  35.379  1.00  0.00     0.000 A 
ENDBRANCH  68  81
ENDBRANCH  42  43
ENDBRANCH  34  37
ENDBRANCH  32  33
ENDBRANCH  31  32
ENDBRANCH   1  31
TORSDOF 14
ENDMDL
