MODEL 1
REMARK VINA RESULT:     -12.6      0.000      0.000
REMARK SMILES Cc1cccc(-c2cc(OCC(=O)NCCCCNC(=O)c3ccc(-c4c5nc(c(-c6ccccc6)c6ccc([nH]6)c(-c6ccccc6)c6nc(c(-c7ccccc7)c7ccc4[nH]7)C=C6)C=C5)cc3)nc(Nc3ccccc3C)n2)c1
REMARK SMILES IDX 15 1 14 2 12 3 13 4 11 6 10 7 9 8 7 9 8 10 80 11 71 12 70 13
REMARK SMILES IDX 6 14 1 15 2 16 3 17 81 18 4 19 5 20 72 21 73 23 74 24 78 25
REMARK SMILES IDX 75 26 77 27 79 28 76 29 16 30 17 31 18 32 19 33 20 34 21 36
REMARK SMILES IDX 22 37 23 38 69 39 24 40 68 41 25 42 26 43 27 44 62 45 28 46
REMARK SMILES IDX 67 47 61 48 63 49 29 50 66 51 60 52 59 53 30 55 52 56 37 57
REMARK SMILES IDX 51 58 38 59 41 60 50 61 64 62 39 63 40 64 49 66 65 67 42 68
REMARK SMILES IDX 31 69 32 70 36 71 33 72 35 73 34 74 53 75 54 76 58 77 55 78
REMARK SMILES IDX 57 79 56 80 43 81 44 82 48 83 45 84 47 85 46 86
REMARK H PARENT 14 5 72 22 19 35 63 54 41 65
REMARK Flexibility Score: inf
ROOT
ATOM      1  C   UNL A   1      33.106  26.667  25.441  1.00  0.00     0.116 C 
ENDROOT
BRANCH   1   2
ATOM      2  N   UNL A   1      33.381  26.934  24.040  1.00  0.00    -0.353 N 
ATOM      3  C   UNL A   1      33.674  26.055  23.040  1.00  0.00     0.258 C 
ATOM      4  O   UNL A   1      33.864  26.494  21.905  1.00  0.00    -0.271 OA
ATOM      5  H   UNL A   1      33.350  27.882  23.775  1.00  0.00     0.163 HD
BRANCH   3   6
ATOM      6  C   UNL A   1      33.753  24.551  23.335  1.00  0.00     0.331 C 
BRANCH   6   7
ATOM      7  O   UNL A   1      34.935  23.882  22.936  1.00  0.00    -0.467 OA
BRANCH   7   8
ATOM      8  C   UNL A   1      35.573  23.102  23.859  1.00  0.00     0.219 A 
ATOM      9  C   UNL A   1      37.217  22.518  25.405  1.00  0.00     0.080 A 
ATOM     10  C   UNL A   1      36.785  23.391  24.435  1.00  0.00     0.097 A 
ATOM     11  N   UNL A   1      36.520  21.424  25.744  1.00  0.00    -0.212 NA
ATOM     12  C   UNL A   1      35.355  21.201  25.127  1.00  0.00     0.231 A 
ATOM     13  N   UNL A   1      34.860  22.006  24.179  1.00  0.00    -0.177 NA
BRANCH   9  14
ATOM     14  C   UNL A   1      38.446  22.748  26.168  1.00  0.00     0.001 A 
ATOM     15  C   UNL A   1      41.607  20.843  27.158  1.00  0.00     0.044 C 
ATOM     16  C   UNL A   1      40.587  21.934  27.030  1.00  0.00    -0.050 A 
ATOM     17  C   UNL A   1      40.805  23.176  27.634  1.00  0.00     0.003 A 
ATOM     18  C   UNL A   1      39.402  21.726  26.311  1.00  0.00     0.013 A 
ATOM     19  C   UNL A   1      39.870  24.202  27.499  1.00  0.00     0.001 A 
ATOM     20  C   UNL A   1      38.705  23.992  26.760  1.00  0.00     0.010 A 
ENDBRANCH   9  14
BRANCH  12  21
ATOM     21  N   UNL A   1      34.611  20.065  25.443  1.00  0.00    -0.324 N 
ATOM     22  H   UNL A   1      34.617  19.781  26.386  1.00  0.00     0.170 HD
BRANCH  21  23
ATOM     23  C   UNL A   1      33.856  19.284  24.557  1.00  0.00     0.044 A 
ATOM     24  C   UNL A   1      32.747  19.869  23.927  1.00  0.00     0.026 A 
ATOM     25  C   UNL A   1      34.235  17.975  24.193  1.00  0.00    -0.027 A 
ATOM     26  C   UNL A   1      32.049  19.193  22.924  1.00  0.00     0.002 A 
ATOM     27  C   UNL A   1      33.532  17.309  23.176  1.00  0.00     0.005 A 
ATOM     28  C   UNL A   1      35.362  17.255  24.887  1.00  0.00     0.046 C 
ATOM     29  C   UNL A   1      32.451  17.917  22.541  1.00  0.00     0.000 A 
ENDBRANCH  21  23
ENDBRANCH  12  21
ENDBRANCH   7   8
ENDBRANCH   6   7
ENDBRANCH   3   6
ENDBRANCH   1   2
BRANCH   1  30
ATOM     30  C   UNL A   1      33.075  27.932  26.307  1.00  0.00     0.023 C 
BRANCH  30  31
ATOM     31  C   UNL A   1      34.296  28.848  26.194  1.00  0.00     0.023 C 
BRANCH  31  32
ATOM     32  C   UNL A   1      34.535  29.745  27.400  1.00  0.00     0.116 C 
BRANCH  32  33
ATOM     33  N   UNL A   1      33.841  31.023  27.360  1.00  0.00    -0.352 N 
ATOM     34  C   UNL A   1      34.086  32.195  28.063  1.00  0.00     0.251 C 
ATOM     35  H   UNL A   1      33.079  31.063  26.737  1.00  0.00     0.163 HD
ATOM     36  O   UNL A   1      33.334  33.141  27.943  1.00  0.00    -0.269 OA
BRANCH  34  37
ATOM     37  C   UNL A   1      35.347  32.346  28.842  1.00  0.00     0.039 A 
ATOM     38  C   UNL A   1      36.375  33.106  28.265  1.00  0.00     0.014 A 
ATOM     39  C   UNL A   1      35.603  31.608  29.993  1.00  0.00     0.014 A 
ATOM     40  C   UNL A   1      37.692  32.897  28.667  1.00  0.00     0.010 A 
ATOM     41  C   UNL A   1      36.911  31.323  30.331  1.00  0.00     0.010 A 
ATOM     42  C   UNL A   1      37.952  31.904  29.608  1.00  0.00    -0.014 A 
BRANCH  42  43
ATOM     43  C   UNL A   1      39.272  31.325  29.810  1.00  0.00     0.031 A 
ATOM     44  C   UNL A   1      39.607  30.019  29.201  1.00  0.00     0.074 A 
ATOM     45  C   UNL A   1      40.203  32.010  30.516  1.00  0.00     0.049 A 
ATOM     46  N   UNL A   1      40.477  29.199  29.689  1.00  0.00    -0.248 NA
ATOM     47  C   UNL A   1      38.954  29.514  27.997  1.00  0.00     0.031 C 
ATOM     48  C   UNL A   1      41.620  31.671  30.652  1.00  0.00     0.029 A 
ATOM     49  N   UNL A   1      40.058  33.079  31.401  1.00  0.00    -0.354 N 
ATOM     50  C   UNL A   1      40.717  28.239  28.736  1.00  0.00     0.074 A 
ATOM     51  C   UNL A   1      39.680  28.420  27.745  1.00  0.00     0.031 C 
ATOM     52  C   UNL A   1      42.093  32.253  31.767  1.00  0.00     0.029 A 
ATOM     53  C   UNL A   1      40.953  32.839  32.451  1.00  0.00     0.049 A 
ATOM     54  H   UNL A   1      39.450  33.847  31.307  1.00  0.00     0.167 HD
ATOM     55  C   UNL A   1      41.854  27.491  28.806  1.00  0.00     0.031 A 
ATOM     56  C   UNL A   1      40.592  32.553  33.738  1.00  0.00     0.031 A 
ATOM     57  C   UNL A   1      42.653  27.827  29.982  1.00  0.00     0.049 A 
ATOM     58  C   UNL A   1      41.157  31.234  34.246  1.00  0.00     0.074 A 
ATOM     59  C   UNL A   1      43.777  28.617  30.161  1.00  0.00     0.029 A 
ATOM     60  N   UNL A   1      42.143  27.576  31.249  1.00  0.00    -0.354 N 
ATOM     61  N   UNL A   1      41.619  30.295  33.464  1.00  0.00    -0.248 NA
ATOM     62  C   UNL A   1      41.207  30.844  35.654  1.00  0.00     0.031 C 
ATOM     63  C   UNL A   1      43.910  28.887  31.548  1.00  0.00     0.029 A 
ATOM     64  C   UNL A   1      42.885  28.236  32.210  1.00  0.00     0.049 A 
ATOM     65  H   UNL A   1      41.363  27.006  31.436  1.00  0.00     0.167 HD
ATOM     66  C   UNL A   1      42.028  29.220  34.209  1.00  0.00     0.074 A 
ATOM     67  C   UNL A   1      41.755  29.615  35.579  1.00  0.00     0.031 C 
ATOM     68  C   UNL A   1      42.544  28.098  33.622  1.00  0.00     0.031 A 
BRANCH  55  69
ATOM     69  C   UNL A   1      42.382  26.677  27.650  1.00  0.00    -0.014 A 
ATOM     70  C   UNL A   1      43.383  25.712  27.875  1.00  0.00     0.009 A 
ATOM     71  C   UNL A   1      41.974  26.838  26.315  1.00  0.00     0.009 A 
ATOM     72  C   UNL A   1      44.012  25.032  26.823  1.00  0.00     0.001 A 
ATOM     73  C   UNL A   1      42.624  26.191  25.255  1.00  0.00     0.001 A 
ATOM     74  C   UNL A   1      43.654  25.296  25.509  1.00  0.00     0.000 A 
ENDBRANCH  55  69
BRANCH  56  75
ATOM     75  C   UNL A   1      39.285  33.122  34.160  1.00  0.00    -0.014 A 
ATOM     76  C   UNL A   1      38.111  32.423  33.818  1.00  0.00     0.009 A 
ATOM     77  C   UNL A   1      39.215  34.099  35.161  1.00  0.00     0.009 A 
ATOM     78  C   UNL A   1      36.933  32.602  34.551  1.00  0.00     0.001 A 
ATOM     79  C   UNL A   1      38.028  34.284  35.884  1.00  0.00     0.001 A 
ATOM     80  C   UNL A   1      36.904  33.508  35.606  1.00  0.00     0.000 A 
ENDBRANCH  56  75
BRANCH  68  81
ATOM     81  C   UNL A   1      42.847  26.771  34.285  1.00  0.00    -0.014 A 
ATOM     82  C   UNL A   1      44.124  26.214  34.426  1.00  0.00     0.009 A 
ATOM     83  C   UNL A   1      41.790  26.077  34.926  1.00  0.00     0.009 A 
ATOM     84  C   UNL A   1      44.328  25.020  35.136  1.00  0.00     0.001 A 
ATOM     85  C   UNL A   1      41.994  24.915  35.673  1.00  0.00     0.001 A 
ATOM     86  C   UNL A   1      43.267  24.379  35.770  1.00  0.00     0.000 A 
ENDBRANCH  68  81
ENDBRANCH  42  43
ENDBRANCH  34  37
ENDBRANCH  32  33
ENDBRANCH  31  32
ENDBRANCH  30  31
ENDBRANCH   1  30
TORSDOF 16
ENDMDL
MODEL 2
REMARK VINA RESULT:     -12.4      4.756      8.400
REMARK SMILES Cc1cccc(-c2cc(OCC(=O)NCCCCNC(=O)c3ccc(-c4c5nc(c(-c6ccccc6)c6ccc([nH]6)c(-c6ccccc6)c6nc(c(-c7ccccc7)c7ccc4[nH]7)C=C6)C=C5)cc3)nc(Nc3ccccc3C)n2)c1
REMARK SMILES IDX 15 1 14 2 12 3 13 4 11 6 10 7 9 8 7 9 8 10 80 11 71 12 70 13
REMARK SMILES IDX 6 14 1 15 2 16 3 17 81 18 4 19 5 20 72 21 73 23 74 24 78 25
REMARK SMILES IDX 75 26 77 27 79 28 76 29 16 30 17 31 18 32 19 33 20 34 21 36
REMARK SMILES IDX 22 37 23 38 69 39 24 40 68 41 25 42 26 43 27 44 62 45 28 46
REMARK SMILES IDX 67 47 61 48 63 49 29 50 66 51 60 52 59 53 30 55 52 56 37 57
REMARK SMILES IDX 51 58 38 59 41 60 50 61 64 62 39 63 40 64 49 66 65 67 42 68
REMARK SMILES IDX 31 69 32 70 36 71 33 72 35 73 34 74 53 75 54 76 58 77 55 78
REMARK SMILES IDX 57 79 56 80 43 81 44 82 48 83 45 84 47 85 46 86
REMARK H PARENT 14 5 72 22 19 35 63 54 41 65
REMARK Flexibility Score: inf
ROOT
ATOM      1  C   UNL A   1      42.311  20.675  26.678  1.00  0.00     0.116 C 
ENDROOT
BRANCH   1   2
ATOM      2  N   UNL A   1      41.366  19.718  26.133  1.00  0.00    -0.353 N 
ATOM      3  C   UNL A   1      40.022  19.850  25.946  1.00  0.00     0.258 C 
ATOM      4  O   UNL A   1      39.399  18.909  25.452  1.00  0.00    -0.271 OA
ATOM      5  H   UNL A   1      41.749  18.853  25.860  1.00  0.00     0.163 HD
BRANCH   3   6
ATOM      6  C   UNL A   1      39.314  21.154  26.337  1.00  0.00     0.331 C 
BRANCH   6   7
ATOM      7  O   UNL A   1      38.795  21.942  25.281  1.00  0.00    -0.467 OA
BRANCH   7   8
ATOM      8  C   UNL A   1      37.450  22.184  25.263  1.00  0.00     0.219 A 
ATOM      9  C   UNL A   1      35.498  23.428  24.986  1.00  0.00     0.080 A 
ATOM     10  C   UNL A   1      36.871  23.410  25.047  1.00  0.00     0.097 A 
ATOM     11  N   UNL A   1      34.760  22.324  25.167  1.00  0.00    -0.212 NA
ATOM     12  C   UNL A   1      35.396  21.168  25.390  1.00  0.00     0.231 A 
ATOM     13  N   UNL A   1      36.729  21.065  25.455  1.00  0.00    -0.177 NA
BRANCH   9  14
ATOM     14  C   UNL A   1      34.749  24.646  24.673  1.00  0.00     0.001 A 
ATOM     15  C   UNL A   1      33.490  27.781  26.458  1.00  0.00     0.044 C 
ATOM     16  C   UNL A   1      33.762  26.769  25.386  1.00  0.00    -0.050 A 
ATOM     17  C   UNL A   1      33.305  26.984  24.083  1.00  0.00     0.003 A 
ATOM     18  C   UNL A   1      34.470  25.594  25.673  1.00  0.00     0.013 A 
ATOM     19  C   UNL A   1      33.575  26.057  23.077  1.00  0.00     0.001 A 
ATOM     20  C   UNL A   1      34.302  24.903  23.368  1.00  0.00     0.010 A 
ENDBRANCH   9  14
BRANCH  12  21
ATOM     21  N   UNL A   1      34.661  20.002  25.598  1.00  0.00    -0.324 N 
ATOM     22  H   UNL A   1      34.470  19.761  26.534  1.00  0.00     0.170 HD
BRANCH  21  23
ATOM     23  C   UNL A   1      34.165  19.137  24.613  1.00  0.00     0.044 A 
ATOM     24  C   UNL A   1      34.864  17.947  24.354  1.00  0.00     0.026 A 
ATOM     25  C   UNL A   1      32.936  19.363  23.958  1.00  0.00    -0.027 A 
ATOM     26  C   UNL A   1      34.340  16.978  23.496  1.00  0.00     0.002 A 
ATOM     27  C   UNL A   1      32.415  18.375  23.107  1.00  0.00     0.005 A 
ATOM     28  C   UNL A   1      32.175  20.652  24.126  1.00  0.00     0.046 C 
ATOM     29  C   UNL A   1      33.109  17.187  22.883  1.00  0.00     0.000 A 
ENDBRANCH  21  23
ENDBRANCH  12  21
ENDBRANCH   7   8
ENDBRANCH   6   7
ENDBRANCH   3   6
ENDBRANCH   1   2
BRANCH   1  30
ATOM     30  C   UNL A   1      43.128  21.405  25.604  1.00  0.00     0.023 C 
BRANCH  30  31
ATOM     31  C   UNL A   1      43.620  22.805  25.978  1.00  0.00     0.023 C 
BRANCH  31  32
ATOM     32  C   UNL A   1      42.767  23.946  25.442  1.00  0.00     0.116 C 
BRANCH  32  33
ATOM     33  N   UNL A   1      41.410  23.994  25.965  1.00  0.00    -0.352 N 
ATOM     34  C   UNL A   1      40.957  24.252  27.253  1.00  0.00     0.251 C 
ATOM     35  H   UNL A   1      40.703  23.817  25.304  1.00  0.00     0.163 HD
ATOM     36  O   UNL A   1      39.772  24.169  27.505  1.00  0.00    -0.269 OA
BRANCH  34  37
ATOM     37  C   UNL A   1      41.899  24.777  28.282  1.00  0.00     0.039 A 
ATOM     38  C   UNL A   1      42.174  26.152  28.262  1.00  0.00     0.014 A 
ATOM     39  C   UNL A   1      42.648  23.939  29.101  1.00  0.00     0.014 A 
ATOM     40  C   UNL A   1      43.356  26.624  28.828  1.00  0.00     0.010 A 
ATOM     41  C   UNL A   1      43.865  24.380  29.578  1.00  0.00     0.010 A 
ATOM     42  C   UNL A   1      44.253  25.702  29.364  1.00  0.00    -0.014 A 
BRANCH  42  43
ATOM     43  C   UNL A   1      45.654  26.007  29.612  1.00  0.00     0.031 A 
ATOM     44  C   UNL A   1      46.686  25.578  28.644  1.00  0.00     0.074 A 
ATOM     45  C   UNL A   1      46.000  26.724  30.707  1.00  0.00     0.049 A 
ATOM     46  N   UNL A   1      47.913  25.328  28.961  1.00  0.00    -0.248 NA
ATOM     47  C   UNL A   1      46.404  25.361  27.227  1.00  0.00     0.031 C 
ATOM     48  C   UNL A   1      47.321  27.278  31.008  1.00  0.00     0.029 A 
ATOM     49  N   UNL A   1      45.285  26.987  31.877  1.00  0.00    -0.354 N 
ATOM     50  C   UNL A   1      48.628  25.225  27.792  1.00  0.00     0.074 A 
ATOM     51  C   UNL A   1      47.634  25.156  26.744  1.00  0.00     0.031 C 
ATOM     52  C   UNL A   1      47.408  27.478  32.334  1.00  0.00     0.029 A 
ATOM     53  C   UNL A   1      46.211  26.906  32.925  1.00  0.00     0.049 A 
ATOM     54  H   UNL A   1      44.324  27.188  31.951  1.00  0.00     0.167 HD
ATOM     55  C   UNL A   1      49.983  25.363  27.818  1.00  0.00     0.031 A 
ATOM     56  C   UNL A   1      46.210  25.946  33.899  1.00  0.00     0.031 A 
ATOM     57  C   UNL A   1      50.483  25.563  29.177  1.00  0.00     0.049 A 
ATOM     58  C   UNL A   1      47.516  25.167  33.979  1.00  0.00     0.074 A 
ATOM     59  C   UNL A   1      50.870  26.693  29.879  1.00  0.00     0.029 A 
ATOM     60  N   UNL A   1      50.344  24.547  30.112  1.00  0.00    -0.354 N 
ATOM     61  N   UNL A   1      48.402  25.137  33.021  1.00  0.00    -0.248 NA
ATOM     62  C   UNL A   1      47.908  24.328  35.110  1.00  0.00     0.031 C 
ATOM     63  C   UNL A   1      50.912  26.362  31.259  1.00  0.00     0.029 A 
ATOM     64  C   UNL A   1      50.578  25.025  31.387  1.00  0.00     0.049 A 
ATOM     65  H   UNL A   1      50.111  23.615  29.898  1.00  0.00     0.167 HD
ATOM     66  C   UNL A   1      49.451  24.330  33.373  1.00  0.00     0.074 A 
ATOM     67  C   UNL A   1      49.098  23.850  34.698  1.00  0.00     0.031 C 
ATOM     68  C   UNL A   1      50.510  24.125  32.533  1.00  0.00     0.031 A 
BRANCH  55  69
ATOM     69  C   UNL A   1      50.814  25.618  26.584  1.00  0.00    -0.014 A 
ATOM     70  C   UNL A   1      52.130  25.122  26.513  1.00  0.00     0.009 A 
ATOM     71  C   UNL A   1      50.381  26.371  25.479  1.00  0.00     0.009 A 
ATOM     72  C   UNL A   1      52.994  25.450  25.459  1.00  0.00     0.001 A 
ATOM     73  C   UNL A   1      51.250  26.736  24.442  1.00  0.00     0.001 A 
ATOM     74  C   UNL A   1      52.563  26.285  24.439  1.00  0.00     0.000 A 
ENDBRANCH  55  69
BRANCH  56  75
ATOM     75  C   UNL A   1      44.873  25.375  34.210  1.00  0.00    -0.014 A 
ATOM     76  C   UNL A   1      44.495  24.175  33.577  1.00  0.00     0.009 A 
ATOM     77  C   UNL A   1      44.163  25.787  35.346  1.00  0.00     0.009 A 
ATOM     78  C   UNL A   1      43.523  23.344  34.143  1.00  0.00     0.001 A 
ATOM     79  C   UNL A   1      43.180  24.955  35.901  1.00  0.00     0.001 A 
ATOM     80  C   UNL A   1      42.892  23.720  35.324  1.00  0.00     0.000 A 
ENDBRANCH  56  75
BRANCH  68  81
ATOM     81  C   UNL A   1      51.629  23.118  32.694  1.00  0.00    -0.014 A 
ATOM     82  C   UNL A   1      52.991  23.433  32.770  1.00  0.00     0.009 A 
ATOM     83  C   UNL A   1      51.292  21.758  32.908  1.00  0.00     0.009 A 
ATOM     84  C   UNL A   1      53.960  22.446  33.012  1.00  0.00     0.001 A 
ATOM     85  C   UNL A   1      52.246  20.780  33.196  1.00  0.00     0.001 A 
ATOM     86  C   UNL A   1      53.587  21.124  33.238  1.00  0.00     0.000 A 
ENDBRANCH  68  81
ENDBRANCH  42  43
ENDBRANCH  34  37
ENDBRANCH  32  33
ENDBRANCH  31  32
ENDBRANCH  30  31
ENDBRANCH   1  30
TORSDOF 16
ENDMDL
MODEL 3
REMARK VINA RESULT:     -12.3      3.651      9.237
REMARK SMILES Cc1cccc(-c2cc(OCC(=O)NCCCCNC(=O)c3ccc(-c4c5nc(c(-c6ccccc6)c6ccc([nH]6)c(-c6ccccc6)c6nc(c(-c7ccccc7)c7ccc4[nH]7)C=C6)C=C5)cc3)nc(Nc3ccccc3C)n2)c1
REMARK SMILES IDX 15 1 14 2 12 3 13 4 11 6 10 7 9 8 7 9 8 10 80 11 71 12 70 13
REMARK SMILES IDX 6 14 1 15 2 16 3 17 81 18 4 19 5 20 72 21 73 23 74 24 78 25
REMARK SMILES IDX 75 26 77 27 79 28 76 29 16 30 17 31 18 32 19 33 20 34 21 36
REMARK SMILES IDX 22 37 23 38 69 39 24 40 68 41 25 42 26 43 27 44 62 45 28 46
REMARK SMILES IDX 67 47 61 48 63 49 29 50 66 51 60 52 59 53 30 55 52 56 37 57
REMARK SMILES IDX 51 58 38 59 41 60 50 61 64 62 39 63 40 64 49 66 65 67 42 68
REMARK SMILES IDX 31 69 32 70 36 71 33 72 35 73 34 74 53 75 54 76 58 77 55 78
REMARK SMILES IDX 57 79 56 80 43 81 44 82 48 83 45 84 47 85 46 86
REMARK H PARENT 14 5 72 22 19 35 63 54 41 65
REMARK Flexibility Score: inf
ROOT
ATOM      1  C   UNL A   1      41.059  20.094  26.621  1.00  0.00     0.116 C 
ENDROOT
BRANCH   1   2
ATOM      2  N   UNL A   1      40.017  19.465  25.830  1.00  0.00    -0.353 N 
ATOM      3  C   UNL A   1      38.845  19.993  25.378  1.00  0.00     0.258 C 
ATOM      4  O   UNL A   1      38.097  19.282  24.705  1.00  0.00    -0.271 OA
ATOM      5  H   UNL A   1      40.181  18.525  25.585  1.00  0.00     0.163 HD
BRANCH   3   6
ATOM      6  C   UNL A   1      38.481  21.449  25.701  1.00  0.00     0.331 C 
BRANCH   6   7
ATOM      7  O   UNL A   1      37.608  22.105  24.799  1.00  0.00    -0.467 OA
BRANCH   7   8
ATOM      8  C   UNL A   1      36.304  22.268  25.175  1.00  0.00     0.219 A 
ATOM      9  C   UNL A   1      34.352  23.430  25.700  1.00  0.00     0.080 A 
ATOM     10  C   UNL A   1      35.696  23.475  25.413  1.00  0.00     0.097 A 
ATOM     11  N   UNL A   1      33.679  22.274  25.785  1.00  0.00    -0.212 NA
ATOM     12  C   UNL A   1      34.344  21.137  25.556  1.00  0.00     0.231 A 
ATOM     13  N   UNL A   1      35.649  21.096  25.262  1.00  0.00    -0.177 NA
BRANCH   9  14
ATOM     14  C   UNL A   1      33.555  24.643  25.888  1.00  0.00     0.001 A 
ATOM     15  C   UNL A   1      34.021  28.433  25.761  1.00  0.00     0.044 C 
ATOM     16  C   UNL A   1      33.388  27.084  25.924  1.00  0.00    -0.050 A 
ATOM     17  C   UNL A   1      32.033  26.978  26.253  1.00  0.00     0.003 A 
ATOM     18  C   UNL A   1      34.141  25.915  25.757  1.00  0.00     0.013 A 
ATOM     19  C   UNL A   1      31.434  25.726  26.384  1.00  0.00     0.001 A 
ATOM     20  C   UNL A   1      32.187  24.567  26.190  1.00  0.00     0.010 A 
ENDBRANCH   9  14
BRANCH  12  21
ATOM     21  N   UNL A   1      33.679  19.915  25.651  1.00  0.00    -0.324 N 
ATOM     22  H   UNL A   1      33.123  19.775  26.452  1.00  0.00     0.170 HD
BRANCH  21  23
ATOM     23  C   UNL A   1      33.720  18.864  24.724  1.00  0.00     0.044 A 
ATOM     24  C   UNL A   1      34.485  17.728  25.034  1.00  0.00     0.026 A 
ATOM     25  C   UNL A   1      32.936  18.859  23.552  1.00  0.00    -0.027 A 
ATOM     26  C   UNL A   1      34.445  16.591  24.224  1.00  0.00     0.002 A 
ATOM     27  C   UNL A   1      32.895  17.705  22.752  1.00  0.00     0.005 A 
ATOM     28  C   UNL A   1      32.156  20.072  23.116  1.00  0.00     0.046 C 
ATOM     29  C   UNL A   1      33.639  16.577  23.090  1.00  0.00     0.000 A 
ENDBRANCH  21  23
ENDBRANCH  12  21
ENDBRANCH   7   8
ENDBRANCH   6   7
ENDBRANCH   3   6
ENDBRANCH   1   2
BRANCH   1  30
ATOM     30  C   UNL A   1      42.071  19.098  27.199  1.00  0.00     0.023 C 
BRANCH  30  31
ATOM     31  C   UNL A   1      43.024  18.454  26.190  1.00  0.00     0.023 C 
BRANCH  31  32
ATOM     32  C   UNL A   1      43.429  19.353  25.031  1.00  0.00     0.116 C 
BRANCH  32  33
ATOM     33  N   UNL A   1      44.783  19.881  25.108  1.00  0.00    -0.352 N 
ATOM     34  C   UNL A   1      45.224  21.178  25.332  1.00  0.00     0.251 C 
ATOM     35  H   UNL A   1      45.496  19.214  24.983  1.00  0.00     0.163 HD
ATOM     36  O   UNL A   1      46.411  21.430  25.282  1.00  0.00    -0.269 OA
BRANCH  34  37
ATOM     37  C   UNL A   1      44.263  22.225  25.781  1.00  0.00     0.039 A 
ATOM     38  C   UNL A   1      44.171  23.390  25.007  1.00  0.00     0.014 A 
ATOM     39  C   UNL A   1      43.629  22.170  27.018  1.00  0.00     0.014 A 
ATOM     40  C   UNL A   1      43.700  24.565  25.589  1.00  0.00     0.010 A 
ATOM     41  C   UNL A   1      43.253  23.347  27.632  1.00  0.00     0.010 A 
ATOM     42  C   UNL A   1      43.371  24.553  26.943  1.00  0.00    -0.014 A 
BRANCH  42  43
ATOM     43  C   UNL A   1      43.258  25.763  27.744  1.00  0.00     0.031 A 
ATOM     44  C   UNL A   1      41.986  26.517  27.771  1.00  0.00     0.074 A 
ATOM     45  C   UNL A   1      44.307  26.165  28.500  1.00  0.00     0.049 A 
ATOM     46  N   UNL A   1      41.905  27.786  27.991  1.00  0.00    -0.248 NA
ATOM     47  C   UNL A   1      40.690  25.895  27.514  1.00  0.00     0.031 C 
ATOM     48  C   UNL A   1      44.306  27.234  29.500  1.00  0.00     0.029 A 
ATOM     49  N   UNL A   1      45.657  25.813  28.432  1.00  0.00    -0.354 N 
ATOM     50  C   UNL A   1      40.581  28.083  28.207  1.00  0.00     0.074 A 
ATOM     51  C   UNL A   1      39.856  26.899  27.805  1.00  0.00     0.031 C 
ATOM     52  C   UNL A   1      45.568  27.661  29.671  1.00  0.00     0.029 A 
ATOM     53  C   UNL A   1      46.379  26.990  28.669  1.00  0.00     0.049 A 
ATOM     54  H   UNL A   1      46.026  24.918  28.254  1.00  0.00     0.167 HD
ATOM     55  C   UNL A   1      40.246  29.240  28.844  1.00  0.00     0.031 A 
ATOM     56  C   UNL A   1      47.157  27.631  27.747  1.00  0.00     0.031 A 
ATOM     57  C   UNL A   1      41.424  30.041  29.170  1.00  0.00     0.049 A 
ATOM     58  C   UNL A   1      46.749  29.080  27.515  1.00  0.00     0.074 A 
ATOM     59  C   UNL A   1      42.151  30.213  30.337  1.00  0.00     0.029 A 
ATOM     60  N   UNL A   1      42.197  30.568  28.144  1.00  0.00    -0.354 N 
ATOM     61  N   UNL A   1      45.588  29.569  27.856  1.00  0.00    -0.248 NA
ATOM     62  C   UNL A   1      47.585  30.075  26.847  1.00  0.00     0.031 C 
ATOM     63  C   UNL A   1      43.397  30.801  29.998  1.00  0.00     0.029 A 
ATOM     64  C   UNL A   1      43.412  31.012  28.630  1.00  0.00     0.049 A 
ATOM     65  H   UNL A   1      41.918  30.619  27.202  1.00  0.00     0.167 HD
ATOM     66  C   UNL A   1      45.506  30.887  27.492  1.00  0.00     0.074 A 
ATOM     67  C   UNL A   1      46.788  31.161  26.868  1.00  0.00     0.031 C 
ATOM     68  C   UNL A   1      44.381  31.627  27.731  1.00  0.00     0.031 A 
BRANCH  55  69
ATOM     69  C   UNL A   1      38.881  29.494  29.438  1.00  0.00    -0.014 A 
ATOM     70  C   UNL A   1      38.655  29.236  30.804  1.00  0.00     0.009 A 
ATOM     71  C   UNL A   1      37.770  29.942  28.704  1.00  0.00     0.009 A 
ATOM     72  C   UNL A   1      37.377  29.315  31.374  1.00  0.00     0.001 A 
ATOM     73  C   UNL A   1      36.482  29.985  29.257  1.00  0.00     0.001 A 
ATOM     74  C   UNL A   1      36.284  29.658  30.592  1.00  0.00     0.000 A 
ENDBRANCH  55  69
BRANCH  56  75
ATOM     75  C   UNL A   1      47.741  26.748  26.703  1.00  0.00    -0.014 A 
ATOM     76  C   UNL A   1      47.040  26.590  25.492  1.00  0.00     0.009 A 
ATOM     77  C   UNL A   1      49.092  26.378  26.748  1.00  0.00     0.009 A 
ATOM     78  C   UNL A   1      47.706  26.201  24.326  1.00  0.00     0.001 A 
ATOM     79  C   UNL A   1      49.752  25.977  25.579  1.00  0.00     0.001 A 
ATOM     80  C   UNL A   1      49.069  25.928  24.364  1.00  0.00     0.000 A 
ENDBRANCH  56  75
BRANCH  68  81
ATOM     81  C   UNL A   1      44.069  33.016  27.215  1.00  0.00    -0.014 A 
ATOM     82  C   UNL A   1      44.136  33.411  25.874  1.00  0.00     0.009 A 
ATOM     83  C   UNL A   1      43.552  33.975  28.122  1.00  0.00     0.009 A 
ATOM     84  C   UNL A   1      43.741  34.695  25.467  1.00  0.00     0.001 A 
ATOM     85  C   UNL A   1      43.113  35.237  27.716  1.00  0.00     0.001 A 
ATOM     86  C   UNL A   1      43.218  35.602  26.384  1.00  0.00     0.000 A 
ENDBRANCH  68  81
ENDBRANCH  42  43
ENDBRANCH  34  37
ENDBRANCH  32  33
ENDBRANCH  31  32
ENDBRANCH  30  31
ENDBRANCH   1  30
TORSDOF 16
ENDMDL
