MODEL 1
REMARK VINA RESULT:     -12.8      0.000      0.000
REMARK SMILES Cc1ccc(-c2cc(Cl)cc3c2O[C@H](C(F)(F)F)C(C(=O)NCCCCNC(=O)c2ccc(-c4c5nc(c(-c6ccccc6)c6ccc([nH]6)c(-c6ccccc6)c6nc(c(-c7ccccc7)c7ccc4[nH]7)C=C6)C=C5)cc2)=C3)cc1F
REMARK SMILES IDX 25 1 24 2 23 3 22 4 20 5 21 6 19 8 6 9 7 10 12 11 8 12 11 13
REMARK SMILES IDX 13 14 9 15 10 16 78 17 14 18 5 19 1 20 2 21 3 22 80 23 4 24
REMARK SMILES IDX 79 25 81 26 15 27 16 28 17 29 18 30 26 31 27 32 28 33 29 35
REMARK SMILES IDX 30 36 31 37 77 38 32 39 76 40 33 41 34 42 35 43 70 44 36 45
REMARK SMILES IDX 75 46 69 47 71 48 37 49 74 50 68 51 67 52 38 54 60 55 45 56
REMARK SMILES IDX 59 57 46 58 49 59 58 60 72 61 47 62 48 63 57 65 73 66 50 67
REMARK SMILES IDX 39 68 40 69 44 70 41 71 43 72 42 73 61 74 62 75 66 76 63 77
REMARK SMILES IDX 65 78 64 79 51 80 52 81 56 82 53 83 55 84 54 85
REMARK H PARENT 22 7 27 34 71 53 49 64
REMARK Flexibility Score: inf
ROOT
ATOM      1  C   UNL A   1      32.908  29.709  25.875  1.00  0.00     0.023 C 
ENDROOT
BRANCH   1   2
ATOM      2  C   UNL A   1      33.243  28.649  24.822  1.00  0.00     0.023 C 
BRANCH   2   3
ATOM      3  C   UNL A   1      32.023  28.018  24.153  1.00  0.00     0.116 C 
BRANCH   3   4
ATOM      4  N   UNL A   1      31.147  27.363  25.110  1.00  0.00    -0.352 N 
ATOM      5  C   UNL A   1      31.076  26.153  25.719  1.00  0.00     0.251 C 
ATOM      6  O   UNL A   1      30.131  26.011  26.501  1.00  0.00    -0.270 OA
ATOM      7  H   UNL A   1      30.411  27.952  25.390  1.00  0.00     0.163 HD
BRANCH   5   8
ATOM      8  C   UNL A   1      32.031  25.025  25.508  1.00  0.00     0.067 C 
ATOM      9  C   UNL A   1      34.765  21.839  25.154  1.00  0.00     0.026 A 
ATOM     10  C   UNL A   1      36.135  22.109  25.271  1.00  0.00     0.033 A 
ATOM     11  C   UNL A   1      33.863  22.903  25.348  1.00  0.00     0.135 A 
ATOM     12  C   UNL A   1      36.578  23.400  25.568  1.00  0.00     0.042 A 
ATOM     13  C   UNL A   1      34.302  24.201  25.639  1.00  0.00     0.019 A 
ATOM     14  O   UNL A   1      32.524  22.609  25.306  1.00  0.00    -0.475 OA
ATOM     15  Cl  UNL A   1      38.266  23.707  25.711  1.00  0.00    -0.084 Cl
ATOM     16  C   UNL A   1      35.671  24.446  25.751  1.00  0.00     0.032 A 
ATOM     17  C   UNL A   1      33.314  25.257  25.847  1.00  0.00     0.025 C 
ATOM     18  C   UNL A   1      31.645  23.697  24.926  1.00  0.00     0.314 C 
BRANCH   9  19
ATOM     19  C   UNL A   1      34.279  20.490  24.824  1.00  0.00    -0.012 A 
ATOM     20  C   UNL A   1      33.055  16.560  23.497  1.00  0.00     0.047 C 
ATOM     21  C   UNL A   1      33.446  17.920  23.988  1.00  0.00    -0.015 A 
ATOM     22  C   UNL A   1      32.598  19.023  23.840  1.00  0.00     0.007 A 
ATOM     23  C   UNL A   1      34.693  18.112  24.580  1.00  0.00     0.126 A 
ATOM     24  C   UNL A   1      33.011  20.294  24.257  1.00  0.00     0.009 A 
ATOM     25  C   UNL A   1      35.109  19.372  25.001  1.00  0.00     0.048 A 
ATOM     26  F   UNL A   1      35.528  17.073  24.731  1.00  0.00    -0.207 F 
ENDBRANCH   9  19
BRANCH  18  27
ATOM     27  C   UNL A   1      31.496  23.731  23.393  1.00  0.00     0.429 C 
ATOM     28  F   UNL A   1      32.406  24.576  22.847  1.00  0.00    -0.167 F 
ATOM     29  F   UNL A   1      31.706  22.519  22.826  1.00  0.00    -0.167 F 
ATOM     30  F   UNL A   1      30.272  24.144  22.995  1.00  0.00    -0.167 F 
ENDBRANCH  18  27
ENDBRANCH   5   8
ENDBRANCH   3   4
ENDBRANCH   2   3
ENDBRANCH   1   2
BRANCH   1  31
ATOM     31  C   UNL A   1      33.600  29.533  27.225  1.00  0.00     0.116 C 
BRANCH  31  32
ATOM     32  N   UNL A   1      33.743  30.757  28.001  1.00  0.00    -0.352 N 
ATOM     33  C   UNL A   1      34.841  31.167  28.728  1.00  0.00     0.251 C 
ATOM     34  H   UNL A   1      32.967  31.363  28.007  1.00  0.00     0.163 HD
ATOM     35  O   UNL A   1      34.806  32.190  29.404  1.00  0.00    -0.269 OA
BRANCH  33  36
ATOM     36  C   UNL A   1      36.043  30.308  28.733  1.00  0.00     0.039 A 
ATOM     37  C   UNL A   1      36.392  29.605  29.885  1.00  0.00     0.014 A 
ATOM     38  C   UNL A   1      36.885  30.311  27.619  1.00  0.00     0.014 A 
ATOM     39  C   UNL A   1      37.672  29.079  29.997  1.00  0.00     0.010 A 
ATOM     40  C   UNL A   1      38.141  29.703  27.704  1.00  0.00     0.010 A 
ATOM     41  C   UNL A   1      38.573  29.149  28.919  1.00  0.00    -0.014 A 
BRANCH  41  42
ATOM     42  C   UNL A   1      39.969  28.685  29.123  1.00  0.00     0.031 A 
ATOM     43  C   UNL A   1      40.388  27.299  28.708  1.00  0.00     0.074 A 
ATOM     44  C   UNL A   1      40.891  29.560  29.568  1.00  0.00     0.049 A 
ATOM     45  N   UNL A   1      41.589  26.776  28.685  1.00  0.00    -0.248 NA
ATOM     46  C   UNL A   1      39.330  26.380  28.257  1.00  0.00     0.031 C 
ATOM     47  C   UNL A   1      40.613  30.938  29.975  1.00  0.00     0.029 A 
ATOM     48  N   UNL A   1      42.253  29.442  29.692  1.00  0.00    -0.354 N 
ATOM     49  C   UNL A   1      41.429  25.472  28.233  1.00  0.00     0.074 A 
ATOM     50  C   UNL A   1      40.014  25.268  28.021  1.00  0.00     0.031 C 
ATOM     51  C   UNL A   1      41.774  31.566  30.211  1.00  0.00     0.029 A 
ATOM     52  C   UNL A   1      42.871  30.621  30.030  1.00  0.00     0.049 A 
ATOM     53  H   UNL A   1      42.738  28.597  29.552  1.00  0.00     0.167 HD
ATOM     54  C   UNL A   1      42.375  24.529  28.005  1.00  0.00     0.031 A 
ATOM     55  C   UNL A   1      44.178  30.920  30.160  1.00  0.00     0.031 A 
ATOM     56  C   UNL A   1      43.785  24.727  28.211  1.00  0.00     0.049 A 
ATOM     57  C   UNL A   1      45.206  29.854  29.918  1.00  0.00     0.074 A 
ATOM     58  C   UNL A   1      44.817  23.820  28.037  1.00  0.00     0.029 A 
ATOM     59  N   UNL A   1      44.363  25.916  28.625  1.00  0.00    -0.354 N 
ATOM     60  N   UNL A   1      45.032  28.619  29.520  1.00  0.00    -0.248 NA
ATOM     61  C   UNL A   1      46.610  30.228  30.140  1.00  0.00     0.031 C 
ATOM     62  C   UNL A   1      46.016  24.451  28.377  1.00  0.00     0.029 A 
ATOM     63  C   UNL A   1      45.737  25.766  28.713  1.00  0.00     0.049 A 
ATOM     64  H   UNL A   1      43.870  26.745  28.827  1.00  0.00     0.167 HD
ATOM     65  C   UNL A   1      46.303  28.068  29.432  1.00  0.00     0.074 A 
ATOM     66  C   UNL A   1      47.240  29.110  29.799  1.00  0.00     0.031 C 
ATOM     67  C   UNL A   1      46.658  26.809  29.080  1.00  0.00     0.031 A 
BRANCH  54  68
ATOM     68  C   UNL A   1      41.918  23.183  27.515  1.00  0.00    -0.014 A 
ATOM     69  C   UNL A   1      41.513  22.205  28.436  1.00  0.00     0.009 A 
ATOM     70  C   UNL A   1      41.950  22.861  26.150  1.00  0.00     0.009 A 
ATOM     71  C   UNL A   1      41.154  20.927  28.001  1.00  0.00     0.001 A 
ATOM     72  C   UNL A   1      41.567  21.590  25.715  1.00  0.00     0.001 A 
ATOM     73  C   UNL A   1      41.176  20.622  26.641  1.00  0.00     0.000 A 
ENDBRANCH  54  68
BRANCH  55  74
ATOM     74  C   UNL A   1      44.573  32.311  30.496  1.00  0.00    -0.014 A 
ATOM     75  C   UNL A   1      44.723  32.708  31.834  1.00  0.00     0.009 A 
ATOM     76  C   UNL A   1      44.741  33.263  29.481  1.00  0.00     0.009 A 
ATOM     77  C   UNL A   1      45.007  34.038  32.150  1.00  0.00     0.001 A 
ATOM     78  C   UNL A   1      45.051  34.588  29.799  1.00  0.00     0.001 A 
ATOM     79  C   UNL A   1      45.173  34.975  31.133  1.00  0.00     0.000 A 
ENDBRANCH  55  74
BRANCH  67  80
ATOM     80  C   UNL A   1      48.123  26.481  29.051  1.00  0.00    -0.014 A 
ATOM     81  C   UNL A   1      48.843  26.621  27.853  1.00  0.00     0.009 A 
ATOM     82  C   UNL A   1      48.770  25.958  30.180  1.00  0.00     0.009 A 
ATOM     83  C   UNL A   1      50.183  26.238  27.785  1.00  0.00     0.001 A 
ATOM     84  C   UNL A   1      50.118  25.598  30.114  1.00  0.00     0.001 A 
ATOM     85  C   UNL A   1      50.820  25.733  28.916  1.00  0.00     0.000 A 
ENDBRANCH  67  80
ENDBRANCH  41  42
ENDBRANCH  33  36
ENDBRANCH  31  32
ENDBRANCH   1  31
TORSDOF 13
ENDMDL
MODEL 2
REMARK VINA RESULT:     -12.8      1.910      2.552
REMARK SMILES Cc1ccc(-c2cc(Cl)cc3c2O[C@H](C(F)(F)F)C(C(=O)NCCCCNC(=O)c2ccc(-c4c5nc(c(-c6ccccc6)c6ccc([nH]6)c(-c6ccccc6)c6nc(c(-c7ccccc7)c7ccc4[nH]7)C=C6)C=C5)cc2)=C3)cc1F
REMARK SMILES IDX 25 1 24 2 23 3 22 4 20 5 21 6 19 8 6 9 7 10 12 11 8 12 11 13
REMARK SMILES IDX 13 14 9 15 10 16 78 17 14 18 5 19 1 20 2 21 3 22 80 23 4 24
REMARK SMILES IDX 79 25 81 26 15 27 16 28 17 29 18 30 26 31 27 32 28 33 29 35
REMARK SMILES IDX 30 36 31 37 77 38 32 39 76 40 33 41 34 42 35 43 70 44 36 45
REMARK SMILES IDX 75 46 69 47 71 48 37 49 74 50 68 51 67 52 38 54 60 55 45 56
REMARK SMILES IDX 59 57 46 58 49 59 58 60 72 61 47 62 48 63 57 65 73 66 50 67
REMARK SMILES IDX 39 68 40 69 44 70 41 71 43 72 42 73 61 74 62 75 66 76 63 77
REMARK SMILES IDX 65 78 64 79 51 80 52 81 56 82 53 83 55 84 54 85
REMARK H PARENT 22 7 27 34 71 53 49 64
REMARK Flexibility Score: inf
ROOT
ATOM      1  C   UNL A   1      32.660  30.086  26.270  1.00  0.00     0.023 C 
ENDROOT
BRANCH   1   2
ATOM      2  C   UNL A   1      32.510  29.025  25.176  1.00  0.00     0.023 C 
BRANCH   2   3
ATOM      3  C   UNL A   1      33.740  28.140  24.984  1.00  0.00     0.116 C 
BRANCH   3   4
ATOM      4  N   UNL A   1      33.922  27.743  23.598  1.00  0.00    -0.352 N 
ATOM      5  C   UNL A   1      33.797  26.605  22.871  1.00  0.00     0.251 C 
ATOM      6  O   UNL A   1      34.057  26.717  21.669  1.00  0.00    -0.270 OA
ATOM      7  H   UNL A   1      34.215  28.498  23.040  1.00  0.00     0.163 HD
BRANCH   5   8
ATOM      8  C   UNL A   1      33.384  25.276  23.413  1.00  0.00     0.067 C 
ATOM      9  C   UNL A   1      32.009  21.550  24.818  1.00  0.00     0.026 A 
ATOM     10  C   UNL A   1      31.015  21.525  25.806  1.00  0.00     0.033 A 
ATOM     11  C   UNL A   1      32.404  22.803  24.308  1.00  0.00     0.135 A 
ATOM     12  C   UNL A   1      30.445  22.716  26.263  1.00  0.00     0.042 A 
ATOM     13  C   UNL A   1      31.840  23.999  24.769  1.00  0.00     0.019 A 
ATOM     14  O   UNL A   1      33.321  22.807  23.288  1.00  0.00    -0.475 OA
ATOM     15  Cl  UNL A   1      29.223  22.660  27.475  1.00  0.00    -0.084 Cl
ATOM     16  C   UNL A   1      30.852  23.950  25.753  1.00  0.00     0.032 A 
ATOM     17  C   UNL A   1      32.280  25.264  24.186  1.00  0.00     0.025 C 
ATOM     18  C   UNL A   1      34.134  24.001  23.169  1.00  0.00     0.314 C 
BRANCH   9  19
ATOM     19  C   UNL A   1      32.634  20.309  24.335  1.00  0.00    -0.012 A 
ATOM     20  C   UNL A   1      34.186  16.456  23.130  1.00  0.00     0.047 C 
ATOM     21  C   UNL A   1      33.689  17.810  23.534  1.00  0.00    -0.015 A 
ATOM     22  C   UNL A   1      34.265  18.514  24.596  1.00  0.00     0.007 A 
ATOM     23  C   UNL A   1      32.606  18.379  22.865  1.00  0.00     0.126 A 
ATOM     24  C   UNL A   1      33.744  19.753  24.989  1.00  0.00     0.009 A 
ATOM     25  C   UNL A   1      32.085  19.611  23.248  1.00  0.00     0.048 A 
ATOM     26  F   UNL A   1      32.031  17.723  21.846  1.00  0.00    -0.207 F 
ENDBRANCH   9  19
BRANCH  18  27
ATOM     27  C   UNL A   1      35.390  23.863  24.050  1.00  0.00     0.429 C 
ATOM     28  F   UNL A   1      36.511  23.924  23.289  1.00  0.00    -0.167 F 
ATOM     29  F   UNL A   1      35.491  24.857  24.964  1.00  0.00    -0.167 F 
ATOM     30  F   UNL A   1      35.427  22.696  24.732  1.00  0.00    -0.167 F 
ENDBRANCH  18  27
ENDBRANCH   5   8
ENDBRANCH   3   4
ENDBRANCH   2   3
ENDBRANCH   1   2
BRANCH   1  31
ATOM     31  C   UNL A   1      33.859  29.905  27.198  1.00  0.00     0.116 C 
BRANCH  31  32
ATOM     32  N   UNL A   1      34.002  30.935  28.218  1.00  0.00    -0.352 N 
ATOM     33  C   UNL A   1      35.064  31.125  29.077  1.00  0.00     0.251 C 
ATOM     34  H   UNL A   1      33.255  31.570  28.304  1.00  0.00     0.163 HD
ATOM     35  O   UNL A   1      35.028  31.990  29.946  1.00  0.00    -0.269 OA
BRANCH  33  36
ATOM     36  C   UNL A   1      36.225  30.217  28.973  1.00  0.00     0.039 A 
ATOM     37  C   UNL A   1      36.676  29.531  30.099  1.00  0.00     0.014 A 
ATOM     38  C   UNL A   1      36.934  30.155  27.771  1.00  0.00     0.014 A 
ATOM     39  C   UNL A   1      37.938  28.955  30.082  1.00  0.00     0.010 A 
ATOM     40  C   UNL A   1      38.167  29.498  27.733  1.00  0.00     0.010 A 
ATOM     41  C   UNL A   1      38.713  28.958  28.908  1.00  0.00    -0.014 A 
BRANCH  41  42
ATOM     42  C   UNL A   1      40.105  28.442  28.968  1.00  0.00     0.031 A 
ATOM     43  C   UNL A   1      40.418  27.026  28.559  1.00  0.00     0.074 A 
ATOM     44  C   UNL A   1      41.105  29.291  29.271  1.00  0.00     0.049 A 
ATOM     45  N   UNL A   1      41.587  26.452  28.418  1.00  0.00    -0.248 NA
ATOM     46  C   UNL A   1      39.280  26.139  28.268  1.00  0.00     0.031 C 
ATOM     47  C   UNL A   1      40.929  30.692  29.655  1.00  0.00     0.029 A 
ATOM     48  N   UNL A   1      42.466  29.119  29.242  1.00  0.00    -0.354 N 
ATOM     49  C   UNL A   1      41.325  25.142  28.037  1.00  0.00     0.074 A 
ATOM     50  C   UNL A   1      39.888  24.992  27.995  1.00  0.00     0.031 C 
ATOM     51  C   UNL A   1      42.133  31.277  29.734  1.00  0.00     0.029 A 
ATOM     52  C   UNL A   1      43.165  30.280  29.463  1.00  0.00     0.049 A 
ATOM     53  H   UNL A   1      42.898  28.249  29.079  1.00  0.00     0.167 HD
ATOM     54  C   UNL A   1      42.201  24.153  27.736  1.00  0.00     0.031 A 
ATOM     55  C   UNL A   1      44.488  30.527  29.432  1.00  0.00     0.031 A 
ATOM     56  C   UNL A   1      43.632  24.297  27.772  1.00  0.00     0.049 A 
ATOM     57  C   UNL A   1      45.440  29.411  29.112  1.00  0.00     0.074 A 
ATOM     58  C   UNL A   1      44.600  23.342  27.514  1.00  0.00     0.029 A 
ATOM     59  N   UNL A   1      44.300  25.473  28.072  1.00  0.00    -0.354 N 
ATOM     60  N   UNL A   1      45.173  28.172  28.783  1.00  0.00    -0.248 NA
ATOM     61  C   UNL A   1      46.874  29.731  29.158  1.00  0.00     0.031 C 
ATOM     62  C   UNL A   1      45.855  23.931  27.691  1.00  0.00     0.029 A 
ATOM     63  C   UNL A   1      45.668  25.267  28.007  1.00  0.00     0.049 A 
ATOM     64  H   UNL A   1      43.867  26.328  28.298  1.00  0.00     0.167 HD
ATOM     65  C   UNL A   1      46.403  27.564  28.571  1.00  0.00     0.074 A 
ATOM     66  C   UNL A   1      47.415  28.577  28.789  1.00  0.00     0.031 C 
ATOM     67  C   UNL A   1      46.665  26.281  28.227  1.00  0.00     0.031 A 
BRANCH  54  68
ATOM     68  C   UNL A   1      41.638  22.813  27.353  1.00  0.00    -0.014 A 
ATOM     69  C   UNL A   1      40.792  22.703  26.238  1.00  0.00     0.009 A 
ATOM     70  C   UNL A   1      41.890  21.672  28.130  1.00  0.00     0.009 A 
ATOM     71  C   UNL A   1      40.203  21.479  25.912  1.00  0.00     0.001 A 
ATOM     72  C   UNL A   1      41.321  20.443  27.787  1.00  0.00     0.001 A 
ATOM     73  C   UNL A   1      40.472  20.350  26.683  1.00  0.00     0.000 A 
ENDBRANCH  54  68
BRANCH  55  74
ATOM     74  C   UNL A   1      44.974  31.910  29.668  1.00  0.00    -0.014 A 
ATOM     75  C   UNL A   1      45.155  32.797  28.595  1.00  0.00     0.009 A 
ATOM     76  C   UNL A   1      45.320  32.326  30.961  1.00  0.00     0.009 A 
ATOM     77  C   UNL A   1      45.697  34.066  28.810  1.00  0.00     0.001 A 
ATOM     78  C   UNL A   1      45.837  33.606  31.177  1.00  0.00     0.001 A 
ATOM     79  C   UNL A   1      46.034  34.470  30.100  1.00  0.00     0.000 A 
ENDBRANCH  55  74
BRANCH  67  80
ATOM     80  C   UNL A   1      48.103  25.889  28.043  1.00  0.00    -0.014 A 
ATOM     81  C   UNL A   1      48.866  25.505  29.157  1.00  0.00     0.009 A 
ATOM     82  C   UNL A   1      48.723  25.979  26.788  1.00  0.00     0.009 A 
ATOM     83  C   UNL A   1      50.226  25.222  29.019  1.00  0.00     0.001 A 
ATOM     84  C   UNL A   1      50.079  25.672  26.650  1.00  0.00     0.001 A 
ATOM     85  C   UNL A   1      50.829  25.301  27.766  1.00  0.00     0.000 A 
ENDBRANCH  67  80
ENDBRANCH  41  42
ENDBRANCH  33  36
ENDBRANCH  31  32
ENDBRANCH   1  31
TORSDOF 13
ENDMDL
MODEL 3
REMARK VINA RESULT:     -12.5      3.251      8.533
REMARK SMILES Cc1ccc(-c2cc(Cl)cc3c2O[C@H](C(F)(F)F)C(C(=O)NCCCCNC(=O)c2ccc(-c4c5nc(c(-c6ccccc6)c6ccc([nH]6)c(-c6ccccc6)c6nc(c(-c7ccccc7)c7ccc4[nH]7)C=C6)C=C5)cc2)=C3)cc1F
REMARK SMILES IDX 25 1 24 2 23 3 22 4 20 5 21 6 19 8 6 9 7 10 12 11 8 12 11 13
REMARK SMILES IDX 13 14 9 15 10 16 78 17 14 18 5 19 1 20 2 21 3 22 80 23 4 24
REMARK SMILES IDX 79 25 81 26 15 27 16 28 17 29 18 30 26 31 27 32 28 33 29 35
REMARK SMILES IDX 30 36 31 37 77 38 32 39 76 40 33 41 34 42 35 43 70 44 36 45
REMARK SMILES IDX 75 46 69 47 71 48 37 49 74 50 68 51 67 52 38 54 60 55 45 56
REMARK SMILES IDX 59 57 46 58 49 59 58 60 72 61 47 62 48 63 57 65 73 66 50 67
REMARK SMILES IDX 39 68 40 69 44 70 41 71 43 72 42 73 61 74 62 75 66 76 63 77
REMARK SMILES IDX 65 78 64 79 51 80 52 81 56 82 53 83 55 84 54 85
REMARK H PARENT 22 7 27 34 71 53 49 64
REMARK Flexibility Score: inf
ROOT
ATOM      1  C   UNL A   1      36.672  22.314  24.702  1.00  0.00     0.023 C 
ENDROOT
BRANCH   1   2
ATOM      2  C   UNL A   1      36.299  22.913  23.343  1.00  0.00     0.023 C 
BRANCH   2   3
ATOM      3  C   UNL A   1      34.797  23.084  23.121  1.00  0.00     0.116 C 
BRANCH   3   4
ATOM      4  N   UNL A   1      34.025  22.760  24.309  1.00  0.00    -0.352 N 
ATOM      5  C   UNL A   1      33.221  23.422  25.177  1.00  0.00     0.251 C 
ATOM      6  O   UNL A   1      32.742  22.732  26.083  1.00  0.00    -0.270 OA
ATOM      7  H   UNL A   1      34.108  21.808  24.547  1.00  0.00     0.163 HD
BRANCH   5   8
ATOM      8  C   UNL A   1      32.895  24.878  25.112  1.00  0.00     0.067 C 
ATOM      9  C   UNL A   1      32.189  29.021  24.815  1.00  0.00     0.026 A 
ATOM     10  C   UNL A   1      32.880  29.887  25.673  1.00  0.00     0.033 A 
ATOM     11  C   UNL A   1      32.492  27.646  24.878  1.00  0.00     0.135 A 
ATOM     12  C   UNL A   1      33.835  29.387  26.562  1.00  0.00     0.042 A 
ATOM     13  C   UNL A   1      33.443  27.140  25.773  1.00  0.00     0.019 A 
ATOM     14  O   UNL A   1      31.865  26.821  23.980  1.00  0.00    -0.475 OA
ATOM     15  Cl  UNL A   1      34.673  30.470  27.604  1.00  0.00    -0.084 Cl
ATOM     16  C   UNL A   1      34.119  28.020  26.618  1.00  0.00     0.032 A 
ATOM     17  C   UNL A   1      33.724  25.706  25.776  1.00  0.00     0.025 C 
ATOM     18  C   UNL A   1      31.707  25.440  24.389  1.00  0.00     0.314 C 
BRANCH   9  19
ATOM     19  C   UNL A   1      31.168  29.525  23.884  1.00  0.00    -0.012 A 
ATOM     20  C   UNL A   1      27.924  30.695  21.274  1.00  0.00     0.047 C 
ATOM     21  C   UNL A   1      29.076  30.316  22.153  1.00  0.00    -0.015 A 
ATOM     22  C   UNL A   1      30.145  29.555  21.670  1.00  0.00     0.007 A 
ATOM     23  C   UNL A   1      29.080  30.697  23.494  1.00  0.00     0.126 A 
ATOM     24  C   UNL A   1      31.181  29.166  22.527  1.00  0.00     0.009 A 
ATOM     25  C   UNL A   1      30.109  30.318  24.351  1.00  0.00     0.048 A 
ATOM     26  F   UNL A   1      28.065  31.423  23.985  1.00  0.00    -0.207 F 
ENDBRANCH   9  19
BRANCH  18  27
ATOM     27  C   UNL A   1      30.392  25.278  25.173  1.00  0.00     0.429 C 
ATOM     28  F   UNL A   1      29.370  25.882  24.516  1.00  0.00    -0.167 F 
ATOM     29  F   UNL A   1      30.037  23.979  25.325  1.00  0.00    -0.167 F 
ATOM     30  F   UNL A   1      30.450  25.816  26.412  1.00  0.00    -0.167 F 
ENDBRANCH  18  27
ENDBRANCH   5   8
ENDBRANCH   3   4
ENDBRANCH   2   3
ENDBRANCH   1   2
BRANCH   1  31
ATOM     31  C   UNL A   1      37.665  23.129  25.527  1.00  0.00     0.116 C 
BRANCH  31  32
ATOM     32  N   UNL A   1      38.959  22.491  25.728  1.00  0.00    -0.352 N 
ATOM     33  C   UNL A   1      40.076  23.029  26.333  1.00  0.00     0.251 C 
ATOM     34  H   UNL A   1      39.047  21.569  25.395  1.00  0.00     0.163 HD
ATOM     35  O   UNL A   1      41.134  22.410  26.372  1.00  0.00    -0.269 OA
BRANCH  33  36
ATOM     36  C   UNL A   1      39.991  24.400  26.875  1.00  0.00     0.039 A 
ATOM     37  C   UNL A   1      40.567  25.462  26.178  1.00  0.00     0.014 A 
ATOM     38  C   UNL A   1      39.443  24.597  28.145  1.00  0.00     0.014 A 
ATOM     39  C   UNL A   1      40.779  26.667  26.832  1.00  0.00     0.010 A 
ATOM     40  C   UNL A   1      39.580  25.841  28.769  1.00  0.00     0.010 A 
ATOM     41  C   UNL A   1      40.316  26.862  28.146  1.00  0.00    -0.014 A 
BRANCH  41  42
ATOM     42  C   UNL A   1      40.672  28.120  28.851  1.00  0.00     0.031 A 
ATOM     43  C   UNL A   1      39.657  29.220  29.022  1.00  0.00     0.074 A 
ATOM     44  C   UNL A   1      41.875  28.218  29.449  1.00  0.00     0.049 A 
ATOM     45  N   UNL A   1      39.750  30.323  29.724  1.00  0.00    -0.248 NA
ATOM     46  C   UNL A   1      38.371  29.068  28.321  1.00  0.00     0.031 C 
ATOM     47  C   UNL A   1      42.931  27.207  29.379  1.00  0.00     0.029 A 
ATOM     48  N   UNL A   1      42.387  29.181  30.281  1.00  0.00    -0.354 N 
ATOM     49  C   UNL A   1      38.549  30.995  29.539  1.00  0.00     0.074 A 
ATOM     50  C   UNL A   1      37.751  30.197  28.637  1.00  0.00     0.031 C 
ATOM     51  C   UNL A   1      43.924  27.556  30.209  1.00  0.00     0.029 A 
ATOM     52  C   UNL A   1      43.602  28.840  30.824  1.00  0.00     0.049 A 
ATOM     53  H   UNL A   1      41.929  30.032  30.470  1.00  0.00     0.167 HD
ATOM     54  C   UNL A   1      38.140  32.169  30.080  1.00  0.00     0.031 A 
ATOM     55  C   UNL A   1      44.366  29.476  31.731  1.00  0.00     0.031 A 
ATOM     56  C   UNL A   1      38.929  32.966  30.981  1.00  0.00     0.049 A 
ATOM     57  C   UNL A   1      43.899  30.782  32.304  1.00  0.00     0.074 A 
ATOM     58  C   UNL A   1      38.611  34.185  31.556  1.00  0.00     0.029 A 
ATOM     59  N   UNL A   1      40.186  32.619  31.449  1.00  0.00    -0.354 N 
ATOM     60  N   UNL A   1      42.773  31.417  32.094  1.00  0.00    -0.248 NA
ATOM     61  C   UNL A   1      44.809  31.457  33.241  1.00  0.00     0.031 C 
ATOM     62  C   UNL A   1      39.690  34.591  32.346  1.00  0.00     0.029 A 
ATOM     63  C   UNL A   1      40.657  33.600  32.304  1.00  0.00     0.049 A 
ATOM     64  H   UNL A   1      40.672  31.796  31.209  1.00  0.00     0.167 HD
ATOM     65  C   UNL A   1      42.831  32.560  32.879  1.00  0.00     0.074 A 
ATOM     66  C   UNL A   1      44.095  32.521  33.585  1.00  0.00     0.031 C 
ATOM     67  C   UNL A   1      41.916  33.552  33.000  1.00  0.00     0.031 A 
BRANCH  54  68
ATOM     68  C   UNL A   1      36.776  32.675  29.702  1.00  0.00    -0.014 A 
ATOM     69  C   UNL A   1      36.615  33.451  28.544  1.00  0.00     0.009 A 
ATOM     70  C   UNL A   1      35.663  32.441  30.524  1.00  0.00     0.009 A 
ATOM     71  C   UNL A   1      35.368  33.990  28.218  1.00  0.00     0.001 A 
ATOM     72  C   UNL A   1      34.412  32.960  30.183  1.00  0.00     0.001 A 
ATOM     73  C   UNL A   1      34.267  33.739  29.035  1.00  0.00     0.000 A 
ENDBRANCH  54  68
BRANCH  55  74
ATOM     74  C   UNL A   1      45.633  28.847  32.181  1.00  0.00    -0.014 A 
ATOM     75  C   UNL A   1      46.814  29.007  31.438  1.00  0.00     0.009 A 
ATOM     76  C   UNL A   1      45.652  28.030  33.321  1.00  0.00     0.009 A 
ATOM     77  C   UNL A   1      47.982  28.341  31.814  1.00  0.00     0.001 A 
ATOM     78  C   UNL A   1      46.829  27.386  33.709  1.00  0.00     0.001 A 
ATOM     79  C   UNL A   1      47.989  27.534  32.950  1.00  0.00     0.000 A 
ENDBRANCH  55  74
BRANCH  67  80
ATOM     80  C   UNL A   1      42.229  34.676  33.945  1.00  0.00    -0.014 A 
ATOM     81  C   UNL A   1      41.850  34.575  35.293  1.00  0.00     0.009 A 
ATOM     82  C   UNL A   1      42.822  35.862  33.488  1.00  0.00     0.009 A 
ATOM     83  C   UNL A   1      42.054  35.645  36.166  1.00  0.00     0.001 A 
ATOM     84  C   UNL A   1      43.046  36.922  34.370  1.00  0.00     0.001 A 
ATOM     85  C   UNL A   1      42.656  36.814  35.705  1.00  0.00     0.000 A 
ENDBRANCH  67  80
ENDBRANCH  41  42
ENDBRANCH  33  36
ENDBRANCH  31  32
ENDBRANCH   1  31
TORSDOF 13
ENDMDL
