MODEL 1
REMARK VINA RESULT:     -11.6      0.000      0.000
REMARK SMILES CC1=C2C(=O)N(C[C@H]3CCCO3)C(=O)N=C2S[C@@H]1C(=O)NCCCCNC(=O)c1ccc(-c2c3nc(c(-c4ccccc4)c4ccc([nH]4)c(-c4ccccc4)c4nc(c(-c5ccccc5)c5ccc2[nH]5)C=C4)C=C3)cc1
REMARK SMILES IDX 23 1 22 2 21 3 19 4 20 5 18 7 1 8 2 9 3 10 4 11 16 12 17 13
REMARK SMILES IDX 5 14 6 15 15 16 13 17 14 18 7 19 8 20 9 21 12 22 10 23 11 24
REMARK SMILES IDX 24 25 25 26 26 27 27 28 28 30 29 31 30 32 76 33 31 34 75 35
REMARK SMILES IDX 32 36 33 37 34 38 69 39 35 40 74 41 68 42 70 43 36 44 73 45
REMARK SMILES IDX 67 46 66 47 37 49 59 50 44 51 58 52 45 53 48 54 57 55 71 56
REMARK SMILES IDX 46 57 47 58 56 60 72 61 49 62 38 63 39 64 43 65 40 66 42 67
REMARK SMILES IDX 41 68 60 69 61 70 65 71 62 72 64 73 63 74 50 75 51 76 55 77
REMARK SMILES IDX 52 78 54 79 53 80
REMARK H PARENT 21 6 26 29 70 48 48 59
REMARK Flexibility Score: inf
ROOT
ATOM      1  C   UNL A   1      31.572  29.363  25.949  1.00  0.00     0.023 C 
ENDROOT
BRANCH   1   2
ATOM      2  C   UNL A   1      32.267  29.284  24.596  1.00  0.00     0.116 C 
BRANCH   2   3
ATOM      3  N   UNL A   1      31.322  29.331  23.496  1.00  0.00    -0.355 N 
ATOM      4  C   UNL A   1      30.888  28.360  22.641  1.00  0.00     0.237 C 
ATOM      5  O   UNL A   1      30.057  28.696  21.790  1.00  0.00    -0.273 OA
ATOM      6  H   UNL A   1      30.925  30.218  23.340  1.00  0.00     0.163 HD
BRANCH   4   7
ATOM      7  C   UNL A   1      31.338  26.895  22.737  1.00  0.00     0.169 C 
ATOM      8  C   UNL A   1      29.577  26.186  24.478  1.00  0.00     0.042 C 
ATOM      9  C   UNL A   1      31.009  26.229  24.046  1.00  0.00    -0.035 C 
ATOM     10  C   UNL A   1      32.055  25.705  24.701  1.00  0.00     0.073 C 
ATOM     11  C   UNL A   1      32.127  25.070  26.015  1.00  0.00     0.264 C 
ATOM     12  C   UNL A   1      33.312  25.808  23.983  1.00  0.00     0.116 C 
ATOM     13  S   UNL A   1      33.145  26.735  22.522  1.00  0.00    -0.087 SA
ATOM     14  O   UNL A   1      31.355  25.378  26.912  1.00  0.00    -0.268 OA
ATOM     15  N   UNL A   1      33.181  24.195  26.104  1.00  0.00    -0.256 N 
ATOM     16  N   UNL A   1      34.418  25.288  24.361  1.00  0.00    -0.186 NA
ATOM     17  C   UNL A   1      34.402  24.468  25.466  1.00  0.00     0.351 C 
ATOM     18  O   UNL A   1      35.450  23.973  25.874  1.00  0.00    -0.246 OA
BRANCH  15  19
ATOM     19  C   UNL A   1      33.103  22.976  26.910  1.00  0.00     0.163 C 
BRANCH  19  20
ATOM     20  C   UNL A   1      32.719  21.626  26.274  1.00  0.00     0.138 C 
ATOM     21  C   UNL A   1      32.076  21.663  24.890  1.00  0.00     0.036 C 
ATOM     22  O   UNL A   1      33.960  20.895  26.084  1.00  0.00    -0.376 OA
ATOM     23  C   UNL A   1      33.239  21.606  23.942  1.00  0.00     0.031 C 
ATOM     24  C   UNL A   1      34.206  20.717  24.682  1.00  0.00     0.160 C 
ENDBRANCH  19  20
ENDBRANCH  15  19
ENDBRANCH   4   7
ENDBRANCH   2   3
ENDBRANCH   1   2
BRANCH   1  25
ATOM     25  C   UNL A   1      32.299  28.621  27.069  1.00  0.00     0.023 C 
BRANCH  25  26
ATOM     26  C   UNL A   1      33.708  29.121  27.368  1.00  0.00     0.116 C 
BRANCH  26  27
ATOM     27  N   UNL A   1      33.739  30.460  27.939  1.00  0.00    -0.352 N 
ATOM     28  C   UNL A   1      34.771  31.082  28.599  1.00  0.00     0.251 C 
ATOM     29  H   UNL A   1      32.913  30.987  27.840  1.00  0.00     0.163 HD
ATOM     30  O   UNL A   1      34.613  32.182  29.114  1.00  0.00    -0.269 OA
BRANCH  28  31
ATOM     31  C   UNL A   1      36.068  30.386  28.717  1.00  0.00     0.039 A 
ATOM     32  C   UNL A   1      36.952  30.426  27.637  1.00  0.00     0.014 A 
ATOM     33  C   UNL A   1      36.425  29.746  29.906  1.00  0.00     0.014 A 
ATOM     34  C   UNL A   1      38.231  29.886  27.776  1.00  0.00     0.010 A 
ATOM     35  C   UNL A   1      37.721  29.267  30.065  1.00  0.00     0.010 A 
ATOM     36  C   UNL A   1      38.636  29.338  29.004  1.00  0.00    -0.014 A 
BRANCH  36  37
ATOM     37  C   UNL A   1      40.020  28.845  29.206  1.00  0.00     0.031 A 
ATOM     38  C   UNL A   1      41.067  29.753  29.785  1.00  0.00     0.074 A 
ATOM     39  C   UNL A   1      40.351  27.606  28.796  1.00  0.00     0.049 A 
ATOM     40  N   UNL A   1      42.343  29.528  29.968  1.00  0.00    -0.248 NA
ATOM     41  C   UNL A   1      40.628  31.100  30.184  1.00  0.00     0.031 C 
ATOM     42  C   UNL A   1      39.437  26.643  28.176  1.00  0.00     0.029 A 
ATOM     43  N   UNL A   1      41.553  26.947  28.833  1.00  0.00    -0.354 N 
ATOM     44  C   UNL A   1      42.863  30.710  30.479  1.00  0.00     0.074 A 
ATOM     45  C   UNL A   1      41.775  31.661  30.540  1.00  0.00     0.031 C 
ATOM     46  C   UNL A   1      40.107  25.509  27.914  1.00  0.00     0.029 A 
ATOM     47  C   UNL A   1      41.500  25.676  28.314  1.00  0.00     0.049 A 
ATOM     48  H   UNL A   1      42.376  27.347  29.196  1.00  0.00     0.167 HD
ATOM     49  C   UNL A   1      44.130  30.975  30.877  1.00  0.00     0.031 A 
ATOM     50  C   UNL A   1      42.467  24.750  28.174  1.00  0.00     0.031 A 
ATOM     51  C   UNL A   1      45.207  30.024  30.840  1.00  0.00     0.049 A 
ATOM     52  C   UNL A   1      43.861  25.062  28.638  1.00  0.00     0.074 A 
ATOM     53  C   UNL A   1      46.508  30.177  31.285  1.00  0.00     0.029 A 
ATOM     54  N   UNL A   1      45.106  28.739  30.329  1.00  0.00    -0.354 N 
ATOM     55  N   UNL A   1      44.321  26.163  29.180  1.00  0.00    -0.248 NA
ATOM     56  C   UNL A   1      44.863  24.000  28.482  1.00  0.00     0.031 C 
ATOM     57  C   UNL A   1      47.205  28.997  31.009  1.00  0.00     0.029 A 
ATOM     58  C   UNL A   1      46.326  28.094  30.432  1.00  0.00     0.049 A 
ATOM     59  H   UNL A   1      44.287  28.344  29.950  1.00  0.00     0.167 HD
ATOM     60  C   UNL A   1      45.661  25.919  29.449  1.00  0.00     0.074 A 
ATOM     61  C   UNL A   1      45.935  24.561  29.023  1.00  0.00     0.031 C 
ATOM     62  C   UNL A   1      46.582  26.745  30.002  1.00  0.00     0.031 A 
BRANCH  49  63
ATOM     63  C   UNL A   1      44.416  32.359  31.383  1.00  0.00    -0.014 A 
ATOM     64  C   UNL A   1      44.283  32.677  32.744  1.00  0.00     0.009 A 
ATOM     65  C   UNL A   1      44.850  33.352  30.492  1.00  0.00     0.009 A 
ATOM     66  C   UNL A   1      44.546  33.971  33.196  1.00  0.00     0.001 A 
ATOM     67  C   UNL A   1      45.137  34.639  30.951  1.00  0.00     0.001 A 
ATOM     68  C   UNL A   1      44.976  34.950  32.300  1.00  0.00     0.000 A 
ENDBRANCH  49  63
BRANCH  50  69
ATOM     69  C   UNL A   1      42.142  23.425  27.589  1.00  0.00    -0.014 A 
ATOM     70  C   UNL A   1      42.354  23.184  26.222  1.00  0.00     0.009 A 
ATOM     71  C   UNL A   1      41.625  22.396  28.390  1.00  0.00     0.009 A 
ATOM     72  C   UNL A   1      42.034  21.943  25.666  1.00  0.00     0.001 A 
ATOM     73  C   UNL A   1      41.328  21.149  27.833  1.00  0.00     0.001 A 
ATOM     74  C   UNL A   1      41.525  20.927  26.471  1.00  0.00     0.000 A 
ENDBRANCH  50  69
BRANCH  62  75
ATOM     75  C   UNL A   1      47.963  26.194  30.203  1.00  0.00    -0.014 A 
ATOM     76  C   UNL A   1      48.904  26.196  29.162  1.00  0.00     0.009 A 
ATOM     77  C   UNL A   1      48.339  25.706  31.464  1.00  0.00     0.009 A 
ATOM     78  C   UNL A   1      50.189  25.694  29.375  1.00  0.00     0.001 A 
ATOM     79  C   UNL A   1      49.631  25.226  31.680  1.00  0.00     0.001 A 
ATOM     80  C   UNL A   1      50.553  25.213  30.633  1.00  0.00     0.000 A 
ENDBRANCH  62  75
ENDBRANCH  36  37
ENDBRANCH  28  31
ENDBRANCH  26  27
ENDBRANCH  25  26
ENDBRANCH   1  25
TORSDOF 13
ENDMDL
MODEL 2
REMARK VINA RESULT:     -11.6      1.861      7.574
REMARK SMILES CC1=C2C(=O)N(C[C@H]3CCCO3)C(=O)N=C2S[C@@H]1C(=O)NCCCCNC(=O)c1ccc(-c2c3nc(c(-c4ccccc4)c4ccc([nH]4)c(-c4ccccc4)c4nc(c(-c5ccccc5)c5ccc2[nH]5)C=C4)C=C3)cc1
REMARK SMILES IDX 23 1 22 2 21 3 19 4 20 5 18 7 1 8 2 9 3 10 4 11 16 12 17 13
REMARK SMILES IDX 5 14 6 15 15 16 13 17 14 18 7 19 8 20 9 21 12 22 10 23 11 24
REMARK SMILES IDX 24 25 25 26 26 27 27 28 28 30 29 31 30 32 76 33 31 34 75 35
REMARK SMILES IDX 32 36 33 37 34 38 69 39 35 40 74 41 68 42 70 43 36 44 73 45
REMARK SMILES IDX 67 46 66 47 37 49 59 50 44 51 58 52 45 53 48 54 57 55 71 56
REMARK SMILES IDX 46 57 47 58 56 60 72 61 49 62 38 63 39 64 43 65 40 66 42 67
REMARK SMILES IDX 41 68 60 69 61 70 65 71 62 72 64 73 63 74 50 75 51 76 55 77
REMARK SMILES IDX 52 78 54 79 53 80
REMARK H PARENT 21 6 26 29 70 48 48 59
REMARK Flexibility Score: inf
ROOT
ATOM      1  C   UNL A   1      36.196  21.476  24.801  1.00  0.00     0.023 C 
ENDROOT
BRANCH   1   2
ATOM      2  C   UNL A   1      35.259  21.308  25.991  1.00  0.00     0.116 C 
BRANCH   2   3
ATOM      3  N   UNL A   1      34.229  20.319  25.735  1.00  0.00    -0.355 N 
ATOM      4  C   UNL A   1      32.905  20.457  25.433  1.00  0.00     0.237 C 
ATOM      5  O   UNL A   1      32.261  19.416  25.258  1.00  0.00    -0.273 OA
ATOM      6  H   UNL A   1      34.538  19.387  25.788  1.00  0.00     0.163 HD
BRANCH   4   7
ATOM      7  C   UNL A   1      32.223  21.821  25.250  1.00  0.00     0.169 C 
ATOM      8  C   UNL A   1      32.624  21.983  22.711  1.00  0.00     0.042 C 
ATOM      9  C   UNL A   1      32.718  22.608  24.068  1.00  0.00    -0.035 C 
ATOM     10  C   UNL A   1      33.185  23.834  24.349  1.00  0.00     0.073 C 
ATOM     11  C   UNL A   1      33.812  24.829  23.483  1.00  0.00     0.264 C 
ATOM     12  C   UNL A   1      33.051  24.208  25.745  1.00  0.00     0.116 C 
ATOM     13  S   UNL A   1      32.462  22.890  26.712  1.00  0.00    -0.087 SA
ATOM     14  O   UNL A   1      34.460  24.498  22.500  1.00  0.00    -0.268 OA
ATOM     15  N   UNL A   1      33.646  26.105  23.964  1.00  0.00    -0.256 N 
ATOM     16  N   UNL A   1      33.329  25.361  26.226  1.00  0.00    -0.186 NA
ATOM     17  C   UNL A   1      33.665  26.364  25.344  1.00  0.00     0.351 C 
ATOM     18  O   UNL A   1      33.964  27.477  25.772  1.00  0.00    -0.246 OA
BRANCH  15  19
ATOM     19  C   UNL A   1      33.500  27.252  23.068  1.00  0.00     0.163 C 
BRANCH  19  20
ATOM     20  C   UNL A   1      32.115  27.688  22.554  1.00  0.00     0.138 C 
ATOM     21  C   UNL A   1      30.923  26.810  22.925  1.00  0.00     0.036 C 
ATOM     22  O   UNL A   1      31.833  28.972  23.173  1.00  0.00    -0.376 OA
ATOM     23  C   UNL A   1      30.445  27.371  24.233  1.00  0.00     0.031 C 
ATOM     24  C   UNL A   1      30.714  28.844  24.061  1.00  0.00     0.160 C 
ENDBRANCH  19  20
ENDBRANCH  15  19
ENDBRANCH   4   7
ENDBRANCH   2   3
ENDBRANCH   1   2
BRANCH   1  25
ATOM     25  C   UNL A   1      37.312  20.435  24.734  1.00  0.00     0.023 C 
BRANCH  25  26
ATOM     26  C   UNL A   1      38.550  20.759  25.562  1.00  0.00     0.116 C 
BRANCH  26  27
ATOM     27  N   UNL A   1      39.519  19.674  25.604  1.00  0.00    -0.352 N 
ATOM     28  C   UNL A   1      40.826  19.714  26.025  1.00  0.00     0.251 C 
ATOM     29  H   UNL A   1      39.196  18.798  25.290  1.00  0.00     0.163 HD
ATOM     30  O   UNL A   1      41.553  18.734  25.908  1.00  0.00    -0.269 OA
BRANCH  28  31
ATOM     31  C   UNL A   1      41.360  20.971  26.585  1.00  0.00     0.039 A 
ATOM     32  C   UNL A   1      41.941  21.899  25.719  1.00  0.00     0.014 A 
ATOM     33  C   UNL A   1      41.237  21.250  27.949  1.00  0.00     0.014 A 
ATOM     34  C   UNL A   1      42.334  23.145  26.210  1.00  0.00     0.010 A 
ATOM     35  C   UNL A   1      41.567  22.515  28.423  1.00  0.00     0.010 A 
ATOM     36  C   UNL A   1      42.113  23.475  27.557  1.00  0.00    -0.014 A 
BRANCH  36  37
ATOM     37  C   UNL A   1      42.433  24.824  28.080  1.00  0.00     0.031 A 
ATOM     38  C   UNL A   1      43.833  25.153  28.513  1.00  0.00     0.074 A 
ATOM     39  C   UNL A   1      41.447  25.729  28.237  1.00  0.00     0.049 A 
ATOM     40  N   UNL A   1      44.291  26.249  29.062  1.00  0.00    -0.248 NA
ATOM     41  C   UNL A   1      44.846  24.101  28.332  1.00  0.00     0.031 C 
ATOM     42  C   UNL A   1      40.038  25.517  27.898  1.00  0.00     0.029 A 
ATOM     43  N   UNL A   1      41.481  27.008  28.730  1.00  0.00    -0.354 N 
ATOM     44  C   UNL A   1      45.635  26.011  29.313  1.00  0.00     0.074 A 
ATOM     45  C   UNL A   1      45.911  24.654  28.894  1.00  0.00     0.031 C 
ATOM     46  C   UNL A   1      39.348  26.636  28.172  1.00  0.00     0.029 A 
ATOM     47  C   UNL A   1      40.256  27.629  28.735  1.00  0.00     0.049 A 
ATOM     48  H   UNL A   1      42.305  27.439  29.052  1.00  0.00     0.167 HD
ATOM     49  C   UNL A   1      46.561  26.851  29.832  1.00  0.00     0.031 A 
ATOM     50  C   UNL A   1      39.904  28.860  29.149  1.00  0.00     0.031 A 
ATOM     51  C   UNL A   1      46.295  28.207  30.226  1.00  0.00     0.049 A 
ATOM     52  C   UNL A   1      40.953  29.779  29.706  1.00  0.00     0.074 A 
ATOM     53  C   UNL A   1      47.182  29.158  30.697  1.00  0.00     0.029 A 
ATOM     54  N   UNL A   1      45.045  28.806  30.192  1.00  0.00    -0.354 N 
ATOM     55  N   UNL A   1      42.234  29.561  29.876  1.00  0.00    -0.248 NA
ATOM     56  C   UNL A   1      40.508  31.119  30.115  1.00  0.00     0.031 C 
ATOM     57  C   UNL A   1      46.463  30.323  30.984  1.00  0.00     0.029 A 
ATOM     58  C   UNL A   1      45.135  30.109  30.651  1.00  0.00     0.049 A 
ATOM     59  H   UNL A   1      44.217  28.370  29.886  1.00  0.00     0.167 HD
ATOM     60  C   UNL A   1      42.752  30.741  30.392  1.00  0.00     0.074 A 
ATOM     61  C   UNL A   1      41.650  31.675  30.494  1.00  0.00     0.031 C 
ATOM     62  C   UNL A   1      44.028  31.025  30.748  1.00  0.00     0.031 A 
BRANCH  49  63
ATOM     63  C   UNL A   1      47.953  26.317  30.006  1.00  0.00    -0.014 A 
ATOM     64  C   UNL A   1      48.886  26.363  28.957  1.00  0.00     0.009 A 
ATOM     65  C   UNL A   1      48.347  25.785  31.243  1.00  0.00     0.009 A 
ATOM     66  C   UNL A   1      50.174  25.854  29.135  1.00  0.00     0.001 A 
ATOM     67  C   UNL A   1      49.643  25.301  31.426  1.00  0.00     0.001 A 
ATOM     68  C   UNL A   1      50.552  25.327  30.369  1.00  0.00     0.000 A 
ENDBRANCH  49  63
BRANCH  50  69
ATOM     69  C   UNL A   1      38.493  29.305  29.029  1.00  0.00    -0.014 A 
ATOM     70  C   UNL A   1      38.010  29.804  27.808  1.00  0.00     0.009 A 
ATOM     71  C   UNL A   1      37.622  29.231  30.126  1.00  0.00     0.009 A 
ATOM     72  C   UNL A   1      36.687  30.239  27.697  1.00  0.00     0.001 A 
ATOM     73  C   UNL A   1      36.294  29.646  30.004  1.00  0.00     0.001 A 
ATOM     74  C   UNL A   1      35.830  30.156  28.792  1.00  0.00     0.000 A 
ENDBRANCH  50  69
BRANCH  62  75
ATOM     75  C   UNL A   1      44.306  32.410  31.253  1.00  0.00    -0.014 A 
ATOM     76  C   UNL A   1      44.633  33.452  30.371  1.00  0.00     0.009 A 
ATOM     77  C   UNL A   1      44.198  32.684  32.625  1.00  0.00     0.009 A 
ATOM     78  C   UNL A   1      44.872  34.738  30.859  1.00  0.00     0.001 A 
ATOM     79  C   UNL A   1      44.414  33.975  33.107  1.00  0.00     0.001 A 
ATOM     80  C   UNL A   1      44.759  34.999  32.226  1.00  0.00     0.000 A 
ENDBRANCH  62  75
ENDBRANCH  36  37
ENDBRANCH  28  31
ENDBRANCH  26  27
ENDBRANCH  25  26
ENDBRANCH   1  25
TORSDOF 13
ENDMDL
MODEL 3
REMARK VINA RESULT:     -11.5      1.849      7.563
REMARK SMILES CC1=C2C(=O)N(C[C@H]3CCCO3)C(=O)N=C2S[C@@H]1C(=O)NCCCCNC(=O)c1ccc(-c2c3nc(c(-c4ccccc4)c4ccc([nH]4)c(-c4ccccc4)c4nc(c(-c5ccccc5)c5ccc2[nH]5)C=C4)C=C3)cc1
REMARK SMILES IDX 23 1 22 2 21 3 19 4 20 5 18 7 1 8 2 9 3 10 4 11 16 12 17 13
REMARK SMILES IDX 5 14 6 15 15 16 13 17 14 18 7 19 8 20 9 21 12 22 10 23 11 24
REMARK SMILES IDX 24 25 25 26 26 27 27 28 28 30 29 31 30 32 76 33 31 34 75 35
REMARK SMILES IDX 32 36 33 37 34 38 69 39 35 40 74 41 68 42 70 43 36 44 73 45
REMARK SMILES IDX 67 46 66 47 37 49 59 50 44 51 58 52 45 53 48 54 57 55 71 56
REMARK SMILES IDX 46 57 47 58 56 60 72 61 49 62 38 63 39 64 43 65 40 66 42 67
REMARK SMILES IDX 41 68 60 69 61 70 65 71 62 72 64 73 63 74 50 75 51 76 55 77
REMARK SMILES IDX 52 78 54 79 53 80
REMARK H PARENT 21 6 26 29 70 48 48 59
REMARK Flexibility Score: inf
ROOT
ATOM      1  C   UNL A   1      36.634  21.287  24.738  1.00  0.00     0.023 C 
ENDROOT
BRANCH   1   2
ATOM      2  C   UNL A   1      35.446  21.183  25.687  1.00  0.00     0.116 C 
BRANCH   2   3
ATOM      3  N   UNL A   1      34.210  20.908  24.980  1.00  0.00    -0.355 N 
ATOM      4  C   UNL A   1      33.370  21.728  24.284  1.00  0.00     0.237 C 
ATOM      5  O   UNL A   1      32.375  21.204  23.771  1.00  0.00    -0.273 OA
ATOM      6  H   UNL A   1      33.927  19.966  25.008  1.00  0.00     0.163 HD
BRANCH   4   7
ATOM      7  C   UNL A   1      33.644  23.224  24.071  1.00  0.00     0.169 C 
ATOM      8  C   UNL A   1      33.012  23.957  26.458  1.00  0.00     0.042 C 
ATOM      9  C   UNL A   1      32.863  24.134  24.979  1.00  0.00    -0.035 C 
ATOM     10  C   UNL A   1      32.108  25.054  24.360  1.00  0.00     0.073 C 
ATOM     11  C   UNL A   1      31.170  26.031  24.905  1.00  0.00     0.264 C 
ATOM     12  C   UNL A   1      32.248  25.054  22.915  1.00  0.00     0.116 C 
ATOM     13  S   UNL A   1      33.245  23.741  22.364  1.00  0.00    -0.087 SA
ATOM     14  O   UNL A   1      30.558  25.815  25.942  1.00  0.00    -0.268 OA
ATOM     15  N   UNL A   1      31.026  27.120  24.080  1.00  0.00    -0.256 N 
ATOM     16  N   UNL A   1      31.711  25.905  22.126  1.00  0.00    -0.186 NA
ATOM     17  C   UNL A   1      31.049  26.976  22.684  1.00  0.00     0.351 C 
ATOM     18  O   UNL A   1      30.498  27.799  21.957  1.00  0.00    -0.246 OA
BRANCH  15  19
ATOM     19  C   UNL A   1      30.787  28.462  24.613  1.00  0.00     0.163 C 
BRANCH  19  20
ATOM     20  C   UNL A   1      31.943  29.315  25.168  1.00  0.00     0.138 C 
ATOM     21  C   UNL A   1      32.055  29.438  26.685  1.00  0.00     0.036 C 
ATOM     22  O   UNL A   1      33.172  28.656  24.760  1.00  0.00    -0.376 OA
ATOM     23  C   UNL A   1      32.921  28.279  27.085  1.00  0.00     0.031 C 
ATOM     24  C   UNL A   1      33.869  28.174  25.918  1.00  0.00     0.160 C 
ENDBRANCH  19  20
ENDBRANCH  15  19
ENDBRANCH   4   7
ENDBRANCH   2   3
ENDBRANCH   1   2
BRANCH   1  25
ATOM     25  C   UNL A   1      37.657  20.163  24.894  1.00  0.00     0.023 C 
BRANCH  25  26
ATOM     26  C   UNL A   1      38.882  20.514  25.732  1.00  0.00     0.116 C 
BRANCH  26  27
ATOM     27  N   UNL A   1      39.901  19.475  25.731  1.00  0.00    -0.352 N 
ATOM     28  C   UNL A   1      41.223  19.577  26.092  1.00  0.00     0.251 C 
ATOM     29  H   UNL A   1      39.605  18.584  25.434  1.00  0.00     0.163 HD
ATOM     30  O   UNL A   1      41.988  18.631  25.943  1.00  0.00    -0.269 OA
BRANCH  28  31
ATOM     31  C   UNL A   1      41.722  20.859  26.626  1.00  0.00     0.039 A 
ATOM     32  C   UNL A   1      42.251  21.796  25.736  1.00  0.00     0.014 A 
ATOM     33  C   UNL A   1      41.618  21.151  27.988  1.00  0.00     0.014 A 
ATOM     34  C   UNL A   1      42.609  23.062  26.203  1.00  0.00     0.010 A 
ATOM     35  C   UNL A   1      41.913  22.433  28.440  1.00  0.00     0.010 A 
ATOM     36  C   UNL A   1      42.405  23.400  27.551  1.00  0.00    -0.014 A 
BRANCH  36  37
ATOM     37  C   UNL A   1      42.687  24.767  28.050  1.00  0.00     0.031 A 
ATOM     38  C   UNL A   1      44.079  25.144  28.471  1.00  0.00     0.074 A 
ATOM     39  C   UNL A   1      41.675  25.644  28.197  1.00  0.00     0.049 A 
ATOM     40  N   UNL A   1      44.506  26.262  29.001  1.00  0.00    -0.248 NA
ATOM     41  C   UNL A   1      45.122  24.119  28.302  1.00  0.00     0.031 C 
ATOM     42  C   UNL A   1      40.271  25.386  27.868  1.00  0.00     0.029 A 
ATOM     43  N   UNL A   1      41.674  26.932  28.670  1.00  0.00    -0.354 N 
ATOM     44  C   UNL A   1      45.857  26.068  29.249  1.00  0.00     0.074 A 
ATOM     45  C   UNL A   1      46.172  24.713  28.851  1.00  0.00     0.031 C 
ATOM     46  C   UNL A   1      39.550  26.488  28.128  1.00  0.00     0.029 A 
ATOM     47  C   UNL A   1      40.431  27.516  28.671  1.00  0.00     0.049 A 
ATOM     48  H   UNL A   1      42.486  27.392  28.981  1.00  0.00     0.167 HD
ATOM     49  C   UNL A   1      46.761  26.944  29.750  1.00  0.00     0.031 A 
ATOM     50  C   UNL A   1      40.044  28.743  29.066  1.00  0.00     0.031 A 
ATOM     51  C   UNL A   1      46.456  28.297  30.123  1.00  0.00     0.049 A 
ATOM     52  C   UNL A   1      41.068  29.702  29.603  1.00  0.00     0.074 A 
ATOM     53  C   UNL A   1      47.317  29.282  30.575  1.00  0.00     0.029 A 
ATOM     54  N   UNL A   1      45.189  28.859  30.085  1.00  0.00    -0.354 N 
ATOM     55  N   UNL A   1      42.355  29.524  29.771  1.00  0.00    -0.248 NA
ATOM     56  C   UNL A   1      40.585  31.034  29.993  1.00  0.00     0.031 C 
ATOM     57  C   UNL A   1      46.564  30.429  30.847  1.00  0.00     0.029 A 
ATOM     58  C   UNL A   1      45.242  30.171  30.523  1.00  0.00     0.049 A 
ATOM     59  H   UNL A   1      44.373  28.393  29.791  1.00  0.00     0.167 HD
ATOM     60  C   UNL A   1      42.841  30.727  30.266  1.00  0.00     0.074 A 
ATOM     61  C   UNL A   1      41.712  31.630  30.357  1.00  0.00     0.031 C 
ATOM     62  C   UNL A   1      44.109  31.055  30.610  1.00  0.00     0.031 A 
BRANCH  49  63
ATOM     63  C   UNL A   1      48.169  26.453  29.926  1.00  0.00    -0.014 A 
ATOM     64  C   UNL A   1      49.123  26.602  28.907  1.00  0.00     0.009 A 
ATOM     65  C   UNL A   1      48.554  25.859  31.137  1.00  0.00     0.009 A 
ATOM     66  C   UNL A   1      50.426  26.134  29.085  1.00  0.00     0.001 A 
ATOM     67  C   UNL A   1      49.865  25.415  31.322  1.00  0.00     0.001 A 
ATOM     68  C   UNL A   1      50.797  25.544  30.293  1.00  0.00     0.000 A 
ENDBRANCH  49  63
BRANCH  50  69
ATOM     69  C   UNL A   1      38.620  29.144  28.946  1.00  0.00    -0.014 A 
ATOM     70  C   UNL A   1      38.131  29.661  27.736  1.00  0.00     0.009 A 
ATOM     71  C   UNL A   1      37.743  29.010  30.033  1.00  0.00     0.009 A 
ATOM     72  C   UNL A   1      36.795  30.055  27.624  1.00  0.00     0.001 A 
ATOM     73  C   UNL A   1      36.403  29.384  29.910  1.00  0.00     0.001 A 
ATOM     74  C   UNL A   1      35.932  29.913  28.709  1.00  0.00     0.000 A 
ENDBRANCH  50  69
BRANCH  62  75
ATOM     75  C   UNL A   1      44.348  32.456  31.092  1.00  0.00    -0.014 A 
ATOM     76  C   UNL A   1      44.593  33.501  30.189  1.00  0.00     0.009 A 
ATOM     77  C   UNL A   1      44.285  32.739  32.465  1.00  0.00     0.009 A 
ATOM     78  C   UNL A   1      44.797  34.801  30.656  1.00  0.00     0.001 A 
ATOM     79  C   UNL A   1      44.465  34.043  32.927  1.00  0.00     0.001 A 
ATOM     80  C   UNL A   1      44.729  35.071  32.023  1.00  0.00     0.000 A 
ENDBRANCH  62  75
ENDBRANCH  36  37
ENDBRANCH  28  31
ENDBRANCH  26  27
ENDBRANCH  25  26
ENDBRANCH   1  25
TORSDOF 13
ENDMDL
