MODEL 1
REMARK VINA RESULT:     -12.5      0.000      0.000
REMARK SMILES O=C(NCCCCNC(=O)c1ccc([C@H]2Nc3ccc(Cl)cc3[C@@H]3C=CC[C@H]23)cc1)c1ccc(-c2c3nc(c(-c4ccccc4)c4ccc([nH]4)c(-c4ccccc4)c4nc(c(-c5ccccc5)c5ccc2[nH]5)C=C4)C=C3)cc1
REMARK SMILES IDX 5 1 4 2 3 3 1 4 2 5 31 7 32 8 78 9 33 10 77 11 34 12 35 13
REMARK SMILES IDX 36 14 71 15 37 16 76 17 70 18 72 19 38 20 75 21 69 22 68 23
REMARK SMILES IDX 39 25 61 26 46 27 60 28 47 29 50 30 59 31 73 32 48 33 49 34
REMARK SMILES IDX 58 36 74 37 51 38 40 39 41 40 45 41 42 42 44 43 43 44 62 45
REMARK SMILES IDX 63 46 67 47 64 48 66 49 65 50 52 51 53 52 57 53 54 54 56 55
REMARK SMILES IDX 55 56 6 57 7 58 8 59 9 60 10 62 11 63 12 64 30 65 13 66
REMARK SMILES IDX 29 67 14 68 15 69 16 70 28 71 17 72 24 74 27 75 18 76 23 77
REMARK SMILES IDX 25 78 26 79 19 80 22 81 20 82 21 83
REMARK H PARENT 3 6 72 24 50 35 8 61 16 73
REMARK Flexibility Score: inf
ROOT
ATOM      1  C   UNL A   1      33.759  28.313  25.433  1.00  0.00     0.023 C 
ENDROOT
BRANCH   1   2
ATOM      2  C   UNL A   1      33.751  28.418  26.955  1.00  0.00     0.116 C 
BRANCH   2   3
ATOM      3  N   UNL A   1      33.598  29.781  27.446  1.00  0.00    -0.352 N 
ATOM      4  O   UNL A   1      34.110  31.692  28.523  1.00  0.00    -0.269 OA
ATOM      5  C   UNL A   1      34.489  30.597  28.105  1.00  0.00     0.251 C 
ATOM      6  H   UNL A   1      32.714  30.182  27.282  1.00  0.00     0.163 HD
BRANCH   5   7
ATOM      7  C   UNL A   1      35.889  30.175  28.343  1.00  0.00     0.039 A 
ATOM      8  C   UNL A   1      36.864  30.303  27.353  1.00  0.00     0.014 A 
ATOM      9  C   UNL A   1      36.244  29.675  29.602  1.00  0.00     0.014 A 
ATOM     10  C   UNL A   1      38.145  29.799  27.568  1.00  0.00     0.010 A 
ATOM     11  C   UNL A   1      37.556  29.247  29.846  1.00  0.00     0.010 A 
ATOM     12  C   UNL A   1      38.511  29.278  28.820  1.00  0.00    -0.014 A 
BRANCH  12  13
ATOM     13  C   UNL A   1      39.915  28.839  29.051  1.00  0.00     0.031 A 
ATOM     14  C   UNL A   1      40.921  29.744  29.708  1.00  0.00     0.074 A 
ATOM     15  C   UNL A   1      40.276  27.595  28.679  1.00  0.00     0.049 A 
ATOM     16  N   UNL A   1      42.176  29.504  29.998  1.00  0.00    -0.248 NA
ATOM     17  C   UNL A   1      40.466  31.091  30.086  1.00  0.00     0.031 C 
ATOM     18  C   UNL A   1      39.394  26.621  28.030  1.00  0.00     0.029 A 
ATOM     19  N   UNL A   1      41.469  26.930  28.803  1.00  0.00    -0.354 N 
ATOM     20  C   UNL A   1      42.664  30.670  30.579  1.00  0.00     0.074 A 
ATOM     21  C   UNL A   1      41.578  31.626  30.572  1.00  0.00     0.031 C 
ATOM     22  C   UNL A   1      40.061  25.471  27.856  1.00  0.00     0.029 A 
ATOM     23  C   UNL A   1      41.435  25.647  28.314  1.00  0.00     0.049 A 
ATOM     24  H   UNL A   1      42.272  27.334  29.205  1.00  0.00     0.167 HD
ATOM     25  C   UNL A   1      43.901  30.917  31.075  1.00  0.00     0.031 A 
ATOM     26  C   UNL A   1      42.401  24.716  28.220  1.00  0.00     0.031 A 
ATOM     27  C   UNL A   1      44.986  29.968  31.068  1.00  0.00     0.049 A 
ATOM     28  C   UNL A   1      43.779  25.040  28.722  1.00  0.00     0.074 A 
ATOM     29  C   UNL A   1      46.266  30.119  31.574  1.00  0.00     0.029 A 
ATOM     30  N   UNL A   1      44.922  28.697  30.518  1.00  0.00    -0.354 N 
ATOM     31  N   UNL A   1      44.209  26.132  29.306  1.00  0.00    -0.248 NA
ATOM     32  C   UNL A   1      44.804  24.002  28.552  1.00  0.00     0.031 C 
ATOM     33  C   UNL A   1      46.996  28.964  31.273  1.00  0.00     0.029 A 
ATOM     34  C   UNL A   1      46.150  28.066  30.642  1.00  0.00     0.049 A 
ATOM     35  H   UNL A   1      44.123  28.301  30.102  1.00  0.00     0.167 HD
ATOM     36  C   UNL A   1      45.548  25.904  29.593  1.00  0.00     0.074 A 
ATOM     37  C   UNL A   1      45.851  24.562  29.139  1.00  0.00     0.031 C 
ATOM     38  C   UNL A   1      46.444  26.733  30.180  1.00  0.00     0.031 A 
BRANCH  25  39
ATOM     39  C   UNL A   1      44.165  32.286  31.644  1.00  0.00    -0.014 A 
ATOM     40  C   UNL A   1      43.971  32.563  33.007  1.00  0.00     0.009 A 
ATOM     41  C   UNL A   1      44.668  33.301  30.814  1.00  0.00     0.009 A 
ATOM     42  C   UNL A   1      44.243  33.836  33.518  1.00  0.00     0.001 A 
ATOM     43  C   UNL A   1      44.967  34.563  31.332  1.00  0.00     0.001 A 
ATOM     44  C   UNL A   1      44.745  34.832  32.681  1.00  0.00     0.000 A 
ENDBRANCH  25  39
BRANCH  26  45
ATOM     45  C   UNL A   1      42.104  23.397  27.605  1.00  0.00    -0.014 A 
ATOM     46  C   UNL A   1      41.495  22.378  28.351  1.00  0.00     0.009 A 
ATOM     47  C   UNL A   1      42.425  23.153  26.259  1.00  0.00     0.009 A 
ATOM     48  C   UNL A   1      41.238  21.133  27.770  1.00  0.00     0.001 A 
ATOM     49  C   UNL A   1      42.135  21.921  25.671  1.00  0.00     0.001 A 
ATOM     50  C   UNL A   1      41.551  20.909  26.430  1.00  0.00     0.000 A 
ENDBRANCH  26  45
BRANCH  38  51
ATOM     51  C   UNL A   1      47.834  26.199  30.397  1.00  0.00    -0.014 A 
ATOM     52  C   UNL A   1      48.796  26.230  29.377  1.00  0.00     0.009 A 
ATOM     53  C   UNL A   1      48.191  25.685  31.654  1.00  0.00     0.009 A 
ATOM     54  C   UNL A   1      50.079  25.725  29.600  1.00  0.00     0.001 A 
ATOM     55  C   UNL A   1      49.483  25.212  31.885  1.00  0.00     0.001 A 
ATOM     56  C   UNL A   1      50.423  25.222  30.856  1.00  0.00     0.000 A 
ENDBRANCH  38  51
ENDBRANCH  12  13
ENDBRANCH   5   7
ENDBRANCH   2   3
ENDBRANCH   1   2
BRANCH   1  57
ATOM     57  C   UNL A   1      32.857  29.291  24.674  1.00  0.00     0.023 C 
BRANCH  57  58
ATOM     58  C   UNL A   1      32.275  28.807  23.341  1.00  0.00     0.116 C 
BRANCH  58  59
ATOM     59  N   UNL A   1      30.817  28.787  23.310  1.00  0.00    -0.352 N 
ATOM     60  C   UNL A   1      29.896  27.794  23.576  1.00  0.00     0.251 C 
ATOM     61  H   UNL A   1      30.412  29.646  23.050  1.00  0.00     0.163 HD
ATOM     62  O   UNL A   1      28.707  28.032  23.372  1.00  0.00    -0.269 OA
BRANCH  60  63
ATOM     63  C   UNL A   1      30.290  26.435  24.033  1.00  0.00     0.039 A 
ATOM     64  C   UNL A   1      30.156  25.365  23.133  1.00  0.00     0.014 A 
ATOM     65  C   UNL A   1      30.811  26.190  25.303  1.00  0.00     0.014 A 
ATOM     66  C   UNL A   1      30.743  24.124  23.411  1.00  0.00     0.006 A 
ATOM     67  C   UNL A   1      31.428  24.965  25.573  1.00  0.00     0.006 A 
ATOM     68  C   UNL A   1      31.530  23.986  24.566  1.00  0.00    -0.025 A 
BRANCH  68  69
ATOM     69  C   UNL A   1      32.851  23.205  24.495  1.00  0.00     0.114 C 
ATOM     70  N   UNL A   1      33.876  23.574  25.469  1.00  0.00    -0.378 N 
ATOM     71  C   UNL A   1      32.434  21.723  24.626  1.00  0.00     0.031 C 
ATOM     72  C   UNL A   1      34.986  22.703  25.438  1.00  0.00     0.038 A 
ATOM     73  H   UNL A   1      33.800  24.344  26.078  1.00  0.00     0.161 HD
ATOM     74  C   UNL A   1      33.340  20.850  25.493  1.00  0.00     0.049 C 
ATOM     75  C   UNL A   1      32.331  21.000  23.278  1.00  0.00     0.034 C 
ATOM     76  C   UNL A   1      36.299  23.179  25.384  1.00  0.00     0.027 A 
ATOM     77  C   UNL A   1      34.765  21.311  25.367  1.00  0.00    -0.016 A 
ATOM     78  C   UNL A   1      33.000  19.494  24.933  1.00  0.00    -0.023 C 
ATOM     79  C   UNL A   1      32.433  19.577  23.722  1.00  0.00    -0.030 C 
ATOM     80  C   UNL A   1      37.370  22.288  25.213  1.00  0.00     0.022 A 
ATOM     81  C   UNL A   1      35.838  20.424  25.215  1.00  0.00     0.027 A 
ATOM     82  C   UNL A   1      37.132  20.918  25.118  1.00  0.00     0.041 A 
ATOM     83  Cl  UNL A   1      38.439  19.827  24.864  1.00  0.00    -0.084 Cl
ENDBRANCH  68  69
ENDBRANCH  60  63
ENDBRANCH  58  59
ENDBRANCH  57  58
ENDBRANCH   1  57
TORSDOF 12
ENDMDL
MODEL 2
REMARK VINA RESULT:     -12.4      2.942      7.891
REMARK SMILES O=C(NCCCCNC(=O)c1ccc([C@H]2Nc3ccc(Cl)cc3[C@@H]3C=CC[C@H]23)cc1)c1ccc(-c2c3nc(c(-c4ccccc4)c4ccc([nH]4)c(-c4ccccc4)c4nc(c(-c5ccccc5)c5ccc2[nH]5)C=C4)C=C3)cc1
REMARK SMILES IDX 5 1 4 2 3 3 1 4 2 5 31 7 32 8 78 9 33 10 77 11 34 12 35 13
REMARK SMILES IDX 36 14 71 15 37 16 76 17 70 18 72 19 38 20 75 21 69 22 68 23
REMARK SMILES IDX 39 25 61 26 46 27 60 28 47 29 50 30 59 31 73 32 48 33 49 34
REMARK SMILES IDX 58 36 74 37 51 38 40 39 41 40 45 41 42 42 44 43 43 44 62 45
REMARK SMILES IDX 63 46 67 47 64 48 66 49 65 50 52 51 53 52 57 53 54 54 56 55
REMARK SMILES IDX 55 56 6 57 7 58 8 59 9 60 10 62 11 63 12 64 30 65 13 66
REMARK SMILES IDX 29 67 14 68 15 69 16 70 28 71 17 72 24 74 27 75 18 76 23 77
REMARK SMILES IDX 25 78 26 79 19 80 22 81 20 82 21 83
REMARK H PARENT 3 6 72 24 50 35 8 61 16 73
REMARK Flexibility Score: inf
ROOT
ATOM      1  C   UNL A   1      38.165  20.135  24.734  1.00  0.00     0.023 C 
ENDROOT
BRANCH   1   2
ATOM      2  C   UNL A   1      38.898  19.870  26.046  1.00  0.00     0.116 C 
BRANCH   2   3
ATOM      3  N   UNL A   1      40.128  19.106  25.886  1.00  0.00    -0.352 N 
ATOM      4  O   UNL A   1      42.338  18.689  25.771  1.00  0.00    -0.269 OA
ATOM      5  C   UNL A   1      41.440  19.479  26.064  1.00  0.00     0.251 C 
ATOM      6  H   UNL A   1      39.999  18.172  25.603  1.00  0.00     0.163 HD
BRANCH   5   7
ATOM      7  C   UNL A   1      41.796  20.822  26.580  1.00  0.00     0.039 A 
ATOM      8  C   UNL A   1      41.753  21.111  27.944  1.00  0.00     0.014 A 
ATOM      9  C   UNL A   1      42.222  21.805  25.679  1.00  0.00     0.014 A 
ATOM     10  C   UNL A   1      41.987  22.410  28.389  1.00  0.00     0.010 A 
ATOM     11  C   UNL A   1      42.541  23.090  26.137  1.00  0.00     0.010 A 
ATOM     12  C   UNL A   1      42.397  23.412  27.494  1.00  0.00    -0.014 A 
BRANCH  12  13
ATOM     13  C   UNL A   1      42.738  24.765  28.012  1.00  0.00     0.031 A 
ATOM     14  C   UNL A   1      44.160  25.155  28.311  1.00  0.00     0.074 A 
ATOM     15  C   UNL A   1      41.747  25.659  28.195  1.00  0.00     0.049 A 
ATOM     16  N   UNL A   1      44.624  26.300  28.748  1.00  0.00    -0.248 NA
ATOM     17  C   UNL A   1      45.195  24.133  28.096  1.00  0.00     0.031 C 
ATOM     18  C   UNL A   1      40.325  25.404  27.945  1.00  0.00     0.029 A 
ATOM     19  N   UNL A   1      41.778  26.963  28.618  1.00  0.00    -0.354 N 
ATOM     20  C   UNL A   1      45.999  26.134  28.874  1.00  0.00     0.074 A 
ATOM     21  C   UNL A   1      46.290  24.768  28.494  1.00  0.00     0.031 C 
ATOM     22  C   UNL A   1      39.629  26.526  28.174  1.00  0.00     0.029 A 
ATOM     23  C   UNL A   1      40.541  27.559  28.653  1.00  0.00     0.049 A 
ATOM     24  H   UNL A   1      42.609  27.429  28.871  1.00  0.00     0.167 HD
ATOM     25  C   UNL A   1      46.931  27.037  29.263  1.00  0.00     0.031 A 
ATOM     26  C   UNL A   1      40.169  28.790  29.048  1.00  0.00     0.031 A 
ATOM     27  C   UNL A   1      46.637  28.393  29.654  1.00  0.00     0.049 A 
ATOM     28  C   UNL A   1      41.216  29.749  29.534  1.00  0.00     0.074 A 
ATOM     29  C   UNL A   1      47.520  29.390  30.037  1.00  0.00     0.029 A 
ATOM     30  N   UNL A   1      45.365  28.939  29.723  1.00  0.00    -0.354 N 
ATOM     31  N   UNL A   1      42.515  29.587  29.605  1.00  0.00    -0.248 NA
ATOM     32  C   UNL A   1      40.745  31.062  29.995  1.00  0.00     0.031 C 
ATOM     33  C   UNL A   1      46.776  30.518  30.399  1.00  0.00     0.029 A 
ATOM     34  C   UNL A   1      45.436  30.248  30.175  1.00  0.00     0.049 A 
ATOM     35  H   UNL A   1      44.534  28.468  29.486  1.00  0.00     0.167 HD
ATOM     36  C   UNL A   1      43.018  30.784  30.096  1.00  0.00     0.074 A 
ATOM     37  C   UNL A   1      41.887  31.669  30.284  1.00  0.00     0.031 C 
ATOM     38  C   UNL A   1      44.303  31.118  30.366  1.00  0.00     0.031 A 
BRANCH  25  39
ATOM     39  C   UNL A   1      48.366  26.582  29.320  1.00  0.00    -0.014 A 
ATOM     40  C   UNL A   1      49.219  26.711  28.213  1.00  0.00     0.009 A 
ATOM     41  C   UNL A   1      48.886  26.065  30.517  1.00  0.00     0.009 A 
ATOM     42  C   UNL A   1      50.554  26.300  28.294  1.00  0.00     0.001 A 
ATOM     43  C   UNL A   1      50.227  25.683  30.606  1.00  0.00     0.001 A 
ATOM     44  C   UNL A   1      51.056  25.792  29.492  1.00  0.00     0.000 A 
ENDBRANCH  25  39
BRANCH  26  45
ATOM     45  C   UNL A   1      38.734  29.175  29.021  1.00  0.00    -0.014 A 
ATOM     46  C   UNL A   1      38.158  29.717  27.863  1.00  0.00     0.009 A 
ATOM     47  C   UNL A   1      37.930  28.997  30.159  1.00  0.00     0.009 A 
ATOM     48  C   UNL A   1      36.813  30.096  27.854  1.00  0.00     0.001 A 
ATOM     49  C   UNL A   1      36.577  29.343  30.135  1.00  0.00     0.001 A 
ATOM     50  C   UNL A   1      36.023  29.902  28.986  1.00  0.00     0.000 A 
ENDBRANCH  26  45
BRANCH  38  51
ATOM     51  C   UNL A   1      44.559  32.514  30.863  1.00  0.00    -0.014 A 
ATOM     52  C   UNL A   1      44.744  33.585  29.975  1.00  0.00     0.009 A 
ATOM     53  C   UNL A   1      44.586  32.764  32.245  1.00  0.00     0.009 A 
ATOM     54  C   UNL A   1      44.984  34.872  30.461  1.00  0.00     0.001 A 
ATOM     55  C   UNL A   1      44.793  34.057  32.728  1.00  0.00     0.001 A 
ATOM     56  C   UNL A   1      45.002  35.108  31.836  1.00  0.00     0.000 A 
ENDBRANCH  38  51
ENDBRANCH  12  13
ENDBRANCH   5   7
ENDBRANCH   2   3
ENDBRANCH   1   2
BRANCH   1  57
ATOM     57  C   UNL A   1      37.402  21.459  24.632  1.00  0.00     0.023 C 
BRANCH  57  58
ATOM     58  C   UNL A   1      36.025  21.520  25.304  1.00  0.00     0.116 C 
BRANCH  58  59
ATOM     59  N   UNL A   1      35.216  20.325  25.092  1.00  0.00    -0.352 N 
ATOM     60  C   UNL A   1      33.886  20.149  24.769  1.00  0.00     0.251 C 
ATOM     61  H   UNL A   1      35.714  19.482  25.201  1.00  0.00     0.163 HD
ATOM     62  O   UNL A   1      33.437  19.004  24.748  1.00  0.00    -0.269 OA
BRANCH  60  63
ATOM     63  C   UNL A   1      32.965  21.288  24.511  1.00  0.00     0.039 A 
ATOM     64  C   UNL A   1      31.861  21.457  25.363  1.00  0.00     0.014 A 
ATOM     65  C   UNL A   1      33.172  22.205  23.481  1.00  0.00     0.014 A 
ATOM     66  C   UNL A   1      31.112  22.640  25.332  1.00  0.00     0.006 A 
ATOM     67  C   UNL A   1      32.452  23.403  23.467  1.00  0.00     0.006 A 
ATOM     68  C   UNL A   1      31.527  23.686  24.491  1.00  0.00    -0.025 A 
BRANCH  68  69
ATOM     69  C   UNL A   1      31.491  25.134  25.005  1.00  0.00     0.114 C 
ATOM     70  N   UNL A   1      32.784  25.783  25.207  1.00  0.00    -0.378 N 
ATOM     71  C   UNL A   1      30.617  25.889  23.978  1.00  0.00     0.031 C 
ATOM     72  C   UNL A   1      32.655  27.153  25.522  1.00  0.00     0.038 A 
ATOM     73  H   UNL A   1      33.648  25.317  25.131  1.00  0.00     0.161 HD
ATOM     74  C   UNL A   1      31.093  27.290  23.600  1.00  0.00     0.049 C 
ATOM     75  C   UNL A   1      29.160  26.055  24.427  1.00  0.00     0.034 C 
ATOM     76  C   UNL A   1      33.331  27.732  26.598  1.00  0.00     0.027 A 
ATOM     77  C   UNL A   1      31.745  27.944  24.786  1.00  0.00    -0.016 A 
ATOM     78  C   UNL A   1      29.795  27.878  23.114  1.00  0.00    -0.023 C 
ATOM     79  C   UNL A   1      28.734  27.192  23.558  1.00  0.00    -0.030 C 
ATOM     80  C   UNL A   1      33.071  29.061  26.967  1.00  0.00     0.022 A 
ATOM     81  C   UNL A   1      31.504  29.276  25.146  1.00  0.00     0.027 A 
ATOM     82  C   UNL A   1      32.152  29.820  26.247  1.00  0.00     0.041 A 
ATOM     83  Cl  UNL A   1      31.798  31.436  26.724  1.00  0.00    -0.084 Cl
ENDBRANCH  68  69
ENDBRANCH  60  63
ENDBRANCH  58  59
ENDBRANCH  57  58
ENDBRANCH   1  57
TORSDOF 12
ENDMDL
MODEL 3
REMARK VINA RESULT:     -12.4      2.941      7.824
REMARK SMILES O=C(NCCCCNC(=O)c1ccc([C@H]2Nc3ccc(Cl)cc3[C@@H]3C=CC[C@H]23)cc1)c1ccc(-c2c3nc(c(-c4ccccc4)c4ccc([nH]4)c(-c4ccccc4)c4nc(c(-c5ccccc5)c5ccc2[nH]5)C=C4)C=C3)cc1
REMARK SMILES IDX 5 1 4 2 3 3 1 4 2 5 31 7 32 8 78 9 33 10 77 11 34 12 35 13
REMARK SMILES IDX 36 14 71 15 37 16 76 17 70 18 72 19 38 20 75 21 69 22 68 23
REMARK SMILES IDX 39 25 61 26 46 27 60 28 47 29 50 30 59 31 73 32 48 33 49 34
REMARK SMILES IDX 58 36 74 37 51 38 40 39 41 40 45 41 42 42 44 43 43 44 62 45
REMARK SMILES IDX 63 46 67 47 64 48 66 49 65 50 52 51 53 52 57 53 54 54 56 55
REMARK SMILES IDX 55 56 6 57 7 58 8 59 9 60 10 62 11 63 12 64 30 65 13 66
REMARK SMILES IDX 29 67 14 68 15 69 16 70 28 71 17 72 24 74 27 75 18 76 23 77
REMARK SMILES IDX 25 78 26 79 19 80 22 81 20 82 21 83
REMARK H PARENT 3 6 72 24 50 35 8 61 16 73
REMARK Flexibility Score: inf
ROOT
ATOM      1  C   UNL A   1      38.154  20.054  24.922  1.00  0.00     0.023 C 
ENDROOT
BRANCH   1   2
ATOM      2  C   UNL A   1      39.055  19.873  26.140  1.00  0.00     0.116 C 
BRANCH   2   3
ATOM      3  N   UNL A   1      40.296  19.168  25.851  1.00  0.00    -0.352 N 
ATOM      4  O   UNL A   1      42.504  18.847  25.544  1.00  0.00    -0.269 OA
ATOM      5  C   UNL A   1      41.603  19.587  25.941  1.00  0.00     0.251 C 
ATOM      6  H   UNL A   1      40.181  18.241  25.539  1.00  0.00     0.163 HD
BRANCH   5   7
ATOM      7  C   UNL A   1      41.948  20.922  26.483  1.00  0.00     0.039 A 
ATOM      8  C   UNL A   1      41.976  21.162  27.858  1.00  0.00     0.014 A 
ATOM      9  C   UNL A   1      42.292  21.949  25.596  1.00  0.00     0.014 A 
ATOM     10  C   UNL A   1      42.197  22.452  28.335  1.00  0.00     0.010 A 
ATOM     11  C   UNL A   1      42.599  23.226  26.082  1.00  0.00     0.010 A 
ATOM     12  C   UNL A   1      42.524  23.497  27.456  1.00  0.00    -0.014 A 
BRANCH  12  13
ATOM     13  C   UNL A   1      42.854  24.841  28.003  1.00  0.00     0.031 A 
ATOM     14  C   UNL A   1      41.786  25.872  28.247  1.00  0.00     0.074 A 
ATOM     15  C   UNL A   1      44.137  25.123  28.301  1.00  0.00     0.049 A 
ATOM     16  N   UNL A   1      41.907  27.082  28.737  1.00  0.00    -0.248 NA
ATOM     17  C   UNL A   1      40.406  25.505  27.895  1.00  0.00     0.031 C 
ATOM     18  C   UNL A   1      45.267  24.210  28.109  1.00  0.00     0.029 A 
ATOM     19  N   UNL A   1      44.709  26.247  28.842  1.00  0.00    -0.354 N 
ATOM     20  C   UNL A   1      40.627  27.624  28.741  1.00  0.00     0.074 A 
ATOM     21  C   UNL A   1      39.748  26.622  28.176  1.00  0.00     0.031 C 
ATOM     22  C   UNL A   1      46.385  24.791  28.567  1.00  0.00     0.029 A 
ATOM     23  C   UNL A   1      46.067  26.141  29.019  1.00  0.00     0.049 A 
ATOM     24  H   UNL A   1      44.194  27.052  29.081  1.00  0.00     0.167 HD
ATOM     25  C   UNL A   1      40.222  28.840  29.179  1.00  0.00     0.031 A 
ATOM     26  C   UNL A   1      46.966  27.032  29.472  1.00  0.00     0.031 A 
ATOM     27  C   UNL A   1      41.101  29.842  29.728  1.00  0.00     0.049 A 
ATOM     28  C   UNL A   1      46.497  28.395  29.893  1.00  0.00     0.074 A 
ATOM     29  C   UNL A   1      40.777  31.094  30.224  1.00  0.00     0.029 A 
ATOM     30  N   UNL A   1      42.476  29.712  29.843  1.00  0.00    -0.354 N 
ATOM     31  N   UNL A   1      45.277  28.873  29.928  1.00  0.00    -0.248 NA
ATOM     32  C   UNL A   1      47.530  29.341  30.336  1.00  0.00     0.031 C 
ATOM     33  C   UNL A   1      41.963  31.745  30.579  1.00  0.00     0.029 A 
ATOM     34  C   UNL A   1      43.019  30.873  30.371  1.00  0.00     0.049 A 
ATOM     35  H   UNL A   1      42.991  28.912  29.588  1.00  0.00     0.167 HD
ATOM     36  C   UNL A   1      45.393  30.167  30.418  1.00  0.00     0.074 A 
ATOM     37  C   UNL A   1      46.800  30.389  30.686  1.00  0.00     0.031 C 
ATOM     38  C   UNL A   1      44.421  31.087  30.627  1.00  0.00     0.031 A 
BRANCH  25  39
ATOM     39  C   UNL A   1      38.759  29.177  29.054  1.00  0.00    -0.014 A 
ATOM     40  C   UNL A   1      37.876  29.021  30.134  1.00  0.00     0.009 A 
ATOM     41  C   UNL A   1      38.267  29.711  27.852  1.00  0.00     0.009 A 
ATOM     42  C   UNL A   1      36.526  29.360  30.002  1.00  0.00     0.001 A 
ATOM     43  C   UNL A   1      36.925  30.077  27.731  1.00  0.00     0.001 A 
ATOM     44  C   UNL A   1      36.054  29.892  28.803  1.00  0.00     0.000 A 
ENDBRANCH  25  39
BRANCH  26  45
ATOM     45  C   UNL A   1      48.406  26.669  29.529  1.00  0.00    -0.014 A 
ATOM     46  C   UNL A   1      49.253  26.916  28.439  1.00  0.00     0.009 A 
ATOM     47  C   UNL A   1      48.943  26.075  30.684  1.00  0.00     0.009 A 
ATOM     48  C   UNL A   1      50.601  26.552  28.494  1.00  0.00     0.001 A 
ATOM     49  C   UNL A   1      50.298  25.745  30.748  1.00  0.00     0.001 A 
ATOM     50  C   UNL A   1      51.123  25.974  29.650  1.00  0.00     0.000 A 
ENDBRANCH  26  45
BRANCH  38  51
ATOM     51  C   UNL A   1      44.841  32.410  31.205  1.00  0.00    -0.014 A 
ATOM     52  C   UNL A   1      45.178  33.495  30.380  1.00  0.00     0.009 A 
ATOM     53  C   UNL A   1      44.869  32.581  32.599  1.00  0.00     0.009 A 
ATOM     54  C   UNL A   1      45.568  34.713  30.941  1.00  0.00     0.001 A 
ATOM     55  C   UNL A   1      45.227  33.809  33.155  1.00  0.00     0.001 A 
ATOM     56  C   UNL A   1      45.587  34.871  32.327  1.00  0.00     0.000 A 
ENDBRANCH  38  51
ENDBRANCH  12  13
ENDBRANCH   5   7
ENDBRANCH   2   3
ENDBRANCH   1   2
BRANCH   1  57
ATOM     57  C   UNL A   1      37.433  21.399  24.798  1.00  0.00     0.023 C 
BRANCH  57  58
ATOM     58  C   UNL A   1      36.012  21.480  25.371  1.00  0.00     0.116 C 
BRANCH  58  59
ATOM     59  N   UNL A   1      35.213  20.285  25.131  1.00  0.00    -0.352 N 
ATOM     60  C   UNL A   1      33.889  20.107  24.785  1.00  0.00     0.251 C 
ATOM     61  H   UNL A   1      35.715  19.443  25.234  1.00  0.00     0.163 HD
ATOM     62  O   UNL A   1      33.447  18.960  24.741  1.00  0.00    -0.269 OA
BRANCH  60  63
ATOM     63  C   UNL A   1      32.966  21.244  24.530  1.00  0.00     0.039 A 
ATOM     64  C   UNL A   1      31.870  21.417  25.392  1.00  0.00     0.014 A 
ATOM     65  C   UNL A   1      33.162  22.155  23.493  1.00  0.00     0.014 A 
ATOM     66  C   UNL A   1      31.122  22.601  25.361  1.00  0.00     0.006 A 
ATOM     67  C   UNL A   1      32.442  23.353  23.479  1.00  0.00     0.006 A 
ATOM     68  C   UNL A   1      31.528  23.642  24.511  1.00  0.00    -0.025 A 
BRANCH  68  69
ATOM     69  C   UNL A   1      31.497  25.092  25.017  1.00  0.00     0.114 C 
ATOM     70  N   UNL A   1      32.791  25.748  25.190  1.00  0.00    -0.378 N 
ATOM     71  C   UNL A   1      30.600  25.839  24.003  1.00  0.00     0.031 C 
ATOM     72  C   UNL A   1      32.663  27.118  25.499  1.00  0.00     0.038 A 
ATOM     73  H   UNL A   1      33.655  25.284  25.099  1.00  0.00     0.161 HD
ATOM     74  C   UNL A   1      31.063  27.239  23.608  1.00  0.00     0.049 C 
ATOM     75  C   UNL A   1      29.151  26.002  24.479  1.00  0.00     0.034 C 
ATOM     76  C   UNL A   1      33.359  27.706  26.559  1.00  0.00     0.027 A 
ATOM     77  C   UNL A   1      31.737  27.902  24.777  1.00  0.00    -0.016 A 
ATOM     78  C   UNL A   1      29.754  27.820  23.144  1.00  0.00    -0.023 C 
ATOM     79  C   UNL A   1      28.704  27.132  23.613  1.00  0.00    -0.030 C 
ATOM     80  C   UNL A   1      33.101  29.036  26.925  1.00  0.00     0.022 A 
ATOM     81  C   UNL A   1      31.497  29.235  25.134  1.00  0.00     0.027 A 
ATOM     82  C   UNL A   1      32.165  29.788  26.218  1.00  0.00     0.041 A 
ATOM     83  Cl  UNL A   1      31.816  31.405  26.693  1.00  0.00    -0.084 Cl
ENDBRANCH  68  69
ENDBRANCH  60  63
ENDBRANCH  58  59
ENDBRANCH  57  58
ENDBRANCH   1  57
TORSDOF 12
ENDMDL
