MODEL 1
REMARK VINA RESULT:     -13.3      0.000      0.000
REMARK SMILES Cc1ccc(S(=O)(=O)n2cc(C(=O)C(=O)N[C@@H](Cc3c[nH]c4ccccc34)C(=O)NCCCCNC(=O)c3ccc(-c4c5nc(c(-c6ccccc6)c6ccc([nH]6)c(-c6ccccc6)c6nc(c(-c7ccccc7)c7ccc4[nH]7)C=C6)C=C5)cc3)c3ccccc32)cc1
REMARK SMILES IDX 31 1 30 2 28 3 29 4 17 6 16 7 14 8 15 9 12 11 13 12 11 13
REMARK SMILES IDX 9 14 10 15 91 16 86 17 90 18 87 19 89 20 88 21 6 22 7 23
REMARK SMILES IDX 8 24 5 25 1 26 2 27 3 28 93 29 4 30 92 31 18 32 19 33 20 34
REMARK SMILES IDX 27 35 21 36 22 37 26 38 23 40 25 41 24 42 32 43 33 44 34 45
REMARK SMILES IDX 35 46 36 47 37 49 38 50 39 51 85 52 40 53 84 54 41 55 42 56
REMARK SMILES IDX 43 57 78 58 44 59 83 60 77 61 79 62 45 63 82 64 76 65 75 66
REMARK SMILES IDX 46 68 68 69 53 70 67 71 54 72 57 73 66 74 80 75 55 76 56 77
REMARK SMILES IDX 65 79 81 80 58 81 47 82 48 83 52 84 49 85 51 86 50 87 69 88
REMARK SMILES IDX 70 89 74 90 71 91 73 92 72 93 59 94 60 95 64 96 61 97 63 98
REMARK SMILES IDX 62 99
REMARK H PARENT 30 5 16 10 21 39 35 48 79 67 57 78
REMARK Flexibility Score: inf
ROOT
ATOM      1  C   UNL A   1      34.909  28.973  26.321  1.00  0.00     0.116 C 
ENDROOT
BRANCH   1   2
ATOM      2  N   UNL A   1      33.607  29.519  26.011  1.00  0.00    -0.354 N 
ATOM      3  C   UNL A   1      32.418  28.843  25.898  1.00  0.00     0.242 C 
ATOM      4  O   UNL A   1      31.400  29.466  26.226  1.00  0.00    -0.273 OA
ATOM      5  H   UNL A   1      33.570  30.492  25.863  1.00  0.00     0.163 HD
BRANCH   3   6
ATOM      6  C   UNL A   1      32.317  27.333  25.523  1.00  0.00     0.176 C 
BRANCH   6   7
ATOM      7  N   UNL A   1      31.274  26.571  26.249  1.00  0.00    -0.337 N 
ATOM      8  C   UNL A   1      30.748  25.304  26.031  1.00  0.00     0.293 C 
ATOM      9  O   UNL A   1      29.798  24.906  26.698  1.00  0.00    -0.265 OA
ATOM     10  H   UNL A   1      30.886  27.045  27.020  1.00  0.00     0.164 HD
BRANCH   8  11
ATOM     11  C   UNL A   1      31.364  24.372  24.983  1.00  0.00     0.252 C 
ATOM     12  O   UNL A   1      30.682  24.189  23.975  1.00  0.00    -0.283 OA
BRANCH  11  13
ATOM     13  C   UNL A   1      32.632  23.642  25.200  1.00  0.00     0.054 A 
ATOM     14  N   UNL A   1      34.730  22.942  25.725  1.00  0.00    -0.240 N 
ATOM     15  C   UNL A   1      33.878  24.053  25.700  1.00  0.00     0.117 A 
ATOM     16  C   UNL A   1      33.945  21.811  25.441  1.00  0.00     0.065 A 
ATOM     17  C   UNL A   1      32.815  22.288  24.782  1.00  0.00     0.012 A 
ATOM     18  C   UNL A   1      34.269  20.438  25.443  1.00  0.00     0.028 A 
ATOM     19  C   UNL A   1      32.108  21.407  23.935  1.00  0.00     0.011 A 
ATOM     20  C   UNL A   1      33.601  19.607  24.545  1.00  0.00     0.002 A 
ATOM     21  C   UNL A   1      32.563  20.096  23.766  1.00  0.00     0.001 A 
BRANCH  14  22
ATOM     22  S   UNL A   1      36.307  22.817  24.967  1.00  0.00     0.268 S 
ATOM     23  O   UNL A   1      36.917  24.102  25.268  1.00  0.00    -0.201 OA
ATOM     24  O   UNL A   1      35.959  22.452  23.598  1.00  0.00    -0.201 OA
BRANCH  22  25
ATOM     25  C   UNL A   1      37.554  21.627  25.308  1.00  0.00     0.088 A 
ATOM     26  C   UNL A   1      41.242  19.581  26.271  1.00  0.00     0.044 C 
ATOM     27  C   UNL A   1      39.929  20.246  25.966  1.00  0.00    -0.051 A 
ATOM     28  C   UNL A   1      39.785  21.572  26.344  1.00  0.00     0.005 A 
ATOM     29  C   UNL A   1      38.870  19.614  25.273  1.00  0.00     0.005 A 
ATOM     30  C   UNL A   1      38.614  22.238  26.030  1.00  0.00     0.022 A 
ATOM     31  C   UNL A   1      37.674  20.302  24.932  1.00  0.00     0.022 A 
ENDBRANCH  22  25
ENDBRANCH  14  22
ENDBRANCH  11  13
ENDBRANCH   8  11
ENDBRANCH   6   7
BRANCH   6  32
ATOM     32  C   UNL A   1      32.331  27.090  23.974  1.00  0.00     0.072 C 
BRANCH  32  33
ATOM     33  C   UNL A   1      31.573  28.059  23.094  1.00  0.00    -0.020 A 
ATOM     34  C   UNL A   1      32.123  29.073  22.326  1.00  0.00     0.087 A 
ATOM     35  C   UNL A   1      30.147  28.168  22.932  1.00  0.00     0.003 A 
ATOM     36  N   UNL A   1      31.101  29.836  21.819  1.00  0.00    -0.361 N 
ATOM     37  C   UNL A   1      29.900  29.396  22.318  1.00  0.00     0.046 A 
ATOM     38  C   UNL A   1      29.044  27.424  23.398  1.00  0.00     0.010 A 
ATOM     39  H   UNL A   1      31.213  30.587  21.193  1.00  0.00     0.166 HD
ATOM     40  C   UNL A   1      28.633  29.990  22.292  1.00  0.00     0.026 A 
ATOM     41  C   UNL A   1      27.773  28.006  23.394  1.00  0.00     0.001 A 
ATOM     42  C   UNL A   1      27.579  29.285  22.879  1.00  0.00     0.002 A 
ENDBRANCH  32  33
ENDBRANCH   6  32
ENDBRANCH   3   6
ENDBRANCH   1   2
BRANCH   1  43
ATOM     43  C   UNL A   1      35.675  29.620  27.468  1.00  0.00     0.023 C 
BRANCH  43  44
ATOM     44  C   UNL A   1      35.459  31.114  27.669  1.00  0.00     0.023 C 
BRANCH  44  45
ATOM     45  C   UNL A   1      34.496  31.499  28.786  1.00  0.00     0.116 C 
BRANCH  45  46
ATOM     46  N   UNL A   1      34.098  32.896  28.843  1.00  0.00    -0.352 N 
ATOM     47  C   UNL A   1      34.684  33.968  29.510  1.00  0.00     0.251 C 
ATOM     48  H   UNL A   1      33.287  33.118  28.332  1.00  0.00     0.163 HD
ATOM     49  O   UNL A   1      34.118  35.044  29.513  1.00  0.00    -0.269 OA
BRANCH  47  50
ATOM     50  C   UNL A   1      36.059  33.858  30.091  1.00  0.00     0.039 A 
ATOM     51  C   UNL A   1      37.144  34.210  29.270  1.00  0.00     0.014 A 
ATOM     52  C   UNL A   1      36.314  33.251  31.315  1.00  0.00     0.014 A 
ATOM     53  C   UNL A   1      38.416  33.707  29.545  1.00  0.00     0.010 A 
ATOM     54  C   UNL A   1      37.536  32.655  31.533  1.00  0.00     0.010 A 
ATOM     55  C   UNL A   1      38.564  32.822  30.606  1.00  0.00    -0.014 A 
BRANCH  55  56
ATOM     56  C   UNL A   1      39.672  31.890  30.747  1.00  0.00     0.031 A 
ATOM     57  C   UNL A   1      39.673  30.599  30.046  1.00  0.00     0.074 A 
ATOM     58  C   UNL A   1      40.781  32.331  31.379  1.00  0.00     0.049 A 
ATOM     59  N   UNL A   1      40.461  29.624  30.339  1.00  0.00    -0.248 NA
ATOM     60  C   UNL A   1      38.723  30.278  28.985  1.00  0.00     0.031 C 
ATOM     61  C   UNL A   1      42.136  31.794  31.323  1.00  0.00     0.029 A 
ATOM     62  N   UNL A   1      40.843  33.323  32.360  1.00  0.00    -0.354 N 
ATOM     63  C   UNL A   1      40.351  28.697  29.331  1.00  0.00     0.074 A 
ATOM     64  C   UNL A   1      39.162  29.074  28.606  1.00  0.00     0.031 C 
ATOM     65  C   UNL A   1      42.834  32.270  32.369  1.00  0.00     0.029 A 
ATOM     66  C   UNL A   1      41.894  32.973  33.228  1.00  0.00     0.049 A 
ATOM     67  H   UNL A   1      40.264  34.116  32.429  1.00  0.00     0.167 HD
ATOM     68  C   UNL A   1      41.371  27.816  29.132  1.00  0.00     0.031 A 
ATOM     69  C   UNL A   1      41.627  32.610  34.520  1.00  0.00     0.031 A 
ATOM     70  C   UNL A   1      42.352  27.881  30.217  1.00  0.00     0.049 A 
ATOM     71  C   UNL A   1      41.985  31.172  34.845  1.00  0.00     0.074 A 
ATOM     72  C   UNL A   1      43.623  28.423  30.313  1.00  0.00     0.029 A 
ATOM     73  N   UNL A   1      41.948  27.589  31.515  1.00  0.00    -0.354 N 
ATOM     74  N   UNL A   1      42.197  30.251  33.947  1.00  0.00    -0.248 NA
ATOM     75  C   UNL A   1      42.088  30.653  36.208  1.00  0.00     0.031 C 
ATOM     76  C   UNL A   1      43.933  28.559  31.695  1.00  0.00     0.029 A 
ATOM     77  C   UNL A   1      42.873  28.055  32.429  1.00  0.00     0.049 A 
ATOM     78  H   UNL A   1      41.117  27.116  31.751  1.00  0.00     0.167 HD
ATOM     79  C   UNL A   1      42.430  29.051  34.564  1.00  0.00     0.074 A 
ATOM     80  C   UNL A   1      42.369  29.357  35.982  1.00  0.00     0.031 C 
ATOM     81  C   UNL A   1      42.628  27.901  33.857  1.00  0.00     0.031 A 
BRANCH  68  82
ATOM     82  C   UNL A   1      41.620  27.065  27.840  1.00  0.00    -0.014 A 
ATOM     83  C   UNL A   1      41.189  25.730  27.725  1.00  0.00     0.009 A 
ATOM     84  C   UNL A   1      42.351  27.561  26.746  1.00  0.00     0.009 A 
ATOM     85  C   UNL A   1      41.500  24.938  26.609  1.00  0.00     0.001 A 
ATOM     86  C   UNL A   1      42.652  26.783  25.618  1.00  0.00     0.001 A 
ATOM     87  C   UNL A   1      42.235  25.464  25.555  1.00  0.00     0.000 A 
ENDBRANCH  68  82
BRANCH  69  88
ATOM     88  C   UNL A   1      40.465  33.328  35.115  1.00  0.00    -0.014 A 
ATOM     89  C   UNL A   1      39.204  32.702  35.109  1.00  0.00     0.009 A 
ATOM     90  C   UNL A   1      40.667  34.417  35.977  1.00  0.00     0.009 A 
ATOM     91  C   UNL A   1      38.213  33.083  36.019  1.00  0.00     0.001 A 
ATOM     92  C   UNL A   1      39.671  34.796  36.885  1.00  0.00     0.001 A 
ATOM     93  C   UNL A   1      38.460  34.106  36.932  1.00  0.00     0.000 A 
ENDBRANCH  69  88
BRANCH  81  94
ATOM     94  C   UNL A   1      42.650  26.510  34.439  1.00  0.00    -0.014 A 
ATOM     95  C   UNL A   1      41.611  25.962  35.204  1.00  0.00     0.009 A 
ATOM     96  C   UNL A   1      43.702  25.640  34.077  1.00  0.00     0.009 A 
ATOM     97  C   UNL A   1      41.645  24.623  35.620  1.00  0.00     0.001 A 
ATOM     98  C   UNL A   1      43.716  24.294  34.451  1.00  0.00     0.001 A 
ATOM     99  C   UNL A   1      42.690  23.788  35.235  1.00  0.00     0.000 A 
ENDBRANCH  81  94
ENDBRANCH  55  56
ENDBRANCH  47  50
ENDBRANCH  45  46
ENDBRANCH  44  45
ENDBRANCH  43  44
ENDBRANCH   1  43
TORSDOF 18
ENDMDL
MODEL 2
REMARK VINA RESULT:     -13.1      1.463      2.507
REMARK SMILES Cc1ccc(S(=O)(=O)n2cc(C(=O)C(=O)N[C@@H](Cc3c[nH]c4ccccc34)C(=O)NCCCCNC(=O)c3ccc(-c4c5nc(c(-c6ccccc6)c6ccc([nH]6)c(-c6ccccc6)c6nc(c(-c7ccccc7)c7ccc4[nH]7)C=C6)C=C5)cc3)c3ccccc32)cc1
REMARK SMILES IDX 31 1 30 2 28 3 29 4 17 6 16 7 14 8 15 9 12 11 13 12 11 13
REMARK SMILES IDX 9 14 10 15 91 16 86 17 90 18 87 19 89 20 88 21 6 22 7 23
REMARK SMILES IDX 8 24 5 25 1 26 2 27 3 28 93 29 4 30 92 31 18 32 19 33 20 34
REMARK SMILES IDX 27 35 21 36 22 37 26 38 23 40 25 41 24 42 32 43 33 44 34 45
REMARK SMILES IDX 35 46 36 47 37 49 38 50 39 51 85 52 40 53 84 54 41 55 42 56
REMARK SMILES IDX 43 57 78 58 44 59 83 60 77 61 79 62 45 63 82 64 76 65 75 66
REMARK SMILES IDX 46 68 68 69 53 70 67 71 54 72 57 73 66 74 80 75 55 76 56 77
REMARK SMILES IDX 65 79 81 80 58 81 47 82 48 83 52 84 49 85 51 86 50 87 69 88
REMARK SMILES IDX 70 89 74 90 71 91 73 92 72 93 59 94 60 95 64 96 61 97 63 98
REMARK SMILES IDX 62 99
REMARK H PARENT 30 5 16 10 21 39 35 48 79 67 57 78
REMARK Flexibility Score: inf
ROOT
ATOM      1  C   UNL A   1      33.916  28.306  25.773  1.00  0.00     0.116 C 
ENDROOT
BRANCH   1   2
ATOM      2  N   UNL A   1      32.628  27.887  26.278  1.00  0.00    -0.354 N 
ATOM      3  C   UNL A   1      31.467  27.705  25.570  1.00  0.00     0.242 C 
ATOM      4  O   UNL A   1      30.702  26.826  25.987  1.00  0.00    -0.273 OA
ATOM      5  H   UNL A   1      32.579  27.711  27.247  1.00  0.00     0.163 HD
BRANCH   3   6
ATOM      6  C   UNL A   1      31.151  28.438  24.230  1.00  0.00     0.176 C 
BRANCH   6   7
ATOM      7  N   UNL A   1      32.236  28.406  23.222  1.00  0.00    -0.337 N 
ATOM      8  C   UNL A   1      32.905  27.342  22.631  1.00  0.00     0.293 C 
ATOM      9  O   UNL A   1      33.862  27.548  21.891  1.00  0.00    -0.265 OA
ATOM     10  H   UNL A   1      32.536  29.294  22.919  1.00  0.00     0.164 HD
BRANCH   8  11
ATOM     11  C   UNL A   1      32.440  25.901  22.864  1.00  0.00     0.252 C 
ATOM     12  O   UNL A   1      31.405  25.581  22.279  1.00  0.00    -0.283 OA
BRANCH  11  13
ATOM     13  C   UNL A   1      33.108  24.982  23.810  1.00  0.00     0.054 A 
ATOM     14  N   UNL A   1      34.542  23.736  25.059  1.00  0.00    -0.240 N 
ATOM     15  C   UNL A   1      34.457  24.635  23.989  1.00  0.00     0.117 A 
ATOM     16  C   UNL A   1      33.276  23.698  25.670  1.00  0.00     0.065 A 
ATOM     17  C   UNL A   1      32.375  24.144  24.707  1.00  0.00     0.012 A 
ATOM     18  C   UNL A   1      32.836  23.047  26.841  1.00  0.00     0.028 A 
ATOM     19  C   UNL A   1      31.024  23.749  24.815  1.00  0.00     0.011 A 
ATOM     20  C   UNL A   1      31.514  22.608  26.888  1.00  0.00     0.002 A 
ATOM     21  C   UNL A   1      30.629  22.917  25.866  1.00  0.00     0.001 A 
BRANCH  14  22
ATOM     22  S   UNL A   1      35.273  22.142  25.030  1.00  0.00     0.268 S 
ATOM     23  O   UNL A   1      35.815  22.006  26.372  1.00  0.00    -0.201 OA
ATOM     24  O   UNL A   1      36.151  22.231  23.870  1.00  0.00    -0.201 OA
BRANCH  22  25
ATOM     25  C   UNL A   1      34.468  20.614  24.706  1.00  0.00     0.088 A 
ATOM     26  C   UNL A   1      33.500  16.512  23.730  1.00  0.00     0.044 C 
ATOM     27  C   UNL A   1      33.788  17.937  24.109  1.00  0.00    -0.051 A 
ATOM     28  C   UNL A   1      35.074  18.236  24.530  1.00  0.00     0.005 A 
ATOM     29  C   UNL A   1      32.842  18.985  24.006  1.00  0.00     0.005 A 
ATOM     30  C   UNL A   1      35.396  19.547  24.834  1.00  0.00     0.022 A 
ATOM     31  C   UNL A   1      33.176  20.335  24.299  1.00  0.00     0.022 A 
ENDBRANCH  22  25
ENDBRANCH  14  22
ENDBRANCH  11  13
ENDBRANCH   8  11
ENDBRANCH   6   7
BRANCH   6  32
ATOM     32  C   UNL A   1      29.734  28.077  23.661  1.00  0.00     0.072 C 
BRANCH  32  33
ATOM     33  C   UNL A   1      28.896  29.192  23.075  1.00  0.00    -0.020 A 
ATOM     34  C   UNL A   1      27.971  29.072  22.050  1.00  0.00     0.087 A 
ATOM     35  C   UNL A   1      28.940  30.591  23.408  1.00  0.00     0.003 A 
ATOM     36  N   UNL A   1      27.559  30.329  21.689  1.00  0.00    -0.361 N 
ATOM     37  C   UNL A   1      28.266  31.272  22.393  1.00  0.00     0.046 A 
ATOM     38  C   UNL A   1      29.626  31.352  24.376  1.00  0.00     0.010 A 
ATOM     39  H   UNL A   1      26.860  30.525  21.024  1.00  0.00     0.166 HD
ATOM     40  C   UNL A   1      28.377  32.654  22.203  1.00  0.00     0.026 A 
ATOM     41  C   UNL A   1      29.761  32.732  24.195  1.00  0.00     0.001 A 
ATOM     42  C   UNL A   1      29.173  33.366  23.103  1.00  0.00     0.002 A 
ENDBRANCH  32  33
ENDBRANCH   6  32
ENDBRANCH   3   6
ENDBRANCH   1   2
BRANCH   1  43
ATOM     43  C   UNL A   1      34.639  29.400  26.547  1.00  0.00     0.023 C 
BRANCH  43  44
ATOM     44  C   UNL A   1      33.788  30.570  27.022  1.00  0.00     0.023 C 
BRANCH  44  45
ATOM     45  C   UNL A   1      34.327  31.335  28.225  1.00  0.00     0.116 C 
BRANCH  45  46
ATOM     46  N   UNL A   1      33.785  32.667  28.441  1.00  0.00    -0.352 N 
ATOM     47  C   UNL A   1      34.217  33.683  29.288  1.00  0.00     0.251 C 
ATOM     48  H   UNL A   1      32.988  32.882  27.906  1.00  0.00     0.163 HD
ATOM     49  O   UNL A   1      33.545  34.691  29.394  1.00  0.00    -0.269 OA
BRANCH  47  50
ATOM     50  C   UNL A   1      35.559  33.621  29.949  1.00  0.00     0.039 A 
ATOM     51  C   UNL A   1      36.662  34.119  29.234  1.00  0.00     0.014 A 
ATOM     52  C   UNL A   1      35.784  32.929  31.133  1.00  0.00     0.014 A 
ATOM     53  C   UNL A   1      37.949  33.685  29.551  1.00  0.00     0.010 A 
ATOM     54  C   UNL A   1      37.033  32.404  31.383  1.00  0.00     0.010 A 
ATOM     55  C   UNL A   1      38.099  32.724  30.543  1.00  0.00    -0.014 A 
BRANCH  55  56
ATOM     56  C   UNL A   1      39.265  31.864  30.681  1.00  0.00     0.031 A 
ATOM     57  C   UNL A   1      39.353  30.584  29.966  1.00  0.00     0.074 A 
ATOM     58  C   UNL A   1      40.339  32.369  31.326  1.00  0.00     0.049 A 
ATOM     59  N   UNL A   1      40.201  29.658  30.254  1.00  0.00    -0.248 NA
ATOM     60  C   UNL A   1      38.431  30.213  28.896  1.00  0.00     0.031 C 
ATOM     61  C   UNL A   1      41.727  31.921  31.272  1.00  0.00     0.029 A 
ATOM     62  N   UNL A   1      40.332  33.351  32.317  1.00  0.00    -0.354 N 
ATOM     63  C   UNL A   1      40.157  28.738  29.235  1.00  0.00     0.074 A 
ATOM     64  C   UNL A   1      38.950  29.045  28.507  1.00  0.00     0.031 C 
ATOM     65  C   UNL A   1      42.387  32.430  32.328  1.00  0.00     0.029 A 
ATOM     66  C   UNL A   1      41.398  33.060  33.188  1.00  0.00     0.049 A 
ATOM     67  H   UNL A   1      39.702  34.104  32.391  1.00  0.00     0.167 HD
ATOM     68  C   UNL A   1      41.232  27.926  29.033  1.00  0.00     0.031 A 
ATOM     69  C   UNL A   1      41.148  32.666  34.474  1.00  0.00     0.031 A 
ATOM     70  C   UNL A   1      42.201  28.043  30.125  1.00  0.00     0.049 A 
ATOM     71  C   UNL A   1      41.597  31.251  34.786  1.00  0.00     0.074 A 
ATOM     72  C   UNL A   1      43.434  28.664  30.235  1.00  0.00     0.029 A 
ATOM     73  N   UNL A   1      41.810  27.711  31.418  1.00  0.00    -0.354 N 
ATOM     74  N   UNL A   1      41.872  30.356  33.879  1.00  0.00    -0.248 NA
ATOM     75  C   UNL A   1      41.725  30.724  36.143  1.00  0.00     0.031 C 
ATOM     76  C   UNL A   1      43.727  28.804  31.620  1.00  0.00     0.029 A 
ATOM     77  C   UNL A   1      42.697  28.225  32.342  1.00  0.00     0.049 A 
ATOM     78  H   UNL A   1      41.010  27.183  31.643  1.00  0.00     0.167 HD
ATOM     79  C   UNL A   1      42.179  29.167  34.485  1.00  0.00     0.074 A 
ATOM     80  C   UNL A   1      42.091  29.452  35.906  1.00  0.00     0.031 C 
ATOM     81  C   UNL A   1      42.455  28.040  33.767  1.00  0.00     0.031 A 
BRANCH  68  82
ATOM     82  C   UNL A   1      41.537  27.208  27.735  1.00  0.00    -0.014 A 
ATOM     83  C   UNL A   1      41.098  25.881  27.562  1.00  0.00     0.009 A 
ATOM     84  C   UNL A   1      42.326  27.724  26.692  1.00  0.00     0.009 A 
ATOM     85  C   UNL A   1      41.455  25.116  26.442  1.00  0.00     0.001 A 
ATOM     86  C   UNL A   1      42.674  26.973  25.559  1.00  0.00     0.001 A 
ATOM     87  C   UNL A   1      42.246  25.662  25.439  1.00  0.00     0.000 A 
ENDBRANCH  68  82
BRANCH  69  88
ATOM     88  C   UNL A   1      39.938  33.302  35.070  1.00  0.00    -0.014 A 
ATOM     89  C   UNL A   1      38.673  32.755  34.782  1.00  0.00     0.009 A 
ATOM     90  C   UNL A   1      40.058  34.173  36.163  1.00  0.00     0.009 A 
ATOM     91  C   UNL A   1      37.586  32.986  35.631  1.00  0.00     0.001 A 
ATOM     92  C   UNL A   1      38.966  34.404  37.008  1.00  0.00     0.001 A 
ATOM     93  C   UNL A   1      37.742  33.781  36.764  1.00  0.00     0.000 A 
ENDBRANCH  69  88
BRANCH  81  94
ATOM     94  C   UNL A   1      42.563  26.647  34.334  1.00  0.00    -0.014 A 
ATOM     95  C   UNL A   1      41.579  26.042  35.127  1.00  0.00     0.009 A 
ATOM     96  C   UNL A   1      43.644  25.832  33.929  1.00  0.00     0.009 A 
ATOM     97  C   UNL A   1      41.691  24.703  35.529  1.00  0.00     0.001 A 
ATOM     98  C   UNL A   1      43.735  24.485  34.289  1.00  0.00     0.001 A 
ATOM     99  C   UNL A   1      42.762  23.923  35.101  1.00  0.00     0.000 A 
ENDBRANCH  81  94
ENDBRANCH  55  56
ENDBRANCH  47  50
ENDBRANCH  45  46
ENDBRANCH  44  45
ENDBRANCH  43  44
ENDBRANCH   1  43
TORSDOF 18
ENDMDL
MODEL 3
REMARK VINA RESULT:     -13.0      1.842      2.904
REMARK SMILES Cc1ccc(S(=O)(=O)n2cc(C(=O)C(=O)N[C@@H](Cc3c[nH]c4ccccc34)C(=O)NCCCCNC(=O)c3ccc(-c4c5nc(c(-c6ccccc6)c6ccc([nH]6)c(-c6ccccc6)c6nc(c(-c7ccccc7)c7ccc4[nH]7)C=C6)C=C5)cc3)c3ccccc32)cc1
REMARK SMILES IDX 31 1 30 2 28 3 29 4 17 6 16 7 14 8 15 9 12 11 13 12 11 13
REMARK SMILES IDX 9 14 10 15 91 16 86 17 90 18 87 19 89 20 88 21 6 22 7 23
REMARK SMILES IDX 8 24 5 25 1 26 2 27 3 28 93 29 4 30 92 31 18 32 19 33 20 34
REMARK SMILES IDX 27 35 21 36 22 37 26 38 23 40 25 41 24 42 32 43 33 44 34 45
REMARK SMILES IDX 35 46 36 47 37 49 38 50 39 51 85 52 40 53 84 54 41 55 42 56
REMARK SMILES IDX 43 57 78 58 44 59 83 60 77 61 79 62 45 63 82 64 76 65 75 66
REMARK SMILES IDX 46 68 68 69 53 70 67 71 54 72 57 73 66 74 80 75 55 76 56 77
REMARK SMILES IDX 65 79 81 80 58 81 47 82 48 83 52 84 49 85 51 86 50 87 69 88
REMARK SMILES IDX 70 89 74 90 71 91 73 92 72 93 59 94 60 95 64 96 61 97 63 98
REMARK SMILES IDX 62 99
REMARK H PARENT 30 5 16 10 21 39 35 48 79 67 57 78
REMARK Flexibility Score: inf
ROOT
ATOM      1  C   UNL A   1      34.752  30.645  27.684  1.00  0.00     0.116 C 
ENDROOT
BRANCH   1   2
ATOM      2  N   UNL A   1      33.525  31.236  27.201  1.00  0.00    -0.354 N 
ATOM      3  C   UNL A   1      32.459  30.599  26.617  1.00  0.00     0.242 C 
ATOM      4  O   UNL A   1      31.344  31.096  26.821  1.00  0.00    -0.273 OA
ATOM      5  H   UNL A   1      33.445  32.213  27.303  1.00  0.00     0.163 HD
BRANCH   3   6
ATOM      6  C   UNL A   1      32.578  29.244  25.854  1.00  0.00     0.176 C 
BRANCH   6   7
ATOM      7  N   UNL A   1      31.899  28.095  26.498  1.00  0.00    -0.337 N 
ATOM      8  C   UNL A   1      32.161  26.732  26.448  1.00  0.00     0.293 C 
ATOM      9  O   UNL A   1      31.394  25.935  26.979  1.00  0.00    -0.265 OA
ATOM     10  H   UNL A   1      31.128  28.341  27.060  1.00  0.00     0.164 HD
BRANCH   8  11
ATOM     11  C   UNL A   1      33.425  26.204  25.762  1.00  0.00     0.252 C 
ATOM     12  O   UNL A   1      34.408  26.942  25.830  1.00  0.00    -0.283 OA
BRANCH  11  13
ATOM     13  C   UNL A   1      33.450  24.956  24.970  1.00  0.00     0.054 A 
ATOM     14  N   UNL A   1      33.151  23.261  23.485  1.00  0.00    -0.240 N 
ATOM     15  C   UNL A   1      32.686  24.522  23.875  1.00  0.00     0.117 A 
ATOM     16  C   UNL A   1      34.335  23.015  24.202  1.00  0.00     0.065 A 
ATOM     17  C   UNL A   1      34.283  23.847  25.318  1.00  0.00     0.012 A 
ATOM     18  C   UNL A   1      35.261  21.955  24.121  1.00  0.00     0.028 A 
ATOM     19  C   UNL A   1      35.028  23.487  26.461  1.00  0.00     0.011 A 
ATOM     20  C   UNL A   1      35.929  21.578  25.284  1.00  0.00     0.002 A 
ATOM     21  C   UNL A   1      35.780  22.309  26.454  1.00  0.00     0.001 A 
BRANCH  14  22
ATOM     22  S   UNL A   1      32.197  21.798  23.329  1.00  0.00     0.268 S 
ATOM     23  O   UNL A   1      32.195  21.559  21.895  1.00  0.00    -0.201 OA
ATOM     24  O   UNL A   1      30.972  22.156  24.033  1.00  0.00    -0.201 OA
BRANCH  22  25
ATOM     25  C   UNL A   1      32.535  20.231  24.051  1.00  0.00     0.088 A 
ATOM     26  C   UNL A   1      32.931  16.009  24.907  1.00  0.00     0.044 C 
ATOM     27  C   UNL A   1      32.847  17.486  24.642  1.00  0.00    -0.051 A 
ATOM     28  C   UNL A   1      32.713  17.888  23.322  1.00  0.00     0.005 A 
ATOM     29  C   UNL A   1      32.840  18.469  25.659  1.00  0.00     0.005 A 
ATOM     30  C   UNL A   1      32.574  19.236  23.039  1.00  0.00     0.022 A 
ATOM     31  C   UNL A   1      32.679  19.852  25.373  1.00  0.00     0.022 A 
ENDBRANCH  22  25
ENDBRANCH  14  22
ENDBRANCH  11  13
ENDBRANCH   8  11
ENDBRANCH   6   7
BRANCH   6  32
ATOM     32  C   UNL A   1      32.287  29.385  24.319  1.00  0.00     0.072 C 
BRANCH  32  33
ATOM     33  C   UNL A   1      30.905  29.027  23.819  1.00  0.00    -0.020 A 
ATOM     34  C   UNL A   1      30.502  27.794  23.331  1.00  0.00     0.087 A 
ATOM     35  C   UNL A   1      29.767  29.898  23.685  1.00  0.00     0.003 A 
ATOM     36  N   UNL A   1      29.237  27.924  22.817  1.00  0.00    -0.361 N 
ATOM     37  C   UNL A   1      28.843  29.238  22.873  1.00  0.00     0.046 A 
ATOM     38  C   UNL A   1      29.507  31.238  24.033  1.00  0.00     0.010 A 
ATOM     39  H   UNL A   1      28.694  27.185  22.459  1.00  0.00     0.166 HD
ATOM     40  C   UNL A   1      27.768  29.891  22.262  1.00  0.00     0.026 A 
ATOM     41  C   UNL A   1      28.446  31.913  23.421  1.00  0.00     0.001 A 
ATOM     42  C   UNL A   1      27.610  31.255  22.521  1.00  0.00     0.002 A 
ENDBRANCH  32  33
ENDBRANCH   6  32
ENDBRANCH   3   6
ENDBRANCH   1   2
BRANCH   1  43
ATOM     43  C   UNL A   1      35.885  31.599  28.041  1.00  0.00     0.023 C 
BRANCH  43  44
ATOM     44  C   UNL A   1      35.508  32.819  28.871  1.00  0.00     0.023 C 
BRANCH  44  45
ATOM     45  C   UNL A   1      34.578  32.555  30.049  1.00  0.00     0.116 C 
BRANCH  45  46
ATOM     46  N   UNL A   1      34.111  33.724  30.778  1.00  0.00    -0.352 N 
ATOM     47  C   UNL A   1      34.657  34.367  31.885  1.00  0.00     0.251 C 
ATOM     48  H   UNL A   1      33.278  34.121  30.435  1.00  0.00     0.163 HD
ATOM     49  O   UNL A   1      34.037  35.273  32.408  1.00  0.00    -0.269 OA
BRANCH  47  50
ATOM     50  C   UNL A   1      36.049  34.066  32.345  1.00  0.00     0.039 A 
ATOM     51  C   UNL A   1      37.112  34.633  31.623  1.00  0.00     0.014 A 
ATOM     52  C   UNL A   1      36.331  33.113  33.317  1.00  0.00     0.014 A 
ATOM     53  C   UNL A   1      38.379  34.052  31.678  1.00  0.00     0.010 A 
ATOM     54  C   UNL A   1      37.544  32.460  33.292  1.00  0.00     0.010 A 
ATOM     55  C   UNL A   1      38.541  32.885  32.414  1.00  0.00    -0.014 A 
BRANCH  55  56
ATOM     56  C   UNL A   1      39.628  31.938  32.219  1.00  0.00     0.031 A 
ATOM     57  C   UNL A   1      39.447  30.732  31.399  1.00  0.00     0.074 A 
ATOM     58  C   UNL A   1      40.856  32.300  32.650  1.00  0.00     0.049 A 
ATOM     59  N   UNL A   1      40.251  29.727  31.414  1.00  0.00    -0.248 NA
ATOM     60  C   UNL A   1      38.289  30.536  30.532  1.00  0.00     0.031 C 
ATOM     61  C   UNL A   1      42.154  31.765  32.254  1.00  0.00     0.029 A 
ATOM     62  N   UNL A   1      41.148  33.176  33.696  1.00  0.00    -0.354 N 
ATOM     63  C   UNL A   1      39.909  28.918  30.357  1.00  0.00     0.074 A 
ATOM     64  C   UNL A   1      38.606  29.379  29.942  1.00  0.00     0.031 C 
ATOM     65  C   UNL A   1      43.067  32.119  33.176  1.00  0.00     0.029 A 
ATOM     66  C   UNL A   1      42.345  32.727  34.283  1.00  0.00     0.049 A 
ATOM     67  H   UNL A   1      40.618  33.960  33.970  1.00  0.00     0.167 HD
ATOM     68  C   UNL A   1      40.839  28.059  29.856  1.00  0.00     0.031 A 
ATOM     69  C   UNL A   1      42.342  32.223  35.555  1.00  0.00     0.031 A 
ATOM     70  C   UNL A   1      42.026  27.999  30.712  1.00  0.00     0.049 A 
ATOM     71  C   UNL A   1      42.719  30.757  35.642  1.00  0.00     0.074 A 
ATOM     72  C   UNL A   1      43.304  28.520  30.598  1.00  0.00     0.029 A 
ATOM     73  N   UNL A   1      41.892  27.566  32.027  1.00  0.00    -0.354 N 
ATOM     74  N   UNL A   1      42.714  29.941  34.625  1.00  0.00    -0.248 NA
ATOM     75  C   UNL A   1      43.087  30.089  36.888  1.00  0.00     0.031 C 
ATOM     76  C   UNL A   1      43.897  28.500  31.891  1.00  0.00     0.029 A 
ATOM     77  C   UNL A   1      42.999  27.923  32.772  1.00  0.00     0.049 A 
ATOM     78  H   UNL A   1      41.115  27.074  32.379  1.00  0.00     0.167 HD
ATOM     79  C   UNL A   1      43.036  28.678  35.047  1.00  0.00     0.074 A 
ATOM     80  C   UNL A   1      43.279  28.825  36.471  1.00  0.00     0.031 C 
ATOM     81  C   UNL A   1      43.051  27.612  34.195  1.00  0.00     0.031 A 
BRANCH  68  82
ATOM     82  C   UNL A   1      40.795  27.455  28.468  1.00  0.00    -0.014 A 
ATOM     83  C   UNL A   1      40.175  26.206  28.279  1.00  0.00     0.009 A 
ATOM     84  C   UNL A   1      41.419  27.998  27.330  1.00  0.00     0.009 A 
ATOM     85  C   UNL A   1      40.210  25.531  27.049  1.00  0.00     0.001 A 
ATOM     86  C   UNL A   1      41.445  27.340  26.091  1.00  0.00     0.001 A 
ATOM     87  C   UNL A   1      40.848  26.098  25.954  1.00  0.00     0.000 A 
ENDBRANCH  68  82
BRANCH  69  88
ATOM     88  C   UNL A   1      41.349  32.877  36.454  1.00  0.00    -0.014 A 
ATOM     89  C   UNL A   1      41.578  34.204  36.866  1.00  0.00     0.009 A 
ATOM     90  C   UNL A   1      40.058  32.346  36.594  1.00  0.00     0.009 A 
ATOM     91  C   UNL A   1      40.520  35.009  37.301  1.00  0.00     0.001 A 
ATOM     92  C   UNL A   1      39.003  33.155  37.033  1.00  0.00     0.001 A 
ATOM     93  C   UNL A   1      39.226  34.494  37.350  1.00  0.00     0.000 A 
ENDBRANCH  69  88
BRANCH  81  94
ATOM     94  C   UNL A   1      43.153  26.166  34.606  1.00  0.00    -0.014 A 
ATOM     95  C   UNL A   1      42.106  25.437  35.185  1.00  0.00     0.009 A 
ATOM     96  C   UNL A   1      44.317  25.442  34.258  1.00  0.00     0.009 A 
ATOM     97  C   UNL A   1      42.231  24.063  35.441  1.00  0.00     0.001 A 
ATOM     98  C   UNL A   1      44.427  24.066  34.469  1.00  0.00     0.001 A 
ATOM     99  C   UNL A   1      43.385  23.377  35.073  1.00  0.00     0.000 A 
ENDBRANCH  81  94
ENDBRANCH  55  56
ENDBRANCH  47  50
ENDBRANCH  45  46
ENDBRANCH  44  45
ENDBRANCH  43  44
ENDBRANCH   1  43
TORSDOF 18
ENDMDL
