MODEL 1
REMARK VINA RESULT:     -12.9      0.000      0.000
REMARK SMILES Cc1cccc(C(=O)Nc2cc(C(=O)NCCCCNC(=O)c3ccc(-c4c5nc(c(-c6ccccc6)c6ccc([nH]6)c(-c6ccccc6)c6nc(c(-c7ccccc7)c7ccc4[nH]7)C=C6)C=C5)cc3)ccc2N2CC[NH+](CC(=O)NC(C)(C)C)CC2)c1
REMARK SMILES IDX 16 1 15 2 13 3 14 4 12 6 10 7 11 8 73 9 72 10 71 11 9 12
REMARK SMILES IDX 7 13 8 14 6 16 1 17 2 18 3 19 88 20 4 21 5 22 74 23 75 24
REMARK SMILES IDX 87 25 76 26 86 27 77 28 78 30 79 31 80 32 81 33 82 35 83 36
REMARK SMILES IDX 84 37 85 38 17 39 18 40 19 41 20 42 21 43 22 45 23 46 24 47
REMARK SMILES IDX 70 48 25 49 69 50 26 51 27 52 28 53 63 54 29 55 68 56 62 57
REMARK SMILES IDX 64 58 30 59 67 60 61 61 60 62 31 64 53 65 38 66 52 67 39 68
REMARK SMILES IDX 42 69 51 70 65 71 40 72 41 73 50 75 66 76 43 77 32 78 33 79
REMARK SMILES IDX 37 80 34 81 36 82 35 83 54 84 55 85 59 86 56 87 58 88 57 89
REMARK SMILES IDX 44 90 45 91 49 92 46 93 48 94 47 95
REMARK H PARENT 15 5 9 15 77 29 81 34 20 44 64 63 42 74
REMARK Flexibility Score: inf
ROOT
ATOM      1  C   UNL A   1      34.212  31.329  27.935  1.00  0.00     0.116 C 
ENDROOT
BRANCH   1   2
ATOM      2  N   UNL A   1      33.061  31.888  27.238  1.00  0.00    -0.352 N 
ATOM      3  C   UNL A   1      31.955  31.343  26.622  1.00  0.00     0.251 C 
ATOM      4  O   UNL A   1      31.080  32.129  26.256  1.00  0.00    -0.269 OA
ATOM      5  H   UNL A   1      33.076  32.872  27.199  1.00  0.00     0.163 HD
BRANCH   3   6
ATOM      6  C   UNL A   1      31.737  29.882  26.391  1.00  0.00     0.042 A 
ATOM      7  C   UNL A   1      31.513  27.950  24.958  1.00  0.00     0.065 A 
ATOM      8  C   UNL A   1      31.551  29.327  25.140  1.00  0.00     0.042 A 
ATOM      9  C   UNL A   1      31.503  27.042  26.040  1.00  0.00     0.061 A 
ATOM     10  C   UNL A   1      31.606  27.602  27.314  1.00  0.00     0.029 A 
ATOM     11  C   UNL A   1      31.758  28.997  27.485  1.00  0.00     0.016 A 
BRANCH   7  12
ATOM     12  N   UNL A   1      31.571  27.452  23.644  1.00  0.00    -0.320 N 
ATOM     13  C   UNL A   1      30.765  27.809  22.577  1.00  0.00     0.255 C 
ATOM     14  O   UNL A   1      31.055  27.415  21.445  1.00  0.00    -0.269 OA
ATOM     15  H   UNL A   1      32.262  26.773  23.464  1.00  0.00     0.170 HD
BRANCH  13  16
ATOM     16  C   UNL A   1      29.573  28.695  22.733  1.00  0.00     0.040 A 
ATOM     17  C   UNL A   1      28.518  32.362  23.014  1.00  0.00     0.044 C 
ATOM     18  C   UNL A   1      28.461  30.862  22.949  1.00  0.00    -0.050 A 
ATOM     19  C   UNL A   1      27.298  30.205  23.348  1.00  0.00     0.003 A 
ATOM     20  C   UNL A   1      29.579  30.095  22.578  1.00  0.00     0.017 A 
ATOM     21  C   UNL A   1      27.266  28.813  23.406  1.00  0.00     0.001 A 
ATOM     22  C   UNL A   1      28.391  28.058  23.103  1.00  0.00     0.014 A 
ENDBRANCH  13  16
ENDBRANCH   7  12
BRANCH   9  23
ATOM     23  N   UNL A   1      31.529  25.679  25.802  1.00  0.00    -0.359 N 
ATOM     24  C   UNL A   1      30.406  24.751  25.995  1.00  0.00     0.178 C 
ATOM     25  C   UNL A   1      32.821  25.012  25.973  1.00  0.00     0.178 C 
ATOM     26  C   UNL A   1      30.612  23.457  25.125  1.00  0.00     0.284 C 
ATOM     27  C   UNL A   1      32.968  23.971  24.852  1.00  0.00     0.284 C 
ATOM     28  N   UNL A   1      31.976  22.899  24.943  1.00  0.00    -0.324 N 
ATOM     29  H   UNL A   1      31.928  22.411  24.049  1.00  0.00     0.348 HD
BRANCH  28  30
ATOM     30  C   UNL A   1      32.384  21.805  25.843  1.00  0.00     0.363 C 
BRANCH  30  31
ATOM     31  C   UNL A   1      32.981  20.577  25.165  1.00  0.00     0.275 C 
ATOM     32  O   UNL A   1      32.246  19.624  24.870  1.00  0.00    -0.268 OA
ATOM     33  N   UNL A   1      34.300  20.427  24.857  1.00  0.00    -0.347 N 
ATOM     34  H   UNL A   1      34.429  19.614  24.318  1.00  0.00     0.164 HD
BRANCH  33  35
ATOM     35  C   UNL A   1      35.609  21.108  25.079  1.00  0.00     0.032 C 
ATOM     36  C   UNL A   1      36.789  20.123  24.951  1.00  0.00     0.034 C 
ATOM     37  C   UNL A   1      35.769  22.117  23.919  1.00  0.00     0.034 C 
ATOM     38  C   UNL A   1      35.722  21.892  26.389  1.00  0.00     0.034 C 
ENDBRANCH  33  35
ENDBRANCH  30  31
ENDBRANCH  28  30
ENDBRANCH   9  23
ENDBRANCH   3   6
ENDBRANCH   1   2
BRANCH   1  39
ATOM     39  C   UNL A   1      35.438  32.259  27.957  1.00  0.00     0.023 C 
BRANCH  39  40
ATOM     40  C   UNL A   1      35.630  33.009  29.271  1.00  0.00     0.023 C 
BRANCH  40  41
ATOM     41  C   UNL A   1      34.585  32.661  30.318  1.00  0.00     0.116 C 
BRANCH  41  42
ATOM     42  N   UNL A   1      34.016  33.797  31.029  1.00  0.00    -0.352 N 
ATOM     43  C   UNL A   1      34.475  34.446  32.167  1.00  0.00     0.251 C 
ATOM     44  H   UNL A   1      33.184  34.158  30.647  1.00  0.00     0.163 HD
ATOM     45  O   UNL A   1      33.819  35.345  32.663  1.00  0.00    -0.269 OA
BRANCH  43  46
ATOM     46  C   UNL A   1      35.837  34.151  32.693  1.00  0.00     0.039 A 
ATOM     47  C   UNL A   1      36.918  34.835  32.118  1.00  0.00     0.014 A 
ATOM     48  C   UNL A   1      36.075  33.079  33.545  1.00  0.00     0.014 A 
ATOM     49  C   UNL A   1      38.190  34.272  32.169  1.00  0.00     0.010 A 
ATOM     50  C   UNL A   1      37.299  32.449  33.489  1.00  0.00     0.010 A 
ATOM     51  C   UNL A   1      38.332  33.008  32.735  1.00  0.00    -0.014 A 
BRANCH  51  52
ATOM     52  C   UNL A   1      39.454  32.125  32.455  1.00  0.00     0.031 A 
ATOM     53  C   UNL A   1      39.284  30.938  31.604  1.00  0.00     0.074 A 
ATOM     54  C   UNL A   1      40.685  32.478  32.887  1.00  0.00     0.049 A 
ATOM     55  N   UNL A   1      40.071  29.916  31.623  1.00  0.00    -0.248 NA
ATOM     56  C   UNL A   1      38.156  30.784  30.695  1.00  0.00     0.031 C 
ATOM     57  C   UNL A   1      41.971  31.934  32.459  1.00  0.00     0.029 A 
ATOM     58  N   UNL A   1      41.003  33.263  33.993  1.00  0.00    -0.354 N 
ATOM     59  C   UNL A   1      39.755  29.140  30.534  1.00  0.00     0.074 A 
ATOM     60  C   UNL A   1      38.495  29.663  30.054  1.00  0.00     0.031 C 
ATOM     61  C   UNL A   1      42.865  32.134  33.440  1.00  0.00     0.029 A 
ATOM     62  C   UNL A   1      42.142  32.689  34.572  1.00  0.00     0.049 A 
ATOM     63  H   UNL A   1      40.521  34.062  34.306  1.00  0.00     0.167 HD
ATOM     64  C   UNL A   1      40.670  28.251  30.055  1.00  0.00     0.031 A 
ATOM     65  C   UNL A   1      42.208  32.251  35.860  1.00  0.00     0.031 A 
ATOM     66  C   UNL A   1      41.861  28.187  30.905  1.00  0.00     0.049 A 
ATOM     67  C   UNL A   1      42.610  30.799  35.917  1.00  0.00     0.074 A 
ATOM     68  C   UNL A   1      43.133  28.725  30.786  1.00  0.00     0.029 A 
ATOM     69  N   UNL A   1      41.742  27.753  32.224  1.00  0.00    -0.354 N 
ATOM     70  N   UNL A   1      42.472  29.983  34.908  1.00  0.00    -0.248 NA
ATOM     71  C   UNL A   1      43.177  30.149  37.092  1.00  0.00     0.031 C 
ATOM     72  C   UNL A   1      43.751  28.678  32.063  1.00  0.00     0.029 A 
ATOM     73  C   UNL A   1      42.871  28.082  32.950  1.00  0.00     0.049 A 
ATOM     74  H   UNL A   1      40.961  27.278  32.588  1.00  0.00     0.167 HD
ATOM     75  C   UNL A   1      42.959  28.753  35.248  1.00  0.00     0.074 A 
ATOM     76  C   UNL A   1      43.371  28.899  36.634  1.00  0.00     0.031 C 
ATOM     77  C   UNL A   1      42.991  27.721  34.358  1.00  0.00     0.031 A 
BRANCH  64  78
ATOM     78  C   UNL A   1      40.608  27.696  28.648  1.00  0.00    -0.014 A 
ATOM     79  C   UNL A   1      40.131  26.390  28.430  1.00  0.00     0.009 A 
ATOM     80  C   UNL A   1      41.064  28.374  27.505  1.00  0.00     0.009 A 
ATOM     81  C   UNL A   1      40.210  25.766  27.176  1.00  0.00     0.001 A 
ATOM     82  C   UNL A   1      41.188  27.746  26.258  1.00  0.00     0.001 A 
ATOM     83  C   UNL A   1      40.770  26.433  26.096  1.00  0.00     0.000 A 
ENDBRANCH  64  78
BRANCH  65  84
ATOM     84  C   UNL A   1      41.271  32.930  36.795  1.00  0.00    -0.014 A 
ATOM     85  C   UNL A   1      41.688  34.146  37.374  1.00  0.00     0.009 A 
ATOM     86  C   UNL A   1      39.900  32.637  36.776  1.00  0.00     0.009 A 
ATOM     87  C   UNL A   1      40.756  35.103  37.786  1.00  0.00     0.001 A 
ATOM     88  C   UNL A   1      38.970  33.593  37.208  1.00  0.00     0.001 A 
ATOM     89  C   UNL A   1      39.395  34.838  37.671  1.00  0.00     0.000 A 
ENDBRANCH  65  84
BRANCH  77  90
ATOM     90  C   UNL A   1      43.227  26.277  34.711  1.00  0.00    -0.014 A 
ATOM     91  C   UNL A   1      42.234  25.421  35.206  1.00  0.00     0.009 A 
ATOM     92  C   UNL A   1      44.470  25.689  34.387  1.00  0.00     0.009 A 
ATOM     93  C   UNL A   1      42.482  24.057  35.409  1.00  0.00     0.001 A 
ATOM     94  C   UNL A   1      44.706  24.321  34.542  1.00  0.00     0.001 A 
ATOM     95  C   UNL A   1      43.713  23.507  35.065  1.00  0.00     0.000 A 
ENDBRANCH  77  90
ENDBRANCH  51  52
ENDBRANCH  43  46
ENDBRANCH  41  42
ENDBRANCH  40  41
ENDBRANCH  39  40
ENDBRANCH   1  39
TORSDOF 17
ENDMDL
MODEL 2
REMARK VINA RESULT:     -12.1      4.610     10.553
REMARK SMILES Cc1cccc(C(=O)Nc2cc(C(=O)NCCCCNC(=O)c3ccc(-c4c5nc(c(-c6ccccc6)c6ccc([nH]6)c(-c6ccccc6)c6nc(c(-c7ccccc7)c7ccc4[nH]7)C=C6)C=C5)cc3)ccc2N2CC[NH+](CC(=O)NC(C)(C)C)CC2)c1
REMARK SMILES IDX 16 1 15 2 13 3 14 4 12 6 10 7 11 8 73 9 72 10 71 11 9 12
REMARK SMILES IDX 7 13 8 14 6 16 1 17 2 18 3 19 88 20 4 21 5 22 74 23 75 24
REMARK SMILES IDX 87 25 76 26 86 27 77 28 78 30 79 31 80 32 81 33 82 35 83 36
REMARK SMILES IDX 84 37 85 38 17 39 18 40 19 41 20 42 21 43 22 45 23 46 24 47
REMARK SMILES IDX 70 48 25 49 69 50 26 51 27 52 28 53 63 54 29 55 68 56 62 57
REMARK SMILES IDX 64 58 30 59 67 60 61 61 60 62 31 64 53 65 38 66 52 67 39 68
REMARK SMILES IDX 42 69 51 70 65 71 40 72 41 73 50 75 66 76 43 77 32 78 33 79
REMARK SMILES IDX 37 80 34 81 36 82 35 83 54 84 55 85 59 86 56 87 58 88 57 89
REMARK SMILES IDX 44 90 45 91 49 92 46 93 48 94 47 95
REMARK H PARENT 15 5 9 15 77 29 81 34 20 44 64 63 42 74
REMARK Flexibility Score: inf
ROOT
ATOM      1  C   UNL A   1      39.477  22.695  26.577  1.00  0.00     0.116 C 
ENDROOT
BRANCH   1   2
ATOM      2  N   UNL A   1      38.846  21.534  25.963  1.00  0.00    -0.352 N 
ATOM      3  C   UNL A   1      37.729  21.355  25.176  1.00  0.00     0.251 C 
ATOM      4  O   UNL A   1      37.564  20.232  24.695  1.00  0.00    -0.269 OA
ATOM      5  H   UNL A   1      39.322  20.693  26.152  1.00  0.00     0.163 HD
BRANCH   3   6
ATOM      6  C   UNL A   1      36.729  22.418  24.853  1.00  0.00     0.042 A 
ATOM      7  C   UNL A   1      34.795  23.251  23.669  1.00  0.00     0.065 A 
ATOM      8  C   UNL A   1      35.806  22.311  23.830  1.00  0.00     0.042 A 
ATOM      9  C   UNL A   1      34.738  24.442  24.426  1.00  0.00     0.061 A 
ATOM     10  C   UNL A   1      35.720  24.596  25.405  1.00  0.00     0.029 A 
ATOM     11  C   UNL A   1      36.678  23.583  25.640  1.00  0.00     0.016 A 
BRANCH   7  12
ATOM     12  N   UNL A   1      33.750  22.955  22.775  1.00  0.00    -0.320 N 
ATOM     13  C   UNL A   1      32.847  21.908  22.859  1.00  0.00     0.255 C 
ATOM     14  O   UNL A   1      31.879  21.886  22.097  1.00  0.00    -0.269 OA
ATOM     15  H   UNL A   1      33.650  23.559  22.004  1.00  0.00     0.170 HD
BRANCH  13  16
ATOM     16  C   UNL A   1      32.974  20.819  23.873  1.00  0.00     0.040 A 
ATOM     17  C   UNL A   1      32.997  17.015  24.273  1.00  0.00     0.044 C 
ATOM     18  C   UNL A   1      33.047  18.482  24.589  1.00  0.00    -0.050 A 
ATOM     19  C   UNL A   1      32.902  18.902  25.911  1.00  0.00     0.003 A 
ATOM     20  C   UNL A   1      33.148  19.453  23.578  1.00  0.00     0.017 A 
ATOM     21  C   UNL A   1      32.828  20.260  26.209  1.00  0.00     0.001 A 
ATOM     22  C   UNL A   1      32.862  21.217  25.203  1.00  0.00     0.014 A 
ENDBRANCH  13  16
ENDBRANCH   7  12
BRANCH   9  23
ATOM     23  N   UNL A   1      33.674  25.313  24.269  1.00  0.00    -0.359 N 
ATOM     24  C   UNL A   1      33.728  26.628  23.613  1.00  0.00     0.178 C 
ATOM     25  C   UNL A   1      32.633  25.261  25.297  1.00  0.00     0.178 C 
ATOM     26  C   UNL A   1      32.293  27.057  23.134  1.00  0.00     0.284 C 
ATOM     27  C   UNL A   1      31.272  25.414  24.599  1.00  0.00     0.284 C 
ATOM     28  N   UNL A   1      31.107  26.721  23.961  1.00  0.00    -0.324 N 
ATOM     29  H   UNL A   1      30.341  26.671  23.290  1.00  0.00     0.348 HD
BRANCH  28  30
ATOM     30  C   UNL A   1      30.610  27.758  24.884  1.00  0.00     0.363 C 
BRANCH  30  31
ATOM     31  C   UNL A   1      31.028  29.187  24.560  1.00  0.00     0.275 C 
ATOM     32  O   UNL A   1      32.042  29.662  25.089  1.00  0.00    -0.268 OA
ATOM     33  N   UNL A   1      30.351  30.020  23.720  1.00  0.00    -0.347 N 
ATOM     34  H   UNL A   1      30.871  30.843  23.572  1.00  0.00     0.164 HD
BRANCH  33  35
ATOM     35  C   UNL A   1      29.072  30.078  22.955  1.00  0.00     0.032 C 
ATOM     36  C   UNL A   1      28.250  28.784  23.126  1.00  0.00     0.034 C 
ATOM     37  C   UNL A   1      28.234  31.202  23.605  1.00  0.00     0.034 C 
ATOM     38  C   UNL A   1      29.216  30.413  21.468  1.00  0.00     0.034 C 
ENDBRANCH  33  35
ENDBRANCH  30  31
ENDBRANCH  28  30
ENDBRANCH   9  23
ENDBRANCH   3   6
ENDBRANCH   1   2
BRANCH   1  39
ATOM     39  C   UNL A   1      40.617  22.343  27.549  1.00  0.00     0.023 C 
BRANCH  39  40
ATOM     40  C   UNL A   1      41.701  21.455  26.948  1.00  0.00     0.023 C 
BRANCH  40  41
ATOM     41  C   UNL A   1      42.322  22.039  25.689  1.00  0.00     0.116 C 
BRANCH  41  42
ATOM     42  N   UNL A   1      43.353  21.219  25.068  1.00  0.00    -0.352 N 
ATOM     43  C   UNL A   1      44.700  21.491  24.876  1.00  0.00     0.251 C 
ATOM     44  H   UNL A   1      43.050  20.343  24.736  1.00  0.00     0.163 HD
ATOM     45  O   UNL A   1      45.401  20.701  24.266  1.00  0.00    -0.269 OA
BRANCH  43  46
ATOM     46  C   UNL A   1      45.324  22.668  25.543  1.00  0.00     0.039 A 
ATOM     47  C   UNL A   1      45.572  22.578  26.919  1.00  0.00     0.014 A 
ATOM     48  C   UNL A   1      45.442  23.894  24.900  1.00  0.00     0.014 A 
ATOM     49  C   UNL A   1      45.651  23.742  27.679  1.00  0.00     0.010 A 
ATOM     50  C   UNL A   1      45.386  25.045  25.655  1.00  0.00     0.010 A 
ATOM     51  C   UNL A   1      45.412  24.960  27.048  1.00  0.00    -0.014 A 
BRANCH  51  52
ATOM     52  C   UNL A   1      45.011  26.165  27.758  1.00  0.00     0.031 A 
ATOM     53  C   UNL A   1      43.598  26.570  27.817  1.00  0.00     0.074 A 
ATOM     54  C   UNL A   1      45.939  26.844  28.468  1.00  0.00     0.049 A 
ATOM     55  N   UNL A   1      43.200  27.774  28.057  1.00  0.00    -0.248 NA
ATOM     56  C   UNL A   1      42.509  25.642  27.542  1.00  0.00     0.031 C 
ATOM     57  C   UNL A   1      45.713  27.862  29.490  1.00  0.00     0.029 A 
ATOM     58  N   UNL A   1      47.311  26.903  28.231  1.00  0.00    -0.354 N 
ATOM     59  C   UNL A   1      41.846  27.714  28.286  1.00  0.00     0.074 A 
ATOM     60  C   UNL A   1      41.449  26.394  27.851  1.00  0.00     0.031 C 
ATOM     61  C   UNL A   1      46.806  28.638  29.567  1.00  0.00     0.029 A 
ATOM     62  C   UNL A   1      47.703  28.220  28.502  1.00  0.00     0.049 A 
ATOM     63  H   UNL A   1      47.890  26.165  27.931  1.00  0.00     0.167 HD
ATOM     64  C   UNL A   1      41.238  28.723  28.972  1.00  0.00     0.031 A 
ATOM     65  C   UNL A   1      48.315  29.038  27.601  1.00  0.00     0.031 A 
ATOM     66  C   UNL A   1      42.166  29.818  29.263  1.00  0.00     0.049 A 
ATOM     67  C   UNL A   1      47.535  30.314  27.412  1.00  0.00     0.074 A 
ATOM     68  C   UNL A   1      42.853  30.191  30.408  1.00  0.00     0.029 A 
ATOM     69  N   UNL A   1      42.741  30.529  28.212  1.00  0.00    -0.354 N 
ATOM     70  N   UNL A   1      46.269  30.423  27.706  1.00  0.00    -0.248 NA
ATOM     71  C   UNL A   1      48.096  31.548  26.876  1.00  0.00     0.031 C 
ATOM     72  C   UNL A   1      43.895  31.076  30.025  1.00  0.00     0.029 A 
ATOM     73  C   UNL A   1      43.821  31.269  28.656  1.00  0.00     0.049 A 
ATOM     74  H   UNL A   1      42.422  30.508  27.281  1.00  0.00     0.167 HD
ATOM     75  C   UNL A   1      45.855  31.702  27.466  1.00  0.00     0.074 A 
ATOM     76  C   UNL A   1      47.029  32.366  26.926  1.00  0.00     0.031 C 
ATOM     77  C   UNL A   1      44.583  32.110  27.741  1.00  0.00     0.031 A 
BRANCH  64  78
ATOM     78  C   UNL A   1      39.896  28.552  29.652  1.00  0.00    -0.014 A 
ATOM     79  C   UNL A   1      38.759  29.193  29.127  1.00  0.00     0.009 A 
ATOM     80  C   UNL A   1      39.693  27.835  30.843  1.00  0.00     0.009 A 
ATOM     81  C   UNL A   1      37.531  29.209  29.806  1.00  0.00     0.001 A 
ATOM     82  C   UNL A   1      38.484  27.881  31.552  1.00  0.00     0.001 A 
ATOM     83  C   UNL A   1      37.403  28.580  31.037  1.00  0.00     0.000 A 
ENDBRANCH  64  78
BRANCH  65  84
ATOM     84  C   UNL A   1      49.089  28.329  26.547  1.00  0.00    -0.014 A 
ATOM     85  C   UNL A   1      50.369  27.844  26.887  1.00  0.00     0.009 A 
ATOM     86  C   UNL A   1      48.445  27.783  25.428  1.00  0.00     0.009 A 
ATOM     87  C   UNL A   1      50.922  26.746  26.221  1.00  0.00     0.001 A 
ATOM     88  C   UNL A   1      49.012  26.694  24.751  1.00  0.00     0.001 A 
ATOM     89  C   UNL A   1      50.226  26.150  25.173  1.00  0.00     0.000 A 
ENDBRANCH  65  84
BRANCH  77  90
ATOM     90  C   UNL A   1      43.955  33.387  27.248  1.00  0.00    -0.014 A 
ATOM     91  C   UNL A   1      43.641  34.473  28.074  1.00  0.00     0.009 A 
ATOM     92  C   UNL A   1      43.812  33.584  25.856  1.00  0.00     0.009 A 
ATOM     93  C   UNL A   1      43.165  35.679  27.543  1.00  0.00     0.001 A 
ATOM     94  C   UNL A   1      43.384  34.800  25.320  1.00  0.00     0.001 A 
ATOM     95  C   UNL A   1      43.050  35.846  26.167  1.00  0.00     0.000 A 
ENDBRANCH  77  90
ENDBRANCH  51  52
ENDBRANCH  43  46
ENDBRANCH  41  42
ENDBRANCH  40  41
ENDBRANCH  39  40
ENDBRANCH   1  39
TORSDOF 17
ENDMDL
MODEL 3
REMARK VINA RESULT:     -11.9      1.916      2.998
REMARK SMILES Cc1cccc(C(=O)Nc2cc(C(=O)NCCCCNC(=O)c3ccc(-c4c5nc(c(-c6ccccc6)c6ccc([nH]6)c(-c6ccccc6)c6nc(c(-c7ccccc7)c7ccc4[nH]7)C=C6)C=C5)cc3)ccc2N2CC[NH+](CC(=O)NC(C)(C)C)CC2)c1
REMARK SMILES IDX 16 1 15 2 13 3 14 4 12 6 10 7 11 8 73 9 72 10 71 11 9 12
REMARK SMILES IDX 7 13 8 14 6 16 1 17 2 18 3 19 88 20 4 21 5 22 74 23 75 24
REMARK SMILES IDX 87 25 76 26 86 27 77 28 78 30 79 31 80 32 81 33 82 35 83 36
REMARK SMILES IDX 84 37 85 38 17 39 18 40 19 41 20 42 21 43 22 45 23 46 24 47
REMARK SMILES IDX 70 48 25 49 69 50 26 51 27 52 28 53 63 54 29 55 68 56 62 57
REMARK SMILES IDX 64 58 30 59 67 60 61 61 60 62 31 64 53 65 38 66 52 67 39 68
REMARK SMILES IDX 42 69 51 70 65 71 40 72 41 73 50 75 66 76 43 77 32 78 33 79
REMARK SMILES IDX 37 80 34 81 36 82 35 83 54 84 55 85 59 86 56 87 58 88 57 89
REMARK SMILES IDX 44 90 45 91 49 92 46 93 48 94 47 95
REMARK H PARENT 15 5 9 15 77 29 81 34 20 44 64 63 42 74
REMARK Flexibility Score: inf
ROOT
ATOM      1  C   UNL A   1      34.229  31.289  27.838  1.00  0.00     0.116 C 
ENDROOT
BRANCH   1   2
ATOM      2  N   UNL A   1      33.000  31.675  27.156  1.00  0.00    -0.352 N 
ATOM      3  C   UNL A   1      31.958  30.974  26.590  1.00  0.00     0.251 C 
ATOM      4  O   UNL A   1      30.983  31.632  26.222  1.00  0.00    -0.269 OA
ATOM      5  H   UNL A   1      32.892  32.651  27.083  1.00  0.00     0.163 HD
BRANCH   3   6
ATOM      6  C   UNL A   1      31.919  29.490  26.414  1.00  0.00     0.042 A 
ATOM      7  C   UNL A   1      32.072  27.487  25.072  1.00  0.00     0.065 A 
ATOM      8  C   UNL A   1      31.948  28.867  25.181  1.00  0.00     0.042 A 
ATOM      9  C   UNL A   1      32.017  26.630  26.193  1.00  0.00     0.061 A 
ATOM     10  C   UNL A   1      31.902  27.250  27.437  1.00  0.00     0.029 A 
ATOM     11  C   UNL A   1      31.891  28.659  27.549  1.00  0.00     0.016 A 
BRANCH   7  12
ATOM     12  N   UNL A   1      32.345  26.944  23.804  1.00  0.00    -0.320 N 
ATOM     13  C   UNL A   1      31.618  27.127  22.640  1.00  0.00     0.255 C 
ATOM     14  O   UNL A   1      32.084  26.730  21.571  1.00  0.00    -0.269 OA
ATOM     15  H   UNL A   1      33.141  26.369  23.737  1.00  0.00     0.170 HD
BRANCH  13  16
ATOM     16  C   UNL A   1      30.302  27.832  22.619  1.00  0.00     0.040 A 
ATOM     17  C   UNL A   1      28.667  31.215  21.900  1.00  0.00     0.044 C 
ATOM     18  C   UNL A   1      28.855  29.773  22.278  1.00  0.00    -0.050 A 
ATOM     19  C   UNL A   1      27.826  29.100  22.936  1.00  0.00     0.003 A 
ATOM     20  C   UNL A   1      30.073  29.106  22.064  1.00  0.00     0.017 A 
ATOM     21  C   UNL A   1      28.025  27.801  23.398  1.00  0.00     0.001 A 
ATOM     22  C   UNL A   1      29.250  27.166  23.245  1.00  0.00     0.014 A 
ENDBRANCH  13  16
ENDBRANCH   7  12
BRANCH   9  23
ATOM     23  N   UNL A   1      32.211  25.268  26.034  1.00  0.00    -0.359 N 
ATOM     24  C   UNL A   1      33.484  24.555  26.209  1.00  0.00     0.178 C 
ATOM     25  C   UNL A   1      31.338  24.593  25.072  1.00  0.00     0.178 C 
ATOM     26  C   UNL A   1      33.219  23.032  26.499  1.00  0.00     0.284 C 
ATOM     27  C   UNL A   1      30.950  23.228  25.662  1.00  0.00     0.284 C 
ATOM     28  N   UNL A   1      32.098  22.334  25.820  1.00  0.00    -0.324 N 
ATOM     29  H   UNL A   1      31.849  21.580  26.460  1.00  0.00     0.348 HD
BRANCH  28  30
ATOM     30  C   UNL A   1      32.416  21.576  24.596  1.00  0.00     0.363 C 
BRANCH  30  31
ATOM     31  C   UNL A   1      33.821  20.991  24.526  1.00  0.00     0.275 C 
ATOM     32  O   UNL A   1      34.799  21.751  24.489  1.00  0.00    -0.268 OA
ATOM     33  N   UNL A   1      34.104  19.658  24.485  1.00  0.00    -0.347 N 
ATOM     34  H   UNL A   1      35.075  19.518  24.565  1.00  0.00     0.164 HD
BRANCH  33  35
ATOM     35  C   UNL A   1      33.406  18.346  24.358  1.00  0.00     0.032 C 
ATOM     36  C   UNL A   1      34.407  17.188  24.167  1.00  0.00     0.034 C 
ATOM     37  C   UNL A   1      32.718  18.093  25.719  1.00  0.00     0.034 C 
ATOM     38  C   UNL A   1      32.323  18.286  23.277  1.00  0.00     0.034 C 
ENDBRANCH  33  35
ENDBRANCH  30  31
ENDBRANCH  28  30
ENDBRANCH   9  23
ENDBRANCH   3   6
ENDBRANCH   1   2
BRANCH   1  39
ATOM     39  C   UNL A   1      35.294  32.398  27.877  1.00  0.00     0.023 C 
BRANCH  39  40
ATOM     40  C   UNL A   1      35.004  33.511  28.878  1.00  0.00     0.023 C 
BRANCH  40  41
ATOM     41  C   UNL A   1      34.725  32.996  30.281  1.00  0.00     0.116 C 
BRANCH  41  42
ATOM     42  N   UNL A   1      35.631  33.482  31.312  1.00  0.00    -0.352 N 
ATOM     43  C   UNL A   1      36.826  32.941  31.765  1.00  0.00     0.251 C 
ATOM     44  H   UNL A   1      35.355  34.318  31.754  1.00  0.00     0.163 HD
ATOM     45  O   UNL A   1      37.417  33.459  32.696  1.00  0.00    -0.269 OA
BRANCH  43  46
ATOM     46  C   UNL A   1      37.465  31.822  31.017  1.00  0.00     0.039 A 
ATOM     47  C   UNL A   1      37.392  30.540  31.580  1.00  0.00     0.014 A 
ATOM     48  C   UNL A   1      38.306  32.053  29.934  1.00  0.00     0.014 A 
ATOM     49  C   UNL A   1      38.355  29.590  31.248  1.00  0.00     0.010 A 
ATOM     50  C   UNL A   1      39.337  31.170  29.698  1.00  0.00     0.010 A 
ATOM     51  C   UNL A   1      39.402  29.974  30.414  1.00  0.00    -0.014 A 
BRANCH  51  52
ATOM     52  C   UNL A   1      40.677  29.275  30.355  1.00  0.00     0.031 A 
ATOM     53  C   UNL A   1      40.816  28.023  29.596  1.00  0.00     0.074 A 
ATOM     54  C   UNL A   1      41.765  29.856  30.908  1.00  0.00     0.049 A 
ATOM     55  N   UNL A   1      41.744  27.151  29.802  1.00  0.00    -0.248 NA
ATOM     56  C   UNL A   1      39.863  27.625  28.568  1.00  0.00     0.031 C 
ATOM     57  C   UNL A   1      43.167  29.508  30.695  1.00  0.00     0.029 A 
ATOM     58  N   UNL A   1      41.798  30.753  31.973  1.00  0.00    -0.354 N 
ATOM     59  C   UNL A   1      41.708  26.265  28.753  1.00  0.00     0.074 A 
ATOM     60  C   UNL A   1      40.461  26.537  28.074  1.00  0.00     0.031 C 
ATOM     61  C   UNL A   1      43.874  29.918  31.760  1.00  0.00     0.029 A 
ATOM     62  C   UNL A   1      42.922  30.416  32.739  1.00  0.00     0.049 A 
ATOM     63  H   UNL A   1      41.158  31.478  32.153  1.00  0.00     0.167 HD
ATOM     64  C   UNL A   1      42.809  25.512  28.472  1.00  0.00     0.031 A 
ATOM     65  C   UNL A   1      42.876  30.079  34.059  1.00  0.00     0.031 A 
ATOM     66  C   UNL A   1      43.865  25.704  29.469  1.00  0.00     0.049 A 
ATOM     67  C   UNL A   1      43.489  28.722  34.291  1.00  0.00     0.074 A 
ATOM     68  C   UNL A   1      45.041  26.438  29.465  1.00  0.00     0.029 A 
ATOM     69  N   UNL A   1      43.634  25.342  30.795  1.00  0.00    -0.354 N 
ATOM     70  N   UNL A   1      43.623  27.831  33.347  1.00  0.00    -0.248 NA
ATOM     71  C   UNL A   1      43.983  28.253  35.580  1.00  0.00     0.031 C 
ATOM     72  C   UNL A   1      45.475  26.578  30.810  1.00  0.00     0.029 A 
ATOM     73  C   UNL A   1      44.585  25.901  31.626  1.00  0.00     0.049 A 
ATOM     74  H   UNL A   1      42.894  24.767  31.097  1.00  0.00     0.167 HD
ATOM     75  C   UNL A   1      44.246  26.725  33.851  1.00  0.00     0.074 A 
ATOM     76  C   UNL A   1      44.433  27.026  35.260  1.00  0.00     0.031 C 
ATOM     77  C   UNL A   1      44.563  25.657  33.064  1.00  0.00     0.031 A 
BRANCH  64  78
ATOM     78  C   UNL A   1      43.031  24.866  27.122  1.00  0.00    -0.014 A 
ATOM     79  C   UNL A   1      42.432  23.626  26.831  1.00  0.00     0.009 A 
ATOM     80  C   UNL A   1      43.869  25.384  26.120  1.00  0.00     0.009 A 
ATOM     81  C   UNL A   1      42.737  22.903  25.669  1.00  0.00     0.001 A 
ATOM     82  C   UNL A   1      44.216  24.650  24.976  1.00  0.00     0.001 A 
ATOM     83  C   UNL A   1      43.656  23.401  24.756  1.00  0.00     0.000 A 
ENDBRANCH  64  78
BRANCH  65  84
ATOM     84  C   UNL A   1      41.723  30.651  34.805  1.00  0.00    -0.014 A 
ATOM     85  C   UNL A   1      41.854  31.960  35.312  1.00  0.00     0.009 A 
ATOM     86  C   UNL A   1      40.434  30.122  34.648  1.00  0.00     0.009 A 
ATOM     87  C   UNL A   1      40.731  32.767  35.517  1.00  0.00     0.001 A 
ATOM     88  C   UNL A   1      39.310  30.930  34.872  1.00  0.00     0.001 A 
ATOM     89  C   UNL A   1      39.459  32.261  35.264  1.00  0.00     0.000 A 
ENDBRANCH  65  84
BRANCH  77  90
ATOM     90  C   UNL A   1      44.972  24.299  33.568  1.00  0.00    -0.014 A 
ATOM     91  C   UNL A   1      46.279  23.966  33.946  1.00  0.00     0.009 A 
ATOM     92  C   UNL A   1      43.969  23.338  33.832  1.00  0.00     0.009 A 
ATOM     93  C   UNL A   1      46.578  22.722  34.516  1.00  0.00     0.001 A 
ATOM     94  C   UNL A   1      44.255  22.117  34.444  1.00  0.00     0.001 A 
ATOM     95  C   UNL A   1      45.565  21.804  34.776  1.00  0.00     0.000 A 
ENDBRANCH  77  90
ENDBRANCH  51  52
ENDBRANCH  43  46
ENDBRANCH  41  42
ENDBRANCH  40  41
ENDBRANCH  39  40
ENDBRANCH   1  39
TORSDOF 17
ENDMDL
