MODEL 1
REMARK VINA RESULT:      -9.1      0.000      0.000
REMARK SMILES O=C(C[C@@H]1CN(C(=O)[C@H]2C[C@H](O)C[NH2+]2)CCO1)NCCCCNC(=O)c1ccc(-c2c3nc(c(-c4ccccc4)c4ccc([nH]4)c(-c4ccccc4)c4nc(c(-c5ccccc5)c5ccc2[nH]5)C=C4)C=C3)cc1
REMARK SMILES IDX 19 1 18 2 1 3 2 4 3 6 4 7 5 8 17 9 6 10 16 11 15 12 7 13
REMARK SMILES IDX 8 14 9 15 10 16 14 17 11 18 13 19 12 22 20 24 21 25 22 26
REMARK SMILES IDX 23 27 24 28 25 30 26 31 27 32 73 33 28 34 72 35 29 36 30 37
REMARK SMILES IDX 31 38 66 39 32 40 71 41 65 42 67 43 33 44 70 45 64 46 63 47
REMARK SMILES IDX 34 49 56 50 41 51 55 52 42 53 45 54 54 55 68 56 43 57 44 58
REMARK SMILES IDX 53 60 69 61 46 62 35 63 36 64 40 65 37 66 39 67 38 68 57 69
REMARK SMILES IDX 58 70 62 71 59 72 61 73 60 74 47 75 48 76 52 77 49 78 51 79
REMARK SMILES IDX 50 80
REMARK H PARENT 18 5 14 20 14 21 12 23 23 29 67 48 45 59
REMARK Flexibility Score: inf
ROOT
ATOM      1  C   UNL A   1      45.866  22.421  25.609  1.00  0.00     0.116 C 
ENDROOT
BRANCH   1   2
ATOM      2  N   UNL A   1      46.093  23.732  25.012  1.00  0.00    -0.356 N 
ATOM      3  O   UNL A   1      47.685  24.284  26.563  1.00  0.00    -0.275 OA
ATOM      4  C   UNL A   1      47.024  24.586  25.572  1.00  0.00     0.222 C 
ATOM      5  H   UNL A   1      45.588  24.006  24.214  1.00  0.00     0.163 HD
BRANCH   4   6
ATOM      6  C   UNL A   1      47.252  25.902  24.853  1.00  0.00     0.133 C 
BRANCH   6   7
ATOM      7  C   UNL A   1      46.202  26.988  25.162  1.00  0.00     0.147 C 
ATOM      8  C   UNL A   1      46.461  27.787  26.455  1.00  0.00     0.152 C 
ATOM      9  O   UNL A   1      44.904  26.357  25.231  1.00  0.00    -0.374 OA
ATOM     10  N   UNL A   1      45.397  28.753  26.729  1.00  0.00    -0.333 N 
ATOM     11  C   UNL A   1      43.857  27.323  25.440  1.00  0.00     0.182 C 
ATOM     12  C   UNL A   1      44.071  28.132  26.723  1.00  0.00     0.148 C 
BRANCH  10  13
ATOM     13  C   UNL A   1      45.515  30.066  27.163  1.00  0.00     0.281 C 
ATOM     14  O   UNL A   1      46.373  30.372  28.000  1.00  0.00    -0.268 OA
BRANCH  13  15
ATOM     15  C   UNL A   1      44.573  31.186  26.655  1.00  0.00     0.275 C 
ATOM     16  C   UNL A   1      43.948  32.079  27.718  1.00  0.00     0.113 C 
ATOM     17  N   UNL A   1      45.211  32.033  25.625  1.00  0.00    -0.334 N 
ATOM     18  C   UNL A   1      44.519  33.461  27.471  1.00  0.00     0.175 C 
ATOM     19  C   UNL A   1      45.014  33.419  26.025  1.00  0.00     0.293 C 
ATOM     20  H   UNL A   1      44.777  31.865  24.717  1.00  0.00     0.347 HD
ATOM     21  H   UNL A   1      46.205  31.817  25.544  1.00  0.00     0.347 HD
BRANCH  18  22
ATOM     22  O   UNL A   1      43.569  34.494  27.681  1.00  0.00    -0.387 OA
ATOM     23  H   UNL A   1      42.756  34.288  27.193  1.00  0.00     0.211 HD
ENDBRANCH  18  22
ENDBRANCH  13  15
ENDBRANCH  10  13
ENDBRANCH   6   7
ENDBRANCH   4   6
ENDBRANCH   1   2
BRANCH   1  24
ATOM     24  C   UNL A   1      46.111  21.224  24.686  1.00  0.00     0.023 C 
BRANCH  24  25
ATOM     25  C   UNL A   1      44.915  20.308  24.407  1.00  0.00     0.023 C 
BRANCH  25  26
ATOM     26  C   UNL A   1      44.542  19.322  25.512  1.00  0.00     0.116 C 
BRANCH  26  27
ATOM     27  N   UNL A   1      43.164  18.879  25.522  1.00  0.00    -0.352 N 
ATOM     28  C   UNL A   1      42.012  19.566  25.837  1.00  0.00     0.251 C 
ATOM     29  H   UNL A   1      43.028  17.939  25.263  1.00  0.00     0.163 HD
ATOM     30  O   UNL A   1      40.923  19.010  25.700  1.00  0.00    -0.269 OA
BRANCH  28  31
ATOM     31  C   UNL A   1      42.047  20.939  26.405  1.00  0.00     0.039 A 
ATOM     32  C   UNL A   1      41.889  21.076  27.788  1.00  0.00     0.014 A 
ATOM     33  C   UNL A   1      42.208  22.086  25.623  1.00  0.00     0.014 A 
ATOM     34  C   UNL A   1      41.991  22.334  28.390  1.00  0.00     0.010 A 
ATOM     35  C   UNL A   1      42.374  23.338  26.230  1.00  0.00     0.010 A 
ATOM     36  C   UNL A   1      42.288  23.473  27.624  1.00  0.00    -0.014 A 
BRANCH  36  37
ATOM     37  C   UNL A   1      42.571  24.775  28.288  1.00  0.00     0.031 A 
ATOM     38  C   UNL A   1      43.934  25.099  28.837  1.00  0.00     0.074 A 
ATOM     39  C   UNL A   1      41.573  25.673  28.427  1.00  0.00     0.049 A 
ATOM     40  N   UNL A   1      44.345  26.199  29.420  1.00  0.00    -0.248 NA
ATOM     41  C   UNL A   1      44.961  24.055  28.731  1.00  0.00     0.031 C 
ATOM     42  C   UNL A   1      40.194  25.480  27.976  1.00  0.00     0.029 A 
ATOM     43  N   UNL A   1      41.568  26.929  28.982  1.00  0.00    -0.354 N 
ATOM     44  C   UNL A   1      45.675  25.978  29.756  1.00  0.00     0.074 A 
ATOM     45  C   UNL A   1      45.989  24.624  29.347  1.00  0.00     0.031 C 
ATOM     46  C   UNL A   1      39.486  26.590  28.240  1.00  0.00     0.029 A 
ATOM     47  C   UNL A   1      40.348  27.559  28.910  1.00  0.00     0.049 A 
ATOM     48  H   UNL A   1      42.362  27.341  29.393  1.00  0.00     0.167 HD
ATOM     49  C   UNL A   1      46.561  26.825  30.335  1.00  0.00     0.031 A 
ATOM     50  C   UNL A   1      39.959  28.777  29.333  1.00  0.00     0.031 A 
ATOM     51  C   UNL A   1      46.259  28.173  30.744  1.00  0.00     0.049 A 
ATOM     52  C   UNL A   1      40.953  29.686  29.996  1.00  0.00     0.074 A 
ATOM     53  C   UNL A   1      47.113  29.121  31.284  1.00  0.00     0.029 A 
ATOM     54  N   UNL A   1      45.008  28.763  30.670  1.00  0.00    -0.354 N 
ATOM     55  N   UNL A   1      42.227  29.488  30.230  1.00  0.00    -0.248 NA
ATOM     56  C   UNL A   1      40.455  30.996  30.446  1.00  0.00     0.031 C 
ATOM     57  C   UNL A   1      46.367  30.265  31.587  1.00  0.00     0.029 A 
ATOM     58  C   UNL A   1      45.060  30.049  31.183  1.00  0.00     0.049 A 
ATOM     59  H   UNL A   1      44.200  28.331  30.307  1.00  0.00     0.167 HD
ATOM     60  C   UNL A   1      42.689  30.654  30.827  1.00  0.00     0.074 A 
ATOM     61  C   UNL A   1      41.563  31.561  30.906  1.00  0.00     0.031 C 
ATOM     62  C   UNL A   1      43.937  30.946  31.266  1.00  0.00     0.031 A 
BRANCH  49  63
ATOM     63  C   UNL A   1      47.954  26.314  30.575  1.00  0.00    -0.014 A 
ATOM     64  C   UNL A   1      48.946  26.416  29.587  1.00  0.00     0.009 A 
ATOM     65  C   UNL A   1      48.293  25.770  31.824  1.00  0.00     0.009 A 
ATOM     66  C   UNL A   1      50.241  25.953  29.834  1.00  0.00     0.001 A 
ATOM     67  C   UNL A   1      49.594  25.333  32.078  1.00  0.00     0.001 A 
ATOM     68  C   UNL A   1      50.564  25.416  31.080  1.00  0.00     0.000 A 
ENDBRANCH  49  63
BRANCH  50  69
ATOM     69  C   UNL A   1      38.556  29.222  29.127  1.00  0.00    -0.014 A 
ATOM     70  C   UNL A   1      38.143  29.716  27.880  1.00  0.00     0.009 A 
ATOM     71  C   UNL A   1      37.628  29.168  30.178  1.00  0.00     0.009 A 
ATOM     72  C   UNL A   1      36.835  30.171  27.698  1.00  0.00     0.001 A 
ATOM     73  C   UNL A   1      36.314  29.597  29.985  1.00  0.00     0.001 A 
ATOM     74  C   UNL A   1      35.920  30.106  28.749  1.00  0.00     0.000 A 
ENDBRANCH  50  69
BRANCH  62  75
ATOM     75  C   UNL A   1      44.161  32.315  31.845  1.00  0.00    -0.014 A 
ATOM     76  C   UNL A   1      44.486  33.409  31.027  1.00  0.00     0.009 A 
ATOM     77  C   UNL A   1      44.013  32.519  33.226  1.00  0.00     0.009 A 
ATOM     78  C   UNL A   1      44.690  34.672  31.585  1.00  0.00     0.001 A 
ATOM     79  C   UNL A   1      44.189  33.789  33.778  1.00  0.00     0.001 A 
ATOM     80  C   UNL A   1      44.536  34.863  32.959  1.00  0.00     0.000 A 
ENDBRANCH  62  75
ENDBRANCH  36  37
ENDBRANCH  28  31
ENDBRANCH  26  27
ENDBRANCH  25  26
ENDBRANCH  24  25
ENDBRANCH   1  24
TORSDOF 15
ENDMDL
MODEL 2
REMARK VINA RESULT:      -8.8      4.920     10.919
REMARK SMILES O=C(C[C@@H]1CN(C(=O)[C@H]2C[C@H](O)C[NH2+]2)CCO1)NCCCCNC(=O)c1ccc(-c2c3nc(c(-c4ccccc4)c4ccc([nH]4)c(-c4ccccc4)c4nc(c(-c5ccccc5)c5ccc2[nH]5)C=C4)C=C3)cc1
REMARK SMILES IDX 19 1 18 2 1 3 2 4 3 6 4 7 5 8 17 9 6 10 16 11 15 12 7 13
REMARK SMILES IDX 8 14 9 15 10 16 14 17 11 18 13 19 12 22 20 24 21 25 22 26
REMARK SMILES IDX 23 27 24 28 25 30 26 31 27 32 73 33 28 34 72 35 29 36 30 37
REMARK SMILES IDX 31 38 66 39 32 40 71 41 65 42 67 43 33 44 70 45 64 46 63 47
REMARK SMILES IDX 34 49 56 50 41 51 55 52 42 53 45 54 54 55 68 56 43 57 44 58
REMARK SMILES IDX 53 60 69 61 46 62 35 63 36 64 40 65 37 66 39 67 38 68 57 69
REMARK SMILES IDX 58 70 62 71 59 72 61 73 60 74 47 75 48 76 52 77 49 78 51 79
REMARK SMILES IDX 50 80
REMARK H PARENT 18 5 14 20 14 21 12 23 23 29 67 48 45 59
REMARK Flexibility Score: inf
ROOT
ATOM      1  C   UNL A   1      33.243  28.762  23.017  1.00  0.00     0.116 C 
ENDROOT
BRANCH   1   2
ATOM      2  N   UNL A   1      33.526  27.336  22.907  1.00  0.00    -0.356 N 
ATOM      3  O   UNL A   1      31.374  26.844  22.299  1.00  0.00    -0.275 OA
ATOM      4  C   UNL A   1      32.517  26.464  22.544  1.00  0.00     0.222 C 
ATOM      5  H   UNL A   1      34.431  26.996  23.090  1.00  0.00     0.163 HD
BRANCH   4   6
ATOM      6  C   UNL A   1      32.908  25.007  22.384  1.00  0.00     0.133 C 
BRANCH   6   7
ATOM      7  C   UNL A   1      33.367  24.324  23.687  1.00  0.00     0.147 C 
ATOM      8  C   UNL A   1      32.758  22.929  23.935  1.00  0.00     0.152 C 
ATOM      9  O   UNL A   1      33.050  25.197  24.794  1.00  0.00    -0.374 OA
ATOM     10  N   UNL A   1      33.178  22.363  25.216  1.00  0.00    -0.333 N 
ATOM     11  C   UNL A   1      33.522  24.660  26.043  1.00  0.00     0.182 C 
ATOM     12  C   UNL A   1      32.929  23.277  26.333  1.00  0.00     0.148 C 
BRANCH  10  13
ATOM     13  C   UNL A   1      33.575  21.063  25.496  1.00  0.00     0.281 C 
ATOM     14  O   UNL A   1      34.712  20.836  25.926  1.00  0.00    -0.268 OA
BRANCH  13  15
ATOM     15  C   UNL A   1      32.641  19.850  25.256  1.00  0.00     0.275 C 
ATOM     16  C   UNL A   1      32.615  19.285  23.842  1.00  0.00     0.113 C 
ATOM     17  N   UNL A   1      32.890  18.751  26.212  1.00  0.00    -0.334 N 
ATOM     18  C   UNL A   1      33.186  17.886  23.955  1.00  0.00     0.175 C 
ATOM     19  C   UNL A   1      33.033  17.528  25.434  1.00  0.00     0.293 C 
ATOM     20  H   UNL A   1      32.105  18.664  26.857  1.00  0.00     0.347 HD
ATOM     21  H   UNL A   1      33.731  18.932  26.761  1.00  0.00     0.347 HD
BRANCH  18  22
ATOM     22  O   UNL A   1      32.531  16.954  23.109  1.00  0.00    -0.387 OA
ATOM     23  H   UNL A   1      32.097  16.276  23.651  1.00  0.00     0.211 HD
ENDBRANCH  18  22
ENDBRANCH  13  15
ENDBRANCH  10  13
ENDBRANCH   6   7
ENDBRANCH   4   6
ENDBRANCH   1   2
BRANCH   1  24
ATOM     24  C   UNL A   1      32.928  29.265  24.429  1.00  0.00     0.023 C 
BRANCH  24  25
ATOM     25  C   UNL A   1      33.789  28.712  25.569  1.00  0.00     0.023 C 
BRANCH  25  26
ATOM     26  C   UNL A   1      33.242  28.893  26.983  1.00  0.00     0.116 C 
BRANCH  26  27
ATOM     27  N   UNL A   1      33.323  30.234  27.523  1.00  0.00    -0.352 N 
ATOM     28  C   UNL A   1      34.394  30.911  28.064  1.00  0.00     0.251 C 
ATOM     29  H   UNL A   1      32.480  30.743  27.500  1.00  0.00     0.163 HD
ATOM     30  O   UNL A   1      34.258  32.088  28.394  1.00  0.00    -0.269 OA
BRANCH  28  31
ATOM     31  C   UNL A   1      35.694  30.241  28.327  1.00  0.00     0.039 A 
ATOM     32  C   UNL A   1      36.629  30.204  27.288  1.00  0.00     0.014 A 
ATOM     33  C   UNL A   1      36.010  29.635  29.546  1.00  0.00     0.014 A 
ATOM     34  C   UNL A   1      37.899  29.657  27.499  1.00  0.00     0.010 A 
ATOM     35  C   UNL A   1      37.301  29.143  29.779  1.00  0.00     0.010 A 
ATOM     36  C   UNL A   1      38.268  29.169  28.763  1.00  0.00    -0.014 A 
BRANCH  36  37
ATOM     37  C   UNL A   1      39.673  28.753  29.030  1.00  0.00     0.031 A 
ATOM     38  C   UNL A   1      40.656  29.679  29.694  1.00  0.00     0.074 A 
ATOM     39  C   UNL A   1      40.082  27.528  28.638  1.00  0.00     0.049 A 
ATOM     40  N   UNL A   1      41.907  29.456  30.018  1.00  0.00    -0.248 NA
ATOM     41  C   UNL A   1      40.181  31.029  30.025  1.00  0.00     0.031 C 
ATOM     42  C   UNL A   1      39.249  26.539  27.951  1.00  0.00     0.029 A 
ATOM     43  N   UNL A   1      41.299  26.904  28.769  1.00  0.00    -0.354 N 
ATOM     44  C   UNL A   1      42.369  30.636  30.585  1.00  0.00     0.074 A 
ATOM     45  C   UNL A   1      41.277  31.586  30.523  1.00  0.00     0.031 C 
ATOM     46  C   UNL A   1      39.968  25.422  27.752  1.00  0.00     0.029 A 
ATOM     47  C   UNL A   1      41.320  25.626  28.264  1.00  0.00     0.049 A 
ATOM     48  H   UNL A   1      42.082  27.331  29.185  1.00  0.00     0.167 HD
ATOM     49  C   UNL A   1      43.585  30.905  31.122  1.00  0.00     0.031 A 
ATOM     50  C   UNL A   1      42.311  24.715  28.214  1.00  0.00     0.031 A 
ATOM     51  C   UNL A   1      44.677  29.968  31.189  1.00  0.00     0.049 A 
ATOM     52  C   UNL A   1      43.656  25.047  28.793  1.00  0.00     0.074 A 
ATOM     53  C   UNL A   1      45.923  30.138  31.771  1.00  0.00     0.029 A 
ATOM     54  N   UNL A   1      44.662  28.693  30.649  1.00  0.00    -0.354 N 
ATOM     55  N   UNL A   1      44.048  26.142  29.397  1.00  0.00    -0.248 NA
ATOM     56  C   UNL A   1      44.695  24.011  28.689  1.00  0.00     0.031 C 
ATOM     57  C   UNL A   1      46.680  28.986  31.536  1.00  0.00     0.029 A 
ATOM     58  C   UNL A   1      45.886  28.076  30.856  1.00  0.00     0.049 A 
ATOM     59  H   UNL A   1      43.894  28.284  30.185  1.00  0.00     0.167 HD
ATOM     60  C   UNL A   1      45.366  25.916  29.771  1.00  0.00     0.074 A 
ATOM     61  C   UNL A   1      45.704  24.576  29.338  1.00  0.00     0.031 C 
ATOM     62  C   UNL A   1      46.219  26.746  30.419  1.00  0.00     0.031 A 
BRANCH  49  63
ATOM     63  C   UNL A   1      43.807  32.284  31.679  1.00  0.00    -0.014 A 
ATOM     64  C   UNL A   1      44.362  33.305  30.890  1.00  0.00     0.009 A 
ATOM     65  C   UNL A   1      43.409  32.580  32.992  1.00  0.00     0.009 A 
ATOM     66  C   UNL A   1      44.544  34.586  31.417  1.00  0.00     0.001 A 
ATOM     67  C   UNL A   1      43.568  33.867  33.508  1.00  0.00     0.001 A 
ATOM     68  C   UNL A   1      44.143  34.866  32.724  1.00  0.00     0.000 A 
ENDBRANCH  49  63
BRANCH  50  69
ATOM     69  C   UNL A   1      42.065  23.382  27.603  1.00  0.00    -0.014 A 
ATOM     70  C   UNL A   1      41.531  22.336  28.370  1.00  0.00     0.009 A 
ATOM     71  C   UNL A   1      42.374  23.147  26.255  1.00  0.00     0.009 A 
ATOM     72  C   UNL A   1      41.337  21.073  27.807  1.00  0.00     0.001 A 
ATOM     73  C   UNL A   1      42.153  21.892  25.686  1.00  0.00     0.001 A 
ATOM     74  C   UNL A   1      41.643  20.853  26.464  1.00  0.00     0.000 A 
ENDBRANCH  50  69
BRANCH  62  75
ATOM     75  C   UNL A   1      47.593  26.219  30.728  1.00  0.00    -0.014 A 
ATOM     76  C   UNL A   1      48.631  26.291  29.787  1.00  0.00     0.009 A 
ATOM     77  C   UNL A   1      47.859  25.672  31.994  1.00  0.00     0.009 A 
ATOM     78  C   UNL A   1      49.900  25.796  30.095  1.00  0.00     0.001 A 
ATOM     79  C   UNL A   1      49.135  25.204  32.309  1.00  0.00     0.001 A 
ATOM     80  C   UNL A   1      50.153  25.258  31.357  1.00  0.00     0.000 A 
ENDBRANCH  62  75
ENDBRANCH  36  37
ENDBRANCH  28  31
ENDBRANCH  26  27
ENDBRANCH  25  26
ENDBRANCH  24  25
ENDBRANCH   1  24
TORSDOF 15
ENDMDL
MODEL 3
REMARK VINA RESULT:      -8.8      5.220      7.741
REMARK SMILES O=C(C[C@@H]1CN(C(=O)[C@H]2C[C@H](O)C[NH2+]2)CCO1)NCCCCNC(=O)c1ccc(-c2c3nc(c(-c4ccccc4)c4ccc([nH]4)c(-c4ccccc4)c4nc(c(-c5ccccc5)c5ccc2[nH]5)C=C4)C=C3)cc1
REMARK SMILES IDX 19 1 18 2 1 3 2 4 3 6 4 7 5 8 17 9 6 10 16 11 15 12 7 13
REMARK SMILES IDX 8 14 9 15 10 16 14 17 11 18 13 19 12 22 20 24 21 25 22 26
REMARK SMILES IDX 23 27 24 28 25 30 26 31 27 32 73 33 28 34 72 35 29 36 30 37
REMARK SMILES IDX 31 38 66 39 32 40 71 41 65 42 67 43 33 44 70 45 64 46 63 47
REMARK SMILES IDX 34 49 56 50 41 51 55 52 42 53 45 54 54 55 68 56 43 57 44 58
REMARK SMILES IDX 53 60 69 61 46 62 35 63 36 64 40 65 37 66 39 67 38 68 57 69
REMARK SMILES IDX 58 70 62 71 59 72 61 73 60 74 47 75 48 76 52 77 49 78 51 79
REMARK SMILES IDX 50 80
REMARK H PARENT 18 5 14 20 14 21 12 23 23 29 67 48 45 59
REMARK Flexibility Score: inf
ROOT
ATOM      1  C   UNL A   1      34.387  20.832  24.683  1.00  0.00     0.116 C 
ENDROOT
BRANCH   1   2
ATOM      2  N   UNL A   1      33.626  21.862  23.986  1.00  0.00    -0.356 N 
ATOM      3  O   UNL A   1      31.752  21.488  25.247  1.00  0.00    -0.275 OA
ATOM      4  C   UNL A   1      32.314  22.106  24.346  1.00  0.00     0.222 C 
ATOM      5  H   UNL A   1      34.045  22.383  23.264  1.00  0.00     0.163 HD
BRANCH   4   6
ATOM      6  C   UNL A   1      31.614  23.240  23.622  1.00  0.00     0.133 C 
BRANCH   6   7
ATOM      7  C   UNL A   1      31.834  24.630  24.250  1.00  0.00     0.147 C 
ATOM      8  C   UNL A   1      31.965  25.784  23.235  1.00  0.00     0.152 C 
ATOM      9  O   UNL A   1      33.017  24.572  25.077  1.00  0.00    -0.374 OA
ATOM     10  N   UNL A   1      32.239  27.064  23.887  1.00  0.00    -0.333 N 
ATOM     11  C   UNL A   1      33.244  25.818  25.762  1.00  0.00     0.182 C 
ATOM     12  C   UNL A   1      33.392  26.990  24.788  1.00  0.00     0.148 C 
BRANCH  10  13
ATOM     13  C   UNL A   1      31.688  28.307  23.613  1.00  0.00     0.281 C 
ATOM     14  O   UNL A   1      32.049  29.305  24.249  1.00  0.00    -0.268 OA
BRANCH  13  15
ATOM     15  C   UNL A   1      30.587  28.498  22.540  1.00  0.00     0.275 C 
ATOM     16  C   UNL A   1      29.151  28.275  22.995  1.00  0.00     0.113 C 
ATOM     17  N   UNL A   1      30.682  29.810  21.864  1.00  0.00    -0.334 N 
ATOM     18  C   UNL A   1      28.474  29.625  22.872  1.00  0.00     0.175 C 
ATOM     19  C   UNL A   1      29.356  30.410  21.900  1.00  0.00     0.293 C 
ATOM     20  H   UNL A   1      30.983  29.684  20.898  1.00  0.00     0.347 HD
ATOM     21  H   UNL A   1      31.364  30.409  22.331  1.00  0.00     0.347 HD
BRANCH  18  22
ATOM     22  O   UNL A   1      27.133  29.527  22.417  1.00  0.00    -0.387 OA
ATOM     23  H   UNL A   1      26.576  29.174  23.128  1.00  0.00     0.211 HD
ENDBRANCH  18  22
ENDBRANCH  13  15
ENDBRANCH  10  13
ENDBRANCH   6   7
ENDBRANCH   4   6
ENDBRANCH   1   2
BRANCH   1  24
ATOM     24  C   UNL A   1      35.721  21.288  25.281  1.00  0.00     0.023 C 
BRANCH  24  25
ATOM     25  C   UNL A   1      36.973  20.519  24.847  1.00  0.00     0.023 C 
BRANCH  25  26
ATOM     26  C   UNL A   1      38.261  20.835  25.604  1.00  0.00     0.116 C 
BRANCH  26  27
ATOM     27  N   UNL A   1      39.307  19.839  25.509  1.00  0.00    -0.352 N 
ATOM     28  C   UNL A   1      40.595  19.853  26.000  1.00  0.00     0.251 C 
ATOM     29  H   UNL A   1      39.060  19.024  25.015  1.00  0.00     0.163 HD
ATOM     30  O   UNL A   1      41.299  18.852  25.869  1.00  0.00    -0.269 OA
BRANCH  28  31
ATOM     31  C   UNL A   1      41.184  21.066  26.623  1.00  0.00     0.039 A 
ATOM     32  C   UNL A   1      41.647  22.075  25.773  1.00  0.00     0.014 A 
ATOM     33  C   UNL A   1      41.313  21.230  28.005  1.00  0.00     0.014 A 
ATOM     34  C   UNL A   1      42.140  23.273  26.300  1.00  0.00     0.010 A 
ATOM     35  C   UNL A   1      41.747  22.452  28.535  1.00  0.00     0.010 A 
ATOM     36  C   UNL A   1      42.146  23.497  27.687  1.00  0.00    -0.014 A 
BRANCH  36  37
ATOM     37  C   UNL A   1      42.502  24.835  28.233  1.00  0.00     0.031 A 
ATOM     38  C   UNL A   1      43.914  25.175  28.627  1.00  0.00     0.074 A 
ATOM     39  C   UNL A   1      41.530  25.754  28.409  1.00  0.00     0.049 A 
ATOM     40  N   UNL A   1      44.389  26.305  29.094  1.00  0.00    -0.248 NA
ATOM     41  C   UNL A   1      44.918  24.111  28.492  1.00  0.00     0.031 C 
ATOM     42  C   UNL A   1      40.111  25.551  28.106  1.00  0.00     0.029 A 
ATOM     43  N   UNL A   1      41.588  27.044  28.877  1.00  0.00    -0.354 N 
ATOM     44  C   UNL A   1      45.743  26.086  29.314  1.00  0.00     0.074 A 
ATOM     45  C   UNL A   1      46.005  24.704  28.967  1.00  0.00     0.031 C 
ATOM     46  C   UNL A   1      39.441  26.686  28.363  1.00  0.00     0.029 A 
ATOM     47  C   UNL A   1      40.371  27.684  28.882  1.00  0.00     0.049 A 
ATOM     48  H   UNL A   1      42.421  27.470  29.182  1.00  0.00     0.167 HD
ATOM     49  C   UNL A   1      46.687  26.957  29.749  1.00  0.00     0.031 A 
ATOM     50  C   UNL A   1      40.035  28.933  29.258  1.00  0.00     0.031 A 
ATOM     51  C   UNL A   1      46.437  28.333  30.095  1.00  0.00     0.049 A 
ATOM     52  C   UNL A   1      41.096  29.869  29.761  1.00  0.00     0.074 A 
ATOM     53  C   UNL A   1      47.347  29.301  30.487  1.00  0.00     0.029 A 
ATOM     54  N   UNL A   1      45.189  28.934  30.103  1.00  0.00    -0.354 N 
ATOM     55  N   UNL A   1      42.385  29.668  29.885  1.00  0.00    -0.248 NA
ATOM     56  C   UNL A   1      40.654  31.212  30.170  1.00  0.00     0.031 C 
ATOM     57  C   UNL A   1      46.643  30.473  30.783  1.00  0.00     0.029 A 
ATOM     58  C   UNL A   1      45.300  30.250  30.523  1.00  0.00     0.049 A 
ATOM     59  H   UNL A   1      44.347  28.491  29.848  1.00  0.00     0.167 HD
ATOM     60  C   UNL A   1      42.911  30.863  30.356  1.00  0.00     0.074 A 
ATOM     61  C   UNL A   1      41.805  31.790  30.484  1.00  0.00     0.031 C 
ATOM     62  C   UNL A   1      44.198  31.166  30.653  1.00  0.00     0.031 A 
BRANCH  49  63
ATOM     63  C   UNL A   1      48.093  26.443  29.887  1.00  0.00    -0.014 A 
ATOM     64  C   UNL A   1      49.013  26.548  28.831  1.00  0.00     0.009 A 
ATOM     65  C   UNL A   1      48.519  25.893  31.106  1.00  0.00     0.009 A 
ATOM     66  C   UNL A   1      50.321  26.082  28.984  1.00  0.00     0.001 A 
ATOM     67  C   UNL A   1      49.834  25.452  31.265  1.00  0.00     0.001 A 
ATOM     68  C   UNL A   1      50.731  25.539  30.202  1.00  0.00     0.000 A 
ENDBRANCH  49  63
BRANCH  50  69
ATOM     69  C   UNL A   1      38.622  29.383  29.159  1.00  0.00    -0.014 A 
ATOM     70  C   UNL A   1      37.759  29.264  30.259  1.00  0.00     0.009 A 
ATOM     71  C   UNL A   1      38.125  29.920  27.961  1.00  0.00     0.009 A 
ATOM     72  C   UNL A   1      36.422  29.650  30.154  1.00  0.00     0.001 A 
ATOM     73  C   UNL A   1      36.795  30.331  27.867  1.00  0.00     0.001 A 
ATOM     74  C   UNL A   1      35.942  30.188  28.960  1.00  0.00     0.000 A 
ENDBRANCH  50  69
BRANCH  62  75
ATOM     75  C   UNL A   1      44.488  32.567  31.116  1.00  0.00    -0.014 A 
ATOM     76  C   UNL A   1      44.483  32.900  32.480  1.00  0.00     0.009 A 
ATOM     77  C   UNL A   1      44.802  33.559  30.175  1.00  0.00     0.009 A 
ATOM     78  C   UNL A   1      44.756  34.207  32.889  1.00  0.00     0.001 A 
ATOM     79  C   UNL A   1      45.102  34.858  30.588  1.00  0.00     0.001 A 
ATOM     80  C   UNL A   1      45.070  35.184  31.943  1.00  0.00     0.000 A 
ENDBRANCH  62  75
ENDBRANCH  36  37
ENDBRANCH  28  31
ENDBRANCH  26  27
ENDBRANCH  25  26
ENDBRANCH  24  25
ENDBRANCH   1  24
TORSDOF 15
ENDMDL
