MODEL 1
REMARK VINA RESULT:     -11.9      0.000      0.000
REMARK SMILES O=C(NCCCCNC(=O)[C@@H]1[C@@H](C(=O)Nc2ccc(F)c(F)c2)[C@H]2C=C[C@@H]1O2)c1ccc(-c2c3nc(c(-c4ccccc4)c4ccc([nH]4)c(-c4ccccc4)c4nc(c(-c5ccccc5)c5ccc2[nH]5)C=C4)C=C3)cc1
REMARK SMILES IDX 5 1 4 2 3 3 1 4 2 5 29 7 30 8 76 9 31 10 75 11 32 12 33 13
REMARK SMILES IDX 34 14 69 15 35 16 74 17 68 18 70 19 36 20 73 21 67 22 66 23
REMARK SMILES IDX 37 25 59 26 44 27 58 28 45 29 48 30 57 31 71 32 46 33 47 34
REMARK SMILES IDX 56 36 72 37 49 38 38 39 39 40 43 41 40 42 42 43 41 44 60 45
REMARK SMILES IDX 61 46 65 47 62 48 64 49 63 50 50 51 51 52 55 53 52 54 54 55
REMARK SMILES IDX 53 56 6 57 7 58 8 59 9 60 10 62 11 63 12 64 27 65 24 66
REMARK SMILES IDX 26 67 28 68 25 69 13 70 14 71 15 72 16 74 17 75 23 76 18 77
REMARK SMILES IDX 21 78 19 79 22 80 20 81
REMARK H PARENT 3 6 70 24 48 35 8 61 15 73
REMARK Flexibility Score: inf
ROOT
ATOM      1  C   UNL A   1      37.511  20.647  24.894  1.00  0.00     0.023 C 
ENDROOT
BRANCH   1   2
ATOM      2  C   UNL A   1      38.772  20.870  25.711  1.00  0.00     0.116 C 
BRANCH   2   3
ATOM      3  N   UNL A   1      39.722  19.765  25.644  1.00  0.00    -0.352 N 
ATOM      4  O   UNL A   1      41.726  18.726  25.775  1.00  0.00    -0.269 OA
ATOM      5  C   UNL A   1      41.062  19.737  25.980  1.00  0.00     0.251 C 
ATOM      6  H   UNL A   1      39.355  18.916  25.310  1.00  0.00     0.163 HD
BRANCH   5   7
ATOM      7  C   UNL A   1      41.704  20.947  26.544  1.00  0.00     0.039 A 
ATOM      8  C   UNL A   1      41.763  21.126  27.922  1.00  0.00     0.014 A 
ATOM      9  C   UNL A   1      42.181  21.951  25.694  1.00  0.00     0.014 A 
ATOM     10  C   UNL A   1      42.023  22.388  28.435  1.00  0.00     0.010 A 
ATOM     11  C   UNL A   1      42.600  23.177  26.231  1.00  0.00     0.010 A 
ATOM     12  C   UNL A   1      42.461  23.431  27.604  1.00  0.00    -0.014 A 
BRANCH  12  13
ATOM     13  C   UNL A   1      42.787  24.747  28.224  1.00  0.00     0.031 A 
ATOM     14  C   UNL A   1      44.206  25.164  28.512  1.00  0.00     0.074 A 
ATOM     15  C   UNL A   1      41.780  25.619  28.446  1.00  0.00     0.049 A 
ATOM     16  N   UNL A   1      44.648  26.308  28.979  1.00  0.00    -0.248 NA
ATOM     17  C   UNL A   1      45.268  24.179  28.256  1.00  0.00     0.031 C 
ATOM     18  C   UNL A   1      40.361  25.342  28.207  1.00  0.00     0.029 A 
ATOM     19  N   UNL A   1      41.793  26.923  28.868  1.00  0.00    -0.354 N 
ATOM     20  C   UNL A   1      46.025  26.166  29.108  1.00  0.00     0.074 A 
ATOM     21  C   UNL A   1      46.347  24.821  28.683  1.00  0.00     0.031 C 
ATOM     22  C   UNL A   1      39.656  26.468  28.381  1.00  0.00     0.029 A 
ATOM     23  C   UNL A   1      40.554  27.516  28.846  1.00  0.00     0.049 A 
ATOM     24  H   UNL A   1      42.611  27.390  29.158  1.00  0.00     0.167 HD
ATOM     25  C   UNL A   1      46.938  27.071  29.541  1.00  0.00     0.031 A 
ATOM     26  C   UNL A   1      40.166  28.760  29.180  1.00  0.00     0.031 A 
ATOM     27  C   UNL A   1      46.619  28.415  29.953  1.00  0.00     0.049 A 
ATOM     28  C   UNL A   1      41.189  29.730  29.680  1.00  0.00     0.074 A 
ATOM     29  C   UNL A   1      47.479  29.412  30.383  1.00  0.00     0.029 A 
ATOM     30  N   UNL A   1      45.340  28.949  29.990  1.00  0.00    -0.354 N 
ATOM     31  N   UNL A   1      42.486  29.576  29.788  1.00  0.00    -0.248 NA
ATOM     32  C   UNL A   1      40.694  31.040  30.119  1.00  0.00     0.031 C 
ATOM     33  C   UNL A   1      46.713  30.532  30.730  1.00  0.00     0.029 A 
ATOM     34  C   UNL A   1      45.383  30.252  30.461  1.00  0.00     0.049 A 
ATOM     35  H   UNL A   1      44.521  28.473  29.720  1.00  0.00     0.167 HD
ATOM     36  C   UNL A   1      42.965  30.771  30.304  1.00  0.00     0.074 A 
ATOM     37  C   UNL A   1      41.821  31.648  30.460  1.00  0.00     0.031 C 
ATOM     38  C   UNL A   1      44.237  31.108  30.626  1.00  0.00     0.031 A 
BRANCH  25  39
ATOM     39  C   UNL A   1      48.373  26.623  29.635  1.00  0.00    -0.014 A 
ATOM     40  C   UNL A   1      49.284  26.844  28.591  1.00  0.00     0.009 A 
ATOM     41  C   UNL A   1      48.828  26.000  30.809  1.00  0.00     0.009 A 
ATOM     42  C   UNL A   1      50.610  26.416  28.706  1.00  0.00     0.001 A 
ATOM     43  C   UNL A   1      50.160  25.599  30.933  1.00  0.00     0.001 A 
ATOM     44  C   UNL A   1      51.047  25.798  29.877  1.00  0.00     0.000 A 
ENDBRANCH  25  39
BRANCH  26  45
ATOM     45  C   UNL A   1      38.732  29.134  29.071  1.00  0.00    -0.014 A 
ATOM     46  C   UNL A   1      37.876  29.015  30.175  1.00  0.00     0.009 A 
ATOM     47  C   UNL A   1      38.224  29.653  27.869  1.00  0.00     0.009 A 
ATOM     48  C   UNL A   1      36.538  29.403  30.075  1.00  0.00     0.001 A 
ATOM     49  C   UNL A   1      36.896  30.070  27.781  1.00  0.00     0.001 A 
ATOM     50  C   UNL A   1      36.051  29.939  28.882  1.00  0.00     0.000 A 
ENDBRANCH  26  45
BRANCH  38  51
ATOM     51  C   UNL A   1      44.455  32.493  31.162  1.00  0.00    -0.014 A 
ATOM     52  C   UNL A   1      44.369  32.762  32.536  1.00  0.00     0.009 A 
ATOM     53  C   UNL A   1      44.763  33.539  30.279  1.00  0.00     0.009 A 
ATOM     54  C   UNL A   1      44.554  34.061  33.013  1.00  0.00     0.001 A 
ATOM     55  C   UNL A   1      44.974  34.832  30.762  1.00  0.00     0.001 A 
ATOM     56  C   UNL A   1      44.859  35.093  32.126  1.00  0.00     0.000 A 
ENDBRANCH  38  51
ENDBRANCH  12  13
ENDBRANCH   5   7
ENDBRANCH   2   3
ENDBRANCH   1   2
BRANCH   1  57
ATOM     57  C   UNL A   1      36.468  21.763  24.837  1.00  0.00     0.023 C 
BRANCH  57  58
ATOM     58  C   UNL A   1      36.334  22.728  26.015  1.00  0.00     0.116 C 
BRANCH  58  59
ATOM     59  N   UNL A   1      35.274  22.238  26.872  1.00  0.00    -0.356 N 
ATOM     60  C   UNL A   1      33.989  22.592  27.086  1.00  0.00     0.227 C 
ATOM     61  H   UNL A   1      35.555  21.473  27.423  1.00  0.00     0.163 HD
ATOM     62  O   UNL A   1      33.487  22.100  28.104  1.00  0.00    -0.275 OA
BRANCH  60  63
ATOM     63  C   UNL A   1      33.138  23.353  26.085  1.00  0.00     0.127 C 
ATOM     64  C   UNL A   1      33.082  24.911  26.144  1.00  0.00     0.127 C 
ATOM     65  C   UNL A   1      31.659  22.992  26.364  1.00  0.00     0.155 C 
ATOM     66  C   UNL A   1      31.570  25.161  26.288  1.00  0.00     0.155 C 
ATOM     67  C   UNL A   1      30.828  23.325  25.164  1.00  0.00     0.004 C 
ATOM     68  O   UNL A   1      31.268  24.102  27.231  1.00  0.00    -0.365 OA
ATOM     69  C   UNL A   1      30.771  24.661  25.116  1.00  0.00     0.004 C 
BRANCH  64  70
ATOM     70  C   UNL A   1      33.598  25.599  24.897  1.00  0.00     0.231 C 
ATOM     71  O   UNL A   1      34.248  24.967  24.056  1.00  0.00    -0.274 OA
ATOM     72  N   UNL A   1      33.334  26.895  24.572  1.00  0.00    -0.326 N 
ATOM     73  H   UNL A   1      33.482  27.064  23.613  1.00  0.00     0.169 HD
BRANCH  72  74
ATOM     74  C   UNL A   1      32.904  28.056  25.240  1.00  0.00     0.044 A 
ATOM     75  C   UNL A   1      33.536  28.652  26.328  1.00  0.00     0.029 A 
ATOM     76  C   UNL A   1      31.795  28.716  24.680  1.00  0.00     0.068 A 
ATOM     77  C   UNL A   1      33.110  29.895  26.820  1.00  0.00     0.044 A 
ATOM     78  C   UNL A   1      31.362  29.943  25.185  1.00  0.00     0.160 A 
ATOM     79  C   UNL A   1      32.027  30.539  26.242  1.00  0.00     0.158 A 
ATOM     80  F   UNL A   1      30.296  30.540  24.634  1.00  0.00    -0.204 F 
ATOM     81  F   UNL A   1      31.637  31.729  26.717  1.00  0.00    -0.204 F 
ENDBRANCH  72  74
ENDBRANCH  64  70
ENDBRANCH  60  63
ENDBRANCH  58  59
ENDBRANCH  57  58
ENDBRANCH   1  57
TORSDOF 13
ENDMDL
MODEL 2
REMARK VINA RESULT:     -11.9      3.676      8.909
REMARK SMILES O=C(NCCCCNC(=O)[C@@H]1[C@@H](C(=O)Nc2ccc(F)c(F)c2)[C@H]2C=C[C@@H]1O2)c1ccc(-c2c3nc(c(-c4ccccc4)c4ccc([nH]4)c(-c4ccccc4)c4nc(c(-c5ccccc5)c5ccc2[nH]5)C=C4)C=C3)cc1
REMARK SMILES IDX 5 1 4 2 3 3 1 4 2 5 29 7 30 8 76 9 31 10 75 11 32 12 33 13
REMARK SMILES IDX 34 14 69 15 35 16 74 17 68 18 70 19 36 20 73 21 67 22 66 23
REMARK SMILES IDX 37 25 59 26 44 27 58 28 45 29 48 30 57 31 71 32 46 33 47 34
REMARK SMILES IDX 56 36 72 37 49 38 38 39 39 40 43 41 40 42 42 43 41 44 60 45
REMARK SMILES IDX 61 46 65 47 62 48 64 49 63 50 50 51 51 52 55 53 52 54 54 55
REMARK SMILES IDX 53 56 6 57 7 58 8 59 9 60 10 62 11 63 12 64 27 65 24 66
REMARK SMILES IDX 26 67 28 68 25 69 13 70 14 71 15 72 16 74 17 75 23 76 18 77
REMARK SMILES IDX 21 78 19 79 22 80 20 81
REMARK H PARENT 3 6 70 24 48 35 8 61 15 73
REMARK Flexibility Score: inf
ROOT
ATOM      1  C   UNL A   1      31.859  31.206  26.639  1.00  0.00     0.023 C 
ENDROOT
BRANCH   1   2
ATOM      2  C   UNL A   1      32.980  32.039  27.235  1.00  0.00     0.116 C 
BRANCH   2   3
ATOM      3  N   UNL A   1      32.574  33.384  27.626  1.00  0.00    -0.352 N 
ATOM      4  O   UNL A   1      32.658  35.346  28.746  1.00  0.00    -0.269 OA
ATOM      5  C   UNL A   1      33.200  34.280  28.471  1.00  0.00     0.251 C 
ATOM      6  H   UNL A   1      31.731  33.699  27.230  1.00  0.00     0.163 HD
BRANCH   5   7
ATOM      7  C   UNL A   1      34.503  33.929  29.081  1.00  0.00     0.039 A 
ATOM      8  C   UNL A   1      35.688  34.323  28.467  1.00  0.00     0.014 A 
ATOM      9  C   UNL A   1      34.551  33.133  30.230  1.00  0.00     0.014 A 
ATOM     10  C   UNL A   1      36.878  33.703  28.819  1.00  0.00     0.010 A 
ATOM     11  C   UNL A   1      35.782  32.637  30.683  1.00  0.00     0.010 A 
ATOM     12  C   UNL A   1      36.951  32.862  29.941  1.00  0.00    -0.014 A 
BRANCH  12  13
ATOM     13  C   UNL A   1      38.272  32.277  30.307  1.00  0.00     0.031 A 
ATOM     14  C   UNL A   1      39.139  32.875  31.386  1.00  0.00     0.074 A 
ATOM     15  C   UNL A   1      38.652  31.126  29.712  1.00  0.00     0.049 A 
ATOM     16  N   UNL A   1      40.277  32.432  31.865  1.00  0.00    -0.248 NA
ATOM     17  C   UNL A   1      38.684  34.130  32.004  1.00  0.00     0.031 C 
ATOM     18  C   UNL A   1      37.902  30.440  28.655  1.00  0.00     0.029 A 
ATOM     19  N   UNL A   1      39.724  30.303  29.941  1.00  0.00    -0.354 N 
ATOM     20  C   UNL A   1      40.690  33.369  32.805  1.00  0.00     0.074 A 
ATOM     21  C   UNL A   1      39.688  34.413  32.822  1.00  0.00     0.031 C 
ATOM     22  C   UNL A   1      38.476  29.257  28.404  1.00  0.00     0.029 A 
ATOM     23  C   UNL A   1      39.689  29.145  29.203  1.00  0.00     0.049 A 
ATOM     24  H   UNL A   1      40.447  30.521  30.573  1.00  0.00     0.167 HD
ATOM     25  C   UNL A   1      41.801  33.362  33.583  1.00  0.00     0.031 A 
ATOM     26  C   UNL A   1      40.544  28.108  29.150  1.00  0.00     0.031 A 
ATOM     27  C   UNL A   1      42.793  32.317  33.575  1.00  0.00     0.049 A 
ATOM     28  C   UNL A   1      41.776  28.138  29.999  1.00  0.00     0.074 A 
ATOM     29  C   UNL A   1      43.940  32.209  34.346  1.00  0.00     0.029 A 
ATOM     30  N   UNL A   1      42.759  31.199  32.756  1.00  0.00    -0.354 N 
ATOM     31  N   UNL A   1      42.143  29.032  30.885  1.00  0.00    -0.248 NA
ATOM     32  C   UNL A   1      42.719  27.026  29.830  1.00  0.00     0.031 C 
ATOM     33  C   UNL A   1      44.625  31.054  33.954  1.00  0.00     0.029 A 
ATOM     34  C   UNL A   1      43.877  30.411  32.980  1.00  0.00     0.049 A 
ATOM     35  H   UNL A   1      42.045  30.995  32.109  1.00  0.00     0.167 HD
ATOM     36  C   UNL A   1      43.359  28.588  31.384  1.00  0.00     0.074 A 
ATOM     37  C   UNL A   1      43.651  27.332  30.721  1.00  0.00     0.031 C 
ATOM     38  C   UNL A   1      44.164  29.173  32.304  1.00  0.00     0.031 A 
BRANCH  25  39
ATOM     39  C   UNL A   1      42.030  34.549  34.482  1.00  0.00    -0.014 A 
ATOM     40  C   UNL A   1      42.693  35.700  34.029  1.00  0.00     0.009 A 
ATOM     41  C   UNL A   1      41.536  34.526  35.797  1.00  0.00     0.009 A 
ATOM     42  C   UNL A   1      42.890  36.787  34.887  1.00  0.00     0.001 A 
ATOM     43  C   UNL A   1      41.710  35.623  36.643  1.00  0.00     0.001 A 
ATOM     44  C   UNL A   1      42.396  36.749  36.190  1.00  0.00     0.000 A 
ENDBRANCH  25  39
BRANCH  26  45
ATOM     45  C   UNL A   1      40.262  26.972  28.235  1.00  0.00    -0.014 A 
ATOM     46  C   UNL A   1      40.787  26.954  26.935  1.00  0.00     0.009 A 
ATOM     47  C   UNL A   1      39.499  25.878  28.676  1.00  0.00     0.009 A 
ATOM     48  C   UNL A   1      40.547  25.866  26.093  1.00  0.00     0.001 A 
ATOM     49  C   UNL A   1      39.289  24.778  27.844  1.00  0.00     0.001 A 
ATOM     50  C   UNL A   1      39.808  24.775  26.551  1.00  0.00     0.000 A 
ENDBRANCH  26  45
BRANCH  38  51
ATOM     51  C   UNL A   1      45.428  28.445  32.656  1.00  0.00    -0.014 A 
ATOM     52  C   UNL A   1      46.636  28.729  32.001  1.00  0.00     0.009 A 
ATOM     53  C   UNL A   1      45.412  27.473  33.667  1.00  0.00     0.009 A 
ATOM     54  C   UNL A   1      47.797  28.027  32.328  1.00  0.00     0.001 A 
ATOM     55  C   UNL A   1      46.580  26.791  34.010  1.00  0.00     0.001 A 
ATOM     56  C   UNL A   1      47.769  27.061  33.334  1.00  0.00     0.000 A 
ENDBRANCH  38  51
ENDBRANCH  12  13
ENDBRANCH   5   7
ENDBRANCH   2   3
ENDBRANCH   1   2
BRANCH   1  57
ATOM     57  C   UNL A   1      32.104  29.718  26.389  1.00  0.00     0.023 C 
BRANCH  57  58
ATOM     58  C   UNL A   1      33.524  29.227  26.106  1.00  0.00     0.116 C 
BRANCH  58  59
ATOM     59  N   UNL A   1      33.748  29.316  24.678  1.00  0.00    -0.356 N 
ATOM     60  C   UNL A   1      33.797  28.420  23.669  1.00  0.00     0.227 C 
ATOM     61  H   UNL A   1      33.898  30.240  24.374  1.00  0.00     0.163 HD
ATOM     62  O   UNL A   1      34.287  28.858  22.621  1.00  0.00    -0.275 OA
BRANCH  60  63
ATOM     63  C   UNL A   1      33.132  27.055  23.710  1.00  0.00     0.127 C 
ATOM     64  C   UNL A   1      33.969  25.799  24.105  1.00  0.00     0.127 C 
ATOM     65  C   UNL A   1      32.722  26.695  22.262  1.00  0.00     0.155 C 
ATOM     66  C   UNL A   1      33.758  24.889  22.883  1.00  0.00     0.155 C 
ATOM     67  C   UNL A   1      31.684  25.617  22.290  1.00  0.00     0.004 C 
ATOM     68  O   UNL A   1      33.873  25.896  21.846  1.00  0.00    -0.365 OA
ATOM     69  C   UNL A   1      32.319  24.503  22.671  1.00  0.00     0.004 C 
BRANCH  64  70
ATOM     70  C   UNL A   1      33.483  25.097  25.356  1.00  0.00     0.231 C 
ATOM     71  O   UNL A   1      32.620  25.617  26.073  1.00  0.00    -0.274 OA
ATOM     72  N   UNL A   1      33.881  23.852  25.740  1.00  0.00    -0.326 N 
ATOM     73  H   UNL A   1      33.248  23.452  26.379  1.00  0.00     0.169 HD
BRANCH  72  74
ATOM     74  C   UNL A   1      34.954  22.985  25.465  1.00  0.00     0.044 A 
ATOM     75  C   UNL A   1      36.305  23.290  25.606  1.00  0.00     0.029 A 
ATOM     76  C   UNL A   1      34.610  21.666  25.119  1.00  0.00     0.068 A 
ATOM     77  C   UNL A   1      37.290  22.301  25.453  1.00  0.00     0.044 A 
ATOM     78  C   UNL A   1      35.593  20.689  24.950  1.00  0.00     0.160 A 
ATOM     79  C   UNL A   1      36.928  21.002  25.132  1.00  0.00     0.158 A 
ATOM     80  F   UNL A   1      35.230  19.445  24.610  1.00  0.00    -0.204 F 
ATOM     81  F   UNL A   1      37.878  20.067  24.998  1.00  0.00    -0.204 F 
ENDBRANCH  72  74
ENDBRANCH  64  70
ENDBRANCH  60  63
ENDBRANCH  58  59
ENDBRANCH  57  58
ENDBRANCH   1  57
TORSDOF 13
ENDMDL
MODEL 3
REMARK VINA RESULT:     -11.8      2.750      7.829
REMARK SMILES O=C(NCCCCNC(=O)[C@@H]1[C@@H](C(=O)Nc2ccc(F)c(F)c2)[C@H]2C=C[C@@H]1O2)c1ccc(-c2c3nc(c(-c4ccccc4)c4ccc([nH]4)c(-c4ccccc4)c4nc(c(-c5ccccc5)c5ccc2[nH]5)C=C4)C=C3)cc1
REMARK SMILES IDX 5 1 4 2 3 3 1 4 2 5 29 7 30 8 76 9 31 10 75 11 32 12 33 13
REMARK SMILES IDX 34 14 69 15 35 16 74 17 68 18 70 19 36 20 73 21 67 22 66 23
REMARK SMILES IDX 37 25 59 26 44 27 58 28 45 29 48 30 57 31 71 32 46 33 47 34
REMARK SMILES IDX 56 36 72 37 49 38 38 39 39 40 43 41 40 42 42 43 41 44 60 45
REMARK SMILES IDX 61 46 65 47 62 48 64 49 63 50 50 51 51 52 55 53 52 54 54 55
REMARK SMILES IDX 53 56 6 57 7 58 8 59 9 60 10 62 11 63 12 64 27 65 24 66
REMARK SMILES IDX 26 67 28 68 25 69 13 70 14 71 15 72 16 74 17 75 23 76 18 77
REMARK SMILES IDX 21 78 19 79 22 80 20 81
REMARK H PARENT 3 6 70 24 48 35 8 61 15 73
REMARK Flexibility Score: inf
ROOT
ATOM      1  C   UNL A   1      32.537  28.979  25.944  1.00  0.00     0.023 C 
ENDROOT
BRANCH   1   2
ATOM      2  C   UNL A   1      33.482  28.995  27.134  1.00  0.00     0.116 C 
BRANCH   2   3
ATOM      3  N   UNL A   1      33.610  30.301  27.769  1.00  0.00    -0.352 N 
ATOM      4  O   UNL A   1      34.586  31.952  28.967  1.00  0.00    -0.269 OA
ATOM      5  C   UNL A   1      34.695  30.860  28.417  1.00  0.00     0.251 C 
ATOM      6  H   UNL A   1      32.806  30.867  27.731  1.00  0.00     0.163 HD
BRANCH   5   7
ATOM      7  C   UNL A   1      35.973  30.116  28.487  1.00  0.00     0.039 A 
ATOM      8  C   UNL A   1      36.343  29.476  29.666  1.00  0.00     0.014 A 
ATOM      9  C   UNL A   1      36.850  30.121  27.398  1.00  0.00     0.014 A 
ATOM     10  C   UNL A   1      37.665  29.101  29.852  1.00  0.00     0.010 A 
ATOM     11  C   UNL A   1      38.141  29.590  27.540  1.00  0.00     0.010 A 
ATOM     12  C   UNL A   1      38.584  29.135  28.791  1.00  0.00    -0.014 A 
BRANCH  12  13
ATOM     13  C   UNL A   1      39.975  28.658  29.037  1.00  0.00     0.031 A 
ATOM     14  C   UNL A   1      40.440  27.294  28.595  1.00  0.00     0.074 A 
ATOM     15  C   UNL A   1      40.858  29.515  29.592  1.00  0.00     0.049 A 
ATOM     16  N   UNL A   1      41.641  26.771  28.673  1.00  0.00    -0.248 NA
ATOM     17  C   UNL A   1      39.440  26.396  27.998  1.00  0.00     0.031 C 
ATOM     18  C   UNL A   1      40.538  30.866  30.060  1.00  0.00     0.029 A 
ATOM     19  N   UNL A   1      42.208  29.404  29.806  1.00  0.00    -0.354 N 
ATOM     20  C   UNL A   1      41.530  25.478  28.175  1.00  0.00     0.074 A 
ATOM     21  C   UNL A   1      40.144  25.289  27.808  1.00  0.00     0.031 C 
ATOM     22  C   UNL A   1      41.670  31.494  30.405  1.00  0.00     0.029 A 
ATOM     23  C   UNL A   1      42.780  30.558  30.284  1.00  0.00     0.049 A 
ATOM     24  H   UNL A   1      42.717  28.579  29.635  1.00  0.00     0.167 HD
ATOM     25  C   UNL A   1      42.495  24.534  28.036  1.00  0.00     0.031 A 
ATOM     26  C   UNL A   1      44.054  30.841  30.611  1.00  0.00     0.031 A 
ATOM     27  C   UNL A   1      43.879  24.726  28.389  1.00  0.00     0.049 A 
ATOM     28  C   UNL A   1      45.093  29.772  30.474  1.00  0.00     0.074 A 
ATOM     29  C   UNL A   1      44.934  23.837  28.260  1.00  0.00     0.029 A 
ATOM     30  N   UNL A   1      44.401  25.885  28.943  1.00  0.00    -0.354 N 
ATOM     31  N   UNL A   1      44.967  28.559  29.995  1.00  0.00    -0.248 NA
ATOM     32  C   UNL A   1      46.445  30.107  30.935  1.00  0.00     0.031 C 
ATOM     33  C   UNL A   1      46.082  24.441  28.786  1.00  0.00     0.029 A 
ATOM     34  C   UNL A   1      45.756  25.725  29.188  1.00  0.00     0.049 A 
ATOM     35  H   UNL A   1      43.884  26.702  29.134  1.00  0.00     0.167 HD
ATOM     36  C   UNL A   1      46.226  27.984  30.093  1.00  0.00     0.074 A 
ATOM     37  C   UNL A   1      47.105  28.993  30.651  1.00  0.00     0.031 C 
ATOM     38  C   UNL A   1      46.615  26.731  29.757  1.00  0.00     0.031 A 
BRANCH  25  39
ATOM     39  C   UNL A   1      42.077  23.183  27.515  1.00  0.00    -0.014 A 
ATOM     40  C   UNL A   1      41.538  22.202  28.362  1.00  0.00     0.009 A 
ATOM     41  C   UNL A   1      42.191  22.904  26.143  1.00  0.00     0.009 A 
ATOM     42  C   UNL A   1      41.160  20.956  27.851  1.00  0.00     0.001 A 
ATOM     43  C   UNL A   1      41.786  21.670  25.631  1.00  0.00     0.001 A 
ATOM     44  C   UNL A   1      41.280  20.694  26.486  1.00  0.00     0.000 A 
ENDBRANCH  25  39
BRANCH  26  45
ATOM     45  C   UNL A   1      44.396  32.191  31.126  1.00  0.00    -0.014 A 
ATOM     46  C   UNL A   1      44.787  33.214  30.250  1.00  0.00     0.009 A 
ATOM     47  C   UNL A   1      44.291  32.475  32.498  1.00  0.00     0.009 A 
ATOM     48  C   UNL A   1      45.072  34.491  30.738  1.00  0.00     0.001 A 
ATOM     49  C   UNL A   1      44.543  33.760  32.979  1.00  0.00     0.001 A 
ATOM     50  C   UNL A   1      44.940  34.766  32.100  1.00  0.00     0.000 A 
ENDBRANCH  26  45
BRANCH  38  51
ATOM     51  C   UNL A   1      48.062  26.392  29.970  1.00  0.00    -0.014 A 
ATOM     52  C   UNL A   1      49.013  26.604  28.959  1.00  0.00     0.009 A 
ATOM     53  C   UNL A   1      48.480  25.868  31.202  1.00  0.00     0.009 A 
ATOM     54  C   UNL A   1      50.350  26.263  29.169  1.00  0.00     0.001 A 
ATOM     55  C   UNL A   1      49.822  25.553  31.418  1.00  0.00     0.001 A 
ATOM     56  C   UNL A   1      50.754  25.741  30.398  1.00  0.00     0.000 A 
ENDBRANCH  38  51
ENDBRANCH  12  13
ENDBRANCH   5   7
ENDBRANCH   2   3
ENDBRANCH   1   2
BRANCH   1  57
ATOM     57  C   UNL A   1      33.128  29.065  24.537  1.00  0.00     0.023 C 
BRANCH  57  58
ATOM     58  C   UNL A   1      32.198  28.982  23.326  1.00  0.00     0.116 C 
BRANCH  58  59
ATOM     59  N   UNL A   1      32.784  28.054  22.380  1.00  0.00    -0.356 N 
ATOM     60  C   UNL A   1      33.202  26.772  22.445  1.00  0.00     0.227 C 
ATOM     61  H   UNL A   1      32.903  28.449  21.487  1.00  0.00     0.163 HD
ATOM     62  O   UNL A   1      33.900  26.414  21.490  1.00  0.00    -0.275 OA
BRANCH  60  63
ATOM     63  C   UNL A   1      32.710  25.769  23.474  1.00  0.00     0.127 C 
ATOM     64  C   UNL A   1      33.655  24.621  23.947  1.00  0.00     0.127 C 
ATOM     65  C   UNL A   1      31.565  24.959  22.819  1.00  0.00     0.155 C 
ATOM     66  C   UNL A   1      32.814  23.373  23.623  1.00  0.00     0.155 C 
ATOM     67  C   UNL A   1      30.749  24.296  23.886  1.00  0.00     0.004 C 
ATOM     68  O   UNL A   1      32.300  23.793  22.334  1.00  0.00    -0.365 OA
ATOM     69  C   UNL A   1      31.516  23.318  24.382  1.00  0.00     0.004 C 
BRANCH  64  70
ATOM     70  C   UNL A   1      33.975  24.651  25.427  1.00  0.00     0.231 C 
ATOM     71  O   UNL A   1      33.442  25.486  26.168  1.00  0.00    -0.274 OA
ATOM     72  N   UNL A   1      34.782  23.751  26.055  1.00  0.00    -0.326 N 
ATOM     73  H   UNL A   1      34.625  23.743  27.027  1.00  0.00     0.169 HD
BRANCH  72  74
ATOM     74  C   UNL A   1      35.778  22.829  25.685  1.00  0.00     0.044 A 
ATOM     75  C   UNL A   1      37.152  23.048  25.738  1.00  0.00     0.029 A 
ATOM     76  C   UNL A   1      35.330  21.543  25.333  1.00  0.00     0.068 A 
ATOM     77  C   UNL A   1      38.061  22.007  25.494  1.00  0.00     0.044 A 
ATOM     78  C   UNL A   1      36.237  20.515  25.071  1.00  0.00     0.160 A 
ATOM     79  C   UNL A   1      37.599  20.742  25.167  1.00  0.00     0.158 A 
ATOM     80  F   UNL A   1      35.775  19.304  24.728  1.00  0.00    -0.204 F 
ATOM     81  F   UNL A   1      38.477  19.756  24.944  1.00  0.00    -0.204 F 
ENDBRANCH  72  74
ENDBRANCH  64  70
ENDBRANCH  60  63
ENDBRANCH  58  59
ENDBRANCH  57  58
ENDBRANCH   1  57
TORSDOF 13
ENDMDL
