MODEL 1
REMARK VINA RESULT:     -11.8      0.000      0.000
REMARK SMILES O=C(NCCCCNC(=O)[C@@H]1CCCC[C@@H]1C(=O)Nc1cccc(Br)c1)c1ccc(-c2c3nc(c(-c4ccccc4)c4ccc([nH]4)c(-c4ccccc4)c4nc(c(-c5ccccc5)c5ccc2[nH]5)C=C4)C=C3)cc1
REMARK SMILES IDX 5 1 4 2 3 3 1 4 2 5 27 7 28 8 74 9 29 10 73 11 30 12 31 13
REMARK SMILES IDX 32 14 67 15 33 16 72 17 66 18 68 19 34 20 71 21 65 22 64 23
REMARK SMILES IDX 35 25 57 26 42 27 56 28 43 29 46 30 55 31 69 32 44 33 45 34
REMARK SMILES IDX 54 36 70 37 47 38 36 39 37 40 41 41 38 42 40 43 39 44 58 45
REMARK SMILES IDX 59 46 63 47 60 48 62 49 61 50 48 51 49 52 53 53 50 54 52 55
REMARK SMILES IDX 51 56 6 57 7 58 8 59 9 60 10 62 11 63 12 64 16 65 13 66
REMARK SMILES IDX 15 67 14 68 17 69 18 70 19 71 20 73 21 74 26 75 22 76 24 77
REMARK SMILES IDX 23 78 25 79
REMARK H PARENT 3 6 68 24 46 35 8 61 19 72
REMARK Flexibility Score: inf
ROOT
ATOM      1  C   UNL A   1      38.092  19.256  25.071  1.00  0.00     0.023 C 
ENDROOT
BRANCH   1   2
ATOM      2  C   UNL A   1      39.310  19.801  25.811  1.00  0.00     0.116 C 
BRANCH   2   3
ATOM      3  N   UNL A   1      40.420  18.863  25.843  1.00  0.00    -0.352 N 
ATOM      4  O   UNL A   1      42.579  18.213  25.940  1.00  0.00    -0.269 OA
ATOM      5  C   UNL A   1      41.751  19.109  26.077  1.00  0.00     0.251 C 
ATOM      6  H   UNL A   1      40.186  17.922  25.675  1.00  0.00     0.163 HD
BRANCH   5   7
ATOM      7  C   UNL A   1      42.189  20.466  26.468  1.00  0.00     0.039 A 
ATOM      8  C   UNL A   1      42.230  20.842  27.811  1.00  0.00     0.014 A 
ATOM      9  C   UNL A   1      42.565  21.370  25.470  1.00  0.00     0.014 A 
ATOM     10  C   UNL A   1      42.526  22.159  28.150  1.00  0.00     0.010 A 
ATOM     11  C   UNL A   1      42.934  22.673  25.818  1.00  0.00     0.010 A 
ATOM     12  C   UNL A   1      42.892  23.085  27.159  1.00  0.00    -0.014 A 
BRANCH  12  13
ATOM     13  C   UNL A   1      43.287  24.458  27.556  1.00  0.00     0.031 A 
ATOM     14  C   UNL A   1      44.725  24.895  27.530  1.00  0.00     0.074 A 
ATOM     15  C   UNL A   1      42.323  25.326  27.919  1.00  0.00     0.049 A 
ATOM     16  N   UNL A   1      45.232  26.067  27.822  1.00  0.00    -0.248 NA
ATOM     17  C   UNL A   1      45.723  23.891  27.128  1.00  0.00     0.031 C 
ATOM     18  C   UNL A   1      40.892  25.019  27.983  1.00  0.00     0.029 A 
ATOM     19  N   UNL A   1      42.397  26.647  28.278  1.00  0.00    -0.354 N 
ATOM     20  C   UNL A   1      46.605  25.940  27.653  1.00  0.00     0.074 A 
ATOM     21  C   UNL A   1      46.855  24.570  27.257  1.00  0.00     0.031 C 
ATOM     22  C   UNL A   1      40.219  26.132  28.309  1.00  0.00     0.029 A 
ATOM     23  C   UNL A   1      41.172  27.212  28.534  1.00  0.00     0.049 A 
ATOM     24  H   UNL A   1      43.245  27.142  28.346  1.00  0.00     0.167 HD
ATOM     25  C   UNL A   1      47.567  26.880  27.809  1.00  0.00     0.031 A 
ATOM     26  C   UNL A   1      40.848  28.459  28.922  1.00  0.00     0.031 A 
ATOM     27  C   UNL A   1      47.318  28.242  28.207  1.00  0.00     0.049 A 
ATOM     28  C   UNL A   1      41.938  29.467  29.128  1.00  0.00     0.074 A 
ATOM     29  C   UNL A   1      48.227  29.273  28.372  1.00  0.00     0.029 A 
ATOM     30  N   UNL A   1      46.068  28.761  28.506  1.00  0.00    -0.354 N 
ATOM     31  N   UNL A   1      43.228  29.335  28.944  1.00  0.00    -0.248 NA
ATOM     32  C   UNL A   1      41.525  30.796  29.600  1.00  0.00     0.031 C 
ATOM     33  C   UNL A   1      47.532  30.404  28.815  1.00  0.00     0.029 A 
ATOM     34  C   UNL A   1      46.184  30.091  28.878  1.00  0.00     0.049 A 
ATOM     35  H   UNL A   1      45.222  28.259  28.461  1.00  0.00     0.167 HD
ATOM     36  C   UNL A   1      43.782  30.566  29.261  1.00  0.00     0.074 A 
ATOM     37  C   UNL A   1      42.685  31.438  29.630  1.00  0.00     0.031 C 
ATOM     38  C   UNL A   1      45.085  30.941  29.251  1.00  0.00     0.031 A 
BRANCH  25  39
ATOM     39  C   UNL A   1      48.992  26.463  27.572  1.00  0.00    -0.014 A 
ATOM     40  C   UNL A   1      49.807  26.019  28.625  1.00  0.00     0.009 A 
ATOM     41  C   UNL A   1      49.511  26.466  26.267  1.00  0.00     0.009 A 
ATOM     42  C   UNL A   1      51.121  25.613  28.381  1.00  0.00     0.001 A 
ATOM     43  C   UNL A   1      50.817  26.036  26.022  1.00  0.00     0.001 A 
ATOM     44  C   UNL A   1      51.623  25.618  27.079  1.00  0.00     0.000 A 
ENDBRANCH  25  39
BRANCH  26  45
ATOM     45  C   UNL A   1      39.424  28.814  29.144  1.00  0.00    -0.014 A 
ATOM     46  C   UNL A   1      38.638  29.305  28.092  1.00  0.00     0.009 A 
ATOM     47  C   UNL A   1      38.838  28.645  30.409  1.00  0.00     0.009 A 
ATOM     48  C   UNL A   1      37.299  29.636  28.306  1.00  0.00     0.001 A 
ATOM     49  C   UNL A   1      37.492  28.948  30.613  1.00  0.00     0.001 A 
ATOM     50  C   UNL A   1      36.725  29.451  29.564  1.00  0.00     0.000 A 
ENDBRANCH  26  45
BRANCH  38  51
ATOM     51  C   UNL A   1      45.385  32.363  29.628  1.00  0.00    -0.014 A 
ATOM     52  C   UNL A   1      45.674  32.715  30.956  1.00  0.00     0.009 A 
ATOM     53  C   UNL A   1      45.398  33.357  28.639  1.00  0.00     0.009 A 
ATOM     54  C   UNL A   1      45.941  34.045  31.288  1.00  0.00     0.001 A 
ATOM     55  C   UNL A   1      45.690  34.680  28.970  1.00  0.00     0.001 A 
ATOM     56  C   UNL A   1      45.951  35.024  30.296  1.00  0.00     0.000 A 
ENDBRANCH  38  51
ENDBRANCH  12  13
ENDBRANCH   5   7
ENDBRANCH   2   3
ENDBRANCH   1   2
BRANCH   1  57
ATOM     57  C   UNL A   1      37.021  20.296  24.719  1.00  0.00     0.023 C 
BRANCH  57  58
ATOM     58  C   UNL A   1      37.270  21.687  25.305  1.00  0.00     0.116 C 
BRANCH  58  59
ATOM     59  N   UNL A   1      36.298  22.006  26.335  1.00  0.00    -0.356 N 
ATOM     60  C   UNL A   1      35.213  22.830  26.308  1.00  0.00     0.223 C 
ATOM     61  H   UNL A   1      36.448  21.551  27.196  1.00  0.00     0.163 HD
ATOM     62  O   UNL A   1      34.670  23.077  27.384  1.00  0.00    -0.275 OA
BRANCH  60  63
ATOM     63  C   UNL A   1      34.677  23.334  24.976  1.00  0.00     0.091 C 
ATOM     64  C   UNL A   1      33.968  24.684  25.096  1.00  0.00     0.014 C 
ATOM     65  C   UNL A   1      33.825  22.244  24.297  1.00  0.00     0.091 C 
ATOM     66  C   UNL A   1      33.482  25.152  23.725  1.00  0.00     0.001 C 
ATOM     67  C   UNL A   1      33.294  22.743  22.941  1.00  0.00     0.014 C 
ATOM     68  C   UNL A   1      32.608  24.108  23.033  1.00  0.00     0.001 C 
BRANCH  65  69
ATOM     69  C   UNL A   1      32.634  21.742  25.129  1.00  0.00     0.228 C 
ATOM     70  O   UNL A   1      31.990  22.498  25.862  1.00  0.00    -0.274 OA
ATOM     71  N   UNL A   1      32.097  20.503  24.906  1.00  0.00    -0.326 N 
ATOM     72  H   UNL A   1      31.203  20.381  25.299  1.00  0.00     0.169 HD
BRANCH  71  73
ATOM     73  C   UNL A   1      32.574  19.376  24.226  1.00  0.00     0.042 A 
ATOM     74  C   UNL A   1      32.241  19.073  22.904  1.00  0.00     0.026 A 
ATOM     75  C   UNL A   1      33.482  18.557  24.905  1.00  0.00     0.041 A 
ATOM     76  C   UNL A   1      32.734  17.915  22.297  1.00  0.00     0.003 A 
ATOM     77  C   UNL A   1      33.963  17.396  24.300  1.00  0.00     0.020 A 
ATOM     78  C   UNL A   1      33.583  17.064  23.003  1.00  0.00     0.016 A 
ATOM     79  Br  UNL A   1      35.128  16.256  25.258  1.00  0.00    -0.051 Br
ENDBRANCH  71  73
ENDBRANCH  65  69
ENDBRANCH  60  63
ENDBRANCH  58  59
ENDBRANCH  57  58
ENDBRANCH   1  57
TORSDOF 13
ENDMDL
MODEL 2
REMARK VINA RESULT:     -11.8      5.861     10.618
REMARK SMILES O=C(NCCCCNC(=O)[C@@H]1CCCC[C@@H]1C(=O)Nc1cccc(Br)c1)c1ccc(-c2c3nc(c(-c4ccccc4)c4ccc([nH]4)c(-c4ccccc4)c4nc(c(-c5ccccc5)c5ccc2[nH]5)C=C4)C=C3)cc1
REMARK SMILES IDX 5 1 4 2 3 3 1 4 2 5 27 7 28 8 74 9 29 10 73 11 30 12 31 13
REMARK SMILES IDX 32 14 67 15 33 16 72 17 66 18 68 19 34 20 71 21 65 22 64 23
REMARK SMILES IDX 35 25 57 26 42 27 56 28 43 29 46 30 55 31 69 32 44 33 45 34
REMARK SMILES IDX 54 36 70 37 47 38 36 39 37 40 41 41 38 42 40 43 39 44 58 45
REMARK SMILES IDX 59 46 63 47 60 48 62 49 61 50 48 51 49 52 53 53 50 54 52 55
REMARK SMILES IDX 51 56 6 57 7 58 8 59 9 60 10 62 11 63 12 64 16 65 13 66
REMARK SMILES IDX 15 67 14 68 17 69 18 70 19 71 20 73 21 74 26 75 22 76 24 77
REMARK SMILES IDX 23 78 25 79
REMARK H PARENT 3 6 68 24 46 35 8 61 19 72
REMARK Flexibility Score: inf
ROOT
ATOM      1  C   UNL A   1      31.252  32.256  26.497  1.00  0.00     0.023 C 
ENDROOT
BRANCH   1   2
ATOM      2  C   UNL A   1      32.495  32.862  27.140  1.00  0.00     0.116 C 
BRANCH   2   3
ATOM      3  N   UNL A   1      32.278  34.211  27.635  1.00  0.00    -0.352 N 
ATOM      4  O   UNL A   1      32.578  35.995  28.983  1.00  0.00    -0.269 OA
ATOM      5  C   UNL A   1      32.979  34.903  28.592  1.00  0.00     0.251 C 
ATOM      6  H   UNL A   1      31.525  34.697  27.227  1.00  0.00     0.163 HD
BRANCH   5   7
ATOM      7  C   UNL A   1      34.205  34.314  29.172  1.00  0.00     0.039 A 
ATOM      8  C   UNL A   1      35.453  34.552  28.593  1.00  0.00     0.014 A 
ATOM      9  C   UNL A   1      34.099  33.515  30.314  1.00  0.00     0.014 A 
ATOM     10  C   UNL A   1      36.576  33.891  29.080  1.00  0.00     0.010 A 
ATOM     11  C   UNL A   1      35.240  32.910  30.846  1.00  0.00     0.010 A 
ATOM     12  C   UNL A   1      36.484  33.072  30.217  1.00  0.00    -0.014 A 
BRANCH  12  13
ATOM     13  C   UNL A   1      37.713  32.449  30.767  1.00  0.00     0.031 A 
ATOM     14  C   UNL A   1      38.354  32.964  32.025  1.00  0.00     0.074 A 
ATOM     15  C   UNL A   1      38.236  31.385  30.128  1.00  0.00     0.049 A 
ATOM     16  N   UNL A   1      39.414  32.514  32.649  1.00  0.00    -0.248 NA
ATOM     17  C   UNL A   1      37.729  34.132  32.666  1.00  0.00     0.031 C 
ATOM     18  C   UNL A   1      37.704  30.794  28.898  1.00  0.00     0.029 A 
ATOM     19  N   UNL A   1      39.316  30.598  30.435  1.00  0.00    -0.354 N 
ATOM     20  C   UNL A   1      39.592  33.349  33.745  1.00  0.00     0.074 A 
ATOM     21  C   UNL A   1      38.546  34.348  33.688  1.00  0.00     0.031 C 
ATOM     22  C   UNL A   1      38.426  29.709  28.584  1.00  0.00     0.029 A 
ATOM     23  C   UNL A   1      39.506  29.564  29.553  1.00  0.00     0.049 A 
ATOM     24  H   UNL A   1      39.899  30.760  31.213  1.00  0.00     0.167 HD
ATOM     25  C   UNL A   1      40.539  33.286  34.711  1.00  0.00     0.031 A 
ATOM     26  C   UNL A   1      40.452  28.608  29.517  1.00  0.00     0.031 A 
ATOM     27  C   UNL A   1      41.583  32.294  34.766  1.00  0.00     0.049 A 
ATOM     28  C   UNL A   1      41.513  28.587  30.576  1.00  0.00     0.074 A 
ATOM     29  C   UNL A   1      42.575  32.136  35.718  1.00  0.00     0.029 A 
ATOM     30  N   UNL A   1      41.770  31.293  33.825  1.00  0.00    -0.354 N 
ATOM     31  N   UNL A   1      41.653  29.372  31.616  1.00  0.00    -0.248 NA
ATOM     32  C   UNL A   1      42.546  27.551  30.454  1.00  0.00     0.031 C 
ATOM     33  C   UNL A   1      43.391  31.068  35.329  1.00  0.00     0.029 A 
ATOM     34  C   UNL A   1      42.876  30.529  34.162  1.00  0.00     0.049 A 
ATOM     35  H   UNL A   1      41.201  31.147  33.035  1.00  0.00     0.167 HD
ATOM     36  C   UNL A   1      42.781  28.916  32.282  1.00  0.00     0.074 A 
ATOM     37  C   UNL A   1      43.275  27.774  31.539  1.00  0.00     0.031 C 
ATOM     38  C   UNL A   1      43.359  29.403  33.407  1.00  0.00     0.031 A 
BRANCH  25  39
ATOM     39  C   UNL A   1      40.508  34.337  35.786  1.00  0.00    -0.014 A 
ATOM     40  C   UNL A   1      41.209  35.544  35.646  1.00  0.00     0.009 A 
ATOM     41  C   UNL A   1      39.722  34.138  36.934  1.00  0.00     0.009 A 
ATOM     42  C   UNL A   1      41.148  36.519  36.645  1.00  0.00     0.001 A 
ATOM     43  C   UNL A   1      39.643  35.124  37.919  1.00  0.00     0.001 A 
ATOM     44  C   UNL A   1      40.361  36.310  37.778  1.00  0.00     0.000 A 
ENDBRANCH  25  39
BRANCH  26  45
ATOM     45  C   UNL A   1      40.436  27.596  28.430  1.00  0.00    -0.014 A 
ATOM     46  C   UNL A   1      41.133  27.823  27.235  1.00  0.00     0.009 A 
ATOM     47  C   UNL A   1      39.738  26.389  28.592  1.00  0.00     0.009 A 
ATOM     48  C   UNL A   1      41.118  26.868  26.217  1.00  0.00     0.001 A 
ATOM     49  C   UNL A   1      39.748  25.423  27.585  1.00  0.00     0.001 A 
ATOM     50  C   UNL A   1      40.431  25.667  26.394  1.00  0.00     0.000 A 
ENDBRANCH  26  45
BRANCH  38  51
ATOM     51  C   UNL A   1      44.575  28.682  33.912  1.00  0.00    -0.014 A 
ATOM     52  C   UNL A   1      45.865  29.071  33.518  1.00  0.00     0.009 A 
ATOM     53  C   UNL A   1      44.429  27.613  34.809  1.00  0.00     0.009 A 
ATOM     54  C   UNL A   1      46.984  28.381  33.990  1.00  0.00     0.001 A 
ATOM     55  C   UNL A   1      45.549  26.942  35.299  1.00  0.00     0.001 A 
ATOM     56  C   UNL A   1      46.825  27.321  34.880  1.00  0.00     0.000 A 
ENDBRANCH  38  51
ENDBRANCH  12  13
ENDBRANCH   5   7
ENDBRANCH   2   3
ENDBRANCH   1   2
BRANCH   1  57
ATOM     57  C   UNL A   1      31.390  30.794  26.054  1.00  0.00     0.023 C 
BRANCH  57  58
ATOM     58  C   UNL A   1      32.740  30.156  26.383  1.00  0.00     0.116 C 
BRANCH  58  59
ATOM     59  N   UNL A   1      33.429  29.731  25.179  1.00  0.00    -0.356 N 
ATOM     60  C   UNL A   1      33.629  28.486  24.662  1.00  0.00     0.223 C 
ATOM     61  H   UNL A   1      33.817  30.463  24.647  1.00  0.00     0.163 HD
ATOM     62  O   UNL A   1      34.423  28.387  23.728  1.00  0.00    -0.275 OA
BRANCH  60  63
ATOM     63  C   UNL A   1      32.821  27.308  25.189  1.00  0.00     0.091 C 
ATOM     64  C   UNL A   1      33.556  25.975  25.044  1.00  0.00     0.014 C 
ATOM     65  C   UNL A   1      31.410  27.309  24.570  1.00  0.00     0.091 C 
ATOM     66  C   UNL A   1      32.712  24.838  25.619  1.00  0.00     0.001 C 
ATOM     67  C   UNL A   1      30.584  26.129  25.113  1.00  0.00     0.014 C 
ATOM     68  C   UNL A   1      31.313  24.789  25.007  1.00  0.00     0.001 C 
BRANCH  65  69
ATOM     69  C   UNL A   1      31.377  27.258  23.034  1.00  0.00     0.228 C 
ATOM     70  O   UNL A   1      32.168  26.562  22.391  1.00  0.00    -0.274 OA
ATOM     71  N   UNL A   1      30.325  27.789  22.339  1.00  0.00    -0.326 N 
ATOM     72  H   UNL A   1      30.273  27.485  21.404  1.00  0.00     0.169 HD
BRANCH  71  73
ATOM     73  C   UNL A   1      29.307  28.681  22.701  1.00  0.00     0.042 A 
ATOM     74  C   UNL A   1      28.023  28.277  23.071  1.00  0.00     0.026 A 
ATOM     75  C   UNL A   1      29.636  30.039  22.748  1.00  0.00     0.041 A 
ATOM     76  C   UNL A   1      27.049  29.226  23.394  1.00  0.00     0.003 A 
ATOM     77  C   UNL A   1      28.658  30.983  23.061  1.00  0.00     0.020 A 
ATOM     78  C   UNL A   1      27.362  30.584  23.372  1.00  0.00     0.016 A 
ATOM     79  Br  UNL A   1      29.094  32.823  23.045  1.00  0.00    -0.051 Br
ENDBRANCH  71  73
ENDBRANCH  65  69
ENDBRANCH  60  63
ENDBRANCH  58  59
ENDBRANCH  57  58
ENDBRANCH   1  57
TORSDOF 13
ENDMDL
MODEL 3
REMARK VINA RESULT:     -11.7      0.200      5.969
REMARK SMILES O=C(NCCCCNC(=O)[C@@H]1CCCC[C@@H]1C(=O)Nc1cccc(Br)c1)c1ccc(-c2c3nc(c(-c4ccccc4)c4ccc([nH]4)c(-c4ccccc4)c4nc(c(-c5ccccc5)c5ccc2[nH]5)C=C4)C=C3)cc1
REMARK SMILES IDX 5 1 4 2 3 3 1 4 2 5 27 7 28 8 74 9 29 10 73 11 30 12 31 13
REMARK SMILES IDX 32 14 67 15 33 16 72 17 66 18 68 19 34 20 71 21 65 22 64 23
REMARK SMILES IDX 35 25 57 26 42 27 56 28 43 29 46 30 55 31 69 32 44 33 45 34
REMARK SMILES IDX 54 36 70 37 47 38 36 39 37 40 41 41 38 42 40 43 39 44 58 45
REMARK SMILES IDX 59 46 63 47 60 48 62 49 61 50 48 51 49 52 53 53 50 54 52 55
REMARK SMILES IDX 51 56 6 57 7 58 8 59 9 60 10 62 11 63 12 64 16 65 13 66
REMARK SMILES IDX 15 67 14 68 17 69 18 70 19 71 20 73 21 74 26 75 22 76 24 77
REMARK SMILES IDX 23 78 25 79
REMARK H PARENT 3 6 68 24 46 35 8 61 19 72
REMARK Flexibility Score: inf
ROOT
ATOM      1  C   UNL A   1      38.107  19.301  24.985  1.00  0.00     0.023 C 
ENDROOT
BRANCH   1   2
ATOM      2  C   UNL A   1      39.287  19.817  25.803  1.00  0.00     0.116 C 
BRANCH   2   3
ATOM      3  N   UNL A   1      40.389  18.872  25.868  1.00  0.00    -0.352 N 
ATOM      4  O   UNL A   1      42.542  18.208  25.993  1.00  0.00    -0.269 OA
ATOM      5  C   UNL A   1      41.721  19.115  26.100  1.00  0.00     0.251 C 
ATOM      6  H   UNL A   1      40.148  17.928  25.726  1.00  0.00     0.163 HD
BRANCH   5   7
ATOM      7  C   UNL A   1      42.167  20.479  26.454  1.00  0.00     0.039 A 
ATOM      8  C   UNL A   1      42.178  20.903  27.784  1.00  0.00     0.014 A 
ATOM      9  C   UNL A   1      42.582  21.342  25.435  1.00  0.00     0.014 A 
ATOM     10  C   UNL A   1      42.484  22.226  28.083  1.00  0.00     0.010 A 
ATOM     11  C   UNL A   1      42.960  22.651  25.746  1.00  0.00     0.010 A 
ATOM     12  C   UNL A   1      42.889  23.111  27.070  1.00  0.00    -0.014 A 
BRANCH  12  13
ATOM     13  C   UNL A   1      43.293  24.493  27.429  1.00  0.00     0.031 A 
ATOM     14  C   UNL A   1      42.277  25.522  27.836  1.00  0.00     0.074 A 
ATOM     15  C   UNL A   1      44.604  24.805  27.412  1.00  0.00     0.049 A 
ATOM     16  N   UNL A   1      42.470  26.765  28.204  1.00  0.00    -0.248 NA
ATOM     17  C   UNL A   1      40.865  25.110  27.828  1.00  0.00     0.031 C 
ATOM     18  C   UNL A   1      45.684  23.891  27.035  1.00  0.00     0.029 A 
ATOM     19  N   UNL A   1      45.251  25.969  27.739  1.00  0.00    -0.354 N 
ATOM     20  C   UNL A   1      41.207  27.286  28.457  1.00  0.00     0.074 A 
ATOM     21  C   UNL A   1      40.254  26.233  28.177  1.00  0.00     0.031 C 
ATOM     22  C   UNL A   1      46.862  24.510  27.201  1.00  0.00     0.029 A 
ATOM     23  C   UNL A   1      46.617  25.880  27.637  1.00  0.00     0.049 A 
ATOM     24  H   UNL A   1      44.781  26.788  28.020  1.00  0.00     0.167 HD
ATOM     25  C   UNL A   1      40.875  28.527  28.887  1.00  0.00     0.031 A 
ATOM     26  C   UNL A   1      47.571  26.802  27.857  1.00  0.00     0.031 A 
ATOM     27  C   UNL A   1      41.824  29.575  29.162  1.00  0.00     0.049 A 
ATOM     28  C   UNL A   1      47.172  28.180  28.292  1.00  0.00     0.074 A 
ATOM     29  C   UNL A   1      41.584  30.858  29.622  1.00  0.00     0.029 A 
ATOM     30  N   UNL A   1      43.196  29.461  28.998  1.00  0.00    -0.354 N 
ATOM     31  N   UNL A   1      45.975  28.649  28.546  1.00  0.00    -0.248 NA
ATOM     32  C   UNL A   1      48.256  29.156  28.466  1.00  0.00     0.031 C 
ATOM     33  C   UNL A   1      42.807  31.535  29.692  1.00  0.00     0.029 A 
ATOM     34  C   UNL A   1      43.813  30.657  29.324  1.00  0.00     0.049 A 
ATOM     35  H   UNL A   1      43.663  28.649  28.694  1.00  0.00     0.167 HD
ATOM     36  C   UNL A   1      46.161  29.970  28.925  1.00  0.00     0.074 A 
ATOM     37  C   UNL A   1      47.587  30.221  28.887  1.00  0.00     0.031 C 
ATOM     38  C   UNL A   1      45.232  30.894  29.272  1.00  0.00     0.031 A 
BRANCH  25  39
ATOM     39  C   UNL A   1      39.414  28.832  29.068  1.00  0.00    -0.014 A 
ATOM     40  C   UNL A   1      38.777  28.642  30.304  1.00  0.00     0.009 A 
ATOM     41  C   UNL A   1      38.676  29.368  27.999  1.00  0.00     0.009 A 
ATOM     42  C   UNL A   1      37.424  28.955  30.458  1.00  0.00     0.001 A 
ATOM     43  C   UNL A   1      37.331  29.702  28.164  1.00  0.00     0.001 A 
ATOM     44  C   UNL A   1      36.704  29.489  29.389  1.00  0.00     0.000 A 
ENDBRANCH  25  39
BRANCH  26  45
ATOM     45  C   UNL A   1      48.999  26.446  27.659  1.00  0.00    -0.014 A 
ATOM     46  C   UNL A   1      49.774  25.983  28.733  1.00  0.00     0.009 A 
ATOM     47  C   UNL A   1      49.589  26.549  26.389  1.00  0.00     0.009 A 
ATOM     48  C   UNL A   1      51.115  25.647  28.542  1.00  0.00     0.001 A 
ATOM     49  C   UNL A   1      50.922  26.185  26.195  1.00  0.00     0.001 A 
ATOM     50  C   UNL A   1      51.686  25.741  27.273  1.00  0.00     0.000 A 
ENDBRANCH  26  45
BRANCH  38  51
ATOM     51  C   UNL A   1      45.738  32.253  29.660  1.00  0.00    -0.014 A 
ATOM     52  C   UNL A   1      45.868  33.277  28.709  1.00  0.00     0.009 A 
ATOM     53  C   UNL A   1      46.069  32.517  30.997  1.00  0.00     0.009 A 
ATOM     54  C   UNL A   1      46.351  34.532  29.087  1.00  0.00     0.001 A 
ATOM     55  C   UNL A   1      46.526  33.779  31.377  1.00  0.00     0.001 A 
ATOM     56  C   UNL A   1      46.676  34.782  30.419  1.00  0.00     0.000 A 
ENDBRANCH  38  51
ENDBRANCH  12  13
ENDBRANCH   5   7
ENDBRANCH   2   3
ENDBRANCH   1   2
BRANCH   1  57
ATOM     57  C   UNL A   1      37.004  20.329  24.705  1.00  0.00     0.023 C 
BRANCH  57  58
ATOM     58  C   UNL A   1      37.267  21.718  25.291  1.00  0.00     0.116 C 
BRANCH  58  59
ATOM     59  N   UNL A   1      36.298  22.047  26.321  1.00  0.00    -0.356 N 
ATOM     60  C   UNL A   1      35.214  22.871  26.289  1.00  0.00     0.223 C 
ATOM     61  H   UNL A   1      36.450  21.601  27.186  1.00  0.00     0.163 HD
ATOM     62  O   UNL A   1      34.674  23.129  27.364  1.00  0.00    -0.275 OA
BRANCH  60  63
ATOM     63  C   UNL A   1      34.674  23.363  24.954  1.00  0.00     0.091 C 
ATOM     64  C   UNL A   1      33.964  24.713  25.064  1.00  0.00     0.014 C 
ATOM     65  C   UNL A   1      33.823  22.266  24.286  1.00  0.00     0.091 C 
ATOM     66  C   UNL A   1      33.474  25.169  23.689  1.00  0.00     0.001 C 
ATOM     67  C   UNL A   1      33.289  22.753  22.927  1.00  0.00     0.014 C 
ATOM     68  C   UNL A   1      32.601  24.117  23.008  1.00  0.00     0.001 C 
BRANCH  65  69
ATOM     69  C   UNL A   1      32.634  21.769  25.124  1.00  0.00     0.228 C 
ATOM     70  O   UNL A   1      31.994  22.529  25.856  1.00  0.00    -0.274 OA
ATOM     71  N   UNL A   1      32.096  20.530  24.909  1.00  0.00    -0.326 N 
ATOM     72  H   UNL A   1      31.203  20.410  25.306  1.00  0.00     0.169 HD
BRANCH  71  73
ATOM     73  C   UNL A   1      32.570  19.398  24.233  1.00  0.00     0.042 A 
ATOM     74  C   UNL A   1      32.236  19.092  22.912  1.00  0.00     0.026 A 
ATOM     75  C   UNL A   1      33.476  18.580  24.915  1.00  0.00     0.041 A 
ATOM     76  C   UNL A   1      32.726  17.930  22.310  1.00  0.00     0.003 A 
ATOM     77  C   UNL A   1      33.954  17.415  24.314  1.00  0.00     0.020 A 
ATOM     78  C   UNL A   1      33.573  17.079  23.019  1.00  0.00     0.016 A 
ATOM     79  Br  UNL A   1      35.116  16.276  25.276  1.00  0.00    -0.051 Br
ENDBRANCH  71  73
ENDBRANCH  65  69
ENDBRANCH  60  63
ENDBRANCH  58  59
ENDBRANCH  57  58
ENDBRANCH   1  57
TORSDOF 13
ENDMDL
