MODEL 1
REMARK VINA RESULT:     -12.3      0.000      0.000
REMARK SMILES [NH3+][C@H]1CN(C(=O)OCC2c3ccccc3-c3ccccc32)C[C@@H]1C(=O)NCCCCNC(=O)c1ccc(-c2c3nc(c(-c4ccccc4)c4ccc([nH]4)c(-c4ccccc4)c4nc(c(-c5ccccc5)c5ccc2[nH]5)C=C4)C=C3)cc1
REMARK SMILES IDX 27 1 26 2 24 3 25 4 23 6 2 7 3 8 4 9 22 10 1 11 5 15 6 16
REMARK SMILES IDX 7 17 8 18 9 19 10 20 21 21 11 22 15 23 16 24 20 25 12 26
REMARK SMILES IDX 14 27 17 28 19 29 13 30 18 31 28 32 29 33 30 34 31 35 32 36
REMARK SMILES IDX 33 38 34 39 35 40 81 41 36 42 80 43 37 44 38 45 39 46 74 47
REMARK SMILES IDX 40 48 79 49 73 50 75 51 41 52 78 53 72 54 71 55 42 57 64 58
REMARK SMILES IDX 49 59 63 60 50 61 53 62 62 63 76 64 51 65 52 66 61 68 77 69
REMARK SMILES IDX 54 70 43 71 44 72 48 73 45 74 47 75 46 76 65 77 66 78 70 79
REMARK SMILES IDX 67 80 69 81 68 82 55 83 56 84 60 85 57 86 59 87 58 88
REMARK H PARENT 26 5 1 12 1 13 1 14 31 37 75 56 53 67
REMARK Flexibility Score: inf
ROOT
ATOM      1  C   UNL A   1      33.077  30.100  25.945  1.00  0.00     0.116 C 
ENDROOT
BRANCH   1   2
ATOM      2  N   UNL A   1      33.274  28.660  25.882  1.00  0.00    -0.356 N 
ATOM      3  C   UNL A   1      33.126  27.812  24.820  1.00  0.00     0.231 C 
ATOM      4  O   UNL A   1      33.119  26.600  25.030  1.00  0.00    -0.274 OA
ATOM      5  H   UNL A   1      33.554  28.236  26.725  1.00  0.00     0.163 HD
BRANCH   3   6
ATOM      6  C   UNL A   1      33.040  28.404  23.426  1.00  0.00     0.158 C 
ATOM      7  C   UNL A   1      31.603  28.489  22.886  1.00  0.00     0.215 C 
ATOM      8  C   UNL A   1      31.367  27.119  22.213  1.00  0.00     0.188 C 
ATOM      9  N   UNL A   1      32.681  26.538  22.039  1.00  0.00    -0.301 N 
ATOM     10  C   UNL A   1      33.731  27.435  22.477  1.00  0.00     0.143 C 
BRANCH   7  11
ATOM     11  N   UNL A   1      31.500  29.594  21.911  1.00  0.00    -0.353 N 
ATOM     12  H   UNL A   1      32.265  29.528  21.241  1.00  0.00     0.344 HD
ATOM     13  H   UNL A   1      31.553  30.486  22.401  1.00  0.00     0.344 HD
ATOM     14  H   UNL A   1      30.609  29.530  21.418  1.00  0.00     0.344 HD
ENDBRANCH   7  11
BRANCH   9  15
ATOM     15  C   UNL A   1      32.910  25.226  21.720  1.00  0.00     0.410 C 
ATOM     16  O   UNL A   1      33.274  24.857  20.613  1.00  0.00    -0.224 OA
BRANCH  15  17
ATOM     17  O   UNL A   1      32.576  24.396  22.744  1.00  0.00    -0.448 OA
BRANCH  17  18
ATOM     18  C   UNL A   1      33.209  23.097  22.737  1.00  0.00     0.248 C 
BRANCH  18  19
ATOM     19  C   UNL A   1      33.404  22.539  24.165  1.00  0.00     0.088 C 
ATOM     20  C   UNL A   1      33.338  21.012  24.254  1.00  0.00    -0.029 A 
ATOM     21  C   UNL A   1      34.826  22.798  24.671  1.00  0.00    -0.029 A 
ATOM     22  C   UNL A   1      32.255  20.171  24.056  1.00  0.00     0.005 A 
ATOM     23  C   UNL A   1      34.596  20.484  24.609  1.00  0.00    -0.014 A 
ATOM     24  C   UNL A   1      35.495  21.577  24.906  1.00  0.00    -0.014 A 
ATOM     25  C   UNL A   1      35.446  24.012  24.930  1.00  0.00     0.005 A 
ATOM     26  C   UNL A   1      32.464  18.790  24.084  1.00  0.00     0.000 A 
ATOM     27  C   UNL A   1      34.803  19.115  24.657  1.00  0.00     0.009 A 
ATOM     28  C   UNL A   1      36.786  21.560  25.407  1.00  0.00     0.009 A 
ATOM     29  C   UNL A   1      36.750  23.994  25.433  1.00  0.00     0.000 A 
ATOM     30  C   UNL A   1      33.732  18.265  24.367  1.00  0.00     0.001 A 
ATOM     31  C   UNL A   1      37.413  22.780  25.672  1.00  0.00     0.001 A 
ENDBRANCH  18  19
ENDBRANCH  17  18
ENDBRANCH  15  17
ENDBRANCH   9  15
ENDBRANCH   3   6
ENDBRANCH   1   2
BRANCH   1  32
ATOM     32  C   UNL A   1      31.750  30.433  26.629  1.00  0.00     0.023 C 
BRANCH  32  33
ATOM     33  C   UNL A   1      31.521  31.931  26.861  1.00  0.00     0.023 C 
BRANCH  33  34
ATOM     34  C   UNL A   1      32.782  32.738  27.153  1.00  0.00     0.116 C 
BRANCH  34  35
ATOM     35  N   UNL A   1      32.494  34.050  27.714  1.00  0.00    -0.352 N 
ATOM     36  C   UNL A   1      33.141  34.725  28.721  1.00  0.00     0.251 C 
ATOM     37  H   UNL A   1      31.727  34.520  27.315  1.00  0.00     0.163 HD
ATOM     38  O   UNL A   1      32.664  35.763  29.169  1.00  0.00    -0.269 OA
BRANCH  36  39
ATOM     39  C   UNL A   1      34.393  34.182  29.290  1.00  0.00     0.039 A 
ATOM     40  C   UNL A   1      34.323  33.396  30.442  1.00  0.00     0.014 A 
ATOM     41  C   UNL A   1      35.629  34.439  28.690  1.00  0.00     0.014 A 
ATOM     42  C   UNL A   1      35.485  32.809  30.952  1.00  0.00     0.010 A 
ATOM     43  C   UNL A   1      36.771  33.791  29.152  1.00  0.00     0.010 A 
ATOM     44  C   UNL A   1      36.712  32.970  30.289  1.00  0.00    -0.014 A 
BRANCH  44  45
ATOM     45  C   UNL A   1      37.938  32.277  30.762  1.00  0.00     0.031 A 
ATOM     46  C   UNL A   1      38.749  32.851  31.892  1.00  0.00     0.074 A 
ATOM     47  C   UNL A   1      38.358  31.160  30.135  1.00  0.00     0.049 A 
ATOM     48  N   UNL A   1      39.868  32.414  32.411  1.00  0.00    -0.248 NA
ATOM     49  C   UNL A   1      38.247  34.091  32.507  1.00  0.00     0.031 C 
ATOM     50  C   UNL A   1      37.685  30.518  29.005  1.00  0.00     0.029 A 
ATOM     51  N   UNL A   1      39.456  30.367  30.361  1.00  0.00    -0.354 N 
ATOM     52  C   UNL A   1      40.212  33.330  33.397  1.00  0.00     0.074 A 
ATOM     53  C   UNL A   1      39.212  34.374  33.369  1.00  0.00     0.031 C 
ATOM     54  C   UNL A   1      38.365  29.413  28.657  1.00  0.00     0.029 A 
ATOM     55  C   UNL A   1      39.547  29.295  29.505  1.00  0.00     0.049 A 
ATOM     56  H   UNL A   1      40.116  30.549  31.067  1.00  0.00     0.167 HD
ATOM     57  C   UNL A   1      41.255  33.298  34.260  1.00  0.00     0.031 A 
ATOM     58  C   UNL A   1      40.480  28.330  29.407  1.00  0.00     0.031 A 
ATOM     59  C   UNL A   1      42.251  32.259  34.288  1.00  0.00     0.049 A 
ATOM     60  C   UNL A   1      41.648  28.337  30.354  1.00  0.00     0.074 A 
ATOM     61  C   UNL A   1      43.316  32.111  35.161  1.00  0.00     0.029 A 
ATOM     62  N   UNL A   1      42.313  31.199  33.398  1.00  0.00    -0.354 N 
ATOM     63  N   UNL A   1      41.918  29.171  31.329  1.00  0.00    -0.248 NA
ATOM     64  C   UNL A   1      42.635  27.261  30.192  1.00  0.00     0.031 C 
ATOM     65  C   UNL A   1      44.059  30.997  34.758  1.00  0.00     0.029 A 
ATOM     66  C   UNL A   1      43.417  30.410  33.679  1.00  0.00     0.049 A 
ATOM     67  H   UNL A   1      41.668  31.030  32.673  1.00  0.00     0.167 HD
ATOM     68  C   UNL A   1      43.087  28.702  31.915  1.00  0.00     0.074 A 
ATOM     69  C   UNL A   1      43.464  27.502  31.198  1.00  0.00     0.031 C 
ATOM     70  C   UNL A   1      43.784  29.220  32.956  1.00  0.00     0.031 A 
BRANCH  57  71
ATOM     71  C   UNL A   1      41.380  34.434  35.240  1.00  0.00    -0.014 A 
ATOM     72  C   UNL A   1      42.102  35.597  34.924  1.00  0.00     0.009 A 
ATOM     73  C   UNL A   1      40.736  34.354  36.485  1.00  0.00     0.009 A 
ATOM     74  C   UNL A   1      42.209  36.637  35.849  1.00  0.00     0.001 A 
ATOM     75  C   UNL A   1      40.818  35.410  37.395  1.00  0.00     0.001 A 
ATOM     76  C   UNL A   1      41.563  36.545  37.081  1.00  0.00     0.000 A 
ENDBRANCH  57  71
BRANCH  58  77
ATOM     77  C   UNL A   1      40.347  27.264  28.377  1.00  0.00    -0.014 A 
ATOM     78  C   UNL A   1      39.636  26.088  28.657  1.00  0.00     0.009 A 
ATOM     79  C   UNL A   1      40.939  27.414  27.113  1.00  0.00     0.009 A 
ATOM     80  C   UNL A   1      39.546  25.069  27.704  1.00  0.00     0.001 A 
ATOM     81  C   UNL A   1      40.819  26.410  26.150  1.00  0.00     0.001 A 
ATOM     82  C   UNL A   1      40.133  25.234  26.450  1.00  0.00     0.000 A 
ENDBRANCH  58  77
BRANCH  70  83
ATOM     83  C   UNL A   1      45.008  28.470  33.408  1.00  0.00    -0.014 A 
ATOM     84  C   UNL A   1      44.924  27.417  34.333  1.00  0.00     0.009 A 
ATOM     85  C   UNL A   1      46.261  28.798  32.865  1.00  0.00     0.009 A 
ATOM     86  C   UNL A   1      46.075  26.735  34.734  1.00  0.00     0.001 A 
ATOM     87  C   UNL A   1      47.405  28.091  33.241  1.00  0.00     0.001 A 
ATOM     88  C   UNL A   1      47.313  27.068  34.183  1.00  0.00     0.000 A 
ENDBRANCH  70  83
ENDBRANCH  44  45
ENDBRANCH  36  39
ENDBRANCH  34  35
ENDBRANCH  33  34
ENDBRANCH  32  33
ENDBRANCH   1  32
TORSDOF 16
ENDMDL
MODEL 2
REMARK VINA RESULT:     -12.2      4.228      9.479
REMARK SMILES [NH3+][C@H]1CN(C(=O)OCC2c3ccccc3-c3ccccc32)C[C@@H]1C(=O)NCCCCNC(=O)c1ccc(-c2c3nc(c(-c4ccccc4)c4ccc([nH]4)c(-c4ccccc4)c4nc(c(-c5ccccc5)c5ccc2[nH]5)C=C4)C=C3)cc1
REMARK SMILES IDX 27 1 26 2 24 3 25 4 23 6 2 7 3 8 4 9 22 10 1 11 5 15 6 16
REMARK SMILES IDX 7 17 8 18 9 19 10 20 21 21 11 22 15 23 16 24 20 25 12 26
REMARK SMILES IDX 14 27 17 28 19 29 13 30 18 31 28 32 29 33 30 34 31 35 32 36
REMARK SMILES IDX 33 38 34 39 35 40 81 41 36 42 80 43 37 44 38 45 39 46 74 47
REMARK SMILES IDX 40 48 79 49 73 50 75 51 41 52 78 53 72 54 71 55 42 57 64 58
REMARK SMILES IDX 49 59 63 60 50 61 53 62 62 63 76 64 51 65 52 66 61 68 77 69
REMARK SMILES IDX 54 70 43 71 44 72 48 73 45 74 47 75 46 76 65 77 66 78 70 79
REMARK SMILES IDX 67 80 69 81 68 82 55 83 56 84 60 85 57 86 59 87 58 88
REMARK H PARENT 26 5 1 12 1 13 1 14 31 37 75 56 53 67
REMARK Flexibility Score: inf
ROOT
ATOM      1  C   UNL A   1      37.042  22.001  25.771  1.00  0.00     0.116 C 
ENDROOT
BRANCH   1   2
ATOM      2  N   UNL A   1      36.078  23.051  25.480  1.00  0.00    -0.356 N 
ATOM      3  C   UNL A   1      34.719  23.046  25.636  1.00  0.00     0.231 C 
ATOM      4  O   UNL A   1      34.063  23.947  25.116  1.00  0.00    -0.274 OA
ATOM      5  H   UNL A   1      36.458  23.884  25.118  1.00  0.00     0.163 HD
BRANCH   3   6
ATOM      6  C   UNL A   1      34.092  21.964  26.492  1.00  0.00     0.158 C 
ATOM      7  C   UNL A   1      33.296  20.927  25.682  1.00  0.00     0.215 C 
ATOM      8  C   UNL A   1      31.877  21.531  25.580  1.00  0.00     0.188 C 
ATOM      9  N   UNL A   1      31.820  22.565  26.593  1.00  0.00    -0.301 N 
ATOM     10  C   UNL A   1      33.040  22.629  27.369  1.00  0.00     0.143 C 
BRANCH   7  11
ATOM     11  N   UNL A   1      33.281  19.636  26.399  1.00  0.00    -0.353 N 
ATOM     12  H   UNL A   1      34.096  19.088  26.128  1.00  0.00     0.344 HD
ATOM     13  H   UNL A   1      32.432  19.125  26.162  1.00  0.00     0.344 HD
ATOM     14  H   UNL A   1      33.305  19.806  27.405  1.00  0.00     0.344 HD
ENDBRANCH   7  11
BRANCH   9  15
ATOM     15  C   UNL A   1      30.839  23.517  26.669  1.00  0.00     0.410 C 
ATOM     16  O   UNL A   1      29.827  23.389  27.342  1.00  0.00    -0.224 OA
BRANCH  15  17
ATOM     17  O   UNL A   1      31.083  24.556  25.825  1.00  0.00    -0.448 OA
BRANCH  17  18
ATOM     18  C   UNL A   1      30.056  25.570  25.757  1.00  0.00     0.248 C 
BRANCH  18  19
ATOM     19  C   UNL A   1      30.570  26.873  25.101  1.00  0.00     0.088 C 
ATOM     20  C   UNL A   1      31.636  27.605  25.919  1.00  0.00    -0.029 A 
ATOM     21  C   UNL A   1      31.345  26.576  23.814  1.00  0.00    -0.029 A 
ATOM     22  C   UNL A   1      31.511  28.250  27.140  1.00  0.00     0.005 A 
ATOM     23  C   UNL A   1      32.875  27.582  25.247  1.00  0.00    -0.014 A 
ATOM     24  C   UNL A   1      32.688  26.990  23.942  1.00  0.00    -0.014 A 
ATOM     25  C   UNL A   1      30.879  26.020  22.631  1.00  0.00     0.005 A 
ATOM     26  C   UNL A   1      32.660  28.758  27.750  1.00  0.00     0.000 A 
ATOM     27  C   UNL A   1      34.014  28.103  25.841  1.00  0.00     0.009 A 
ATOM     28  C   UNL A   1      33.575  26.859  22.886  1.00  0.00     0.009 A 
ATOM     29  C   UNL A   1      31.776  25.885  21.567  1.00  0.00     0.000 A 
ATOM     30  C   UNL A   1      33.906  28.671  27.113  1.00  0.00     0.001 A 
ATOM     31  C   UNL A   1      33.110  26.303  21.692  1.00  0.00     0.001 A 
ENDBRANCH  18  19
ENDBRANCH  17  18
ENDBRANCH  15  17
ENDBRANCH   9  15
ENDBRANCH   3   6
ENDBRANCH   1   2
BRANCH   1  32
ATOM     32  C   UNL A   1      37.081  20.975  24.638  1.00  0.00     0.023 C 
BRANCH  32  33
ATOM     33  C   UNL A   1      38.121  19.865  24.831  1.00  0.00     0.023 C 
BRANCH  33  34
ATOM     34  C   UNL A   1      39.144  20.125  25.931  1.00  0.00     0.116 C 
BRANCH  34  35
ATOM     35  N   UNL A   1      40.230  19.156  25.931  1.00  0.00    -0.352 N 
ATOM     36  C   UNL A   1      41.574  19.357  26.132  1.00  0.00     0.251 C 
ATOM     37  H   UNL A   1      39.963  18.223  25.763  1.00  0.00     0.163 HD
ATOM     38  O   UNL A   1      42.367  18.439  25.945  1.00  0.00    -0.269 OA
BRANCH  36  39
ATOM     39  C   UNL A   1      42.070  20.689  26.539  1.00  0.00     0.039 A 
ATOM     40  C   UNL A   1      42.477  21.587  25.550  1.00  0.00     0.014 A 
ATOM     41  C   UNL A   1      42.127  21.056  27.886  1.00  0.00     0.014 A 
ATOM     42  C   UNL A   1      42.876  22.878  25.907  1.00  0.00     0.010 A 
ATOM     43  C   UNL A   1      42.448  22.366  28.234  1.00  0.00     0.010 A 
ATOM     44  C   UNL A   1      42.827  23.290  27.248  1.00  0.00    -0.014 A 
BRANCH  44  45
ATOM     45  C   UNL A   1      43.155  24.687  27.636  1.00  0.00     0.031 A 
ATOM     46  C   UNL A   1      44.590  25.131  27.738  1.00  0.00     0.074 A 
ATOM     47  C   UNL A   1      42.164  25.543  27.953  1.00  0.00     0.049 A 
ATOM     48  N   UNL A   1      45.070  26.292  28.104  1.00  0.00    -0.248 NA
ATOM     49  C   UNL A   1      45.620  24.132  27.408  1.00  0.00     0.031 C 
ATOM     50  C   UNL A   1      40.734  25.231  27.928  1.00  0.00     0.029 A 
ATOM     51  N   UNL A   1      42.210  26.853  28.362  1.00  0.00    -0.354 N 
ATOM     52  C   UNL A   1      46.453  26.158  28.064  1.00  0.00     0.074 A 
ATOM     53  C   UNL A   1      46.734  24.791  27.690  1.00  0.00     0.031 C 
ATOM     54  C   UNL A   1      40.038  26.326  28.273  1.00  0.00     0.029 A 
ATOM     55  C   UNL A   1      40.972  27.402  28.590  1.00  0.00     0.049 A 
ATOM     56  H   UNL A   1      43.051  27.350  28.481  1.00  0.00     0.167 HD
ATOM     57  C   UNL A   1      47.404  27.095  28.299  1.00  0.00     0.031 A 
ATOM     58  C   UNL A   1      40.624  28.632  29.017  1.00  0.00     0.031 A 
ATOM     59  C   UNL A   1      47.125  28.456  28.671  1.00  0.00     0.049 A 
ATOM     60  C   UNL A   1      41.701  29.641  29.306  1.00  0.00     0.074 A 
ATOM     61  C   UNL A   1      48.020  29.492  28.879  1.00  0.00     0.029 A 
ATOM     62  N   UNL A   1      45.858  28.969  28.904  1.00  0.00    -0.354 N 
ATOM     63  N   UNL A   1      43.001  29.520  29.191  1.00  0.00    -0.248 NA
ATOM     64  C   UNL A   1      41.258  30.962  29.774  1.00  0.00     0.031 C 
ATOM     65  C   UNL A   1      47.298  30.614  29.300  1.00  0.00     0.029 A 
ATOM     66  C   UNL A   1      45.949  30.298  29.285  1.00  0.00     0.049 A 
ATOM     67  H   UNL A   1      45.018  28.464  28.811  1.00  0.00     0.167 HD
ATOM     68  C   UNL A   1      43.528  30.757  29.542  1.00  0.00     0.074 A 
ATOM     69  C   UNL A   1      42.407  31.617  29.856  1.00  0.00     0.031 C 
ATOM     70  C   UNL A   1      44.826  31.143  29.598  1.00  0.00     0.031 A 
BRANCH  57  71
ATOM     71  C   UNL A   1      48.842  26.668  28.174  1.00  0.00    -0.014 A 
ATOM     72  C   UNL A   1      49.559  26.180  29.279  1.00  0.00     0.009 A 
ATOM     73  C   UNL A   1      49.479  26.723  26.925  1.00  0.00     0.009 A 
ATOM     74  C   UNL A   1      50.894  25.794  29.144  1.00  0.00     0.001 A 
ATOM     75  C   UNL A   1      50.804  26.306  26.785  1.00  0.00     0.001 A 
ATOM     76  C   UNL A   1      51.514  25.853  27.896  1.00  0.00     0.000 A 
ENDBRANCH  57  71
BRANCH  58  77
ATOM     77  C   UNL A   1      39.189  28.984  29.188  1.00  0.00    -0.014 A 
ATOM     78  C   UNL A   1      38.547  28.776  30.418  1.00  0.00     0.009 A 
ATOM     79  C   UNL A   1      38.451  29.518  28.120  1.00  0.00     0.009 A 
ATOM     80  C   UNL A   1      37.188  29.067  30.567  1.00  0.00     0.001 A 
ATOM     81  C   UNL A   1      37.102  29.840  28.281  1.00  0.00     0.001 A 
ATOM     82  C   UNL A   1      36.469  29.604  29.501  1.00  0.00     0.000 A 
ENDBRANCH  58  77
BRANCH  70  83
ATOM     83  C   UNL A   1      45.104  32.573  29.977  1.00  0.00    -0.014 A 
ATOM     84  C   UNL A   1      45.340  32.947  31.309  1.00  0.00     0.009 A 
ATOM     85  C   UNL A   1      45.171  33.554  28.975  1.00  0.00     0.009 A 
ATOM     86  C   UNL A   1      45.598  34.281  31.633  1.00  0.00     0.001 A 
ATOM     87  C   UNL A   1      45.464  34.881  29.297  1.00  0.00     0.001 A 
ATOM     88  C   UNL A   1      45.666  35.245  30.627  1.00  0.00     0.000 A 
ENDBRANCH  70  83
ENDBRANCH  44  45
ENDBRANCH  36  39
ENDBRANCH  34  35
ENDBRANCH  33  34
ENDBRANCH  32  33
ENDBRANCH   1  32
TORSDOF 16
ENDMDL
MODEL 3
REMARK VINA RESULT:     -12.2      4.305      9.368
REMARK SMILES [NH3+][C@H]1CN(C(=O)OCC2c3ccccc3-c3ccccc32)C[C@@H]1C(=O)NCCCCNC(=O)c1ccc(-c2c3nc(c(-c4ccccc4)c4ccc([nH]4)c(-c4ccccc4)c4nc(c(-c5ccccc5)c5ccc2[nH]5)C=C4)C=C3)cc1
REMARK SMILES IDX 27 1 26 2 24 3 25 4 23 6 2 7 3 8 4 9 22 10 1 11 5 15 6 16
REMARK SMILES IDX 7 17 8 18 9 19 10 20 21 21 11 22 15 23 16 24 20 25 12 26
REMARK SMILES IDX 14 27 17 28 19 29 13 30 18 31 28 32 29 33 30 34 31 35 32 36
REMARK SMILES IDX 33 38 34 39 35 40 81 41 36 42 80 43 37 44 38 45 39 46 74 47
REMARK SMILES IDX 40 48 79 49 73 50 75 51 41 52 78 53 72 54 71 55 42 57 64 58
REMARK SMILES IDX 49 59 63 60 50 61 53 62 62 63 76 64 51 65 52 66 61 68 77 69
REMARK SMILES IDX 54 70 43 71 44 72 48 73 45 74 47 75 46 76 65 77 66 78 70 79
REMARK SMILES IDX 67 80 69 81 68 82 55 83 56 84 60 85 57 86 59 87 58 88
REMARK H PARENT 26 5 1 12 1 13 1 14 31 37 75 56 53 67
REMARK Flexibility Score: inf
ROOT
ATOM      1  C   UNL A   1      36.950  22.260  25.780  1.00  0.00     0.116 C 
ENDROOT
BRANCH   1   2
ATOM      2  N   UNL A   1      35.998  23.328  25.515  1.00  0.00    -0.356 N 
ATOM      3  C   UNL A   1      34.639  23.335  25.670  1.00  0.00     0.231 C 
ATOM      4  O   UNL A   1      33.995  24.257  25.174  1.00  0.00    -0.274 OA
ATOM      5  H   UNL A   1      36.388  24.165  25.175  1.00  0.00     0.163 HD
BRANCH   3   6
ATOM      6  C   UNL A   1      33.999  22.239  26.499  1.00  0.00     0.158 C 
ATOM      7  C   UNL A   1      33.271  21.180  25.654  1.00  0.00     0.215 C 
ATOM      8  C   UNL A   1      31.844  21.746  25.480  1.00  0.00     0.188 C 
ATOM      9  N   UNL A   1      31.709  22.780  26.484  1.00  0.00    -0.301 N 
ATOM     10  C   UNL A   1      32.888  22.879  27.320  1.00  0.00     0.143 C 
BRANCH   7  11
ATOM     11  N   UNL A   1      33.254  19.890  26.374  1.00  0.00    -0.353 N 
ATOM     12  H   UNL A   1      33.596  20.028  27.325  1.00  0.00     0.344 HD
ATOM     13  H   UNL A   1      33.853  19.223  25.890  1.00  0.00     0.344 HD
ATOM     14  H   UNL A   1      32.300  19.531  26.405  1.00  0.00     0.344 HD
ENDBRANCH   7  11
BRANCH   9  15
ATOM     15  C   UNL A   1      30.702  23.707  26.508  1.00  0.00     0.410 C 
ATOM     16  O   UNL A   1      29.830  23.731  27.364  1.00  0.00    -0.224 OA
BRANCH  15  17
ATOM     17  O   UNL A   1      30.735  24.512  25.412  1.00  0.00    -0.448 OA
BRANCH  17  18
ATOM     18  C   UNL A   1      30.448  25.909  25.643  1.00  0.00     0.248 C 
BRANCH  18  19
ATOM     19  C   UNL A   1      31.277  26.832  24.721  1.00  0.00     0.088 C 
ATOM     20  C   UNL A   1      30.449  27.893  23.993  1.00  0.00    -0.029 A 
ATOM     21  C   UNL A   1      32.230  27.713  25.533  1.00  0.00    -0.029 A 
ATOM     22  C   UNL A   1      29.496  27.730  23.000  1.00  0.00     0.005 A 
ATOM     23  C   UNL A   1      30.787  29.183  24.452  1.00  0.00    -0.014 A 
ATOM     24  C   UNL A   1      31.905  29.076  25.362  1.00  0.00    -0.014 A 
ATOM     25  C   UNL A   1      33.307  27.330  26.320  1.00  0.00     0.005 A 
ATOM     26  C   UNL A   1      28.788  28.850  22.559  1.00  0.00     0.000 A 
ATOM     27  C   UNL A   1      30.099  30.299  24.003  1.00  0.00     0.009 A 
ATOM     28  C   UNL A   1      32.658  30.067  25.971  1.00  0.00     0.009 A 
ATOM     29  C   UNL A   1      34.064  28.331  26.936  1.00  0.00     0.000 A 
ATOM     30  C   UNL A   1      29.075  30.123  23.069  1.00  0.00     0.001 A 
ATOM     31  C   UNL A   1      33.745  29.686  26.761  1.00  0.00     0.001 A 
ENDBRANCH  18  19
ENDBRANCH  17  18
ENDBRANCH  15  17
ENDBRANCH   9  15
ENDBRANCH   3   6
ENDBRANCH   1   2
BRANCH   1  32
ATOM     32  C   UNL A   1      36.929  21.227  24.653  1.00  0.00     0.023 C 
BRANCH  32  33
ATOM     33  C   UNL A   1      37.946  20.092  24.821  1.00  0.00     0.023 C 
BRANCH  33  34
ATOM     34  C   UNL A   1      39.057  20.366  25.829  1.00  0.00     0.116 C 
BRANCH  34  35
ATOM     35  N   UNL A   1      40.069  19.321  25.850  1.00  0.00    -0.352 N 
ATOM     36  C   UNL A   1      41.414  19.420  26.108  1.00  0.00     0.251 C 
ATOM     37  H   UNL A   1      39.743  18.414  25.651  1.00  0.00     0.163 HD
ATOM     38  O   UNL A   1      42.147  18.451  25.932  1.00  0.00    -0.269 OA
BRANCH  36  39
ATOM     39  C   UNL A   1      41.987  20.704  26.564  1.00  0.00     0.039 A 
ATOM     40  C   UNL A   1      42.606  21.536  25.628  1.00  0.00     0.014 A 
ATOM     41  C   UNL A   1      41.911  21.093  27.905  1.00  0.00     0.014 A 
ATOM     42  C   UNL A   1      43.085  22.788  26.022  1.00  0.00     0.010 A 
ATOM     43  C   UNL A   1      42.317  22.371  28.280  1.00  0.00     0.010 A 
ATOM     44  C   UNL A   1      42.909  23.232  27.343  1.00  0.00    -0.014 A 
BRANCH  44  45
ATOM     45  C   UNL A   1      43.326  24.597  27.757  1.00  0.00     0.031 A 
ATOM     46  C   UNL A   1      42.294  25.642  28.085  1.00  0.00     0.074 A 
ATOM     47  C   UNL A   1      44.635  24.916  27.783  1.00  0.00     0.049 A 
ATOM     48  N   UNL A   1      42.466  26.896  28.420  1.00  0.00    -0.248 NA
ATOM     49  C   UNL A   1      40.883  25.231  28.003  1.00  0.00     0.031 C 
ATOM     50  C   UNL A   1      45.736  24.008  27.456  1.00  0.00     0.029 A 
ATOM     51  N   UNL A   1      45.262  26.096  28.097  1.00  0.00    -0.354 N 
ATOM     52  C   UNL A   1      41.190  27.424  28.573  1.00  0.00     0.074 A 
ATOM     53  C   UNL A   1      40.255  26.372  28.243  1.00  0.00     0.031 C 
ATOM     54  C   UNL A   1      46.902  24.653  27.618  1.00  0.00     0.029 A 
ATOM     55  C   UNL A   1      46.632  26.032  28.012  1.00  0.00     0.049 A 
ATOM     56  H   UNL A   1      44.777  26.911  28.358  1.00  0.00     0.167 HD
ATOM     57  C   UNL A   1      40.829  28.668  28.969  1.00  0.00     0.031 A 
ATOM     58  C   UNL A   1      47.568  26.979  28.219  1.00  0.00     0.031 A 
ATOM     59  C   UNL A   1      41.759  29.716  29.298  1.00  0.00     0.049 A 
ATOM     60  C   UNL A   1      47.138  28.362  28.623  1.00  0.00     0.074 A 
ATOM     61  C   UNL A   1      41.489  30.993  29.761  1.00  0.00     0.029 A 
ATOM     62  N   UNL A   1      43.137  29.614  29.187  1.00  0.00    -0.354 N 
ATOM     63  N   UNL A   1      45.930  28.824  28.835  1.00  0.00    -0.248 NA
ATOM     64  C   UNL A   1      48.206  29.350  28.828  1.00  0.00     0.031 C 
ATOM     65  C   UNL A   1      42.700  31.683  29.868  1.00  0.00     0.029 A 
ATOM     66  C   UNL A   1      43.729  30.815  29.541  1.00  0.00     0.049 A 
ATOM     67  H   UNL A   1      43.623  28.807  28.900  1.00  0.00     0.167 HD
ATOM     68  C   UNL A   1      46.094  30.146  29.227  1.00  0.00     0.074 A 
ATOM     69  C   UNL A   1      47.519  30.406  29.240  1.00  0.00     0.031 C 
ATOM     70  C   UNL A   1      45.148  31.063  29.547  1.00  0.00     0.031 A 
BRANCH  57  71
ATOM     71  C   UNL A   1      39.356  28.968  29.055  1.00  0.00    -0.014 A 
ATOM     72  C   UNL A   1      38.639  28.777  30.248  1.00  0.00     0.009 A 
ATOM     73  C   UNL A   1      38.683  29.481  27.935  1.00  0.00     0.009 A 
ATOM     74  C   UNL A   1      37.271  29.056  30.305  1.00  0.00     0.001 A 
ATOM     75  C   UNL A   1      37.323  29.789  28.004  1.00  0.00     0.001 A 
ATOM     76  C   UNL A   1      36.616  29.567  29.185  1.00  0.00     0.000 A 
ENDBRANCH  57  71
BRANCH  58  77
ATOM     77  C   UNL A   1      49.010  26.650  28.057  1.00  0.00    -0.014 A 
ATOM     78  C   UNL A   1      49.628  26.755  26.802  1.00  0.00     0.009 A 
ATOM     79  C   UNL A   1      49.773  26.217  29.153  1.00  0.00     0.009 A 
ATOM     80  C   UNL A   1      50.971  26.406  26.640  1.00  0.00     0.001 A 
ATOM     81  C   UNL A   1      51.124  25.902  28.997  1.00  0.00     0.001 A 
ATOM     82  C   UNL A   1      51.719  25.986  27.739  1.00  0.00     0.000 A 
ENDBRANCH  58  77
BRANCH  70  83
ATOM     83  C   UNL A   1      45.624  32.423  29.979  1.00  0.00    -0.014 A 
ATOM     84  C   UNL A   1      45.855  32.727  31.330  1.00  0.00     0.009 A 
ATOM     85  C   UNL A   1      45.886  33.405  29.009  1.00  0.00     0.009 A 
ATOM     86  C   UNL A   1      46.299  33.997  31.703  1.00  0.00     0.001 A 
ATOM     87  C   UNL A   1      46.364  34.663  29.381  1.00  0.00     0.001 A 
ATOM     88  C   UNL A   1      46.560  34.961  30.729  1.00  0.00     0.000 A 
ENDBRANCH  70  83
ENDBRANCH  44  45
ENDBRANCH  36  39
ENDBRANCH  34  35
ENDBRANCH  33  34
ENDBRANCH  32  33
ENDBRANCH   1  32
TORSDOF 16
ENDMDL
