MODEL 1
REMARK VINA RESULT:     -11.6      0.000      0.000
REMARK SMILES NC(=O)C1CC[NH+](Cc2ccc(C(=O)NCCCCNC(=O)c3ccc(-c4c5nc(c(-c6ccccc6)c6ccc([nH]6)c(-c6ccccc6)c6nc(c(-c7ccccc7)c7ccc4[nH]7)C=C6)C=C5)cc3)cc2)CC1
REMARK SMILES IDX 17 1 16 2 15 3 13 4 14 5 12 7 9 8 10 9 72 10 11 11 71 12
REMARK SMILES IDX 8 13 7 14 4 15 5 16 74 17 6 18 73 19 2 21 1 22 3 25 18 26
REMARK SMILES IDX 19 27 20 28 21 29 22 31 23 32 24 33 70 34 25 35 69 36 26 37
REMARK SMILES IDX 27 38 28 39 63 40 29 41 68 42 62 43 64 44 30 45 67 46 61 47
REMARK SMILES IDX 60 48 31 50 53 51 38 52 52 53 39 54 42 55 51 56 65 57 40 58
REMARK SMILES IDX 41 59 50 61 66 62 43 63 32 64 33 65 37 66 34 67 36 68 35 69
REMARK SMILES IDX 54 70 55 71 59 72 56 73 58 74 57 75 44 76 45 77 49 78 46 79
REMARK SMILES IDX 48 80 47 81
REMARK H PARENT 15 6 7 20 1 23 1 24 20 30 64 49 42 60
REMARK Flexibility Score: inf
ROOT
ATOM      1  C   UNL A   1      36.620  19.640  24.853  1.00  0.00     0.023 C 
ENDROOT
BRANCH   1   2
ATOM      2  C   UNL A   1      35.340  20.403  25.197  1.00  0.00     0.116 C 
BRANCH   2   3
ATOM      3  N   UNL A   1      34.206  19.502  25.292  1.00  0.00    -0.352 N 
ATOM      4  C   UNL A   1      32.876  19.705  25.005  1.00  0.00     0.251 C 
ATOM      5  O   UNL A   1      32.105  18.752  25.082  1.00  0.00    -0.269 OA
ATOM      6  H   UNL A   1      34.424  18.599  25.614  1.00  0.00     0.163 HD
BRANCH   4   7
ATOM      7  C   UNL A   1      32.368  21.022  24.547  1.00  0.00     0.039 A 
ATOM      8  C   UNL A   1      31.181  23.450  23.759  1.00  0.00     0.006 A 
ATOM      9  C   UNL A   1      31.173  23.057  25.105  1.00  0.00     0.010 A 
ATOM     10  C   UNL A   1      31.883  22.665  22.835  1.00  0.00     0.010 A 
ATOM     11  C   UNL A   1      31.762  21.852  25.496  1.00  0.00     0.014 A 
ATOM     12  C   UNL A   1      32.481  21.469  23.230  1.00  0.00     0.014 A 
BRANCH   8  13
ATOM     13  C   UNL A   1      30.399  24.663  23.299  1.00  0.00     0.299 C 
BRANCH  13  14
ATOM     14  N   UNL A   1      31.033  25.975  23.547  1.00  0.00    -0.331 N 
ATOM     15  C   UNL A   1      31.456  28.883  23.565  1.00  0.00     0.089 C 
ATOM     16  C   UNL A   1      32.208  27.941  22.620  1.00  0.00     0.075 C 
ATOM     17  C   UNL A   1      30.987  28.111  24.803  1.00  0.00     0.075 C 
ATOM     18  C   UNL A   1      31.394  26.682  22.315  1.00  0.00     0.263 C 
ATOM     19  C   UNL A   1      30.241  26.823  24.446  1.00  0.00     0.263 C 
ATOM     20  H   UNL A   1      31.909  25.768  24.026  1.00  0.00     0.348 HD
BRANCH  15  21
ATOM     21  C   UNL A   1      30.301  29.586  22.856  1.00  0.00     0.220 C 
ATOM     22  N   UNL A   1      30.572  30.018  21.590  1.00  0.00    -0.369 N 
ATOM     23  H   UNL A   1      29.879  30.481  21.069  1.00  0.00     0.159 HD
ATOM     24  H   UNL A   1      31.464  29.865  21.199  1.00  0.00     0.159 HD
ATOM     25  O   UNL A   1      29.199  29.797  23.349  1.00  0.00    -0.275 OA
ENDBRANCH  15  21
ENDBRANCH  13  14
ENDBRANCH   8  13
ENDBRANCH   4   7
ENDBRANCH   2   3
ENDBRANCH   1   2
BRANCH   1  26
ATOM     26  C   UNL A   1      37.860  20.520  24.687  1.00  0.00     0.023 C 
BRANCH  26  27
ATOM     27  C   UNL A   1      38.797  20.541  25.887  1.00  0.00     0.116 C 
BRANCH  27  28
ATOM     28  N   UNL A   1      39.845  19.537  25.814  1.00  0.00    -0.352 N 
ATOM     29  C   UNL A   1      41.184  19.669  26.099  1.00  0.00     0.251 C 
ATOM     30  H   UNL A   1      39.558  18.641  25.524  1.00  0.00     0.163 HD
ATOM     31  O   UNL A   1      41.958  18.747  25.885  1.00  0.00    -0.269 OA
BRANCH  29  32
ATOM     32  C   UNL A   1      41.687  20.953  26.631  1.00  0.00     0.039 A 
ATOM     33  C   UNL A   1      42.155  21.915  25.733  1.00  0.00     0.014 A 
ATOM     34  C   UNL A   1      41.681  21.214  28.004  1.00  0.00     0.014 A 
ATOM     35  C   UNL A   1      42.566  23.162  26.209  1.00  0.00     0.010 A 
ATOM     36  C   UNL A   1      42.020  22.480  28.469  1.00  0.00     0.010 A 
ATOM     37  C   UNL A   1      42.476  23.463  27.577  1.00  0.00    -0.014 A 
BRANCH  37  38
ATOM     38  C   UNL A   1      42.879  24.792  28.098  1.00  0.00     0.031 A 
ATOM     39  C   UNL A   1      41.840  25.860  28.312  1.00  0.00     0.074 A 
ATOM     40  C   UNL A   1      44.179  25.056  28.334  1.00  0.00     0.049 A 
ATOM     41  N   UNL A   1      41.998  27.098  28.709  1.00  0.00    -0.248 NA
ATOM     42  C   UNL A   1      40.444  25.497  28.018  1.00  0.00     0.031 C 
ATOM     43  C   UNL A   1      45.287  24.122  28.127  1.00  0.00     0.029 A 
ATOM     44  N   UNL A   1      44.788  26.196  28.795  1.00  0.00    -0.354 N 
ATOM     45  C   UNL A   1      40.727  27.659  28.704  1.00  0.00     0.074 A 
ATOM     46  C   UNL A   1      39.819  26.649  28.208  1.00  0.00     0.031 C 
ATOM     47  C   UNL A   1      46.437  24.719  28.482  1.00  0.00     0.029 A 
ATOM     48  C   UNL A   1      46.153  26.086  28.907  1.00  0.00     0.049 A 
ATOM     49  H   UNL A   1      44.292  27.016  29.024  1.00  0.00     0.167 HD
ATOM     50  C   UNL A   1      40.342  28.894  29.104  1.00  0.00     0.031 A 
ATOM     51  C   UNL A   1      47.071  26.987  29.304  1.00  0.00     0.031 A 
ATOM     52  C   UNL A   1      41.241  29.899  29.603  1.00  0.00     0.049 A 
ATOM     53  C   UNL A   1      46.617  28.354  29.737  1.00  0.00     0.074 A 
ATOM     54  C   UNL A   1      40.946  31.175  30.052  1.00  0.00     0.029 A 
ATOM     55  N   UNL A   1      42.611  29.736  29.727  1.00  0.00    -0.354 N 
ATOM     56  N   UNL A   1      45.405  28.850  29.774  1.00  0.00    -0.248 NA
ATOM     57  C   UNL A   1      47.661  29.278  30.204  1.00  0.00     0.031 C 
ATOM     58  C   UNL A   1      42.146  31.796  30.417  1.00  0.00     0.029 A 
ATOM     59  C   UNL A   1      43.178  30.888  30.243  1.00  0.00     0.049 A 
ATOM     60  H   UNL A   1      43.109  28.922  29.483  1.00  0.00     0.167 HD
ATOM     61  C   UNL A   1      45.536  30.129  30.301  1.00  0.00     0.074 A 
ATOM     62  C   UNL A   1      46.943  30.324  30.584  1.00  0.00     0.031 C 
ATOM     63  C   UNL A   1      44.577  31.059  30.532  1.00  0.00     0.031 A 
BRANCH  50  64
ATOM     64  C   UNL A   1      38.876  29.217  29.026  1.00  0.00    -0.014 A 
ATOM     65  C   UNL A   1      38.303  29.678  27.829  1.00  0.00     0.009 A 
ATOM     66  C   UNL A   1      38.052  29.028  30.145  1.00  0.00     0.009 A 
ATOM     67  C   UNL A   1      36.941  29.979  27.767  1.00  0.00     0.001 A 
ATOM     68  C   UNL A   1      36.685  29.301  30.071  1.00  0.00     0.001 A 
ATOM     69  C   UNL A   1      36.133  29.785  28.885  1.00  0.00     0.000 A 
ENDBRANCH  50  64
BRANCH  51  70
ATOM     70  C   UNL A   1      48.512  26.627  29.329  1.00  0.00    -0.014 A 
ATOM     71  C   UNL A   1      49.080  26.029  30.466  1.00  0.00     0.009 A 
ATOM     72  C   UNL A   1      49.337  26.910  28.230  1.00  0.00     0.009 A 
ATOM     73  C   UNL A   1      50.450  25.759  30.514  1.00  0.00     0.001 A 
ATOM     74  C   UNL A   1      50.700  26.610  28.270  1.00  0.00     0.001 A 
ATOM     75  C   UNL A   1      51.259  26.048  29.416  1.00  0.00     0.000 A 
ENDBRANCH  51  70
BRANCH  63  76
ATOM     76  C   UNL A   1      45.011  32.348  31.171  1.00  0.00    -0.014 A 
ATOM     77  C   UNL A   1      45.078  32.489  32.565  1.00  0.00     0.009 A 
ATOM     78  C   UNL A   1      45.388  33.428  30.357  1.00  0.00     0.009 A 
ATOM     79  C   UNL A   1      45.476  33.702  33.132  1.00  0.00     0.001 A 
ATOM     80  C   UNL A   1      45.814  34.629  30.926  1.00  0.00     0.001 A 
ATOM     81  C   UNL A   1      45.846  34.768  32.313  1.00  0.00     0.000 A 
ENDBRANCH  63  76
ENDBRANCH  37  38
ENDBRANCH  29  32
ENDBRANCH  27  28
ENDBRANCH  26  27
ENDBRANCH   1  26
TORSDOF 14
ENDMDL
MODEL 2
REMARK VINA RESULT:     -11.6      0.495      5.987
REMARK SMILES NC(=O)C1CC[NH+](Cc2ccc(C(=O)NCCCCNC(=O)c3ccc(-c4c5nc(c(-c6ccccc6)c6ccc([nH]6)c(-c6ccccc6)c6nc(c(-c7ccccc7)c7ccc4[nH]7)C=C6)C=C5)cc3)cc2)CC1
REMARK SMILES IDX 17 1 16 2 15 3 13 4 14 5 12 7 9 8 10 9 72 10 11 11 71 12
REMARK SMILES IDX 8 13 7 14 4 15 5 16 74 17 6 18 73 19 2 21 1 22 3 25 18 26
REMARK SMILES IDX 19 27 20 28 21 29 22 31 23 32 24 33 70 34 25 35 69 36 26 37
REMARK SMILES IDX 27 38 28 39 63 40 29 41 68 42 62 43 64 44 30 45 67 46 61 47
REMARK SMILES IDX 60 48 31 50 53 51 38 52 52 53 39 54 42 55 51 56 65 57 40 58
REMARK SMILES IDX 41 59 50 61 66 62 43 63 32 64 33 65 37 66 34 67 36 68 35 69
REMARK SMILES IDX 54 70 55 71 59 72 56 73 58 74 57 75 44 76 45 77 49 78 46 79
REMARK SMILES IDX 48 80 47 81
REMARK H PARENT 15 6 7 20 1 23 1 24 20 30 64 49 42 60
REMARK Flexibility Score: inf
ROOT
ATOM      1  C   UNL A   1      36.841  20.839  24.621  1.00  0.00     0.023 C 
ENDROOT
BRANCH   1   2
ATOM      2  C   UNL A   1      35.658  20.783  25.589  1.00  0.00     0.116 C 
BRANCH   2   3
ATOM      3  N   UNL A   1      34.717  19.747  25.202  1.00  0.00    -0.352 N 
ATOM      4  C   UNL A   1      33.479  19.839  24.611  1.00  0.00     0.251 C 
ATOM      5  O   UNL A   1      32.898  18.804  24.295  1.00  0.00    -0.269 OA
ATOM      6  H   UNL A   1      35.015  18.829  25.394  1.00  0.00     0.163 HD
BRANCH   4   7
ATOM      7  C   UNL A   1      32.861  21.151  24.292  1.00  0.00     0.039 A 
ATOM      8  C   UNL A   1      31.471  23.529  23.717  1.00  0.00     0.006 A 
ATOM      9  C   UNL A   1      31.328  22.905  24.964  1.00  0.00     0.010 A 
ATOM     10  C   UNL A   1      32.398  23.007  22.806  1.00  0.00     0.010 A 
ATOM     11  C   UNL A   1      32.018  21.724  25.249  1.00  0.00     0.014 A 
ATOM     12  C   UNL A   1      33.096  21.835  23.098  1.00  0.00     0.014 A 
BRANCH   8  13
ATOM     13  C   UNL A   1      30.600  24.709  23.334  1.00  0.00     0.299 C 
BRANCH  13  14
ATOM     14  N   UNL A   1      31.167  26.047  23.602  1.00  0.00    -0.331 N 
ATOM     15  C   UNL A   1      31.459  28.970  23.634  1.00  0.00     0.089 C 
ATOM     16  C   UNL A   1      32.283  28.064  22.714  1.00  0.00     0.075 C 
ATOM     17  C   UNL A   1      30.986  28.177  24.857  1.00  0.00     0.075 C 
ATOM     18  C   UNL A   1      31.535  26.771  22.383  1.00  0.00     0.263 C 
ATOM     19  C   UNL A   1      30.309  26.857  24.475  1.00  0.00     0.263 C 
ATOM     20  H   UNL A   1      32.036  25.878  24.109  1.00  0.00     0.348 HD
BRANCH  15  21
ATOM     21  C   UNL A   1      30.298  29.623  22.889  1.00  0.00     0.220 C 
ATOM     22  N   UNL A   1      30.592  30.075  21.635  1.00  0.00    -0.369 N 
ATOM     23  H   UNL A   1      29.896  30.508  21.092  1.00  0.00     0.159 HD
ATOM     24  H   UNL A   1      31.503  29.967  21.275  1.00  0.00     0.159 HD
ATOM     25  O   UNL A   1      29.170  29.778  23.344  1.00  0.00    -0.275 OA
ENDBRANCH  15  21
ENDBRANCH  13  14
ENDBRANCH   8  13
ENDBRANCH   4   7
ENDBRANCH   2   3
ENDBRANCH   1   2
BRANCH   1  26
ATOM     26  C   UNL A   1      37.901  19.759  24.848  1.00  0.00     0.023 C 
BRANCH  26  27
ATOM     27  C   UNL A   1      39.011  20.144  25.815  1.00  0.00     0.116 C 
BRANCH  27  28
ATOM     28  N   UNL A   1      40.128  19.214  25.806  1.00  0.00    -0.352 N 
ATOM     29  C   UNL A   1      41.449  19.453  26.107  1.00  0.00     0.251 C 
ATOM     30  H   UNL A   1      39.911  18.288  25.551  1.00  0.00     0.163 HD
ATOM     31  O   UNL A   1      42.289  18.579  25.948  1.00  0.00    -0.269 OA
BRANCH  29  32
ATOM     32  C   UNL A   1      41.850  20.792  26.589  1.00  0.00     0.039 A 
ATOM     33  C   UNL A   1      42.250  21.750  25.654  1.00  0.00     0.014 A 
ATOM     34  C   UNL A   1      41.816  21.105  27.950  1.00  0.00     0.014 A 
ATOM     35  C   UNL A   1      42.563  23.042  26.081  1.00  0.00     0.010 A 
ATOM     36  C   UNL A   1      42.055  22.411  28.365  1.00  0.00     0.010 A 
ATOM     37  C   UNL A   1      42.441  23.390  27.436  1.00  0.00    -0.014 A 
BRANCH  37  38
ATOM     38  C   UNL A   1      42.740  24.765  27.905  1.00  0.00     0.031 A 
ATOM     39  C   UNL A   1      44.163  25.172  28.176  1.00  0.00     0.074 A 
ATOM     40  C   UNL A   1      41.733  25.631  28.132  1.00  0.00     0.049 A 
ATOM     41  N   UNL A   1      44.623  26.307  28.639  1.00  0.00    -0.248 NA
ATOM     42  C   UNL A   1      45.203  24.162  27.916  1.00  0.00     0.031 C 
ATOM     43  C   UNL A   1      40.308  25.347  27.948  1.00  0.00     0.029 A 
ATOM     44  N   UNL A   1      41.758  26.930  28.574  1.00  0.00    -0.354 N 
ATOM     45  C   UNL A   1      46.000  26.144  28.733  1.00  0.00     0.074 A 
ATOM     46  C   UNL A   1      46.294  24.785  28.337  1.00  0.00     0.031 C 
ATOM     47  C   UNL A   1      39.599  26.446  28.253  1.00  0.00     0.029 A 
ATOM     48  C   UNL A   1      40.512  27.498  28.686  1.00  0.00     0.049 A 
ATOM     49  H   UNL A   1      42.591  27.410  28.791  1.00  0.00     0.167 HD
ATOM     50  C   UNL A   1      46.940  27.051  29.086  1.00  0.00     0.031 A 
ATOM     51  C   UNL A   1      40.148  28.728  29.095  1.00  0.00     0.031 A 
ATOM     52  C   UNL A   1      46.652  28.405  29.474  1.00  0.00     0.049 A 
ATOM     53  C   UNL A   1      41.212  29.715  29.488  1.00  0.00     0.074 A 
ATOM     54  C   UNL A   1      47.537  29.408  29.831  1.00  0.00     0.029 A 
ATOM     55  N   UNL A   1      45.380  28.949  29.546  1.00  0.00    -0.354 N 
ATOM     56  N   UNL A   1      42.514  29.560  29.521  1.00  0.00    -0.248 NA
ATOM     57  C   UNL A   1      40.756  31.057  29.881  1.00  0.00     0.031 C 
ATOM     58  C   UNL A   1      46.795  30.550  30.152  1.00  0.00     0.029 A 
ATOM     59  C   UNL A   1      45.454  30.272  29.945  1.00  0.00     0.049 A 
ATOM     60  H   UNL A   1      44.546  28.465  29.345  1.00  0.00     0.167 HD
ATOM     61  C   UNL A   1      43.032  30.791  29.903  1.00  0.00     0.074 A 
ATOM     62  C   UNL A   1      41.906  31.686  30.073  1.00  0.00     0.031 C 
ATOM     63  C   UNL A   1      44.324  31.150  30.094  1.00  0.00     0.031 A 
BRANCH  50  64
ATOM     64  C   UNL A   1      48.375  26.603  29.055  1.00  0.00    -0.014 A 
ATOM     65  C   UNL A   1      49.181  26.845  27.930  1.00  0.00     0.009 A 
ATOM     66  C   UNL A   1      48.938  25.964  30.170  1.00  0.00     0.009 A 
ATOM     67  C   UNL A   1      50.512  26.422  27.909  1.00  0.00     0.001 A 
ATOM     68  C   UNL A   1      50.277  25.569  30.157  1.00  0.00     0.001 A 
ATOM     69  C   UNL A   1      51.059  25.791  29.023  1.00  0.00     0.000 A 
ENDBRANCH  50  64
BRANCH  51  70
ATOM     70  C   UNL A   1      38.712  29.110  29.139  1.00  0.00    -0.014 A 
ATOM     71  C   UNL A   1      38.086  29.671  28.015  1.00  0.00     0.009 A 
ATOM     72  C   UNL A   1      37.968  28.945  30.317  1.00  0.00     0.009 A 
ATOM     73  C   UNL A   1      36.757  30.096  28.083  1.00  0.00     0.001 A 
ATOM     74  C   UNL A   1      36.630  29.342  30.372  1.00  0.00     0.001 A 
ATOM     75  C   UNL A   1      36.029  29.929  29.260  1.00  0.00     0.000 A 
ENDBRANCH  51  70
BRANCH  63  76
ATOM     76  C   UNL A   1      44.592  32.585  30.452  1.00  0.00    -0.014 A 
ATOM     77  C   UNL A   1      44.798  33.562  29.466  1.00  0.00     0.009 A 
ATOM     78  C   UNL A   1      44.607  32.966  31.804  1.00  0.00     0.009 A 
ATOM     79  C   UNL A   1      45.055  34.886  29.829  1.00  0.00     0.001 A 
ATOM     80  C   UNL A   1      44.834  34.296  32.162  1.00  0.00     0.001 A 
ATOM     81  C   UNL A   1      45.069  35.252  31.175  1.00  0.00     0.000 A 
ENDBRANCH  63  76
ENDBRANCH  37  38
ENDBRANCH  29  32
ENDBRANCH  27  28
ENDBRANCH  26  27
ENDBRANCH   1  26
TORSDOF 14
ENDMDL
MODEL 3
REMARK VINA RESULT:     -11.5      4.001      9.478
REMARK SMILES NC(=O)C1CC[NH+](Cc2ccc(C(=O)NCCCCNC(=O)c3ccc(-c4c5nc(c(-c6ccccc6)c6ccc([nH]6)c(-c6ccccc6)c6nc(c(-c7ccccc7)c7ccc4[nH]7)C=C6)C=C5)cc3)cc2)CC1
REMARK SMILES IDX 17 1 16 2 15 3 13 4 14 5 12 7 9 8 10 9 72 10 11 11 71 12
REMARK SMILES IDX 8 13 7 14 4 15 5 16 74 17 6 18 73 19 2 21 1 22 3 25 18 26
REMARK SMILES IDX 19 27 20 28 21 29 22 31 23 32 24 33 70 34 25 35 69 36 26 37
REMARK SMILES IDX 27 38 28 39 63 40 29 41 68 42 62 43 64 44 30 45 67 46 61 47
REMARK SMILES IDX 60 48 31 50 53 51 38 52 52 53 39 54 42 55 51 56 65 57 40 58
REMARK SMILES IDX 41 59 50 61 66 62 43 63 32 64 33 65 37 66 34 67 36 68 35 69
REMARK SMILES IDX 54 70 55 71 59 72 56 73 58 74 57 75 44 76 45 77 49 78 46 79
REMARK SMILES IDX 48 80 47 81
REMARK H PARENT 15 6 7 20 1 23 1 24 20 30 64 49 42 60
REMARK Flexibility Score: inf
ROOT
ATOM      1  C   UNL A   1      31.701  30.585  26.819  1.00  0.00     0.023 C 
ENDROOT
BRANCH   1   2
ATOM      2  C   UNL A   1      32.895  30.084  26.003  1.00  0.00     0.116 C 
BRANCH   2   3
ATOM      3  N   UNL A   1      32.496  29.753  24.648  1.00  0.00    -0.352 N 
ATOM      4  C   UNL A   1      32.179  28.541  24.080  1.00  0.00     0.251 C 
ATOM      5  O   UNL A   1      31.781  28.520  22.918  1.00  0.00    -0.269 OA
ATOM      6  H   UNL A   1      32.444  30.520  24.035  1.00  0.00     0.163 HD
BRANCH   4   7
ATOM      7  C   UNL A   1      32.246  27.275  24.853  1.00  0.00     0.039 A 
ATOM      8  C   UNL A   1      32.399  24.758  26.103  1.00  0.00     0.006 A 
ATOM      9  C   UNL A   1      33.473  25.241  25.342  1.00  0.00     0.010 A 
ATOM     10  C   UNL A   1      31.297  25.595  26.317  1.00  0.00     0.010 A 
ATOM     11  C   UNL A   1      33.396  26.491  24.720  1.00  0.00     0.014 A 
ATOM     12  C   UNL A   1      31.228  26.847  25.708  1.00  0.00     0.014 A 
BRANCH   8  13
ATOM     13  C   UNL A   1      32.401  23.339  26.635  1.00  0.00     0.299 C 
BRANCH  13  14
ATOM     14  N   UNL A   1      32.995  22.316  25.749  1.00  0.00    -0.331 N 
ATOM     15  C   UNL A   1      33.537  19.705  24.514  1.00  0.00     0.089 C 
ATOM     16  C   UNL A   1      34.491  20.364  25.514  1.00  0.00     0.075 C 
ATOM     17  C   UNL A   1      32.678  20.776  23.832  1.00  0.00     0.075 C 
ATOM     18  C   UNL A   1      33.746  21.290  26.478  1.00  0.00     0.263 C 
ATOM     19  C   UNL A   1      32.011  21.722  24.836  1.00  0.00     0.263 C 
ATOM     20  H   UNL A   1      33.674  22.814  25.174  1.00  0.00     0.348 HD
BRANCH  15  21
ATOM     21  C   UNL A   1      32.686  18.624  25.176  1.00  0.00     0.220 C 
ATOM     22  N   UNL A   1      32.963  18.391  26.491  1.00  0.00    -0.369 N 
ATOM     23  H   UNL A   1      32.458  17.708  26.988  1.00  0.00     0.159 HD
ATOM     24  H   UNL A   1      33.669  18.907  26.944  1.00  0.00     0.159 HD
ATOM     25  O   UNL A   1      31.823  17.965  24.608  1.00  0.00    -0.275 OA
ENDBRANCH  15  21
ENDBRANCH  13  14
ENDBRANCH   8  13
ENDBRANCH   4   7
ENDBRANCH   2   3
ENDBRANCH   1   2
BRANCH   1  26
ATOM     26  C   UNL A   1      31.472  32.097  26.749  1.00  0.00     0.023 C 
BRANCH  26  27
ATOM     27  C   UNL A   1      32.700  32.945  27.050  1.00  0.00     0.116 C 
BRANCH  27  28
ATOM     28  N   UNL A   1      32.375  34.242  27.620  1.00  0.00    -0.352 N 
ATOM     29  C   UNL A   1      32.998  34.910  28.649  1.00  0.00     0.251 C 
ATOM     30  H   UNL A   1      31.608  34.706  27.214  1.00  0.00     0.163 HD
ATOM     31  O   UNL A   1      32.533  35.955  29.081  1.00  0.00    -0.269 OA
BRANCH  29  32
ATOM     32  C   UNL A   1      34.215  34.330  29.256  1.00  0.00     0.039 A 
ATOM     33  C   UNL A   1      34.090  33.581  30.428  1.00  0.00     0.014 A 
ATOM     34  C   UNL A   1      35.468  34.510  28.663  1.00  0.00     0.014 A 
ATOM     35  C   UNL A   1      35.216  32.965  30.976  1.00  0.00     0.010 A 
ATOM     36  C   UNL A   1      36.574  33.835  29.168  1.00  0.00     0.010 A 
ATOM     37  C   UNL A   1      36.462  33.064  30.335  1.00  0.00    -0.014 A 
BRANCH  37  38
ATOM     38  C   UNL A   1      37.663  32.391  30.886  1.00  0.00     0.031 A 
ATOM     39  C   UNL A   1      38.306  32.914  32.142  1.00  0.00     0.074 A 
ATOM     40  C   UNL A   1      38.205  31.344  30.235  1.00  0.00     0.049 A 
ATOM     41  N   UNL A   1      39.388  32.499  32.751  1.00  0.00    -0.248 NA
ATOM     42  C   UNL A   1      37.660  34.071  32.786  1.00  0.00     0.031 C 
ATOM     43  C   UNL A   1      37.704  30.766  28.986  1.00  0.00     0.029 A 
ATOM     44  N   UNL A   1      39.305  30.580  30.535  1.00  0.00    -0.354 N 
ATOM     45  C   UNL A   1      39.556  33.347  33.839  1.00  0.00     0.074 A 
ATOM     46  C   UNL A   1      38.502  34.335  33.775  1.00  0.00     0.031 C 
ATOM     47  C   UNL A   1      38.481  29.727  28.640  1.00  0.00     0.029 A 
ATOM     48  C   UNL A   1      39.552  29.585  29.620  1.00  0.00     0.049 A 
ATOM     49  H   UNL A   1      39.865  30.731  31.331  1.00  0.00     0.167 HD
ATOM     50  C   UNL A   1      40.484  33.292  34.823  1.00  0.00     0.031 A 
ATOM     51  C   UNL A   1      40.534  28.665  29.575  1.00  0.00     0.031 A 
ATOM     52  C   UNL A   1      41.530  32.308  34.894  1.00  0.00     0.049 A 
ATOM     53  C   UNL A   1      41.557  28.630  30.677  1.00  0.00     0.074 A 
ATOM     54  C   UNL A   1      42.508  32.156  35.862  1.00  0.00     0.029 A 
ATOM     55  N   UNL A   1      41.727  31.301  33.963  1.00  0.00    -0.354 N 
ATOM     56  N   UNL A   1      41.670  29.408  31.727  1.00  0.00    -0.248 NA
ATOM     57  C   UNL A   1      42.576  27.574  30.598  1.00  0.00     0.031 C 
ATOM     58  C   UNL A   1      43.318  31.075  35.497  1.00  0.00     0.029 A 
ATOM     59  C   UNL A   1      42.812  30.525  34.331  1.00  0.00     0.049 A 
ATOM     60  H   UNL A   1      41.177  31.159  33.159  1.00  0.00     0.167 HD
ATOM     61  C   UNL A   1      42.748  28.914  32.449  1.00  0.00     0.074 A 
ATOM     62  C   UNL A   1      43.244  27.760  31.727  1.00  0.00     0.031 C 
ATOM     63  C   UNL A   1      43.281  29.372  33.608  1.00  0.00     0.031 A 
BRANCH  50  64
ATOM     64  C   UNL A   1      40.396  34.327  35.910  1.00  0.00    -0.014 A 
ATOM     65  C   UNL A   1      41.051  35.563  35.781  1.00  0.00     0.009 A 
ATOM     66  C   UNL A   1      39.628  34.080  37.058  1.00  0.00     0.009 A 
ATOM     67  C   UNL A   1      40.967  36.517  36.797  1.00  0.00     0.001 A 
ATOM     68  C   UNL A   1      39.522  35.048  38.059  1.00  0.00     0.001 A 
ATOM     69  C   UNL A   1      40.199  36.261  37.931  1.00  0.00     0.000 A 
ENDBRANCH  50  64
BRANCH  51  70
ATOM     70  C   UNL A   1      40.595  27.686  28.459  1.00  0.00    -0.014 A 
ATOM     71  C   UNL A   1      41.276  27.996  27.271  1.00  0.00     0.009 A 
ATOM     72  C   UNL A   1      39.944  26.447  28.562  1.00  0.00     0.009 A 
ATOM     73  C   UNL A   1      41.270  27.103  26.197  1.00  0.00     0.001 A 
ATOM     74  C   UNL A   1      39.966  25.544  27.497  1.00  0.00     0.001 A 
ATOM     75  C   UNL A   1      40.617  25.877  26.311  1.00  0.00     0.000 A 
ENDBRANCH  51  70
BRANCH  63  76
ATOM     76  C   UNL A   1      44.423  28.591  34.195  1.00  0.00    -0.014 A 
ATOM     77  C   UNL A   1      44.204  27.519  35.073  1.00  0.00     0.009 A 
ATOM     78  C   UNL A   1      45.740  28.920  33.834  1.00  0.00     0.009 A 
ATOM     79  C   UNL A   1      45.285  26.818  35.611  1.00  0.00     0.001 A 
ATOM     80  C   UNL A   1      46.816  28.198  34.350  1.00  0.00     0.001 A 
ATOM     81  C   UNL A   1      46.589  27.155  35.246  1.00  0.00     0.000 A 
ENDBRANCH  63  76
ENDBRANCH  37  38
ENDBRANCH  29  32
ENDBRANCH  27  28
ENDBRANCH  26  27
ENDBRANCH   1  26
TORSDOF 14
ENDMDL
