MODEL 1
REMARK VINA RESULT:     -13.2      0.000      0.000
REMARK SMILES O=C(NCCCCNC(=O)c1ccccc1C(=O)Nc1ccc(N2C(=O)[C@H]3[C@@H]4CC[C@@H](C4)[C@@H]3C2=O)cc1)c1ccc(-c2c3nc(c(-c4ccccc4)c4ccc([nH]4)c(-c4ccccc4)c4nc(c(-c5ccccc5)c5ccc2[nH]5)C=C4)C=C3)cc1
REMARK SMILES IDX 6 1 5 2 4 3 3 4 1 5 2 6 38 8 39 9 85 10 40 11 84 12 41 13
REMARK SMILES IDX 42 14 43 15 78 16 44 17 83 18 77 19 79 20 45 21 82 22 76 23
REMARK SMILES IDX 75 24 46 26 68 27 53 28 67 29 54 30 57 31 66 32 80 33 55 34
REMARK SMILES IDX 56 35 65 37 81 38 58 39 47 40 48 41 52 42 49 43 51 44 50 45
REMARK SMILES IDX 69 46 70 47 74 48 71 49 73 50 72 51 59 52 60 53 64 54 61 55
REMARK SMILES IDX 63 56 62 57 7 58 8 59 9 60 10 62 11 63 12 64 16 65 13 66
REMARK SMILES IDX 15 67 14 68 17 69 18 70 19 71 20 73 21 74 37 75 22 76 36 77
REMARK SMILES IDX 23 78 24 79 25 80 34 81 26 82 27 83 33 84 35 85 28 86 31 87
REMARK SMILES IDX 29 88 32 89 30 90
REMARK H PARENT 3 7 79 25 57 36 8 61 19 72
REMARK Flexibility Score: inf
ROOT
ATOM      1  C   UNL A   1      33.614  26.954  25.205  1.00  0.00     0.023 C 
ENDROOT
BRANCH   1   2
ATOM      2  C   UNL A   1      34.254  28.101  25.999  1.00  0.00     0.023 C 
BRANCH   2   3
ATOM      3  C   UNL A   1      33.531  28.466  27.293  1.00  0.00     0.116 C 
BRANCH   3   4
ATOM      4  N   UNL A   1      33.542  29.891  27.554  1.00  0.00    -0.352 N 
ATOM      5  O   UNL A   1      34.245  31.831  28.448  1.00  0.00    -0.269 OA
ATOM      6  C   UNL A   1      34.512  30.679  28.118  1.00  0.00     0.251 C 
ATOM      7  H   UNL A   1      32.725  30.369  27.283  1.00  0.00     0.163 HD
BRANCH   6   8
ATOM      8  C   UNL A   1      35.876  30.154  28.350  1.00  0.00     0.039 A 
ATOM      9  C   UNL A   1      36.879  30.269  27.384  1.00  0.00     0.014 A 
ATOM     10  C   UNL A   1      36.171  29.607  29.601  1.00  0.00     0.014 A 
ATOM     11  C   UNL A   1      38.149  29.746  27.631  1.00  0.00     0.010 A 
ATOM     12  C   UNL A   1      37.460  29.143  29.872  1.00  0.00     0.010 A 
ATOM     13  C   UNL A   1      38.457  29.190  28.882  1.00  0.00    -0.014 A 
BRANCH  13  14
ATOM     14  C   UNL A   1      39.827  28.701  29.183  1.00  0.00     0.031 A 
ATOM     15  C   UNL A   1      40.837  29.604  29.833  1.00  0.00     0.074 A 
ATOM     16  C   UNL A   1      40.180  27.453  28.823  1.00  0.00     0.049 A 
ATOM     17  N   UNL A   1      42.102  29.380  30.089  1.00  0.00    -0.248 NA
ATOM     18  C   UNL A   1      40.367  30.936  30.240  1.00  0.00     0.031 C 
ATOM     19  C   UNL A   1      39.296  26.475  28.186  1.00  0.00     0.029 A 
ATOM     20  N   UNL A   1      41.381  26.797  28.927  1.00  0.00    -0.354 N 
ATOM     21  C   UNL A   1      42.586  30.549  30.662  1.00  0.00     0.074 A 
ATOM     22  C   UNL A   1      41.485  31.489  30.689  1.00  0.00     0.031 C 
ATOM     23  C   UNL A   1      39.979  25.342  27.968  1.00  0.00     0.029 A 
ATOM     24  C   UNL A   1      41.364  25.534  28.389  1.00  0.00     0.049 A 
ATOM     25  H   UNL A   1      42.179  27.195  29.347  1.00  0.00     0.167 HD
ATOM     26  C   UNL A   1      43.832  30.817  31.124  1.00  0.00     0.031 A 
ATOM     27  C   UNL A   1      42.353  24.637  28.222  1.00  0.00     0.031 A 
ATOM     28  C   UNL A   1      44.931  29.888  31.076  1.00  0.00     0.049 A 
ATOM     29  C   UNL A   1      43.742  24.976  28.683  1.00  0.00     0.074 A 
ATOM     30  C   UNL A   1      46.222  30.053  31.547  1.00  0.00     0.029 A 
ATOM     31  N   UNL A   1      44.874  28.623  30.508  1.00  0.00    -0.354 N 
ATOM     32  N   UNL A   1      44.175  26.070  29.261  1.00  0.00    -0.248 NA
ATOM     33  C   UNL A   1      44.777  23.954  28.477  1.00  0.00     0.031 C 
ATOM     34  C   UNL A   1      46.963  28.918  31.203  1.00  0.00     0.029 A 
ATOM     35  C   UNL A   1      46.114  28.011  30.589  1.00  0.00     0.049 A 
ATOM     36  H   UNL A   1      44.070  28.219  30.107  1.00  0.00     0.167 HD
ATOM     37  C   UNL A   1      45.523  25.855  29.519  1.00  0.00     0.074 A 
ATOM     38  C   UNL A   1      45.834  24.525  29.038  1.00  0.00     0.031 C 
ATOM     39  C   UNL A   1      46.416  26.685  30.110  1.00  0.00     0.031 A 
BRANCH  26  40
ATOM     40  C   UNL A   1      44.082  32.194  31.682  1.00  0.00    -0.014 A 
ATOM     41  C   UNL A   1      44.495  33.256  30.861  1.00  0.00     0.009 A 
ATOM     42  C   UNL A   1      43.883  32.436  33.050  1.00  0.00     0.009 A 
ATOM     43  C   UNL A   1      44.755  34.515  31.409  1.00  0.00     0.001 A 
ATOM     44  C   UNL A   1      44.110  33.703  33.589  1.00  0.00     0.001 A 
ATOM     45  C   UNL A   1      44.559  34.738  32.771  1.00  0.00     0.000 A 
ENDBRANCH  26  40
BRANCH  27  46
ATOM     46  C   UNL A   1      42.059  23.333  27.571  1.00  0.00    -0.014 A 
ATOM     47  C   UNL A   1      42.385  23.116  26.225  1.00  0.00     0.009 A 
ATOM     48  C   UNL A   1      41.476  22.286  28.306  1.00  0.00     0.009 A 
ATOM     49  C   UNL A   1      42.119  21.884  25.622  1.00  0.00     0.001 A 
ATOM     50  C   UNL A   1      41.241  21.047  27.710  1.00  0.00     0.001 A 
ATOM     51  C   UNL A   1      41.555  20.849  26.368  1.00  0.00     0.000 A 
ENDBRANCH  27  46
BRANCH  39  52
ATOM     52  C   UNL A   1      47.810  26.164  30.329  1.00  0.00    -0.014 A 
ATOM     53  C   UNL A   1      48.758  26.131  29.295  1.00  0.00     0.009 A 
ATOM     54  C   UNL A   1      48.197  25.757  31.616  1.00  0.00     0.009 A 
ATOM     55  C   UNL A   1      50.056  25.675  29.542  1.00  0.00     0.001 A 
ATOM     56  C   UNL A   1      49.502  25.334  31.868  1.00  0.00     0.001 A 
ATOM     57  C   UNL A   1      50.429  25.286  30.828  1.00  0.00     0.000 A 
ENDBRANCH  39  52
ENDBRANCH  13  14
ENDBRANCH   6   8
ENDBRANCH   3   4
ENDBRANCH   2   3
ENDBRANCH   1   2
BRANCH   1  58
ATOM     58  C   UNL A   1      34.223  25.576  25.470  1.00  0.00     0.116 C 
BRANCH  58  59
ATOM     59  N   UNL A   1      34.711  24.963  24.250  1.00  0.00    -0.352 N 
ATOM     60  C   UNL A   1      34.814  23.644  23.908  1.00  0.00     0.252 C 
ATOM     61  H   UNL A   1      35.016  25.596  23.561  1.00  0.00     0.163 HD
ATOM     62  O   UNL A   1      35.473  23.328  22.917  1.00  0.00    -0.269 OA
BRANCH  60  63
ATOM     63  C   UNL A   1      34.258  22.566  24.745  1.00  0.00     0.052 A 
ATOM     64  C   UNL A   1      34.952  22.415  25.968  1.00  0.00     0.014 A 
ATOM     65  C   UNL A   1      33.171  21.732  24.454  1.00  0.00     0.052 A 
ATOM     66  C   UNL A   1      34.511  21.531  26.948  1.00  0.00     0.001 A 
ATOM     67  C   UNL A   1      32.713  20.878  25.485  1.00  0.00     0.014 A 
ATOM     68  C   UNL A   1      33.365  20.786  26.719  1.00  0.00     0.001 A 
BRANCH  65  69
ATOM     69  C   UNL A   1      32.342  21.689  23.212  1.00  0.00     0.256 C 
ATOM     70  O   UNL A   1      32.318  20.621  22.588  1.00  0.00    -0.269 OA
ATOM     71  N   UNL A   1      31.525  22.689  22.738  1.00  0.00    -0.322 N 
ATOM     72  H   UNL A   1      30.968  22.422  21.971  1.00  0.00     0.170 HD
BRANCH  71  73
ATOM     73  C   UNL A   1      31.339  24.011  23.141  1.00  0.00     0.041 A 
ATOM     74  C   UNL A   1      31.746  25.003  22.243  1.00  0.00     0.028 A 
ATOM     75  C   UNL A   1      30.707  24.363  24.327  1.00  0.00     0.028 A 
ATOM     76  C   UNL A   1      31.283  26.309  22.392  1.00  0.00     0.029 A 
ATOM     77  C   UNL A   1      30.365  25.701  24.545  1.00  0.00     0.029 A 
ATOM     78  C   UNL A   1      30.565  26.654  23.534  1.00  0.00     0.052 A 
BRANCH  78  79
ATOM     79  N   UNL A   1      29.906  27.892  23.622  1.00  0.00    -0.250 N 
ATOM     80  C   UNL A   1      28.537  28.045  23.393  1.00  0.00     0.237 C 
ATOM     81  C   UNL A   1      30.586  29.127  23.673  1.00  0.00     0.237 C 
ATOM     82  O   UNL A   1      27.630  27.236  23.477  1.00  0.00    -0.274 OA
ATOM     83  C   UNL A   1      28.455  29.418  22.835  1.00  0.00     0.095 C 
ATOM     84  C   UNL A   1      29.468  30.128  23.716  1.00  0.00     0.095 C 
ATOM     85  O   UNL A   1      31.773  29.376  23.785  1.00  0.00    -0.274 OA
ATOM     86  C   UNL A   1      27.353  30.465  22.687  1.00  0.00     0.002 C 
ATOM     87  C   UNL A   1      29.235  31.575  23.292  1.00  0.00     0.002 C 
ATOM     88  C   UNL A   1      27.727  31.207  21.386  1.00  0.00     0.005 C 
ATOM     89  C   UNL A   1      27.732  31.595  23.674  1.00  0.00     0.009 C 
ATOM     90  C   UNL A   1      29.117  31.803  21.757  1.00  0.00     0.005 C 
ENDBRANCH  78  79
ENDBRANCH  71  73
ENDBRANCH  65  69
ENDBRANCH  60  63
ENDBRANCH  58  59
ENDBRANCH   1  58
TORSDOF 14
ENDMDL
MODEL 2
REMARK VINA RESULT:     -13.1      2.523      8.583
REMARK SMILES O=C(NCCCCNC(=O)c1ccccc1C(=O)Nc1ccc(N2C(=O)[C@H]3[C@@H]4CC[C@@H](C4)[C@@H]3C2=O)cc1)c1ccc(-c2c3nc(c(-c4ccccc4)c4ccc([nH]4)c(-c4ccccc4)c4nc(c(-c5ccccc5)c5ccc2[nH]5)C=C4)C=C3)cc1
REMARK SMILES IDX 6 1 5 2 4 3 3 4 1 5 2 6 38 8 39 9 85 10 40 11 84 12 41 13
REMARK SMILES IDX 42 14 43 15 78 16 44 17 83 18 77 19 79 20 45 21 82 22 76 23
REMARK SMILES IDX 75 24 46 26 68 27 53 28 67 29 54 30 57 31 66 32 80 33 55 34
REMARK SMILES IDX 56 35 65 37 81 38 58 39 47 40 48 41 52 42 49 43 51 44 50 45
REMARK SMILES IDX 69 46 70 47 74 48 71 49 73 50 72 51 59 52 60 53 64 54 61 55
REMARK SMILES IDX 63 56 62 57 7 58 8 59 9 60 10 62 11 63 12 64 16 65 13 66
REMARK SMILES IDX 15 67 14 68 17 69 18 70 19 71 20 73 21 74 37 75 22 76 36 77
REMARK SMILES IDX 23 78 24 79 25 80 34 81 26 82 27 83 33 84 35 85 28 86 31 87
REMARK SMILES IDX 29 88 32 89 30 90
REMARK H PARENT 3 7 79 25 57 36 8 61 19 72
REMARK Flexibility Score: inf
ROOT
ATOM      1  C   UNL A   1      34.703  23.944  25.748  1.00  0.00     0.023 C 
ENDROOT
BRANCH   1   2
ATOM      2  C   UNL A   1      36.155  23.820  26.233  1.00  0.00     0.023 C 
BRANCH   2   3
ATOM      3  C   UNL A   1      37.189  23.653  25.123  1.00  0.00     0.116 C 
BRANCH   3   4
ATOM      4  N   UNL A   1      38.245  22.728  25.480  1.00  0.00    -0.352 N 
ATOM      5  O   UNL A   1      40.284  22.071  26.165  1.00  0.00    -0.269 OA
ATOM      6  C   UNL A   1      39.423  22.945  26.148  1.00  0.00     0.251 C 
ATOM      7  H   UNL A   1      38.093  21.797  25.200  1.00  0.00     0.163 HD
BRANCH   6   8
ATOM      8  C   UNL A   1      39.677  24.229  26.839  1.00  0.00     0.039 A 
ATOM      9  C   UNL A   1      39.278  24.442  28.161  1.00  0.00     0.014 A 
ATOM     10  C   UNL A   1      40.406  25.212  26.164  1.00  0.00     0.014 A 
ATOM     11  C   UNL A   1      39.518  25.672  28.774  1.00  0.00     0.010 A 
ATOM     12  C   UNL A   1      40.704  26.418  26.800  1.00  0.00     0.010 A 
ATOM     13  C   UNL A   1      40.246  26.668  28.105  1.00  0.00    -0.014 A 
BRANCH  13  14
ATOM     14  C   UNL A   1      40.576  27.952  28.775  1.00  0.00     0.031 A 
ATOM     15  C   UNL A   1      41.900  28.140  29.462  1.00  0.00     0.074 A 
ATOM     16  C   UNL A   1      39.659  28.937  28.811  1.00  0.00     0.049 A 
ATOM     17  N   UNL A   1      42.326  29.154  30.172  1.00  0.00    -0.248 NA
ATOM     18  C   UNL A   1      42.868  27.040  29.342  1.00  0.00     0.031 C 
ATOM     19  C   UNL A   1      38.337  28.883  28.184  1.00  0.00     0.029 A 
ATOM     20  N   UNL A   1      39.693  30.170  29.412  1.00  0.00    -0.354 N 
ATOM     21  C   UNL A   1      43.599  28.807  30.606  1.00  0.00     0.074 A 
ATOM     22  C   UNL A   1      43.863  27.475  30.102  1.00  0.00     0.031 C 
ATOM     23  C   UNL A   1      37.692  30.035  28.422  1.00  0.00     0.029 A 
ATOM     24  C   UNL A   1      38.526  30.880  29.271  1.00  0.00     0.049 A 
ATOM     25  H   UNL A   1      40.478  30.512  29.898  1.00  0.00     0.167 HD
ATOM     26  C   UNL A   1      44.469  29.528  31.354  1.00  0.00     0.031 A 
ATOM     27  C   UNL A   1      38.151  32.065  29.788  1.00  0.00     0.031 A 
ATOM     28  C   UNL A   1      44.194  30.843  31.872  1.00  0.00     0.049 A 
ATOM     29  C   UNL A   1      39.105  32.822  30.668  1.00  0.00     0.074 A 
ATOM     30  C   UNL A   1      45.022  31.669  32.614  1.00  0.00     0.029 A 
ATOM     31  N   UNL A   1      42.993  31.520  31.719  1.00  0.00    -0.354 N 
ATOM     32  N   UNL A   1      40.322  32.498  31.034  1.00  0.00    -0.248 NA
ATOM     33  C   UNL A   1      38.638  34.110  31.197  1.00  0.00     0.031 C 
ATOM     34  C   UNL A   1      44.299  32.813  32.966  1.00  0.00     0.029 A 
ATOM     35  C   UNL A   1      43.047  32.738  32.377  1.00  0.00     0.049 A 
ATOM     36  H   UNL A   1      42.216  31.185  31.215  1.00  0.00     0.167 HD
ATOM     37  C   UNL A   1      40.778  33.557  31.808  1.00  0.00     0.074 A 
ATOM     38  C   UNL A   1      39.710  34.534  31.854  1.00  0.00     0.031 C 
ATOM     39  C   UNL A   1      41.980  33.706  32.416  1.00  0.00     0.031 A 
BRANCH  26  40
ATOM     40  C   UNL A   1      45.787  28.884  31.696  1.00  0.00    -0.014 A 
ATOM     41  C   UNL A   1      46.918  29.047  30.880  1.00  0.00     0.009 A 
ATOM     42  C   UNL A   1      45.902  28.114  32.864  1.00  0.00     0.009 A 
ATOM     43  C   UNL A   1      48.120  28.410  31.200  1.00  0.00     0.001 A 
ATOM     44  C   UNL A   1      47.113  27.507  33.200  1.00  0.00     0.001 A 
ATOM     45  C   UNL A   1      48.217  27.643  32.361  1.00  0.00     0.000 A 
ENDBRANCH  26  40
BRANCH  27  46
ATOM     46  C   UNL A   1      36.795  32.597  29.492  1.00  0.00    -0.014 A 
ATOM     47  C   UNL A   1      36.549  33.310  28.310  1.00  0.00     0.009 A 
ATOM     48  C   UNL A   1      35.729  32.366  30.380  1.00  0.00     0.009 A 
ATOM     49  C   UNL A   1      35.269  33.796  28.030  1.00  0.00     0.001 A 
ATOM     50  C   UNL A   1      34.446  32.825  30.082  1.00  0.00     0.001 A 
ATOM     51  C   UNL A   1      34.218  33.546  28.912  1.00  0.00     0.000 A 
ENDBRANCH  27  46
BRANCH  39  52
ATOM     52  C   UNL A   1      42.237  35.000  33.141  1.00  0.00    -0.014 A 
ATOM     53  C   UNL A   1      41.705  35.252  34.415  1.00  0.00     0.009 A 
ATOM     54  C   UNL A   1      43.082  35.958  32.557  1.00  0.00     0.009 A 
ATOM     55  C   UNL A   1      41.994  36.449  35.076  1.00  0.00     0.001 A 
ATOM     56  C   UNL A   1      43.395  37.137  33.233  1.00  0.00     0.001 A 
ATOM     57  C   UNL A   1      42.845  37.385  34.489  1.00  0.00     0.000 A 
ENDBRANCH  39  52
ENDBRANCH  13  14
ENDBRANCH   6   8
ENDBRANCH   3   4
ENDBRANCH   2   3
ENDBRANCH   1   2
BRANCH   1  58
ATOM     58  C   UNL A   1      34.233  25.379  25.501  1.00  0.00     0.116 C 
BRANCH  58  59
ATOM     59  N   UNL A   1      33.099  25.721  26.337  1.00  0.00    -0.352 N 
ATOM     60  C   UNL A   1      32.118  26.654  26.150  1.00  0.00     0.252 C 
ATOM     61  H   UNL A   1      33.026  25.201  27.169  1.00  0.00     0.163 HD
ATOM     62  O   UNL A   1      31.380  26.948  27.090  1.00  0.00    -0.269 OA
BRANCH  60  63
ATOM     63  C   UNL A   1      31.976  27.408  24.892  1.00  0.00     0.052 A 
ATOM     64  C   UNL A   1      33.012  28.351  24.703  1.00  0.00     0.014 A 
ATOM     65  C   UNL A   1      30.967  27.280  23.927  1.00  0.00     0.052 A 
ATOM     66  C   UNL A   1      33.124  29.081  23.524  1.00  0.00     0.001 A 
ATOM     67  C   UNL A   1      31.131  27.995  22.718  1.00  0.00     0.014 A 
ATOM     68  C   UNL A   1      32.199  28.874  22.513  1.00  0.00     0.001 A 
BRANCH  65  69
ATOM     69  C   UNL A   1      29.765  26.393  23.954  1.00  0.00     0.256 C 
ATOM     70  O   UNL A   1      28.659  26.944  23.914  1.00  0.00    -0.269 OA
ATOM     71  N   UNL A   1      29.763  25.017  23.926  1.00  0.00    -0.322 N 
ATOM     72  H   UNL A   1      28.867  24.621  23.827  1.00  0.00     0.170 HD
BRANCH  71  73
ATOM     73  C   UNL A   1      30.792  24.080  24.012  1.00  0.00     0.041 A 
ATOM     74  C   UNL A   1      30.798  23.258  25.144  1.00  0.00     0.028 A 
ATOM     75  C   UNL A   1      31.729  23.885  23.005  1.00  0.00     0.028 A 
ATOM     76  C   UNL A   1      31.548  22.084  25.147  1.00  0.00     0.029 A 
ATOM     77  C   UNL A   1      32.583  22.781  23.075  1.00  0.00     0.029 A 
ATOM     78  C   UNL A   1      32.423  21.828  24.095  1.00  0.00     0.052 A 
BRANCH  78  79
ATOM     79  N   UNL A   1      33.033  20.571  23.956  1.00  0.00    -0.250 N 
ATOM     80  C   UNL A   1      32.539  19.574  23.111  1.00  0.00     0.237 C 
ATOM     81  C   UNL A   1      34.019  20.087  24.842  1.00  0.00     0.237 C 
ATOM     82  O   UNL A   1      31.841  19.660  22.116  1.00  0.00    -0.274 OA
ATOM     83  C   UNL A   1      32.927  18.329  23.820  1.00  0.00     0.095 C 
ATOM     84  C   UNL A   1      34.313  18.717  24.307  1.00  0.00     0.095 C 
ATOM     85  O   UNL A   1      34.611  20.643  25.749  1.00  0.00    -0.274 OA
ATOM     86  C   UNL A   1      33.114  16.866  23.422  1.00  0.00     0.002 C 
ATOM     87  C   UNL A   1      34.799  17.376  24.850  1.00  0.00     0.002 C 
ATOM     88  C   UNL A   1      32.710  16.088  24.692  1.00  0.00     0.005 C 
ATOM     89  C   UNL A   1      34.637  16.612  23.510  1.00  0.00     0.009 C 
ATOM     90  C   UNL A   1      33.765  16.601  25.718  1.00  0.00     0.005 C 
ENDBRANCH  78  79
ENDBRANCH  71  73
ENDBRANCH  65  69
ENDBRANCH  60  63
ENDBRANCH  58  59
ENDBRANCH   1  58
TORSDOF 14
ENDMDL
MODEL 3
REMARK VINA RESULT:     -12.6      1.879      6.669
REMARK SMILES O=C(NCCCCNC(=O)c1ccccc1C(=O)Nc1ccc(N2C(=O)[C@H]3[C@@H]4CC[C@@H](C4)[C@@H]3C2=O)cc1)c1ccc(-c2c3nc(c(-c4ccccc4)c4ccc([nH]4)c(-c4ccccc4)c4nc(c(-c5ccccc5)c5ccc2[nH]5)C=C4)C=C3)cc1
REMARK SMILES IDX 6 1 5 2 4 3 3 4 1 5 2 6 38 8 39 9 85 10 40 11 84 12 41 13
REMARK SMILES IDX 42 14 43 15 78 16 44 17 83 18 77 19 79 20 45 21 82 22 76 23
REMARK SMILES IDX 75 24 46 26 68 27 53 28 67 29 54 30 57 31 66 32 80 33 55 34
REMARK SMILES IDX 56 35 65 37 81 38 58 39 47 40 48 41 52 42 49 43 51 44 50 45
REMARK SMILES IDX 69 46 70 47 74 48 71 49 73 50 72 51 59 52 60 53 64 54 61 55
REMARK SMILES IDX 63 56 62 57 7 58 8 59 9 60 10 62 11 63 12 64 16 65 13 66
REMARK SMILES IDX 15 67 14 68 17 69 18 70 19 71 20 73 21 74 37 75 22 76 36 77
REMARK SMILES IDX 23 78 24 79 25 80 34 81 26 82 27 83 33 84 35 85 28 86 31 87
REMARK SMILES IDX 29 88 32 89 30 90
REMARK H PARENT 3 7 79 25 57 36 8 61 19 72
REMARK Flexibility Score: inf
ROOT
ATOM      1  C   UNL A   1      36.117  20.220  25.004  1.00  0.00     0.023 C 
ENDROOT
BRANCH   1   2
ATOM      2  C   UNL A   1      37.431  19.432  24.919  1.00  0.00     0.023 C 
BRANCH   2   3
ATOM      3  C   UNL A   1      38.651  20.156  25.482  1.00  0.00     0.116 C 
BRANCH   3   4
ATOM      4  N   UNL A   1      39.794  19.281  25.641  1.00  0.00    -0.352 N 
ATOM      5  O   UNL A   1      41.955  18.719  25.907  1.00  0.00    -0.269 OA
ATOM      6  C   UNL A   1      41.075  19.563  26.042  1.00  0.00     0.251 C 
ATOM      7  H   UNL A   1      39.626  18.335  25.428  1.00  0.00     0.163 HD
BRANCH   6   8
ATOM      8  C   UNL A   1      41.415  20.880  26.624  1.00  0.00     0.039 A 
ATOM      9  C   UNL A   1      41.450  21.084  28.006  1.00  0.00     0.014 A 
ATOM     10  C   UNL A   1      41.786  21.912  25.757  1.00  0.00     0.014 A 
ATOM     11  C   UNL A   1      41.757  22.345  28.519  1.00  0.00     0.010 A 
ATOM     12  C   UNL A   1      42.157  23.155  26.273  1.00  0.00     0.010 A 
ATOM     13  C   UNL A   1      42.127  23.390  27.658  1.00  0.00    -0.014 A 
BRANCH  13  14
ATOM     14  C   UNL A   1      42.531  24.714  28.196  1.00  0.00     0.031 A 
ATOM     15  C   UNL A   1      41.512  25.800  28.404  1.00  0.00     0.074 A 
ATOM     16  C   UNL A   1      43.830  24.960  28.449  1.00  0.00     0.049 A 
ATOM     17  N   UNL A   1      41.692  27.042  28.778  1.00  0.00    -0.248 NA
ATOM     18  C   UNL A   1      40.108  25.445  28.151  1.00  0.00     0.031 C 
ATOM     19  C   UNL A   1      44.919  23.994  28.289  1.00  0.00     0.029 A 
ATOM     20  N   UNL A   1      44.458  26.102  28.879  1.00  0.00    -0.354 N 
ATOM     21  C   UNL A   1      40.432  27.625  28.780  1.00  0.00     0.074 A 
ATOM     22  C   UNL A   1      39.499  26.607  28.342  1.00  0.00     0.031 C 
ATOM     23  C   UNL A   1      46.077  24.579  28.629  1.00  0.00     0.029 A 
ATOM     24  C   UNL A   1      45.823  25.976  28.968  1.00  0.00     0.049 A 
ATOM     25  H   UNL A   1      43.976  26.931  29.103  1.00  0.00     0.167 HD
ATOM     26  C   UNL A   1      40.080  28.890  29.116  1.00  0.00     0.031 A 
ATOM     27  C   UNL A   1      46.772  26.886  29.257  1.00  0.00     0.031 A 
ATOM     28  C   UNL A   1      41.013  29.906  29.531  1.00  0.00     0.049 A 
ATOM     29  C   UNL A   1      46.368  28.300  29.565  1.00  0.00     0.074 A 
ATOM     30  C   UNL A   1      40.752  31.209  29.922  1.00  0.00     0.029 A 
ATOM     31  N   UNL A   1      42.389  29.741  29.591  1.00  0.00    -0.354 N 
ATOM     32  N   UNL A   1      45.168  28.825  29.603  1.00  0.00    -0.248 NA
ATOM     33  C   UNL A   1      47.450  29.244  29.878  1.00  0.00     0.031 C 
ATOM     34  C   UNL A   1      41.973  31.850  30.152  1.00  0.00     0.029 A 
ATOM     35  C   UNL A   1      42.992  30.925  29.983  1.00  0.00     0.049 A 
ATOM     36  H   UNL A   1      42.867  28.905  29.387  1.00  0.00     0.167 HD
ATOM     37  C   UNL A   1      45.346  30.151  29.978  1.00  0.00     0.074 A 
ATOM     38  C   UNL A   1      46.769  30.348  30.159  1.00  0.00     0.031 C 
ATOM     39  C   UNL A   1      44.410  31.113  30.163  1.00  0.00     0.031 A 
BRANCH  26  40
ATOM     40  C   UNL A   1      38.624  29.257  29.003  1.00  0.00    -0.014 A 
ATOM     41  C   UNL A   1      38.072  29.712  27.794  1.00  0.00     0.009 A 
ATOM     42  C   UNL A   1      37.786  29.128  30.121  1.00  0.00     0.009 A 
ATOM     43  C   UNL A   1      36.726  30.080  27.724  1.00  0.00     0.001 A 
ATOM     44  C   UNL A   1      36.434  29.464  30.040  1.00  0.00     0.001 A 
ATOM     45  C   UNL A   1      35.908  29.953  28.846  1.00  0.00     0.000 A 
ENDBRANCH  26  40
BRANCH  27  46
ATOM     46  C   UNL A   1      48.202  26.480  29.253  1.00  0.00    -0.014 A 
ATOM     47  C   UNL A   1      48.802  25.971  30.413  1.00  0.00     0.009 A 
ATOM     48  C   UNL A   1      48.965  26.572  28.077  1.00  0.00     0.009 A 
ATOM     49  C   UNL A   1      50.143  25.576  30.400  1.00  0.00     0.001 A 
ATOM     50  C   UNL A   1      50.294  26.149  28.059  1.00  0.00     0.001 A 
ATOM     51  C   UNL A   1      50.884  25.659  29.222  1.00  0.00     0.000 A 
ENDBRANCH  27  46
BRANCH  39  52
ATOM     52  C   UNL A   1      44.881  32.459  30.643  1.00  0.00    -0.014 A 
ATOM     53  C   UNL A   1      45.100  33.524  29.757  1.00  0.00     0.009 A 
ATOM     54  C   UNL A   1      45.047  32.678  32.020  1.00  0.00     0.009 A 
ATOM     55  C   UNL A   1      45.502  34.773  30.239  1.00  0.00     0.001 A 
ATOM     56  C   UNL A   1      45.416  33.934  32.503  1.00  0.00     0.001 A 
ATOM     57  C   UNL A   1      45.651  34.978  31.611  1.00  0.00     0.000 A 
ENDBRANCH  39  52
ENDBRANCH  13  14
ENDBRANCH   6   8
ENDBRANCH   3   4
ENDBRANCH   2   3
ENDBRANCH   1   2
BRANCH   1  58
ATOM     58  C   UNL A   1      34.861  19.404  24.696  1.00  0.00     0.116 C 
BRANCH  58  59
ATOM     59  N   UNL A   1      33.720  19.869  25.459  1.00  0.00    -0.352 N 
ATOM     60  C   UNL A   1      33.015  21.037  25.367  1.00  0.00     0.252 C 
ATOM     61  H   UNL A   1      33.403  19.247  26.153  1.00  0.00     0.163 HD
ATOM     62  O   UNL A   1      32.227  21.338  26.263  1.00  0.00    -0.269 OA
BRANCH  60  63
ATOM     63  C   UNL A   1      33.242  22.011  24.285  1.00  0.00     0.052 A 
ATOM     64  C   UNL A   1      32.591  21.650  23.082  1.00  0.00     0.014 A 
ATOM     65  C   UNL A   1      33.999  23.189  24.339  1.00  0.00     0.052 A 
ATOM     66  C   UNL A   1      32.585  22.495  21.978  1.00  0.00     0.001 A 
ATOM     67  C   UNL A   1      33.936  24.054  23.221  1.00  0.00     0.014 A 
ATOM     68  C   UNL A   1      33.230  23.719  22.061  1.00  0.00     0.001 A 
BRANCH  65  69
ATOM     69  C   UNL A   1      34.802  23.724  25.480  1.00  0.00     0.256 C 
ATOM     70  O   UNL A   1      35.694  22.995  25.930  1.00  0.00    -0.269 OA
ATOM     71  N   UNL A   1      34.711  24.984  26.024  1.00  0.00    -0.322 N 
ATOM     72  H   UNL A   1      35.410  25.185  26.688  1.00  0.00     0.170 HD
BRANCH  71  73
ATOM     73  C   UNL A   1      33.815  26.031  25.810  1.00  0.00     0.041 A 
ATOM     74  C   UNL A   1      34.371  27.279  25.508  1.00  0.00     0.028 A 
ATOM     75  C   UNL A   1      32.437  25.863  25.802  1.00  0.00     0.028 A 
ATOM     76  C   UNL A   1      33.580  28.273  24.936  1.00  0.00     0.029 A 
ATOM     77  C   UNL A   1      31.626  26.912  25.361  1.00  0.00     0.029 A 
ATOM     78  C   UNL A   1      32.205  28.079  24.835  1.00  0.00     0.052 A 
BRANCH  78  79
ATOM     79  N   UNL A   1      31.408  28.957  24.081  1.00  0.00    -0.250 N 
ATOM     80  C   UNL A   1      30.891  30.149  24.596  1.00  0.00     0.237 C 
ATOM     81  C   UNL A   1      30.822  28.603  22.848  1.00  0.00     0.237 C 
ATOM     82  O   UNL A   1      31.283  30.843  25.516  1.00  0.00    -0.274 OA
ATOM     83  C   UNL A   1      29.614  30.293  23.853  1.00  0.00     0.095 C 
ATOM     84  C   UNL A   1      30.051  29.834  22.473  1.00  0.00     0.095 C 
ATOM     85  O   UNL A   1      30.972  27.614  22.152  1.00  0.00    -0.274 OA
ATOM     86  C   UNL A   1      28.669  31.450  23.535  1.00  0.00     0.002 C 
ATOM     87  C   UNL A   1      28.806  30.180  21.661  1.00  0.00     0.002 C 
ATOM     88  C   UNL A   1      27.277  30.782  23.491  1.00  0.00     0.005 C 
ATOM     89  C   UNL A   1      28.820  31.691  22.014  1.00  0.00     0.009 C 
ATOM     90  C   UNL A   1      27.455  29.772  22.318  1.00  0.00     0.005 C 
ENDBRANCH  78  79
ENDBRANCH  71  73
ENDBRANCH  65  69
ENDBRANCH  60  63
ENDBRANCH  58  59
ENDBRANCH   1  58
TORSDOF 14
ENDMDL
