MODEL 1
REMARK VINA RESULT:      -8.4      0.000      0.000
REMARK SMILES COCCC(=O)N[C@H](C)CC(=O)NCCCCNC(=O)c1ccc(-c2c3nc(c(-c4ccccc4)c4ccc([nH]4)c(-c4ccccc4)c4nc(c(-c5ccccc5)c5ccc2[nH]5)C=C4)C=C3)cc1
REMARK SMILES IDX 14 1 13 2 11 3 12 4 10 6 8 7 9 8 7 9 5 10 6 11 4 13 3 14
REMARK SMILES IDX 2 15 1 16 15 17 16 18 17 19 18 20 19 21 20 23 21 24 22 25
REMARK SMILES IDX 68 26 23 27 67 28 24 29 25 30 26 31 61 32 27 33 66 34 60 35
REMARK SMILES IDX 62 36 28 37 65 38 59 39 58 40 29 42 51 43 36 44 50 45 37 46
REMARK SMILES IDX 40 47 49 48 63 49 38 50 39 51 48 53 64 54 41 55 30 56 31 57
REMARK SMILES IDX 35 58 32 59 34 60 33 61 52 62 53 63 57 64 54 65 56 66 55 67
REMARK SMILES IDX 42 68 43 69 47 70 44 71 46 72 45 73
REMARK H PARENT 13 5 7 12 18 22 62 41 40 52
REMARK Flexibility Score: inf
ROOT
ATOM      1  C   UNL A   1      46.527  20.542  24.551  1.00  0.00     0.116 C 
ENDROOT
BRANCH   1   2
ATOM      2  N   UNL A   1      45.555  21.510  24.084  1.00  0.00    -0.356 N 
ATOM      3  C   UNL A   1      45.599  22.870  24.143  1.00  0.00     0.222 C 
ATOM      4  O   UNL A   1      44.569  23.505  23.911  1.00  0.00    -0.275 OA
ATOM      5  H   UNL A   1      44.750  21.132  23.663  1.00  0.00     0.163 HD
BRANCH   3   6
ATOM      6  C   UNL A   1      46.899  23.568  24.468  1.00  0.00     0.124 C 
BRANCH   6   7
ATOM      7  C   UNL A   1      46.740  24.767  25.408  1.00  0.00     0.088 C 
ATOM      8  C   UNL A   1      47.920  24.964  26.350  1.00  0.00     0.031 C 
BRANCH   7   9
ATOM      9  N   UNL A   1      46.577  26.008  24.647  1.00  0.00    -0.353 N 
ATOM     10  C   UNL A   1      46.026  27.191  25.029  1.00  0.00     0.222 C 
ATOM     11  O   UNL A   1      46.068  28.140  24.245  1.00  0.00    -0.275 OA
ATOM     12  H   UNL A   1      46.916  25.981  23.723  1.00  0.00     0.163 HD
BRANCH  10  13
ATOM     13  C   UNL A   1      45.344  27.305  26.369  1.00  0.00     0.128 C 
BRANCH  13  14
ATOM     14  C   UNL A   1      44.447  28.536  26.404  1.00  0.00     0.169 C 
BRANCH  14  15
ATOM     15  O   UNL A   1      43.078  28.169  26.580  1.00  0.00    -0.384 OA
ATOM     16  C   UNL A   1      42.400  27.881  25.361  1.00  0.00     0.194 C 
ENDBRANCH  14  15
ENDBRANCH  13  14
ENDBRANCH  10  13
ENDBRANCH   7   9
ENDBRANCH   6   7
ENDBRANCH   3   6
ENDBRANCH   1   2
BRANCH   1  17
ATOM     17  C   UNL A   1      45.866  19.184  24.789  1.00  0.00     0.023 C 
BRANCH  17  18
ATOM     18  C   UNL A   1      44.352  19.187  24.631  1.00  0.00     0.023 C 
BRANCH  18  19
ATOM     19  C   UNL A   1      43.609  18.892  25.917  1.00  0.00     0.116 C 
BRANCH  19  20
ATOM     20  N   UNL A   1      42.166  18.815  25.724  1.00  0.00    -0.352 N 
ATOM     21  C   UNL A   1      41.213  19.730  26.104  1.00  0.00     0.251 C 
ATOM     22  H   UNL A   1      41.833  18.010  25.266  1.00  0.00     0.163 HD
ATOM     23  O   UNL A   1      40.021  19.483  26.024  1.00  0.00    -0.269 OA
BRANCH  21  24
ATOM     24  C   UNL A   1      41.688  21.017  26.640  1.00  0.00     0.039 A 
ATOM     25  C   UNL A   1      42.039  22.039  25.757  1.00  0.00     0.014 A 
ATOM     26  C   UNL A   1      41.655  21.232  28.019  1.00  0.00     0.014 A 
ATOM     27  C   UNL A   1      42.301  23.311  26.263  1.00  0.00     0.010 A 
ATOM     28  C   UNL A   1      41.815  22.517  28.507  1.00  0.00     0.010 A 
ATOM     29  C   UNL A   1      42.156  23.565  27.637  1.00  0.00    -0.014 A 
BRANCH  29  30
ATOM     30  C   UNL A   1      42.416  24.902  28.219  1.00  0.00     0.031 A 
ATOM     31  C   UNL A   1      43.782  25.192  28.778  1.00  0.00     0.074 A 
ATOM     32  C   UNL A   1      41.423  25.804  28.330  1.00  0.00     0.049 A 
ATOM     33  N   UNL A   1      44.189  26.217  29.478  1.00  0.00    -0.248 NA
ATOM     34  C   UNL A   1      44.817  24.166  28.556  1.00  0.00     0.031 C 
ATOM     35  C   UNL A   1      40.045  25.623  27.866  1.00  0.00     0.029 A 
ATOM     36  N   UNL A   1      41.422  27.057  28.888  1.00  0.00    -0.354 N 
ATOM     37  C   UNL A   1      45.508  25.939  29.812  1.00  0.00     0.074 A 
ATOM     38  C   UNL A   1      45.816  24.628  29.291  1.00  0.00     0.031 C 
ATOM     39  C   UNL A   1      39.340  26.734  28.140  1.00  0.00     0.029 A 
ATOM     40  C   UNL A   1      40.202  27.686  28.830  1.00  0.00     0.049 A 
ATOM     41  H   UNL A   1      42.222  27.468  29.290  1.00  0.00     0.167 HD
ATOM     42  C   UNL A   1      46.396  26.718  30.470  1.00  0.00     0.031 A 
ATOM     43  C   UNL A   1      39.825  28.893  29.294  1.00  0.00     0.031 A 
ATOM     44  C   UNL A   1      46.102  28.041  30.945  1.00  0.00     0.049 A 
ATOM     45  C   UNL A   1      40.842  29.756  29.991  1.00  0.00     0.074 A 
ATOM     46  C   UNL A   1      46.941  28.936  31.582  1.00  0.00     0.029 A 
ATOM     47  N   UNL A   1      44.870  28.663  30.812  1.00  0.00    -0.354 N 
ATOM     48  N   UNL A   1      42.098  29.496  30.265  1.00  0.00    -0.248 NA
ATOM     49  C   UNL A   1      40.392  31.085  30.430  1.00  0.00     0.031 C 
ATOM     50  C   UNL A   1      46.209  30.097  31.853  1.00  0.00     0.029 A 
ATOM     51  C   UNL A   1      44.928  29.935  31.348  1.00  0.00     0.049 A 
ATOM     52  H   UNL A   1      44.074  28.260  30.396  1.00  0.00     0.167 HD
ATOM     53  C   UNL A   1      42.596  30.639  30.876  1.00  0.00     0.074 A 
ATOM     54  C   UNL A   1      41.512  31.598  30.923  1.00  0.00     0.031 C 
ATOM     55  C   UNL A   1      43.840  30.876  31.357  1.00  0.00     0.031 A 
BRANCH  42  56
ATOM     56  C   UNL A   1      47.772  26.159  30.692  1.00  0.00    -0.014 A 
ATOM     57  C   UNL A   1      48.133  25.596  31.926  1.00  0.00     0.009 A 
ATOM     58  C   UNL A   1      48.713  26.180  29.651  1.00  0.00     0.009 A 
ATOM     59  C   UNL A   1      49.422  25.099  32.127  1.00  0.00     0.001 A 
ATOM     60  C   UNL A   1      49.991  25.654  29.846  1.00  0.00     0.001 A 
ATOM     61  C   UNL A   1      50.347  25.123  31.085  1.00  0.00     0.000 A 
ENDBRANCH  42  56
BRANCH  43  62
ATOM     62  C   UNL A   1      38.432  29.373  29.101  1.00  0.00    -0.014 A 
ATOM     63  C   UNL A   1      37.499  29.287  30.146  1.00  0.00     0.009 A 
ATOM     64  C   UNL A   1      38.020  29.894  27.865  1.00  0.00     0.009 A 
ATOM     65  C   UNL A   1      36.174  29.680  29.947  1.00  0.00     0.001 A 
ATOM     66  C   UNL A   1      36.699  30.313  27.678  1.00  0.00     0.001 A 
ATOM     67  C   UNL A   1      35.776  30.194  28.715  1.00  0.00     0.000 A 
ENDBRANCH  43  62
BRANCH  55  68
ATOM     68  C   UNL A   1      44.113  32.240  31.919  1.00  0.00    -0.014 A 
ATOM     69  C   UNL A   1      44.039  32.489  33.296  1.00  0.00     0.009 A 
ATOM     70  C   UNL A   1      44.514  33.273  31.056  1.00  0.00     0.009 A 
ATOM     71  C   UNL A   1      44.338  33.756  33.798  1.00  0.00     0.001 A 
ATOM     72  C   UNL A   1      44.836  34.531  31.563  1.00  0.00     0.001 A 
ATOM     73  C   UNL A   1      44.741  34.773  32.933  1.00  0.00     0.000 A 
ENDBRANCH  55  68
ENDBRANCH  29  30
ENDBRANCH  21  24
ENDBRANCH  19  20
ENDBRANCH  18  19
ENDBRANCH  17  18
ENDBRANCH   1  17
TORSDOF 16
ENDMDL
MODEL 2
REMARK VINA RESULT:      -8.3      0.542      6.253
REMARK SMILES COCCC(=O)N[C@H](C)CC(=O)NCCCCNC(=O)c1ccc(-c2c3nc(c(-c4ccccc4)c4ccc([nH]4)c(-c4ccccc4)c4nc(c(-c5ccccc5)c5ccc2[nH]5)C=C4)C=C3)cc1
REMARK SMILES IDX 14 1 13 2 11 3 12 4 10 6 8 7 9 8 7 9 5 10 6 11 4 13 3 14
REMARK SMILES IDX 2 15 1 16 15 17 16 18 17 19 18 20 19 21 20 23 21 24 22 25
REMARK SMILES IDX 68 26 23 27 67 28 24 29 25 30 26 31 61 32 27 33 66 34 60 35
REMARK SMILES IDX 62 36 28 37 65 38 59 39 58 40 29 42 51 43 36 44 50 45 37 46
REMARK SMILES IDX 40 47 49 48 63 49 38 50 39 51 48 53 64 54 41 55 30 56 31 57
REMARK SMILES IDX 35 58 32 59 34 60 33 61 52 62 53 63 57 64 54 65 56 66 55 67
REMARK SMILES IDX 42 68 43 69 47 70 44 71 46 72 45 73
REMARK H PARENT 13 5 7 12 18 22 62 41 40 52
REMARK Flexibility Score: inf
ROOT
ATOM      1  C   UNL A   1      46.402  20.699  24.602  1.00  0.00     0.116 C 
ENDROOT
BRANCH   1   2
ATOM      2  N   UNL A   1      45.449  21.724  24.221  1.00  0.00    -0.356 N 
ATOM      3  C   UNL A   1      45.591  23.078  24.235  1.00  0.00     0.222 C 
ATOM      4  O   UNL A   1      44.586  23.778  24.105  1.00  0.00    -0.275 OA
ATOM      5  H   UNL A   1      44.577  21.394  23.906  1.00  0.00     0.163 HD
BRANCH   3   6
ATOM      6  C   UNL A   1      46.963  23.690  24.388  1.00  0.00     0.124 C 
BRANCH   6   7
ATOM      7  C   UNL A   1      46.996  24.916  25.306  1.00  0.00     0.088 C 
ATOM      8  C   UNL A   1      48.259  25.012  26.150  1.00  0.00     0.031 C 
BRANCH   7   9
ATOM      9  N   UNL A   1      46.897  26.152  24.527  1.00  0.00    -0.353 N 
ATOM     10  C   UNL A   1      46.166  27.273  24.773  1.00  0.00     0.222 C 
ATOM     11  O   UNL A   1      46.298  28.238  24.019  1.00  0.00    -0.275 OA
ATOM     12  H   UNL A   1      47.438  26.175  23.705  1.00  0.00     0.163 HD
BRANCH  10  13
ATOM     13  C   UNL A   1      45.190  27.297  25.922  1.00  0.00     0.128 C 
BRANCH  13  14
ATOM     14  C   UNL A   1      43.778  27.022  25.423  1.00  0.00     0.169 C 
BRANCH  14  15
ATOM     15  O   UNL A   1      42.853  27.978  25.942  1.00  0.00    -0.384 OA
ATOM     16  C   UNL A   1      43.468  29.028  26.681  1.00  0.00     0.194 C 
ENDBRANCH  14  15
ENDBRANCH  13  14
ENDBRANCH  10  13
ENDBRANCH   7   9
ENDBRANCH   6   7
ENDBRANCH   3   6
ENDBRANCH   1   2
BRANCH   1  17
ATOM     17  C   UNL A   1      45.680  19.448  25.102  1.00  0.00     0.023 C 
BRANCH  17  18
ATOM     18  C   UNL A   1      44.184  19.433  24.821  1.00  0.00     0.023 C 
BRANCH  18  19
ATOM     19  C   UNL A   1      43.357  18.903  25.975  1.00  0.00     0.116 C 
BRANCH  19  20
ATOM     20  N   UNL A   1      41.925  18.974  25.714  1.00  0.00    -0.352 N 
ATOM     21  C   UNL A   1      41.051  19.978  26.061  1.00  0.00     0.251 C 
ATOM     22  H   UNL A   1      41.534  18.210  25.232  1.00  0.00     0.163 HD
ATOM     23  O   UNL A   1      39.845  19.853  25.923  1.00  0.00    -0.269 OA
BRANCH  21  24
ATOM     24  C   UNL A   1      41.627  21.207  26.633  1.00  0.00     0.039 A 
ATOM     25  C   UNL A   1      41.893  22.292  25.797  1.00  0.00     0.014 A 
ATOM     26  C   UNL A   1      41.776  21.305  28.018  1.00  0.00     0.014 A 
ATOM     27  C   UNL A   1      42.253  23.512  26.367  1.00  0.00     0.010 A 
ATOM     28  C   UNL A   1      42.034  22.542  28.583  1.00  0.00     0.010 A 
ATOM     29  C   UNL A   1      42.292  23.653  27.764  1.00  0.00    -0.014 A 
BRANCH  29  30
ATOM     30  C   UNL A   1      42.662  24.931  28.414  1.00  0.00     0.031 A 
ATOM     31  C   UNL A   1      41.600  25.979  28.601  1.00  0.00     0.074 A 
ATOM     32  C   UNL A   1      43.941  25.183  28.747  1.00  0.00     0.049 A 
ATOM     33  N   UNL A   1      41.723  27.222  28.987  1.00  0.00    -0.248 NA
ATOM     34  C   UNL A   1      40.219  25.589  28.261  1.00  0.00     0.031 C 
ATOM     35  C   UNL A   1      45.069  24.263  28.575  1.00  0.00     0.029 A 
ATOM     36  N   UNL A   1      44.512  26.306  29.289  1.00  0.00    -0.354 N 
ATOM     37  C   UNL A   1      40.448  27.766  28.898  1.00  0.00     0.074 A 
ATOM     38  C   UNL A   1      39.579  26.742  28.367  1.00  0.00     0.031 C 
ATOM     39  C   UNL A   1      46.189  24.853  29.024  1.00  0.00     0.029 A 
ATOM     40  C   UNL A   1      45.869  26.201  29.477  1.00  0.00     0.049 A 
ATOM     41  H   UNL A   1      43.996  27.113  29.522  1.00  0.00     0.167 HD
ATOM     42  C   UNL A   1      40.030  29.002  29.253  1.00  0.00     0.031 A 
ATOM     43  C   UNL A   1      46.751  27.100  29.953  1.00  0.00     0.031 A 
ATOM     44  C   UNL A   1      40.886  30.002  29.827  1.00  0.00     0.049 A 
ATOM     45  C   UNL A   1      46.254  28.456  30.376  1.00  0.00     0.074 A 
ATOM     46  C   UNL A   1      40.557  31.270  30.268  1.00  0.00     0.029 A 
ATOM     47  N   UNL A   1      42.242  29.832  30.056  1.00  0.00    -0.354 N 
ATOM     48  N   UNL A   1      45.038  28.944  30.323  1.00  0.00    -0.248 NA
ATOM     49  C   UNL A   1      47.250  29.380  30.939  1.00  0.00     0.031 C 
ATOM     50  C   UNL A   1      41.721  31.877  30.748  1.00  0.00     0.029 A 
ATOM     51  C   UNL A   1      42.764  30.970  30.640  1.00  0.00     0.049 A 
ATOM     52  H   UNL A   1      42.756  29.021  29.837  1.00  0.00     0.167 HD
ATOM     53  C   UNL A   1      45.116  30.216  30.875  1.00  0.00     0.074 A 
ATOM     54  C   UNL A   1      46.496  30.420  31.267  1.00  0.00     0.031 C 
ATOM     55  C   UNL A   1      44.135  31.134  31.043  1.00  0.00     0.031 A 
BRANCH  42  56
ATOM     56  C   UNL A   1      38.578  29.323  29.048  1.00  0.00    -0.014 A 
ATOM     57  C   UNL A   1      37.655  29.203  30.100  1.00  0.00     0.009 A 
ATOM     58  C   UNL A   1      38.128  29.767  27.795  1.00  0.00     0.009 A 
ATOM     59  C   UNL A   1      36.304  29.484  29.891  1.00  0.00     0.001 A 
ATOM     60  C   UNL A   1      36.781  30.076  27.598  1.00  0.00     0.001 A 
ATOM     61  C   UNL A   1      35.869  29.926  28.643  1.00  0.00     0.000 A 
ENDBRANCH  42  56
BRANCH  43  62
ATOM     62  C   UNL A   1      48.190  26.749  30.079  1.00  0.00    -0.014 A 
ATOM     63  C   UNL A   1      49.098  27.100  29.067  1.00  0.00     0.009 A 
ATOM     64  C   UNL A   1      48.659  26.041  31.196  1.00  0.00     0.009 A 
ATOM     65  C   UNL A   1      50.438  26.717  29.155  1.00  0.00     0.001 A 
ATOM     66  C   UNL A   1      50.007  25.684  31.293  1.00  0.00     0.001 A 
ATOM     67  C   UNL A   1      50.892  26.012  30.267  1.00  0.00     0.000 A 
ENDBRANCH  43  62
BRANCH  55  68
ATOM     68  C   UNL A   1      44.503  32.416  31.730  1.00  0.00    -0.014 A 
ATOM     69  C   UNL A   1      44.945  33.531  31.004  1.00  0.00     0.009 A 
ATOM     70  C   UNL A   1      44.340  32.524  33.120  1.00  0.00     0.009 A 
ATOM     71  C   UNL A   1      45.241  34.726  31.663  1.00  0.00     0.001 A 
ATOM     72  C   UNL A   1      44.613  33.726  33.772  1.00  0.00     0.001 A 
ATOM     73  C   UNL A   1      45.070  34.823  33.044  1.00  0.00     0.000 A 
ENDBRANCH  55  68
ENDBRANCH  29  30
ENDBRANCH  21  24
ENDBRANCH  19  20
ENDBRANCH  18  19
ENDBRANCH  17  18
ENDBRANCH   1  17
TORSDOF 16
ENDMDL
MODEL 3
REMARK VINA RESULT:      -7.9      4.059      8.928
REMARK SMILES COCCC(=O)N[C@H](C)CC(=O)NCCCCNC(=O)c1ccc(-c2c3nc(c(-c4ccccc4)c4ccc([nH]4)c(-c4ccccc4)c4nc(c(-c5ccccc5)c5ccc2[nH]5)C=C4)C=C3)cc1
REMARK SMILES IDX 14 1 13 2 11 3 12 4 10 6 8 7 9 8 7 9 5 10 6 11 4 13 3 14
REMARK SMILES IDX 2 15 1 16 15 17 16 18 17 19 18 20 19 21 20 23 21 24 22 25
REMARK SMILES IDX 68 26 23 27 67 28 24 29 25 30 26 31 61 32 27 33 66 34 60 35
REMARK SMILES IDX 62 36 28 37 65 38 59 39 58 40 29 42 51 43 36 44 50 45 37 46
REMARK SMILES IDX 40 47 49 48 63 49 38 50 39 51 48 53 64 54 41 55 30 56 31 57
REMARK SMILES IDX 35 58 32 59 34 60 33 61 52 62 53 63 57 64 54 65 56 66 55 67
REMARK SMILES IDX 42 68 43 69 47 70 44 71 46 72 45 73
REMARK H PARENT 13 5 7 12 18 22 62 41 40 52
REMARK Flexibility Score: inf
ROOT
ATOM      1  C   UNL A   1      37.120  21.631  25.264  1.00  0.00     0.116 C 
ENDROOT
BRANCH   1   2
ATOM      2  N   UNL A   1      36.801  22.437  24.102  1.00  0.00    -0.356 N 
ATOM      3  C   UNL A   1      35.762  23.296  23.909  1.00  0.00     0.222 C 
ATOM      4  O   UNL A   1      35.532  23.699  22.768  1.00  0.00    -0.275 OA
ATOM      5  H   UNL A   1      37.425  22.352  23.344  1.00  0.00     0.163 HD
BRANCH   3   6
ATOM      6  C   UNL A   1      34.932  23.750  25.087  1.00  0.00     0.124 C 
BRANCH   6   7
ATOM      7  C   UNL A   1      33.810  22.779  25.466  1.00  0.00     0.088 C 
ATOM      8  C   UNL A   1      32.861  23.325  26.522  1.00  0.00     0.031 C 
BRANCH   7   9
ATOM      9  N   UNL A   1      33.004  22.432  24.292  1.00  0.00    -0.353 N 
ATOM     10  C   UNL A   1      32.756  21.213  23.742  1.00  0.00     0.222 C 
ATOM     11  O   UNL A   1      31.974  21.143  22.793  1.00  0.00    -0.275 OA
ATOM     12  H   UNL A   1      32.581  23.194  23.833  1.00  0.00     0.163 HD
BRANCH  10  13
ATOM     13  C   UNL A   1      33.467  19.992  24.270  1.00  0.00     0.128 C 
BRANCH  13  14
ATOM     14  C   UNL A   1      32.643  19.334  25.369  1.00  0.00     0.169 C 
BRANCH  14  15
ATOM     15  O   UNL A   1      32.109  18.083  24.932  1.00  0.00    -0.384 OA
ATOM     16  C   UNL A   1      32.846  16.953  25.388  1.00  0.00     0.194 C 
ENDBRANCH  14  15
ENDBRANCH  13  14
ENDBRANCH  10  13
ENDBRANCH   7   9
ENDBRANCH   6   7
ENDBRANCH   3   6
ENDBRANCH   1   2
BRANCH   1  17
ATOM     17  C   UNL A   1      36.827  20.155  24.996  1.00  0.00     0.023 C 
BRANCH  17  18
ATOM     18  C   UNL A   1      38.061  19.264  24.978  1.00  0.00     0.023 C 
BRANCH  18  19
ATOM     19  C   UNL A   1      39.233  19.838  25.746  1.00  0.00     0.116 C 
BRANCH  19  20
ATOM     20  N   UNL A   1      40.371  18.928  25.791  1.00  0.00    -0.352 N 
ATOM     21  C   UNL A   1      41.692  19.237  26.015  1.00  0.00     0.251 C 
ATOM     22  H   UNL A   1      40.170  17.976  25.643  1.00  0.00     0.163 HD
ATOM     23  O   UNL A   1      42.576  18.407  25.877  1.00  0.00    -0.269 OA
BRANCH  21  24
ATOM     24  C   UNL A   1      42.005  20.623  26.404  1.00  0.00     0.039 A 
ATOM     25  C   UNL A   1      42.174  20.934  27.754  1.00  0.00     0.014 A 
ATOM     26  C   UNL A   1      42.251  21.569  25.407  1.00  0.00     0.014 A 
ATOM     27  C   UNL A   1      42.658  22.194  28.102  1.00  0.00     0.010 A 
ATOM     28  C   UNL A   1      42.826  22.779  25.751  1.00  0.00     0.010 A 
ATOM     29  C   UNL A   1      43.019  23.110  27.102  1.00  0.00    -0.014 A 
BRANCH  29  30
ATOM     30  C   UNL A   1      43.544  24.457  27.424  1.00  0.00     0.031 A 
ATOM     31  C   UNL A   1      42.578  25.518  27.875  1.00  0.00     0.074 A 
ATOM     32  C   UNL A   1      44.843  24.750  27.229  1.00  0.00     0.049 A 
ATOM     33  N   UNL A   1      42.777  26.798  28.049  1.00  0.00    -0.248 NA
ATOM     34  C   UNL A   1      41.189  25.088  28.118  1.00  0.00     0.031 C 
ATOM     35  C   UNL A   1      45.869  23.818  26.753  1.00  0.00     0.029 A 
ATOM     36  N   UNL A   1      45.520  25.931  27.394  1.00  0.00    -0.354 N 
ATOM     37  C   UNL A   1      41.536  27.326  28.380  1.00  0.00     0.074 A 
ATOM     38  C   UNL A   1      40.580  26.244  28.326  1.00  0.00     0.031 C 
ATOM     39  C   UNL A   1      47.048  24.459  26.686  1.00  0.00     0.029 A 
ATOM     40  C   UNL A   1      46.854  25.852  27.075  1.00  0.00     0.049 A 
ATOM     41  H   UNL A   1      45.090  26.758  27.711  1.00  0.00     0.167 HD
ATOM     42  C   UNL A   1      41.221  28.594  28.728  1.00  0.00     0.031 A 
ATOM     43  C   UNL A   1      47.808  26.802  27.087  1.00  0.00     0.031 A 
ATOM     44  C   UNL A   1      42.181  29.657  28.829  1.00  0.00     0.049 A 
ATOM     45  C   UNL A   1      47.440  28.198  27.513  1.00  0.00     0.074 A 
ATOM     46  C   UNL A   1      41.980  30.968  29.218  1.00  0.00     0.029 A 
ATOM     47  N   UNL A   1      43.532  29.518  28.556  1.00  0.00    -0.354 N 
ATOM     48  N   UNL A   1      46.268  28.674  27.861  1.00  0.00    -0.248 NA
ATOM     49  C   UNL A   1      48.529  29.185  27.561  1.00  0.00     0.031 C 
ATOM     50  C   UNL A   1      43.210  31.630  29.162  1.00  0.00     0.029 A 
ATOM     51  C   UNL A   1      44.180  30.719  28.775  1.00  0.00     0.049 A 
ATOM     52  H   UNL A   1      43.967  28.688  28.252  1.00  0.00     0.167 HD
ATOM     53  C   UNL A   1      46.486  30.003  28.202  1.00  0.00     0.074 A 
ATOM     54  C   UNL A   1      47.901  30.255  28.029  1.00  0.00     0.031 C 
ATOM     55  C   UNL A   1      45.594  30.933  28.620  1.00  0.00     0.031 A 
BRANCH  42  56
ATOM     56  C   UNL A   1      39.782  28.886  29.042  1.00  0.00    -0.014 A 
ATOM     57  C   UNL A   1      39.284  28.742  30.347  1.00  0.00     0.009 A 
ATOM     58  C   UNL A   1      38.918  29.325  28.028  1.00  0.00     0.009 A 
ATOM     59  C   UNL A   1      37.939  28.994  30.622  1.00  0.00     0.001 A 
ATOM     60  C   UNL A   1      37.581  29.607  28.313  1.00  0.00     0.001 A 
ATOM     61  C   UNL A   1      37.091  29.433  29.607  1.00  0.00     0.000 A 
ENDBRANCH  42  56
BRANCH  43  62
ATOM     62  C   UNL A   1      49.206  26.472  26.708  1.00  0.00    -0.014 A 
ATOM     63  C   UNL A   1      49.650  26.668  25.391  1.00  0.00     0.009 A 
ATOM     64  C   UNL A   1      50.096  25.936  27.651  1.00  0.00     0.009 A 
ATOM     65  C   UNL A   1      50.945  26.301  25.018  1.00  0.00     0.001 A 
ATOM     66  C   UNL A   1      51.401  25.596  27.280  1.00  0.00     0.001 A 
ATOM     67  C   UNL A   1      51.819  25.767  25.962  1.00  0.00     0.000 A 
ENDBRANCH  43  62
BRANCH  55  68
ATOM     68  C   UNL A   1      46.130  32.288  28.976  1.00  0.00    -0.014 A 
ATOM     69  C   UNL A   1      46.597  32.570  30.267  1.00  0.00     0.009 A 
ATOM     70  C   UNL A   1      46.228  33.273  27.981  1.00  0.00     0.009 A 
ATOM     71  C   UNL A   1      47.130  33.826  30.563  1.00  0.00     0.001 A 
ATOM     72  C   UNL A   1      46.784  34.518  28.272  1.00  0.00     0.001 A 
ATOM     73  C   UNL A   1      47.228  34.796  29.565  1.00  0.00     0.000 A 
ENDBRANCH  55  68
ENDBRANCH  29  30
ENDBRANCH  21  24
ENDBRANCH  19  20
ENDBRANCH  18  19
ENDBRANCH  17  18
ENDBRANCH   1  17
TORSDOF 16
ENDMDL
