MODEL 1
REMARK VINA RESULT:     -10.9      0.000      0.000
REMARK SMILES COc1cc(OC)cc(-c2ccc([C@@H](C)C(=O)NCCCCNC(=O)c3ccc(-c4c5nc(c(-c6ccccc6)c6ccc([nH]6)c(-c6ccccc6)c6nc(c(-c7ccccc7)c7ccc4[nH]7)C=C6)C=C5)cc3)cc2F)c1
REMARK SMILES IDX 20 1 19 2 18 3 16 4 17 5 14 7 15 8 13 9 10 10 11 11 75 12
REMARK SMILES IDX 12 13 74 14 76 15 9 16 3 17 4 18 77 19 5 20 8 21 2 22 1 23
REMARK SMILES IDX 6 24 7 25 21 26 22 27 23 28 24 29 25 31 26 32 27 33 73 34
REMARK SMILES IDX 28 35 72 36 29 37 30 38 31 39 66 40 32 41 71 42 65 43 67 44
REMARK SMILES IDX 33 45 70 46 64 47 63 48 34 50 56 51 41 52 55 53 42 54 45 55
REMARK SMILES IDX 54 56 68 57 43 58 44 59 53 61 69 62 46 63 35 64 36 65 40 66
REMARK SMILES IDX 37 67 39 68 38 69 57 70 58 71 62 72 59 73 61 74 60 75 47 76
REMARK SMILES IDX 48 77 52 78 49 79 51 80 50 81
REMARK H PARENT 18 6 23 30 67 49 45 60
REMARK Flexibility Score: inf
ROOT
ATOM      1  C   UNL A   1      35.581  21.751  26.037  1.00  0.00     0.023 C 
ENDROOT
BRANCH   1   2
ATOM      2  C   UNL A   1      35.200  20.713  24.980  1.00  0.00     0.116 C 
BRANCH   2   3
ATOM      3  N   UNL A   1      34.328  19.687  25.513  1.00  0.00    -0.356 N 
ATOM      4  C   UNL A   1      33.018  19.398  25.275  1.00  0.00     0.227 C 
ATOM      5  O   UNL A   1      32.528  18.487  25.955  1.00  0.00    -0.274 OA
ATOM      6  H   UNL A   1      34.760  19.090  26.165  1.00  0.00     0.163 HD
BRANCH   4   7
ATOM      7  C   UNL A   1      32.154  20.122  24.230  1.00  0.00     0.105 C 
ATOM      8  C   UNL A   1      32.401  19.658  22.794  1.00  0.00     0.023 C 
BRANCH   7   9
ATOM      9  C   UNL A   1      32.090  21.626  24.443  1.00  0.00    -0.033 A 
ATOM     10  C   UNL A   1      32.163  24.443  24.960  1.00  0.00     0.018 A 
ATOM     11  C   UNL A   1      32.398  23.914  23.679  1.00  0.00     0.012 A 
ATOM     12  C   UNL A   1      31.861  23.517  25.969  1.00  0.00     0.131 A 
ATOM     13  C   UNL A   1      32.313  22.543  23.416  1.00  0.00     0.005 A 
ATOM     14  C   UNL A   1      31.845  22.138  25.726  1.00  0.00     0.044 A 
ATOM     15  F   UNL A   1      31.569  23.933  27.211  1.00  0.00    -0.206 F 
BRANCH  10  16
ATOM     16  C   UNL A   1      32.206  25.907  25.183  1.00  0.00    -0.008 A 
ATOM     17  C   UNL A   1      31.372  28.174  24.809  1.00  0.00     0.123 A 
ATOM     18  C   UNL A   1      32.354  28.675  25.667  1.00  0.00     0.092 A 
ATOM     19  C   UNL A   1      31.298  26.796  24.576  1.00  0.00     0.055 A 
ATOM     20  C   UNL A   1      33.261  27.824  26.291  1.00  0.00     0.123 A 
ATOM     21  C   UNL A   1      33.185  26.456  26.039  1.00  0.00     0.055 A 
BRANCH  17  22
ATOM     22  O   UNL A   1      30.573  29.134  24.249  1.00  0.00    -0.497 OA
ATOM     23  C   UNL A   1      30.597  29.256  22.833  1.00  0.00     0.278 C 
ENDBRANCH  17  22
BRANCH  20  24
ATOM     24  O   UNL A   1      34.169  28.432  27.114  1.00  0.00    -0.497 OA
ATOM     25  C   UNL A   1      34.260  29.850  27.030  1.00  0.00     0.278 C 
ENDBRANCH  20  24
ENDBRANCH  10  16
ENDBRANCH   7   9
ENDBRANCH   4   7
ENDBRANCH   2   3
ENDBRANCH   1   2
BRANCH   1  26
ATOM     26  C   UNL A   1      35.710  23.183  25.526  1.00  0.00     0.023 C 
BRANCH  26  27
ATOM     27  C   UNL A   1      37.084  23.556  24.985  1.00  0.00     0.116 C 
BRANCH  27  28
ATOM     28  N   UNL A   1      38.135  22.610  25.324  1.00  0.00    -0.352 N 
ATOM     29  C   UNL A   1      39.261  22.819  26.089  1.00  0.00     0.251 C 
ATOM     30  H   UNL A   1      38.028  21.702  24.958  1.00  0.00     0.163 HD
ATOM     31  O   UNL A   1      40.097  21.934  26.213  1.00  0.00    -0.269 OA
BRANCH  29  32
ATOM     32  C   UNL A   1      39.475  24.140  26.718  1.00  0.00     0.039 A 
ATOM     33  C   UNL A   1      38.987  24.354  28.010  1.00  0.00     0.014 A 
ATOM     34  C   UNL A   1      40.184  25.147  26.059  1.00  0.00     0.014 A 
ATOM     35  C   UNL A   1      39.269  25.555  28.662  1.00  0.00     0.010 A 
ATOM     36  C   UNL A   1      40.543  26.302  26.743  1.00  0.00     0.010 A 
ATOM     37  C   UNL A   1      40.082  26.524  28.048  1.00  0.00    -0.014 A 
BRANCH  37  38
ATOM     38  C   UNL A   1      40.451  27.767  28.767  1.00  0.00     0.031 A 
ATOM     39  C   UNL A   1      41.818  27.921  29.375  1.00  0.00     0.074 A 
ATOM     40  C   UNL A   1      39.535  28.745  28.911  1.00  0.00     0.049 A 
ATOM     41  N   UNL A   1      42.333  28.954  29.993  1.00  0.00    -0.248 NA
ATOM     42  C   UNL A   1      42.715  26.756  29.308  1.00  0.00     0.031 C 
ATOM     43  C   UNL A   1      38.149  28.684  28.441  1.00  0.00     0.029 A 
ATOM     44  N   UNL A   1      39.635  29.985  29.489  1.00  0.00    -0.354 N 
ATOM     45  C   UNL A   1      43.599  28.556  30.402  1.00  0.00     0.074 A 
ATOM     46  C   UNL A   1      43.754  27.172  30.016  1.00  0.00     0.031 C 
ATOM     47  C   UNL A   1      37.543  29.852  28.709  1.00  0.00     0.029 A 
ATOM     48  C   UNL A   1      38.486  30.732  29.390  1.00  0.00     0.049 A 
ATOM     49  H   UNL A   1      40.453  30.309  29.933  1.00  0.00     0.167 HD
ATOM     50  C   UNL A   1      44.560  29.284  31.019  1.00  0.00     0.031 A 
ATOM     51  C   UNL A   1      38.227  31.991  29.788  1.00  0.00     0.031 A 
ATOM     52  C   UNL A   1      44.410  30.666  31.390  1.00  0.00     0.049 A 
ATOM     53  C   UNL A   1      39.321  32.796  30.428  1.00  0.00     0.074 A 
ATOM     54  C   UNL A   1      45.347  31.516  31.947  1.00  0.00     0.029 A 
ATOM     55  N   UNL A   1      43.241  31.397  31.243  1.00  0.00    -0.354 N 
ATOM     56  N   UNL A   1      40.552  32.442  30.709  1.00  0.00    -0.248 NA
ATOM     57  C   UNL A   1      38.998  34.186  30.781  1.00  0.00     0.031 C 
ATOM     58  C   UNL A   1      44.730  32.750  32.185  1.00  0.00     0.029 A 
ATOM     59  C   UNL A   1      43.426  32.683  31.720  1.00  0.00     0.049 A 
ATOM     60  H   UNL A   1      42.404  31.053  30.856  1.00  0.00     0.167 HD
ATOM     61  C   UNL A   1      41.158  33.569  31.246  1.00  0.00     0.074 A 
ATOM     62  C   UNL A   1      40.165  34.624  31.234  1.00  0.00     0.031 C 
ATOM     63  C   UNL A   1      42.424  33.719  31.707  1.00  0.00     0.031 A 
BRANCH  50  64
ATOM     64  C   UNL A   1      45.856  28.589  31.336  1.00  0.00    -0.014 A 
ATOM     65  C   UNL A   1      46.924  28.582  30.423  1.00  0.00     0.009 A 
ATOM     66  C   UNL A   1      46.019  27.946  32.572  1.00  0.00     0.009 A 
ATOM     67  C   UNL A   1      48.110  27.908  30.724  1.00  0.00     0.001 A 
ATOM     68  C   UNL A   1      47.217  27.300  32.883  1.00  0.00     0.001 A 
ATOM     69  C   UNL A   1      48.256  27.271  31.954  1.00  0.00     0.000 A 
ENDBRANCH  50  64
BRANCH  51  70
ATOM     70  C   UNL A   1      36.884  32.580  29.545  1.00  0.00    -0.014 A 
ATOM     71  C   UNL A   1      35.905  32.562  30.550  1.00  0.00     0.009 A 
ATOM     72  C   UNL A   1      36.580  33.178  28.313  1.00  0.00     0.009 A 
ATOM     73  C   UNL A   1      34.641  33.111  30.317  1.00  0.00     0.001 A 
ATOM     74  C   UNL A   1      35.326  33.750  28.092  1.00  0.00     0.001 A 
ATOM     75  C   UNL A   1      34.355  33.709  29.091  1.00  0.00     0.000 A 
ENDBRANCH  51  70
BRANCH  63  76
ATOM     76  C   UNL A   1      42.814  35.082  32.205  1.00  0.00    -0.014 A 
ATOM     77  C   UNL A   1      42.539  35.487  33.520  1.00  0.00     0.009 A 
ATOM     78  C   UNL A   1      43.494  35.963  31.349  1.00  0.00     0.009 A 
ATOM     79  C   UNL A   1      42.901  36.763  33.955  1.00  0.00     0.001 A 
ATOM     80  C   UNL A   1      43.882  37.226  31.796  1.00  0.00     0.001 A 
ATOM     81  C   UNL A   1      43.575  37.631  33.094  1.00  0.00     0.000 A 
ENDBRANCH  63  76
ENDBRANCH  37  38
ENDBRANCH  29  32
ENDBRANCH  27  28
ENDBRANCH  26  27
ENDBRANCH   1  26
TORSDOF 15
ENDMDL
MODEL 2
REMARK VINA RESULT:     -10.7      4.265      7.535
REMARK SMILES COc1cc(OC)cc(-c2ccc([C@@H](C)C(=O)NCCCCNC(=O)c3ccc(-c4c5nc(c(-c6ccccc6)c6ccc([nH]6)c(-c6ccccc6)c6nc(c(-c7ccccc7)c7ccc4[nH]7)C=C6)C=C5)cc3)cc2F)c1
REMARK SMILES IDX 20 1 19 2 18 3 16 4 17 5 14 7 15 8 13 9 10 10 11 11 75 12
REMARK SMILES IDX 12 13 74 14 76 15 9 16 3 17 4 18 77 19 5 20 8 21 2 22 1 23
REMARK SMILES IDX 6 24 7 25 21 26 22 27 23 28 24 29 25 31 26 32 27 33 73 34
REMARK SMILES IDX 28 35 72 36 29 37 30 38 31 39 66 40 32 41 71 42 65 43 67 44
REMARK SMILES IDX 33 45 70 46 64 47 63 48 34 50 56 51 41 52 55 53 42 54 45 55
REMARK SMILES IDX 54 56 68 57 43 58 44 59 53 61 69 62 46 63 35 64 36 65 40 66
REMARK SMILES IDX 37 67 39 68 38 69 57 70 58 71 62 72 59 73 61 74 60 75 47 76
REMARK SMILES IDX 48 77 52 78 49 79 51 80 50 81
REMARK H PARENT 18 6 23 30 67 49 45 60
REMARK Flexibility Score: inf
ROOT
ATOM      1  C   UNL A   1      42.332  22.315  28.566  1.00  0.00     0.023 C 
ENDROOT
BRANCH   1   2
ATOM      2  C   UNL A   1      43.516  23.252  28.313  1.00  0.00     0.116 C 
BRANCH   2   3
ATOM      3  N   UNL A   1      44.619  22.573  27.666  1.00  0.00    -0.356 N 
ATOM      4  C   UNL A   1      45.104  22.640  26.395  1.00  0.00     0.227 C 
ATOM      5  O   UNL A   1      46.030  21.866  26.122  1.00  0.00    -0.274 OA
ATOM      6  H   UNL A   1      45.107  21.949  28.251  1.00  0.00     0.163 HD
BRANCH   4   7
ATOM      7  C   UNL A   1      44.575  23.608  25.323  1.00  0.00     0.105 C 
ATOM      8  C   UNL A   1      45.003  23.249  23.900  1.00  0.00     0.023 C 
BRANCH   7   9
ATOM      9  C   UNL A   1      44.717  25.070  25.714  1.00  0.00    -0.033 A 
ATOM     10  C   UNL A   1      45.141  27.845  26.287  1.00  0.00     0.018 A 
ATOM     11  C   UNL A   1      43.960  27.381  25.682  1.00  0.00     0.012 A 
ATOM     12  C   UNL A   1      46.092  26.871  26.622  1.00  0.00     0.131 A 
ATOM     13  C   UNL A   1      43.732  26.021  25.448  1.00  0.00     0.005 A 
ATOM     14  C   UNL A   1      45.898  25.516  26.326  1.00  0.00     0.044 A 
ATOM     15  F   UNL A   1      47.226  27.214  27.252  1.00  0.00    -0.206 F 
BRANCH  10  16
ATOM     16  C   UNL A   1      45.317  29.289  26.570  1.00  0.00    -0.008 A 
ATOM     17  C   UNL A   1      44.514  31.439  27.412  1.00  0.00     0.123 A 
ATOM     18  C   UNL A   1      45.737  32.024  27.080  1.00  0.00     0.092 A 
ATOM     19  C   UNL A   1      44.311  30.076  27.163  1.00  0.00     0.055 A 
ATOM     20  C   UNL A   1      46.757  31.273  26.502  1.00  0.00     0.123 A 
ATOM     21  C   UNL A   1      46.536  29.921  26.245  1.00  0.00     0.055 A 
BRANCH  17  22
ATOM     22  O   UNL A   1      43.602  32.308  27.945  1.00  0.00    -0.497 OA
ATOM     23  C   UNL A   1      43.952  33.685  27.971  1.00  0.00     0.278 C 
ENDBRANCH  17  22
BRANCH  20  24
ATOM     24  O   UNL A   1      47.911  31.956  26.230  1.00  0.00    -0.497 OA
ATOM     25  C   UNL A   1      48.107  33.182  26.927  1.00  0.00     0.278 C 
ENDBRANCH  20  24
ENDBRANCH  10  16
ENDBRANCH   7   9
ENDBRANCH   4   7
ENDBRANCH   2   3
ENDBRANCH   1   2
BRANCH   1  26
ATOM     26  C   UNL A   1      41.977  21.389  27.407  1.00  0.00     0.023 C 
BRANCH  26  27
ATOM     27  C   UNL A   1      41.523  22.089  26.133  1.00  0.00     0.116 C 
BRANCH  27  28
ATOM     28  N   UNL A   1      40.118  21.893  25.814  1.00  0.00    -0.352 N 
ATOM     29  C   UNL A   1      39.060  22.743  26.048  1.00  0.00     0.251 C 
ATOM     30  H   UNL A   1      39.893  21.042  25.372  1.00  0.00     0.163 HD
ATOM     31  O   UNL A   1      37.917  22.392  25.790  1.00  0.00    -0.269 OA
BRANCH  29  32
ATOM     32  C   UNL A   1      39.314  24.065  26.661  1.00  0.00     0.039 A 
ATOM     33  C   UNL A   1      38.924  24.275  27.985  1.00  0.00     0.014 A 
ATOM     34  C   UNL A   1      39.967  25.076  25.952  1.00  0.00     0.014 A 
ATOM     35  C   UNL A   1      39.248  25.477  28.616  1.00  0.00     0.010 A 
ATOM     36  C   UNL A   1      40.371  26.232  26.608  1.00  0.00     0.010 A 
ATOM     37  C   UNL A   1      40.008  26.450  27.944  1.00  0.00    -0.014 A 
BRANCH  37  38
ATOM     38  C   UNL A   1      40.424  27.695  28.635  1.00  0.00     0.031 A 
ATOM     39  C   UNL A   1      41.821  27.840  29.172  1.00  0.00     0.074 A 
ATOM     40  C   UNL A   1      39.525  28.682  28.818  1.00  0.00     0.049 A 
ATOM     41  N   UNL A   1      42.375  28.872  29.757  1.00  0.00    -0.248 NA
ATOM     42  C   UNL A   1      42.703  26.666  29.068  1.00  0.00     0.031 C 
ATOM     43  C   UNL A   1      38.117  28.631  28.419  1.00  0.00     0.029 A 
ATOM     44  N   UNL A   1      39.665  29.925  29.382  1.00  0.00    -0.354 N 
ATOM     45  C   UNL A   1      43.658  28.465  30.103  1.00  0.00     0.074 A 
ATOM     46  C   UNL A   1      43.780  27.077  29.720  1.00  0.00     0.031 C 
ATOM     47  C   UNL A   1      37.536  29.806  28.709  1.00  0.00     0.029 A 
ATOM     48  C   UNL A   1      38.520  30.682  29.335  1.00  0.00     0.049 A 
ATOM     49  H   UNL A   1      40.507  30.244  29.782  1.00  0.00     0.167 HD
ATOM     50  C   UNL A   1      44.655  29.188  30.666  1.00  0.00     0.031 A 
ATOM     51  C   UNL A   1      38.292  31.946  29.737  1.00  0.00     0.031 A 
ATOM     52  C   UNL A   1      44.536  30.573  31.034  1.00  0.00     0.049 A 
ATOM     53  C   UNL A   1      39.425  32.745  30.316  1.00  0.00     0.074 A 
ATOM     54  C   UNL A   1      45.508  31.419  31.538  1.00  0.00     0.029 A 
ATOM     55  N   UNL A   1      43.367  31.315  30.942  1.00  0.00    -0.354 N 
ATOM     56  N   UNL A   1      40.664  32.381  30.537  1.00  0.00    -0.248 NA
ATOM     57  C   UNL A   1      39.132  34.139  30.675  1.00  0.00     0.031 C 
ATOM     58  C   UNL A   1      44.915  32.659  31.798  1.00  0.00     0.029 A 
ATOM     59  C   UNL A   1      43.588  32.602  31.400  1.00  0.00     0.049 A 
ATOM     60  H   UNL A   1      42.509  30.976  30.600  1.00  0.00     0.167 HD
ATOM     61  C   UNL A   1      41.307  33.505  31.035  1.00  0.00     0.074 A 
ATOM     62  C   UNL A   1      40.324  34.570  31.065  1.00  0.00     0.031 C 
ATOM     63  C   UNL A   1      42.596  33.647  31.430  1.00  0.00     0.031 A 
BRANCH  50  64
ATOM     64  C   UNL A   1      45.959  28.483  30.922  1.00  0.00    -0.014 A 
ATOM     65  C   UNL A   1      46.154  27.701  32.073  1.00  0.00     0.009 A 
ATOM     66  C   UNL A   1      47.003  28.586  29.990  1.00  0.00     0.009 A 
ATOM     67  C   UNL A   1      47.381  27.077  32.306  1.00  0.00     0.001 A 
ATOM     68  C   UNL A   1      48.218  27.935  30.210  1.00  0.00     0.001 A 
ATOM     69  C   UNL A   1      48.410  27.192  31.374  1.00  0.00     0.000 A 
ENDBRANCH  50  64
BRANCH  51  70
ATOM     70  C   UNL A   1      36.944  32.545  29.558  1.00  0.00    -0.014 A 
ATOM     71  C   UNL A   1      35.981  32.452  30.574  1.00  0.00     0.009 A 
ATOM     72  C   UNL A   1      36.619  33.229  28.377  1.00  0.00     0.009 A 
ATOM     73  C   UNL A   1      34.712  33.011  30.402  1.00  0.00     0.001 A 
ATOM     74  C   UNL A   1      35.360  33.811  28.218  1.00  0.00     0.001 A 
ATOM     75  C   UNL A   1      34.405  33.695  29.226  1.00  0.00     0.000 A 
ENDBRANCH  51  70
BRANCH  63  76
ATOM     76  C   UNL A   1      43.023  35.010  31.898  1.00  0.00    -0.014 A 
ATOM     77  C   UNL A   1      43.612  35.934  31.021  1.00  0.00     0.009 A 
ATOM     78  C   UNL A   1      42.805  35.382  33.234  1.00  0.00     0.009 A 
ATOM     79  C   UNL A   1      44.011  37.189  31.484  1.00  0.00     0.001 A 
ATOM     80  C   UNL A   1      43.178  36.648  33.686  1.00  0.00     0.001 A 
ATOM     81  C   UNL A   1      43.791  37.546  32.815  1.00  0.00     0.000 A 
ENDBRANCH  63  76
ENDBRANCH  37  38
ENDBRANCH  29  32
ENDBRANCH  27  28
ENDBRANCH  26  27
ENDBRANCH   1  26
TORSDOF 15
ENDMDL
MODEL 3
REMARK VINA RESULT:     -10.5      2.418      8.162
REMARK SMILES COc1cc(OC)cc(-c2ccc([C@@H](C)C(=O)NCCCCNC(=O)c3ccc(-c4c5nc(c(-c6ccccc6)c6ccc([nH]6)c(-c6ccccc6)c6nc(c(-c7ccccc7)c7ccc4[nH]7)C=C6)C=C5)cc3)cc2F)c1
REMARK SMILES IDX 20 1 19 2 18 3 16 4 17 5 14 7 15 8 13 9 10 10 11 11 75 12
REMARK SMILES IDX 12 13 74 14 76 15 9 16 3 17 4 18 77 19 5 20 8 21 2 22 1 23
REMARK SMILES IDX 6 24 7 25 21 26 22 27 23 28 24 29 25 31 26 32 27 33 73 34
REMARK SMILES IDX 28 35 72 36 29 37 30 38 31 39 66 40 32 41 71 42 65 43 67 44
REMARK SMILES IDX 33 45 70 46 64 47 63 48 34 50 56 51 41 52 55 53 42 54 45 55
REMARK SMILES IDX 54 56 68 57 43 58 44 59 53 61 69 62 46 63 35 64 36 65 40 66
REMARK SMILES IDX 37 67 39 68 38 69 57 70 58 71 62 72 59 73 61 74 60 75 47 76
REMARK SMILES IDX 48 77 52 78 49 79 51 80 50 81
REMARK H PARENT 18 6 23 30 67 49 45 60
REMARK Flexibility Score: inf
ROOT
ATOM      1  C   UNL A   1      31.004  31.274  25.753  1.00  0.00     0.023 C 
ENDROOT
BRANCH   1   2
ATOM      2  C   UNL A   1      31.897  30.067  25.458  1.00  0.00     0.116 C 
BRANCH   2   3
ATOM      3  N   UNL A   1      31.265  29.130  24.554  1.00  0.00    -0.356 N 
ATOM      4  C   UNL A   1      31.784  28.206  23.698  1.00  0.00     0.227 C 
ATOM      5  O   UNL A   1      30.969  27.597  22.993  1.00  0.00    -0.274 OA
ATOM      6  H   UNL A   1      30.281  29.167  24.558  1.00  0.00     0.163 HD
BRANCH   4   7
ATOM      7  C   UNL A   1      33.284  27.891  23.580  1.00  0.00     0.105 C 
ATOM      8  C   UNL A   1      33.953  28.515  22.355  1.00  0.00     0.023 C 
BRANCH   7   9
ATOM      9  C   UNL A   1      33.613  26.431  23.848  1.00  0.00    -0.033 A 
ATOM     10  C   UNL A   1      34.424  23.711  24.239  1.00  0.00     0.018 A 
ATOM     11  C   UNL A   1      34.407  24.643  25.292  1.00  0.00     0.012 A 
ATOM     12  C   UNL A   1      33.995  24.179  22.989  1.00  0.00     0.131 A 
ATOM     13  C   UNL A   1      33.964  25.956  25.112  1.00  0.00     0.005 A 
ATOM     14  C   UNL A   1      33.617  25.512  22.788  1.00  0.00     0.044 A 
ATOM     15  F   UNL A   1      33.926  23.348  21.937  1.00  0.00    -0.206 F 
BRANCH  10  16
ATOM     16  C   UNL A   1      34.848  22.313  24.486  1.00  0.00    -0.008 A 
ATOM     17  C   UNL A   1      34.373  19.935  24.790  1.00  0.00     0.123 A 
ATOM     18  C   UNL A   1      35.738  19.685  24.950  1.00  0.00     0.092 A 
ATOM     19  C   UNL A   1      33.935  21.243  24.551  1.00  0.00     0.055 A 
ATOM     20  C   UNL A   1      36.668  20.718  24.881  1.00  0.00     0.123 A 
ATOM     21  C   UNL A   1      36.217  22.017  24.659  1.00  0.00     0.055 A 
BRANCH  17  22
ATOM     22  O   UNL A   1      33.581  18.826  24.912  1.00  0.00    -0.497 OA
ATOM     23  C   UNL A   1      32.547  18.654  23.951  1.00  0.00     0.278 C 
ENDBRANCH  17  22
BRANCH  20  24
ATOM     24  O   UNL A   1      37.974  20.347  25.045  1.00  0.00    -0.497 OA
ATOM     25  C   UNL A   1      38.814  21.255  25.750  1.00  0.00     0.278 C 
ENDBRANCH  20  24
ENDBRANCH  10  16
ENDBRANCH   7   9
ENDBRANCH   4   7
ENDBRANCH   2   3
ENDBRANCH   1   2
BRANCH   1  26
ATOM     26  C   UNL A   1      31.333  32.029  27.038  1.00  0.00     0.023 C 
BRANCH  26  27
ATOM     27  C   UNL A   1      32.479  33.026  26.929  1.00  0.00     0.116 C 
BRANCH  27  28
ATOM     28  N   UNL A   1      32.327  34.203  27.770  1.00  0.00    -0.352 N 
ATOM     29  C   UNL A   1      33.147  34.640  28.786  1.00  0.00     0.251 C 
ATOM     30  H   UNL A   1      31.535  34.759  27.590  1.00  0.00     0.163 HD
ATOM     31  O   UNL A   1      32.833  35.613  29.458  1.00  0.00    -0.269 OA
BRANCH  29  32
ATOM     32  C   UNL A   1      34.387  33.892  29.090  1.00  0.00     0.039 A 
ATOM     33  C   UNL A   1      35.550  34.209  28.386  1.00  0.00     0.014 A 
ATOM     34  C   UNL A   1      34.413  32.915  30.089  1.00  0.00     0.014 A 
ATOM     35  C   UNL A   1      36.752  33.590  28.730  1.00  0.00     0.010 A 
ATOM     36  C   UNL A   1      35.626  32.371  30.492  1.00  0.00     0.010 A 
ATOM     37  C   UNL A   1      36.807  32.694  29.811  1.00  0.00    -0.014 A 
BRANCH  37  38
ATOM     38  C   UNL A   1      38.097  32.094  30.232  1.00  0.00     0.031 A 
ATOM     39  C   UNL A   1      38.956  32.775  31.263  1.00  0.00     0.074 A 
ATOM     40  C   UNL A   1      38.518  30.953  29.652  1.00  0.00     0.049 A 
ATOM     41  N   UNL A   1      40.085  32.374  31.789  1.00  0.00    -0.248 NA
ATOM     42  C   UNL A   1      38.506  34.091  31.745  1.00  0.00     0.031 C 
ATOM     43  C   UNL A   1      37.818  30.240  28.581  1.00  0.00     0.029 A 
ATOM     44  N   UNL A   1      39.633  30.190  29.886  1.00  0.00    -0.354 N 
ATOM     45  C   UNL A   1      40.486  33.392  32.644  1.00  0.00     0.074 A 
ATOM     46  C   UNL A   1      39.513  34.454  32.524  1.00  0.00     0.031 C 
ATOM     47  C   UNL A   1      38.496  29.121  28.283  1.00  0.00     0.029 A 
ATOM     48  C   UNL A   1      39.689  29.050  29.121  1.00  0.00     0.049 A 
ATOM     49  H   UNL A   1      40.328  30.436  30.539  1.00  0.00     0.167 HD
ATOM     50  C   UNL A   1      41.553  33.430  33.478  1.00  0.00     0.031 A 
ATOM     51  C   UNL A   1      40.590  28.051  29.109  1.00  0.00     0.031 A 
ATOM     52  C   UNL A   1      42.512  32.366  33.607  1.00  0.00     0.049 A 
ATOM     53  C   UNL A   1      41.740  28.091  30.074  1.00  0.00     0.074 A 
ATOM     54  C   UNL A   1      43.583  32.271  34.476  1.00  0.00     0.029 A 
ATOM     55  N   UNL A   1      42.516  31.212  32.838  1.00  0.00    -0.354 N 
ATOM     56  N   UNL A   1      42.046  29.010  30.957  1.00  0.00    -0.248 NA
ATOM     57  C   UNL A   1      42.654  26.940  30.059  1.00  0.00     0.031 C 
ATOM     58  C   UNL A   1      44.266  31.082  34.199  1.00  0.00     0.029 A 
ATOM     59  C   UNL A   1      43.584  30.409  33.197  1.00  0.00     0.049 A 
ATOM     60  H   UNL A   1      41.855  30.996  32.140  1.00  0.00     0.167 HD
ATOM     61  C   UNL A   1      43.171  28.540  31.621  1.00  0.00     0.074 A 
ATOM     62  C   UNL A   1      43.480  27.244  31.051  1.00  0.00     0.031 C 
ATOM     63  C   UNL A   1      43.882  29.125  32.614  1.00  0.00     0.031 A 
BRANCH  50  64
ATOM     64  C   UNL A   1      41.736  34.672  34.307  1.00  0.00    -0.014 A 
ATOM     65  C   UNL A   1      42.466  35.772  33.826  1.00  0.00     0.009 A 
ATOM     66  C   UNL A   1      41.155  34.751  35.582  1.00  0.00     0.009 A 
ATOM     67  C   UNL A   1      42.649  36.904  34.622  1.00  0.00     0.001 A 
ATOM     68  C   UNL A   1      41.313  35.898  36.363  1.00  0.00     0.001 A 
ATOM     69  C   UNL A   1      42.069  36.968  35.887  1.00  0.00     0.000 A 
ENDBRANCH  50  64
BRANCH  51  70
ATOM     70  C   UNL A   1      40.408  26.905  28.180  1.00  0.00    -0.014 A 
ATOM     71  C   UNL A   1      41.024  26.903  26.919  1.00  0.00     0.009 A 
ATOM     72  C   UNL A   1      39.633  25.798  28.556  1.00  0.00     0.009 A 
ATOM     73  C   UNL A   1      40.847  25.828  26.045  1.00  0.00     0.001 A 
ATOM     74  C   UNL A   1      39.480  24.712  27.693  1.00  0.00     0.001 A 
ATOM     75  C   UNL A   1      40.080  24.731  26.435  1.00  0.00     0.000 A 
ENDBRANCH  51  70
BRANCH  63  76
ATOM     76  C   UNL A   1      45.046  28.353  33.170  1.00  0.00    -0.014 A 
ATOM     77  C   UNL A   1      44.885  27.447  34.229  1.00  0.00     0.009 A 
ATOM     78  C   UNL A   1      46.319  28.518  32.603  1.00  0.00     0.009 A 
ATOM     79  C   UNL A   1      45.984  26.751  34.735  1.00  0.00     0.001 A 
ATOM     80  C   UNL A   1      47.410  27.798  33.091  1.00  0.00     0.001 A 
ATOM     81  C   UNL A   1      47.245  26.925  34.164  1.00  0.00     0.000 A 
ENDBRANCH  63  76
ENDBRANCH  37  38
ENDBRANCH  29  32
ENDBRANCH  27  28
ENDBRANCH  26  27
ENDBRANCH   1  26
TORSDOF 15
ENDMDL
