MODEL 1
REMARK VINA RESULT:     -11.6      0.000      0.000
REMARK SMILES CC[C@](C)(NC(=O)N(C)Cc1cccc(C)c1)C(=O)NCCCCNC(=O)c1ccc(-c2c3nc(c(-c4ccccc4)c4ccc([nH]4)c(-c4ccccc4)c4nc(c(-c5ccccc5)c5ccc2[nH]5)C=C4)C=C3)cc1
REMARK SMILES IDX 21 1 20 2 18 3 19 4 3 6 4 7 2 8 1 9 5 10 6 11 7 13 8 14 9 15
REMARK SMILES IDX 10 16 11 17 12 18 17 19 13 20 15 21 14 22 16 23 22 24 23 25
REMARK SMILES IDX 24 26 25 27 26 28 27 30 28 31 29 32 75 33 30 34 74 35 31 36
REMARK SMILES IDX 32 37 33 38 68 39 34 40 73 41 67 42 69 43 35 44 72 45 66 46
REMARK SMILES IDX 65 47 36 49 58 50 43 51 57 52 44 53 47 54 56 55 70 56 45 57
REMARK SMILES IDX 46 58 55 60 71 61 48 62 37 63 38 64 42 65 39 66 41 67 40 68
REMARK SMILES IDX 59 69 60 70 64 71 61 72 63 73 62 74 49 75 50 76 54 77 51 78
REMARK SMILES IDX 53 79 52 80
REMARK H PARENT 20 5 5 12 25 29 69 48 47 59
REMARK Flexibility Score: inf
ROOT
ATOM      1  C   UNL A   1      36.438  21.303  25.111  1.00  0.00     0.116 C 
ENDROOT
BRANCH   1   2
ATOM      2  N   UNL A   1      35.751  21.403  26.395  1.00  0.00    -0.354 N 
ATOM      3  C   UNL A   1      34.534  21.886  26.794  1.00  0.00     0.245 C 
ATOM      4  O   UNL A   1      34.163  21.542  27.924  1.00  0.00    -0.272 OA
ATOM      5  H   UNL A   1      36.281  21.041  27.141  1.00  0.00     0.163 HD
BRANCH   3   6
ATOM      6  C   UNL A   1      33.591  22.723  25.869  1.00  0.00     0.117 C 
ATOM      7  C   UNL A   1      33.357  22.123  24.461  1.00  0.00     0.045 C 
BRANCH   6   8
ATOM      8  C   UNL A   1      34.230  24.132  25.630  1.00  0.00     0.035 C 
ATOM      9  C   UNL A   1      34.639  24.414  24.179  1.00  0.00     0.007 C 
ENDBRANCH   6   8
BRANCH   6  10
ATOM     10  N   UNL A   1      32.291  22.867  26.567  1.00  0.00    -0.324 N 
ATOM     11  C   UNL A   1      31.329  23.826  26.606  1.00  0.00     0.318 C 
ATOM     12  H   UNL A   1      32.074  22.089  27.131  1.00  0.00     0.166 HD
ATOM     13  O   UNL A   1      30.322  23.559  27.268  1.00  0.00    -0.249 OA
BRANCH  11  14
ATOM     14  N   UNL A   1      31.423  24.980  25.856  1.00  0.00    -0.324 N 
ATOM     15  C   UNL A   1      31.567  26.262  26.516  1.00  0.00     0.149 C 
BRANCH  14  16
ATOM     16  C   UNL A   1      30.678  24.991  24.586  1.00  0.00     0.156 C 
BRANCH  16  17
ATOM     17  C   UNL A   1      30.330  26.322  23.923  1.00  0.00    -0.028 A 
ATOM     18  C   UNL A   1      31.347  26.966  23.193  1.00  0.00     0.005 A 
ATOM     19  C   UNL A   1      29.058  26.909  23.905  1.00  0.00     0.009 A 
ATOM     20  C   UNL A   1      31.097  28.135  22.467  1.00  0.00     0.001 A 
ATOM     21  C   UNL A   1      28.789  28.075  23.165  1.00  0.00    -0.051 A 
ATOM     22  C   UNL A   1      29.817  28.679  22.441  1.00  0.00     0.003 A 
ATOM     23  C   UNL A   1      27.388  28.612  23.086  1.00  0.00     0.044 C 
ENDBRANCH  16  17
ENDBRANCH  14  16
ENDBRANCH  11  14
ENDBRANCH   6  10
ENDBRANCH   3   6
ENDBRANCH   1   2
BRANCH   1  24
ATOM     24  C   UNL A   1      37.964  21.454  25.117  1.00  0.00     0.023 C 
BRANCH  24  25
ATOM     25  C   UNL A   1      38.523  22.462  26.113  1.00  0.00     0.023 C 
BRANCH  25  26
ATOM     26  C   UNL A   1      39.767  21.985  26.840  1.00  0.00     0.116 C 
BRANCH  26  27
ATOM     27  N   UNL A   1      40.516  20.950  26.128  1.00  0.00    -0.352 N 
ATOM     28  C   UNL A   1      41.894  20.771  26.063  1.00  0.00     0.251 C 
ATOM     29  H   UNL A   1      39.974  20.296  25.630  1.00  0.00     0.163 HD
ATOM     30  O   UNL A   1      42.391  19.850  25.457  1.00  0.00    -0.269 OA
BRANCH  28  31
ATOM     31  C   UNL A   1      42.734  21.679  26.884  1.00  0.00     0.039 A 
ATOM     32  C   UNL A   1      42.530  21.649  28.266  1.00  0.00     0.014 A 
ATOM     33  C   UNL A   1      43.392  22.743  26.273  1.00  0.00     0.014 A 
ATOM     34  C   UNL A   1      42.722  22.818  28.990  1.00  0.00     0.010 A 
ATOM     35  C   UNL A   1      43.476  23.932  26.970  1.00  0.00     0.010 A 
ATOM     36  C   UNL A   1      43.058  23.986  28.304  1.00  0.00    -0.014 A 
BRANCH  36  37
ATOM     37  C   UNL A   1      42.828  25.313  28.866  1.00  0.00     0.031 A 
ATOM     38  C   UNL A   1      41.657  26.106  28.452  1.00  0.00     0.074 A 
ATOM     39  C   UNL A   1      43.691  25.823  29.773  1.00  0.00     0.049 A 
ATOM     40  N   UNL A   1      41.601  27.394  28.504  1.00  0.00    -0.248 NA
ATOM     41  C   UNL A   1      40.469  25.497  27.869  1.00  0.00     0.031 C 
ATOM     42  C   UNL A   1      43.508  26.999  30.620  1.00  0.00     0.029 A 
ATOM     43  N   UNL A   1      45.031  25.491  29.940  1.00  0.00    -0.354 N 
ATOM     44  C   UNL A   1      40.302  27.759  28.247  1.00  0.00     0.074 A 
ATOM     45  C   UNL A   1      39.662  26.556  27.767  1.00  0.00     0.031 C 
ATOM     46  C   UNL A   1      44.712  27.432  31.030  1.00  0.00     0.029 A 
ATOM     47  C   UNL A   1      45.718  26.644  30.339  1.00  0.00     0.049 A 
ATOM     48  H   UNL A   1      45.427  24.601  29.801  1.00  0.00     0.167 HD
ATOM     49  C   UNL A   1      39.871  29.001  28.604  1.00  0.00     0.031 A 
ATOM     50  C   UNL A   1      46.724  27.166  29.578  1.00  0.00     0.031 A 
ATOM     51  C   UNL A   1      40.959  29.832  29.116  1.00  0.00     0.049 A 
ATOM     52  C   UNL A   1      46.458  28.576  29.091  1.00  0.00     0.074 A 
ATOM     53  C   UNL A   1      41.357  30.186  30.396  1.00  0.00     0.029 A 
ATOM     54  N   UNL A   1      42.000  30.191  28.268  1.00  0.00    -0.354 N 
ATOM     55  N   UNL A   1      45.279  29.131  29.065  1.00  0.00    -0.248 NA
ATOM     56  C   UNL A   1      47.495  29.447  28.543  1.00  0.00     0.031 C 
ATOM     57  C   UNL A   1      42.672  30.718  30.316  1.00  0.00     0.029 A 
ATOM     58  C   UNL A   1      43.058  30.707  28.988  1.00  0.00     0.049 A 
ATOM     59  H   UNL A   1      41.983  30.090  27.288  1.00  0.00     0.167 HD
ATOM     60  C   UNL A   1      45.369  30.377  28.500  1.00  0.00     0.074 A 
ATOM     61  C   UNL A   1      46.782  30.537  28.209  1.00  0.00     0.031 C 
ATOM     62  C   UNL A   1      44.265  31.157  28.304  1.00  0.00     0.031 A 
BRANCH  49  63
ATOM     63  C   UNL A   1      38.408  29.344  28.770  1.00  0.00    -0.014 A 
ATOM     64  C   UNL A   1      37.699  29.897  27.687  1.00  0.00     0.009 A 
ATOM     65  C   UNL A   1      37.690  29.219  29.970  1.00  0.00     0.009 A 
ATOM     66  C   UNL A   1      36.396  30.393  27.827  1.00  0.00     0.001 A 
ATOM     67  C   UNL A   1      36.404  29.750  30.131  1.00  0.00     0.001 A 
ATOM     68  C   UNL A   1      35.760  30.352  29.060  1.00  0.00     0.000 A 
ENDBRANCH  49  63
BRANCH  50  69
ATOM     69  C   UNL A   1      47.486  26.148  28.801  1.00  0.00    -0.014 A 
ATOM     70  C   UNL A   1      47.170  25.964  27.440  1.00  0.00     0.009 A 
ATOM     71  C   UNL A   1      48.698  25.634  29.282  1.00  0.00     0.009 A 
ATOM     72  C   UNL A   1      48.092  25.384  26.563  1.00  0.00     0.001 A 
ATOM     73  C   UNL A   1      49.612  25.040  28.402  1.00  0.00     0.001 A 
ATOM     74  C   UNL A   1      49.324  24.948  27.040  1.00  0.00     0.000 A 
ENDBRANCH  50  69
BRANCH  62  75
ATOM     75  C   UNL A   1      44.191  32.438  27.503  1.00  0.00    -0.014 A 
ATOM     76  C   UNL A   1      44.339  32.525  26.113  1.00  0.00     0.009 A 
ATOM     77  C   UNL A   1      43.824  33.633  28.167  1.00  0.00     0.009 A 
ATOM     78  C   UNL A   1      44.170  33.741  25.431  1.00  0.00     0.001 A 
ATOM     79  C   UNL A   1      43.609  34.836  27.489  1.00  0.00     0.001 A 
ATOM     80  C   UNL A   1      43.795  34.892  26.117  1.00  0.00     0.000 A 
ENDBRANCH  62  75
ENDBRANCH  36  37
ENDBRANCH  28  31
ENDBRANCH  26  27
ENDBRANCH  25  26
ENDBRANCH  24  25
ENDBRANCH   1  24
TORSDOF 16
ENDMDL
MODEL 2
REMARK VINA RESULT:     -11.5      1.459      1.981
REMARK SMILES CC[C@](C)(NC(=O)N(C)Cc1cccc(C)c1)C(=O)NCCCCNC(=O)c1ccc(-c2c3nc(c(-c4ccccc4)c4ccc([nH]4)c(-c4ccccc4)c4nc(c(-c5ccccc5)c5ccc2[nH]5)C=C4)C=C3)cc1
REMARK SMILES IDX 21 1 20 2 18 3 19 4 3 6 4 7 2 8 1 9 5 10 6 11 7 13 8 14 9 15
REMARK SMILES IDX 10 16 11 17 12 18 17 19 13 20 15 21 14 22 16 23 22 24 23 25
REMARK SMILES IDX 24 26 25 27 26 28 27 30 28 31 29 32 75 33 30 34 74 35 31 36
REMARK SMILES IDX 32 37 33 38 68 39 34 40 73 41 67 42 69 43 35 44 72 45 66 46
REMARK SMILES IDX 65 47 36 49 58 50 43 51 57 52 44 53 47 54 56 55 70 56 45 57
REMARK SMILES IDX 46 58 55 60 71 61 48 62 37 63 38 64 42 65 39 66 41 67 40 68
REMARK SMILES IDX 59 69 60 70 64 71 61 72 63 73 62 74 49 75 50 76 54 77 51 78
REMARK SMILES IDX 53 79 52 80
REMARK H PARENT 20 5 5 12 25 29 69 48 47 59
REMARK Flexibility Score: inf
ROOT
ATOM      1  C   UNL A   1      36.724  21.872  25.012  1.00  0.00     0.116 C 
ENDROOT
BRANCH   1   2
ATOM      2  N   UNL A   1      35.785  21.869  26.130  1.00  0.00    -0.354 N 
ATOM      3  C   UNL A   1      34.477  21.494  26.280  1.00  0.00     0.245 C 
ATOM      4  O   UNL A   1      34.087  21.359  27.447  1.00  0.00    -0.272 OA
ATOM      5  H   UNL A   1      36.182  22.212  26.963  1.00  0.00     0.163 HD
BRANCH   3   6
ATOM      6  C   UNL A   1      33.538  21.137  25.082  1.00  0.00     0.117 C 
ATOM      7  C   UNL A   1      32.023  21.197  25.399  1.00  0.00     0.045 C 
BRANCH   6   8
ATOM      8  C   UNL A   1      33.820  19.664  24.634  1.00  0.00     0.035 C 
ATOM      9  C   UNL A   1      32.916  18.610  25.284  1.00  0.00     0.007 C 
ENDBRANCH   6   8
BRANCH   6  10
ATOM     10  N   UNL A   1      33.848  22.073  23.975  1.00  0.00    -0.324 N 
ATOM     11  C   UNL A   1      33.642  23.400  23.761  1.00  0.00     0.318 C 
ATOM     12  H   UNL A   1      34.309  21.635  23.223  1.00  0.00     0.166 HD
ATOM     13  O   UNL A   1      34.111  23.860  22.717  1.00  0.00    -0.249 OA
BRANCH  11  14
ATOM     14  N   UNL A   1      33.045  24.204  24.710  1.00  0.00    -0.324 N 
ATOM     15  C   UNL A   1      31.678  24.650  24.524  1.00  0.00     0.149 C 
BRANCH  14  16
ATOM     16  C   UNL A   1      33.934  25.138  25.421  1.00  0.00     0.156 C 
BRANCH  16  17
ATOM     17  C   UNL A   1      33.714  26.643  25.289  1.00  0.00    -0.028 A 
ATOM     18  C   UNL A   1      33.820  27.202  24.001  1.00  0.00     0.005 A 
ATOM     19  C   UNL A   1      33.324  27.498  26.329  1.00  0.00     0.009 A 
ATOM     20  C   UNL A   1      33.536  28.551  23.765  1.00  0.00     0.001 A 
ATOM     21  C   UNL A   1      33.018  28.852  26.102  1.00  0.00    -0.051 A 
ATOM     22  C   UNL A   1      33.121  29.370  24.810  1.00  0.00     0.003 A 
ATOM     23  C   UNL A   1      32.502  29.708  27.224  1.00  0.00     0.044 C 
ENDBRANCH  16  17
ENDBRANCH  14  16
ENDBRANCH  11  14
ENDBRANCH   6  10
ENDBRANCH   3   6
ENDBRANCH   1   2
BRANCH   1  24
ATOM     24  C   UNL A   1      38.146  21.370  25.288  1.00  0.00     0.023 C 
BRANCH  24  25
ATOM     25  C   UNL A   1      38.911  22.117  26.372  1.00  0.00     0.023 C 
BRANCH  25  26
ATOM     26  C   UNL A   1      40.367  22.379  26.031  1.00  0.00     0.116 C 
BRANCH  26  27
ATOM     27  N   UNL A   1      41.104  21.188  25.608  1.00  0.00    -0.352 N 
ATOM     28  C   UNL A   1      42.407  20.820  25.928  1.00  0.00     0.251 C 
ATOM     29  H   UNL A   1      40.616  20.568  25.020  1.00  0.00     0.163 HD
ATOM     30  O   UNL A   1      42.894  19.786  25.533  1.00  0.00    -0.269 OA
BRANCH  28  31
ATOM     31  C   UNL A   1      43.136  21.681  26.893  1.00  0.00     0.039 A 
ATOM     32  C   UNL A   1      42.715  21.634  28.224  1.00  0.00     0.014 A 
ATOM     33  C   UNL A   1      43.918  22.731  26.419  1.00  0.00     0.014 A 
ATOM     34  C   UNL A   1      42.828  22.782  28.998  1.00  0.00     0.010 A 
ATOM     35  C   UNL A   1      43.931  23.903  27.148  1.00  0.00     0.010 A 
ATOM     36  C   UNL A   1      43.308  23.948  28.401  1.00  0.00    -0.014 A 
BRANCH  36  37
ATOM     37  C   UNL A   1      43.036  25.273  28.951  1.00  0.00     0.031 A 
ATOM     38  C   UNL A   1      41.850  26.032  28.518  1.00  0.00     0.074 A 
ATOM     39  C   UNL A   1      43.875  25.811  29.865  1.00  0.00     0.049 A 
ATOM     40  N   UNL A   1      41.760  27.318  28.560  1.00  0.00    -0.248 NA
ATOM     41  C   UNL A   1      40.686  25.388  27.925  1.00  0.00     0.031 C 
ATOM     42  C   UNL A   1      43.651  26.987  30.702  1.00  0.00     0.029 A 
ATOM     43  N   UNL A   1      45.221  25.515  30.050  1.00  0.00    -0.354 N 
ATOM     44  C   UNL A   1      40.455  27.647  28.285  1.00  0.00     0.074 A 
ATOM     45  C   UNL A   1      39.853  26.425  27.806  1.00  0.00     0.031 C 
ATOM     46  C   UNL A   1      44.838  27.455  31.123  1.00  0.00     0.029 A 
ATOM     47  C   UNL A   1      45.873  26.689  30.449  1.00  0.00     0.049 A 
ATOM     48  H   UNL A   1      45.642  24.635  29.922  1.00  0.00     0.167 HD
ATOM     49  C   UNL A   1      39.988  28.880  28.628  1.00  0.00     0.031 A 
ATOM     50  C   UNL A   1      46.874  27.232  29.696  1.00  0.00     0.031 A 
ATOM     51  C   UNL A   1      41.047  29.742  29.148  1.00  0.00     0.049 A 
ATOM     52  C   UNL A   1      46.577  28.631  29.197  1.00  0.00     0.074 A 
ATOM     53  C   UNL A   1      41.420  30.115  30.430  1.00  0.00     0.029 A 
ATOM     54  N   UNL A   1      42.088  30.123  28.309  1.00  0.00    -0.354 N 
ATOM     55  N   UNL A   1      45.384  29.155  29.153  1.00  0.00    -0.248 NA
ATOM     56  C   UNL A   1      47.597  29.525  28.656  1.00  0.00     0.031 C 
ATOM     57  C   UNL A   1      42.721  30.680  30.362  1.00  0.00     0.029 A 
ATOM     58  C   UNL A   1      43.124  30.672  29.039  1.00  0.00     0.049 A 
ATOM     59  H   UNL A   1      42.086  30.015  27.330  1.00  0.00     0.167 HD
ATOM     60  C   UNL A   1      45.449  30.400  28.581  1.00  0.00     0.074 A 
ATOM     61  C   UNL A   1      46.860  30.594  28.305  1.00  0.00     0.031 C 
ATOM     62  C   UNL A   1      44.327  31.148  28.366  1.00  0.00     0.031 A 
BRANCH  49  63
ATOM     63  C   UNL A   1      38.514  29.185  28.774  1.00  0.00    -0.014 A 
ATOM     64  C   UNL A   1      37.786  29.636  27.657  1.00  0.00     0.009 A 
ATOM     65  C   UNL A   1      37.802  29.122  29.983  1.00  0.00     0.009 A 
ATOM     66  C   UNL A   1      36.467  30.098  27.765  1.00  0.00     0.001 A 
ATOM     67  C   UNL A   1      36.499  29.621  30.110  1.00  0.00     0.001 A 
ATOM     68  C   UNL A   1      35.834  30.123  29.001  1.00  0.00     0.000 A 
ENDBRANCH  49  63
BRANCH  50  69
ATOM     69  C   UNL A   1      47.672  26.229  28.936  1.00  0.00    -0.014 A 
ATOM     70  C   UNL A   1      47.429  26.082  27.555  1.00  0.00     0.009 A 
ATOM     71  C   UNL A   1      48.853  25.695  29.469  1.00  0.00     0.009 A 
ATOM     72  C   UNL A   1      48.394  25.519  26.715  1.00  0.00     0.001 A 
ATOM     73  C   UNL A   1      49.811  25.118  28.625  1.00  0.00     0.001 A 
ATOM     74  C   UNL A   1      49.596  25.063  27.247  1.00  0.00     0.000 A 
ENDBRANCH  50  69
BRANCH  62  75
ATOM     75  C   UNL A   1      44.228  32.422  27.556  1.00  0.00    -0.014 A 
ATOM     76  C   UNL A   1      44.361  32.499  26.163  1.00  0.00     0.009 A 
ATOM     77  C   UNL A   1      43.855  33.618  28.213  1.00  0.00     0.009 A 
ATOM     78  C   UNL A   1      44.171  33.707  25.474  1.00  0.00     0.001 A 
ATOM     79  C   UNL A   1      43.618  34.812  27.528  1.00  0.00     0.001 A 
ATOM     80  C   UNL A   1      43.789  34.859  26.154  1.00  0.00     0.000 A 
ENDBRANCH  62  75
ENDBRANCH  36  37
ENDBRANCH  28  31
ENDBRANCH  26  27
ENDBRANCH  25  26
ENDBRANCH  24  25
ENDBRANCH   1  24
TORSDOF 16
ENDMDL
MODEL 3
REMARK VINA RESULT:     -11.4      3.908      9.250
REMARK SMILES CC[C@](C)(NC(=O)N(C)Cc1cccc(C)c1)C(=O)NCCCCNC(=O)c1ccc(-c2c3nc(c(-c4ccccc4)c4ccc([nH]4)c(-c4ccccc4)c4nc(c(-c5ccccc5)c5ccc2[nH]5)C=C4)C=C3)cc1
REMARK SMILES IDX 21 1 20 2 18 3 19 4 3 6 4 7 2 8 1 9 5 10 6 11 7 13 8 14 9 15
REMARK SMILES IDX 10 16 11 17 12 18 17 19 13 20 15 21 14 22 16 23 22 24 23 25
REMARK SMILES IDX 24 26 25 27 26 28 27 30 28 31 29 32 75 33 30 34 74 35 31 36
REMARK SMILES IDX 32 37 33 38 68 39 34 40 73 41 67 42 69 43 35 44 72 45 66 46
REMARK SMILES IDX 65 47 36 49 58 50 43 51 57 52 44 53 47 54 56 55 70 56 45 57
REMARK SMILES IDX 46 58 55 60 71 61 48 62 37 63 38 64 42 65 39 66 41 67 40 68
REMARK SMILES IDX 59 69 60 70 64 71 61 72 63 73 62 74 49 75 50 76 54 77 51 78
REMARK SMILES IDX 53 79 52 80
REMARK H PARENT 20 5 5 12 25 29 69 48 47 59
REMARK Flexibility Score: inf
ROOT
ATOM      1  C   UNL A   1      32.396  30.339  25.830  1.00  0.00     0.116 C 
ENDROOT
BRANCH   1   2
ATOM      2  N   UNL A   1      32.971  29.695  24.652  1.00  0.00    -0.354 N 
ATOM      3  C   UNL A   1      32.461  28.948  23.625  1.00  0.00     0.245 C 
ATOM      4  O   UNL A   1      33.200  28.811  22.641  1.00  0.00    -0.272 OA
ATOM      5  H   UNL A   1      33.944  29.830  24.581  1.00  0.00     0.163 HD
BRANCH   3   6
ATOM      6  C   UNL A   1      31.002  28.385  23.608  1.00  0.00     0.117 C 
ATOM      7  C   UNL A   1      30.660  27.494  22.388  1.00  0.00     0.045 C 
BRANCH   6   8
ATOM      8  C   UNL A   1      29.995  29.582  23.555  1.00  0.00     0.035 C 
ATOM      9  C   UNL A   1      28.691  29.293  22.803  1.00  0.00     0.007 C 
ENDBRANCH   6   8
BRANCH   6  10
ATOM     10  N   UNL A   1      30.806  27.610  24.856  1.00  0.00    -0.324 N 
ATOM     11  C   UNL A   1      31.401  26.517  25.404  1.00  0.00     0.318 C 
ATOM     12  H   UNL A   1      30.080  27.967  25.416  1.00  0.00     0.166 HD
ATOM     13  O   UNL A   1      31.001  26.186  26.524  1.00  0.00    -0.249 OA
BRANCH  11  14
ATOM     14  N   UNL A   1      32.467  25.888  24.795  1.00  0.00    -0.324 N 
ATOM     15  C   UNL A   1      32.230  24.800  23.866  1.00  0.00     0.149 C 
BRANCH  14  16
ATOM     16  C   UNL A   1      33.706  25.800  25.584  1.00  0.00     0.156 C 
BRANCH  16  17
ATOM     17  C   UNL A   1      34.416  24.457  25.734  1.00  0.00    -0.028 A 
ATOM     18  C   UNL A   1      33.912  23.562  26.698  1.00  0.00     0.005 A 
ATOM     19  C   UNL A   1      35.468  24.003  24.927  1.00  0.00     0.009 A 
ATOM     20  C   UNL A   1      34.430  22.271  26.838  1.00  0.00     0.001 A 
ATOM     21  C   UNL A   1      35.987  22.701  25.045  1.00  0.00    -0.051 A 
ATOM     22  C   UNL A   1      35.455  21.836  26.002  1.00  0.00     0.003 A 
ATOM     23  C   UNL A   1      37.042  22.219  24.091  1.00  0.00     0.044 C 
ENDBRANCH  16  17
ENDBRANCH  14  16
ENDBRANCH  11  14
ENDBRANCH   6  10
ENDBRANCH   3   6
ENDBRANCH   1   2
BRANCH   1  24
ATOM     24  C   UNL A   1      32.949  29.922  27.198  1.00  0.00     0.023 C 
BRANCH  24  25
ATOM     25  C   UNL A   1      34.466  29.924  27.325  1.00  0.00     0.023 C 
BRANCH  25  26
ATOM     26  C   UNL A   1      35.040  31.231  27.844  1.00  0.00     0.116 C 
BRANCH  26  27
ATOM     27  N   UNL A   1      34.036  32.265  28.098  1.00  0.00    -0.352 N 
ATOM     28  C   UNL A   1      34.074  33.293  29.034  1.00  0.00     0.251 C 
ATOM     29  H   UNL A   1      33.230  32.227  27.533  1.00  0.00     0.163 HD
ATOM     30  O   UNL A   1      33.184  34.107  29.125  1.00  0.00    -0.269 OA
BRANCH  28  31
ATOM     31  C   UNL A   1      35.317  33.439  29.830  1.00  0.00     0.039 A 
ATOM     32  C   UNL A   1      36.379  34.115  29.225  1.00  0.00     0.014 A 
ATOM     33  C   UNL A   1      35.519  32.623  30.940  1.00  0.00     0.014 A 
ATOM     34  C   UNL A   1      37.677  33.740  29.549  1.00  0.00     0.010 A 
ATOM     35  C   UNL A   1      36.802  32.172  31.182  1.00  0.00     0.010 A 
ATOM     36  C   UNL A   1      37.868  32.670  30.423  1.00  0.00    -0.014 A 
BRANCH  36  37
ATOM     37  C   UNL A   1      39.113  31.911  30.465  1.00  0.00     0.031 A 
ATOM     38  C   UNL A   1      39.217  30.608  29.786  1.00  0.00     0.074 A 
ATOM     39  C   UNL A   1      40.183  32.402  31.130  1.00  0.00     0.049 A 
ATOM     40  N   UNL A   1      40.045  29.678  30.126  1.00  0.00    -0.248 NA
ATOM     41  C   UNL A   1      38.326  30.221  28.700  1.00  0.00     0.031 C 
ATOM     42  C   UNL A   1      41.563  31.926  31.081  1.00  0.00     0.029 A 
ATOM     43  N   UNL A   1      40.176  33.312  32.181  1.00  0.00    -0.354 N 
ATOM     44  C   UNL A   1      40.003  28.714  29.148  1.00  0.00     0.074 A 
ATOM     45  C   UNL A   1      38.856  29.050  28.337  1.00  0.00     0.031 C 
ATOM     46  C   UNL A   1      42.211  32.353  32.178  1.00  0.00     0.029 A 
ATOM     47  C   UNL A   1      41.231  32.988  33.043  1.00  0.00     0.049 A 
ATOM     48  H   UNL A   1      39.540  34.053  32.300  1.00  0.00     0.167 HD
ATOM     49  C   UNL A   1      41.025  27.820  29.044  1.00  0.00     0.031 A 
ATOM     50  C   UNL A   1      41.001  32.637  34.342  1.00  0.00     0.031 A 
ATOM     51  C   UNL A   1      41.992  27.964  30.131  1.00  0.00     0.049 A 
ATOM     52  C   UNL A   1      41.469  31.239  34.693  1.00  0.00     0.074 A 
ATOM     53  C   UNL A   1      43.237  28.566  30.216  1.00  0.00     0.029 A 
ATOM     54  N   UNL A   1      41.594  27.698  31.436  1.00  0.00    -0.354 N 
ATOM     55  N   UNL A   1      41.732  30.313  33.814  1.00  0.00    -0.248 NA
ATOM     56  C   UNL A   1      41.622  30.763  36.065  1.00  0.00     0.031 C 
ATOM     57  C   UNL A   1      43.564  28.708  31.591  1.00  0.00     0.029 A 
ATOM     58  C   UNL A   1      42.530  28.169  32.335  1.00  0.00     0.049 A 
ATOM     59  H   UNL A   1      40.759  27.238  31.684  1.00  0.00     0.167 HD
ATOM     60  C   UNL A   1      42.056  29.146  34.458  1.00  0.00     0.074 A 
ATOM     61  C   UNL A   1      41.993  29.486  35.867  1.00  0.00     0.031 C 
ATOM     62  C   UNL A   1      42.325  27.999  33.768  1.00  0.00     0.031 A 
BRANCH  49  63
ATOM     63  C   UNL A   1      41.295  27.027  27.785  1.00  0.00    -0.014 A 
ATOM     64  C   UNL A   1      41.259  25.620  27.831  1.00  0.00     0.009 A 
ATOM     65  C   UNL A   1      41.658  27.590  26.550  1.00  0.00     0.009 A 
ATOM     66  C   UNL A   1      41.667  24.831  26.748  1.00  0.00     0.001 A 
ATOM     67  C   UNL A   1      42.108  26.810  25.477  1.00  0.00     0.001 A 
ATOM     68  C   UNL A   1      42.125  25.427  25.580  1.00  0.00     0.000 A 
ENDBRANCH  49  63
BRANCH  50  69
ATOM     69  C   UNL A   1      39.801  33.287  34.941  1.00  0.00    -0.014 A 
ATOM     70  C   UNL A   1      38.529  32.755  34.647  1.00  0.00     0.009 A 
ATOM     71  C   UNL A   1      39.924  34.166  36.026  1.00  0.00     0.009 A 
ATOM     72  C   UNL A   1      37.437  33.005  35.483  1.00  0.00     0.001 A 
ATOM     73  C   UNL A   1      38.824  34.426  36.853  1.00  0.00     0.001 A 
ATOM     74  C   UNL A   1      37.593  33.819  36.601  1.00  0.00     0.000 A 
ENDBRANCH  50  69
BRANCH  62  75
ATOM     75  C   UNL A   1      42.477  26.608  34.346  1.00  0.00    -0.014 A 
ATOM     76  C   UNL A   1      41.529  25.968  35.155  1.00  0.00     0.009 A 
ATOM     77  C   UNL A   1      43.592  25.829  33.956  1.00  0.00     0.009 A 
ATOM     78  C   UNL A   1      41.705  24.642  35.582  1.00  0.00     0.001 A 
ATOM     79  C   UNL A   1      43.749  24.495  34.339  1.00  0.00     0.001 A 
ATOM     80  C   UNL A   1      42.807  23.904  35.165  1.00  0.00     0.000 A 
ENDBRANCH  62  75
ENDBRANCH  36  37
ENDBRANCH  28  31
ENDBRANCH  26  27
ENDBRANCH  25  26
ENDBRANCH  24  25
ENDBRANCH   1  24
TORSDOF 16
ENDMDL
