MODEL 1
REMARK VINA RESULT:     -11.5      0.000      0.000
REMARK SMILES CS(=O)(=O)c1ccc(-c2cc(Cl)cnc2-c2ccc(C(=O)NCCCCNC(=O)c3ccc(-c4c5nc(c(-c6ccccc6)c6ccc([nH]6)c(-c6ccccc6)c6nc(c(-c7ccccc7)c7ccc4[nH]7)C=C6)C=C5)cc3)nc2)cc1
REMARK SMILES IDX 24 1 23 2 22 3 20 4 21 5 19 7 16 8 17 9 79 10 18 11 78 12
REMARK SMILES IDX 15 13 9 14 10 15 11 16 14 17 12 18 13 19 8 20 5 21 6 22
REMARK SMILES IDX 81 23 7 24 80 25 2 26 1 27 3 28 4 29 25 30 26 31 27 32 28 33
REMARK SMILES IDX 29 35 30 36 31 37 77 38 32 39 76 40 33 41 34 42 35 43 70 44
REMARK SMILES IDX 36 45 75 46 69 47 71 48 37 49 74 50 68 51 67 52 38 54 60 55
REMARK SMILES IDX 45 56 59 57 46 58 49 59 58 60 72 61 47 62 48 63 57 65 73 66
REMARK SMILES IDX 50 67 39 68 40 69 44 70 41 71 43 72 42 73 61 74 62 75 66 76
REMARK SMILES IDX 63 77 65 78 64 79 51 80 52 81 56 82 53 83 55 84 54 85
REMARK H PARENT 22 6 27 34 71 53 49 64
REMARK Flexibility Score: inf
ROOT
ATOM      1  C   UNL A   1      36.351  30.489  30.130  1.00  0.00     0.023 C 
ENDROOT
BRANCH   1   2
ATOM      2  C   UNL A   1      35.829  29.979  28.784  1.00  0.00     0.116 C 
BRANCH   2   3
ATOM      3  N   UNL A   1      34.753  30.813  28.294  1.00  0.00    -0.351 N 
ATOM      4  C   UNL A   1      33.678  30.547  27.470  1.00  0.00     0.269 C 
ATOM      5  O   UNL A   1      32.895  31.479  27.279  1.00  0.00    -0.268 OA
ATOM      6  H   UNL A   1      34.795  31.746  28.608  1.00  0.00     0.163 HD
BRANCH   4   7
ATOM      7  C   UNL A   1      33.419  29.199  26.849  1.00  0.00     0.128 A 
ATOM      8  C   UNL A   1      33.040  26.793  25.518  1.00  0.00     0.019 A 
ATOM      9  C   UNL A   1      32.268  27.104  26.638  1.00  0.00     0.014 A 
ATOM     10  C   UNL A   1      34.024  27.709  25.168  1.00  0.00     0.122 A 
ATOM     11  C   UNL A   1      32.474  28.300  27.322  1.00  0.00     0.035 A 
ATOM     12  N   UNL A   1      34.210  28.904  25.783  1.00  0.00    -0.250 NA
BRANCH   8  13
ATOM     13  C   UNL A   1      32.802  25.574  24.748  1.00  0.00     0.080 A 
ATOM     14  C   UNL A   1      31.749  25.460  23.814  1.00  0.00     0.010 A 
ATOM     15  C   UNL A   1      31.559  24.202  23.218  1.00  0.00     0.033 A 
ATOM     16  C   UNL A   1      32.391  23.139  23.549  1.00  0.00     0.060 A 
ATOM     17  N   UNL A   1      33.633  24.547  25.065  1.00  0.00    -0.254 NA
ATOM     18  Cl  UNL A   1      32.155  21.593  22.843  1.00  0.00    -0.083 Cl
ATOM     19  C   UNL A   1      33.407  23.356  24.462  1.00  0.00     0.132 A 
BRANCH  14  20
ATOM     20  C   UNL A   1      30.867  26.584  23.455  1.00  0.00    -0.016 A 
ATOM     21  C   UNL A   1      29.181  28.731  22.773  1.00  0.00     0.067 A 
ATOM     22  C   UNL A   1      30.517  28.748  22.374  1.00  0.00     0.021 A 
ATOM     23  C   UNL A   1      28.674  27.653  23.502  1.00  0.00     0.021 A 
ATOM     24  C   UNL A   1      31.351  27.680  22.717  1.00  0.00     0.010 A 
ATOM     25  C   UNL A   1      29.514  26.586  23.836  1.00  0.00     0.010 A 
BRANCH  21  26
ATOM     26  S   UNL A   1      28.098  30.069  22.328  1.00  0.00     0.175 S 
ATOM     27  C   UNL A   1      28.930  31.542  22.856  1.00  0.00     0.163 C 
ATOM     28  O   UNL A   1      26.903  29.944  23.136  1.00  0.00    -0.224 OA
ATOM     29  O   UNL A   1      28.028  30.078  20.877  1.00  0.00    -0.224 OA
ENDBRANCH  21  26
ENDBRANCH  14  20
ENDBRANCH   8  13
ENDBRANCH   4   7
ENDBRANCH   2   3
ENDBRANCH   1   2
BRANCH   1  30
ATOM     30  C   UNL A   1      35.524  31.616  30.752  1.00  0.00     0.023 C 
BRANCH  30  31
ATOM     31  C   UNL A   1      35.591  31.702  32.272  1.00  0.00     0.116 C 
BRANCH  31  32
ATOM     32  N   UNL A   1      35.755  33.059  32.771  1.00  0.00    -0.352 N 
ATOM     33  C   UNL A   1      36.873  33.856  32.717  1.00  0.00     0.251 C 
ATOM     34  H   UNL A   1      34.964  33.456  33.202  1.00  0.00     0.163 HD
ATOM     35  O   UNL A   1      36.883  34.952  33.265  1.00  0.00    -0.269 OA
BRANCH  33  36
ATOM     36  C   UNL A   1      38.080  33.352  32.034  1.00  0.00     0.039 A 
ATOM     37  C   UNL A   1      38.951  32.519  32.739  1.00  0.00     0.014 A 
ATOM     38  C   UNL A   1      38.323  33.663  30.694  1.00  0.00     0.014 A 
ATOM     39  C   UNL A   1      40.031  31.934  32.077  1.00  0.00     0.010 A 
ATOM     40  C   UNL A   1      39.362  33.030  30.019  1.00  0.00     0.010 A 
ATOM     41  C   UNL A   1      40.220  32.156  30.703  1.00  0.00    -0.014 A 
BRANCH  41  42
ATOM     42  C   UNL A   1      41.307  31.476  29.959  1.00  0.00     0.031 A 
ATOM     43  C   UNL A   1      42.588  32.202  29.665  1.00  0.00     0.074 A 
ATOM     44  C   UNL A   1      41.112  30.228  29.491  1.00  0.00     0.049 A 
ATOM     45  N   UNL A   1      43.621  31.802  28.969  1.00  0.00    -0.248 NA
ATOM     46  C   UNL A   1      42.714  33.566  30.203  1.00  0.00     0.031 C 
ATOM     47  C   UNL A   1      39.897  29.429  29.677  1.00  0.00     0.029 A 
ATOM     48  N   UNL A   1      41.934  29.414  28.754  1.00  0.00    -0.354 N 
ATOM     49  C   UNL A   1      44.512  32.868  28.973  1.00  0.00     0.074 A 
ATOM     50  C   UNL A   1      43.879  33.947  29.701  1.00  0.00     0.031 C 
ATOM     51  C   UNL A   1      40.067  28.231  29.093  1.00  0.00     0.029 A 
ATOM     52  C   UNL A   1      41.382  28.191  28.462  1.00  0.00     0.049 A 
ATOM     53  H   UNL A   1      42.836  29.681  28.461  1.00  0.00     0.167 HD
ATOM     54  C   UNL A   1      45.753  32.936  28.437  1.00  0.00     0.031 A 
ATOM     55  C   UNL A   1      41.879  27.155  27.763  1.00  0.00     0.031 A 
ATOM     56  C   UNL A   1      46.389  31.861  27.726  1.00  0.00     0.049 A 
ATOM     57  C   UNL A   1      43.256  27.260  27.170  1.00  0.00     0.074 A 
ATOM     58  C   UNL A   1      47.662  31.820  27.183  1.00  0.00     0.029 A 
ATOM     59  N   UNL A   1      45.800  30.635  27.464  1.00  0.00    -0.354 N 
ATOM     60  N   UNL A   1      44.105  28.256  27.229  1.00  0.00    -0.248 NA
ATOM     61  C   UNL A   1      43.745  26.091  26.426  1.00  0.00     0.031 C 
ATOM     62  C   UNL A   1      47.831  30.577  26.562  1.00  0.00     0.029 A 
ATOM     63  C   UNL A   1      46.678  29.832  26.756  1.00  0.00     0.049 A 
ATOM     64  H   UNL A   1      44.892  30.373  27.740  1.00  0.00     0.167 HD
ATOM     65  C   UNL A   1      45.240  27.824  26.553  1.00  0.00     0.074 A 
ATOM     66  C   UNL A   1      44.974  26.473  26.105  1.00  0.00     0.031 C 
ATOM     67  C   UNL A   1      46.398  28.488  26.325  1.00  0.00     0.031 A 
BRANCH  54  68
ATOM     68  C   UNL A   1      46.504  34.226  28.605  1.00  0.00    -0.014 A 
ATOM     69  C   UNL A   1      47.264  34.474  29.760  1.00  0.00     0.009 A 
ATOM     70  C   UNL A   1      46.476  35.192  27.588  1.00  0.00     0.009 A 
ATOM     71  C   UNL A   1      47.954  35.679  29.907  1.00  0.00     0.001 A 
ATOM     72  C   UNL A   1      47.188  36.385  27.727  1.00  0.00     0.001 A 
ATOM     73  C   UNL A   1      47.918  36.631  28.889  1.00  0.00     0.000 A 
ENDBRANCH  54  68
BRANCH  55  74
ATOM     74  C   UNL A   1      41.081  25.912  27.598  1.00  0.00    -0.014 A 
ATOM     75  C   UNL A   1      41.378  24.775  28.364  1.00  0.00     0.009 A 
ATOM     76  C   UNL A   1      40.034  25.851  26.666  1.00  0.00     0.009 A 
ATOM     77  C   UNL A   1      40.660  23.591  28.180  1.00  0.00     0.001 A 
ATOM     78  C   UNL A   1      39.302  24.673  26.502  1.00  0.00     0.001 A 
ATOM     79  C   UNL A   1      39.622  23.541  27.252  1.00  0.00     0.000 A 
ENDBRANCH  55  74
BRANCH  67  80
ATOM     80  C   UNL A   1      47.478  27.746  25.592  1.00  0.00    -0.014 A 
ATOM     81  C   UNL A   1      48.475  27.043  26.285  1.00  0.00     0.009 A 
ATOM     82  C   UNL A   1      47.473  27.722  24.189  1.00  0.00     0.009 A 
ATOM     83  C   UNL A   1      49.465  26.353  25.583  1.00  0.00     0.001 A 
ATOM     84  C   UNL A   1      48.450  27.012  23.491  1.00  0.00     0.001 A 
ATOM     85  C   UNL A   1      49.449  26.335  24.188  1.00  0.00     0.000 A 
ENDBRANCH  67  80
ENDBRANCH  41  42
ENDBRANCH  33  36
ENDBRANCH  31  32
ENDBRANCH  30  31
ENDBRANCH   1  30
TORSDOF 14
ENDMDL
MODEL 2
REMARK VINA RESULT:     -11.3      4.128      7.241
REMARK SMILES CS(=O)(=O)c1ccc(-c2cc(Cl)cnc2-c2ccc(C(=O)NCCCCNC(=O)c3ccc(-c4c5nc(c(-c6ccccc6)c6ccc([nH]6)c(-c6ccccc6)c6nc(c(-c7ccccc7)c7ccc4[nH]7)C=C6)C=C5)cc3)nc2)cc1
REMARK SMILES IDX 24 1 23 2 22 3 20 4 21 5 19 7 16 8 17 9 79 10 18 11 78 12
REMARK SMILES IDX 15 13 9 14 10 15 11 16 14 17 12 18 13 19 8 20 5 21 6 22
REMARK SMILES IDX 81 23 7 24 80 25 2 26 1 27 3 28 4 29 25 30 26 31 27 32 28 33
REMARK SMILES IDX 29 35 30 36 31 37 77 38 32 39 76 40 33 41 34 42 35 43 70 44
REMARK SMILES IDX 36 45 75 46 69 47 71 48 37 49 74 50 68 51 67 52 38 54 60 55
REMARK SMILES IDX 45 56 59 57 46 58 49 59 58 60 72 61 47 62 48 63 57 65 73 66
REMARK SMILES IDX 50 67 39 68 40 69 44 70 41 71 43 72 42 73 61 74 62 75 66 76
REMARK SMILES IDX 63 77 65 78 64 79 51 80 52 81 56 82 53 83 55 84 54 85
REMARK H PARENT 22 6 27 34 71 53 49 64
REMARK Flexibility Score: inf
ROOT
ATOM      1  C   UNL A   1      31.462  31.531  26.184  1.00  0.00     0.023 C 
ENDROOT
BRANCH   1   2
ATOM      2  C   UNL A   1      31.743  30.504  27.283  1.00  0.00     0.116 C 
BRANCH   2   3
ATOM      3  N   UNL A   1      33.163  30.392  27.540  1.00  0.00    -0.351 N 
ATOM      4  C   UNL A   1      34.081  29.405  27.247  1.00  0.00     0.269 C 
ATOM      5  O   UNL A   1      35.250  29.637  27.561  1.00  0.00    -0.268 OA
ATOM      6  H   UNL A   1      33.545  31.166  28.014  1.00  0.00     0.163 HD
BRANCH   4   7
ATOM      7  C   UNL A   1      33.725  28.117  26.550  1.00  0.00     0.128 A 
ATOM      8  C   UNL A   1      33.138  25.840  25.076  1.00  0.00     0.019 A 
ATOM      9  C   UNL A   1      32.554  26.034  26.327  1.00  0.00     0.014 A 
ATOM     10  C   UNL A   1      34.055  26.799  24.662  1.00  0.00     0.122 A 
ATOM     11  C   UNL A   1      32.867  27.164  27.080  1.00  0.00     0.035 A 
ATOM     12  N   UNL A   1      34.337  27.933  25.350  1.00  0.00    -0.250 NA
BRANCH   8  13
ATOM     13  C   UNL A   1      32.779  24.695  24.241  1.00  0.00     0.080 A 
ATOM     14  C   UNL A   1      31.641  24.691  23.406  1.00  0.00     0.010 A 
ATOM     15  C   UNL A   1      31.345  23.492  22.737  1.00  0.00     0.033 A 
ATOM     16  C   UNL A   1      32.160  22.378  22.905  1.00  0.00     0.060 A 
ATOM     17  N   UNL A   1      33.593  23.618  24.398  1.00  0.00    -0.254 NA
ATOM     18  Cl  UNL A   1      31.796  20.902  22.110  1.00  0.00    -0.083 Cl
ATOM     19  C   UNL A   1      33.264  22.488  23.731  1.00  0.00     0.132 A 
BRANCH  14  20
ATOM     20  C   UNL A   1      30.776  25.869  23.219  1.00  0.00    -0.016 A 
ATOM     21  C   UNL A   1      29.124  28.119  22.867  1.00  0.00     0.067 A 
ATOM     22  C   UNL A   1      30.373  28.076  22.247  1.00  0.00     0.021 A 
ATOM     23  C   UNL A   1      28.686  27.051  23.655  1.00  0.00     0.021 A 
ATOM     24  C   UNL A   1      31.191  26.956  22.427  1.00  0.00     0.010 A 
ATOM     25  C   UNL A   1      29.509  25.934  23.825  1.00  0.00     0.010 A 
BRANCH  21  26
ATOM     26  S   UNL A   1      28.059  29.523  22.633  1.00  0.00     0.175 S 
ATOM     27  C   UNL A   1      28.834  30.853  23.514  1.00  0.00     0.163 C 
ATOM     28  O   UNL A   1      26.812  29.237  23.310  1.00  0.00    -0.224 OA
ATOM     29  O   UNL A   1      28.092  29.835  21.215  1.00  0.00    -0.224 OA
ENDBRANCH  21  26
ENDBRANCH  14  20
ENDBRANCH   8  13
ENDBRANCH   4   7
ENDBRANCH   2   3
ENDBRANCH   1   2
BRANCH   1  30
ATOM     30  C   UNL A   1      31.466  32.988  26.652  1.00  0.00     0.023 C 
BRANCH  30  31
ATOM     31  C   UNL A   1      32.774  33.463  27.272  1.00  0.00     0.116 C 
BRANCH  31  32
ATOM     32  N   UNL A   1      32.635  34.675  28.065  1.00  0.00    -0.352 N 
ATOM     33  C   UNL A   1      33.380  35.072  29.149  1.00  0.00     0.251 C 
ATOM     34  H   UNL A   1      31.916  35.288  27.790  1.00  0.00     0.163 HD
ATOM     35  O   UNL A   1      33.082  36.085  29.772  1.00  0.00    -0.269 OA
BRANCH  33  36
ATOM     36  C   UNL A   1      34.513  34.234  29.586  1.00  0.00     0.039 A 
ATOM     37  C   UNL A   1      35.783  34.499  29.068  1.00  0.00     0.014 A 
ATOM     38  C   UNL A   1      34.330  33.227  30.538  1.00  0.00     0.014 A 
ATOM     39  C   UNL A   1      36.886  33.802  29.559  1.00  0.00     0.010 A 
ATOM     40  C   UNL A   1      35.438  32.578  31.072  1.00  0.00     0.010 A 
ATOM     41  C   UNL A   1      36.725  32.863  30.592  1.00  0.00    -0.014 A 
BRANCH  41  42
ATOM     42  C   UNL A   1      37.893  32.175  31.191  1.00  0.00     0.031 A 
ATOM     43  C   UNL A   1      38.595  31.084  30.433  1.00  0.00     0.074 A 
ATOM     44  C   UNL A   1      38.277  32.486  32.444  1.00  0.00     0.049 A 
ATOM     45  N   UNL A   1      39.585  30.320  30.817  1.00  0.00    -0.248 NA
ATOM     46  C   UNL A   1      38.104  30.800  29.075  1.00  0.00     0.031 C 
ATOM     47  C   UNL A   1      37.653  33.500  33.299  1.00  0.00     0.029 A 
ATOM     48  N   UNL A   1      39.285  31.972  33.221  1.00  0.00    -0.354 N 
ATOM     49  C   UNL A   1      39.825  29.456  29.756  1.00  0.00     0.074 A 
ATOM     50  C   UNL A   1      38.848  29.759  28.732  1.00  0.00     0.031 C 
ATOM     51  C   UNL A   1      38.310  33.551  34.469  1.00  0.00     0.029 A 
ATOM     52  C   UNL A   1      39.374  32.552  34.462  1.00  0.00     0.049 A 
ATOM     53  H   UNL A   1      39.888  31.255  32.916  1.00  0.00     0.167 HD
ATOM     54  C   UNL A   1      40.784  28.509  29.637  1.00  0.00     0.031 A 
ATOM     55  C   UNL A   1      40.217  32.304  35.481  1.00  0.00     0.031 A 
ATOM     56  C   UNL A   1      41.765  28.216  30.646  1.00  0.00     0.049 A 
ATOM     57  C   UNL A   1      41.268  31.241  35.325  1.00  0.00     0.074 A 
ATOM     58  C   UNL A   1      42.804  27.303  30.600  1.00  0.00     0.029 A 
ATOM     59  N   UNL A   1      41.828  28.834  31.884  1.00  0.00    -0.354 N 
ATOM     60  N   UNL A   1      41.514  30.470  34.295  1.00  0.00    -0.248 NA
ATOM     61  C   UNL A   1      42.163  31.025  36.470  1.00  0.00     0.031 C 
ATOM     62  C   UNL A   1      43.478  27.346  31.825  1.00  0.00     0.029 A 
ATOM     63  C   UNL A   1      42.882  28.316  32.616  1.00  0.00     0.049 A 
ATOM     64  H   UNL A   1      41.215  29.538  32.196  1.00  0.00     0.167 HD
ATOM     65  C   UNL A   1      42.609  29.696  34.657  1.00  0.00     0.074 A 
ATOM     66  C   UNL A   1      42.987  30.101  35.995  1.00  0.00     0.031 C 
ATOM     67  C   UNL A   1      43.246  28.736  33.943  1.00  0.00     0.031 A 
BRANCH  54  68
ATOM     68  C   UNL A   1      40.816  27.721  28.358  1.00  0.00    -0.014 A 
ATOM     69  C   UNL A   1      40.125  26.505  28.241  1.00  0.00     0.009 A 
ATOM     70  C   UNL A   1      41.522  28.213  27.249  1.00  0.00     0.009 A 
ATOM     71  C   UNL A   1      40.168  25.779  27.048  1.00  0.00     0.001 A 
ATOM     72  C   UNL A   1      41.542  27.497  26.050  1.00  0.00     0.001 A 
ATOM     73  C   UNL A   1      40.873  26.279  25.954  1.00  0.00     0.000 A 
ENDBRANCH  54  68
BRANCH  55  74
ATOM     74  C   UNL A   1      40.122  33.091  36.738  1.00  0.00    -0.014 A 
ATOM     75  C   UNL A   1      39.246  32.690  37.758  1.00  0.00     0.009 A 
ATOM     76  C   UNL A   1      40.892  34.250  36.919  1.00  0.00     0.009 A 
ATOM     77  C   UNL A   1      39.120  33.451  38.922  1.00  0.00     0.001 A 
ATOM     78  C   UNL A   1      40.782  34.994  38.095  1.00  0.00     0.001 A 
ATOM     79  C   UNL A   1      39.890  34.601  39.091  1.00  0.00     0.000 A 
ENDBRANCH  55  74
BRANCH  67  80
ATOM     80  C   UNL A   1      44.440  28.088  34.582  1.00  0.00    -0.014 A 
ATOM     81  C   UNL A   1      44.319  26.887  35.297  1.00  0.00     0.009 A 
ATOM     82  C   UNL A   1      45.707  28.671  34.433  1.00  0.00     0.009 A 
ATOM     83  C   UNL A   1      45.445  26.298  35.875  1.00  0.00     0.001 A 
ATOM     84  C   UNL A   1      46.833  28.067  34.993  1.00  0.00     0.001 A 
ATOM     85  C   UNL A   1      46.700  26.886  35.720  1.00  0.00     0.000 A 
ENDBRANCH  67  80
ENDBRANCH  41  42
ENDBRANCH  33  36
ENDBRANCH  31  32
ENDBRANCH  30  31
ENDBRANCH   1  30
TORSDOF 14
ENDMDL
MODEL 3
REMARK VINA RESULT:     -11.3      5.042      8.943
REMARK SMILES CS(=O)(=O)c1ccc(-c2cc(Cl)cnc2-c2ccc(C(=O)NCCCCNC(=O)c3ccc(-c4c5nc(c(-c6ccccc6)c6ccc([nH]6)c(-c6ccccc6)c6nc(c(-c7ccccc7)c7ccc4[nH]7)C=C6)C=C5)cc3)nc2)cc1
REMARK SMILES IDX 24 1 23 2 22 3 20 4 21 5 19 7 16 8 17 9 79 10 18 11 78 12
REMARK SMILES IDX 15 13 9 14 10 15 11 16 14 17 12 18 13 19 8 20 5 21 6 22
REMARK SMILES IDX 81 23 7 24 80 25 2 26 1 27 3 28 4 29 25 30 26 31 27 32 28 33
REMARK SMILES IDX 29 35 30 36 31 37 77 38 32 39 76 40 33 41 34 42 35 43 70 44
REMARK SMILES IDX 36 45 75 46 69 47 71 48 37 49 74 50 68 51 67 52 38 54 60 55
REMARK SMILES IDX 45 56 59 57 46 58 49 59 58 60 72 61 47 62 48 63 57 65 73 66
REMARK SMILES IDX 50 67 39 68 40 69 44 70 41 71 43 72 42 73 61 74 62 75 66 76
REMARK SMILES IDX 63 77 65 78 64 79 51 80 52 81 56 82 53 83 55 84 54 85
REMARK H PARENT 22 6 27 34 71 53 49 64
REMARK Flexibility Score: inf
ROOT
ATOM      1  C   UNL A   1      33.890  34.548  29.536  1.00  0.00     0.023 C 
ENDROOT
BRANCH   1   2
ATOM      2  C   UNL A   1      34.999  34.124  30.502  1.00  0.00     0.116 C 
BRANCH   2   3
ATOM      3  N   UNL A   1      34.527  34.129  31.870  1.00  0.00    -0.351 N 
ATOM      4  C   UNL A   1      34.982  33.495  33.008  1.00  0.00     0.269 C 
ATOM      5  O   UNL A   1      34.378  33.750  34.052  1.00  0.00    -0.268 OA
ATOM      6  H   UNL A   1      33.731  34.691  32.016  1.00  0.00     0.163 HD
BRANCH   4   7
ATOM      7  C   UNL A   1      36.168  32.566  33.026  1.00  0.00     0.128 A 
ATOM      8  C   UNL A   1      38.390  30.921  33.268  1.00  0.00     0.019 A 
ATOM      9  C   UNL A   1      37.912  31.270  32.005  1.00  0.00     0.014 A 
ATOM     10  C   UNL A   1      37.662  31.381  34.358  1.00  0.00     0.122 A 
ATOM     11  C   UNL A   1      36.782  32.075  31.881  1.00  0.00     0.035 A 
ATOM     12  N   UNL A   1      36.591  32.209  34.267  1.00  0.00    -0.250 NA
BRANCH   8  13
ATOM     13  C   UNL A   1      39.608  30.129  33.424  1.00  0.00     0.080 A 
ATOM     14  C   UNL A   1      40.830  30.692  33.855  1.00  0.00     0.010 A 
ATOM     15  C   UNL A   1      41.953  29.848  33.861  1.00  0.00     0.033 A 
ATOM     16  C   UNL A   1      41.834  28.522  33.461  1.00  0.00     0.060 A 
ATOM     17  N   UNL A   1      39.477  28.829  33.050  1.00  0.00    -0.254 NA
ATOM     18  Cl  UNL A   1      43.204  27.489  33.444  1.00  0.00    -0.083 Cl
ATOM     19  C   UNL A   1      40.590  28.059  33.075  1.00  0.00     0.132 A 
BRANCH  14  20
ATOM     20  C   UNL A   1      40.962  32.095  34.283  1.00  0.00    -0.016 A 
ATOM     21  C   UNL A   1      41.212  34.776  35.100  1.00  0.00     0.067 A 
ATOM     22  C   UNL A   1      41.387  33.751  36.030  1.00  0.00     0.021 A 
ATOM     23  C   UNL A   1      40.920  34.479  33.767  1.00  0.00     0.021 A 
ATOM     24  C   UNL A   1      41.260  32.421  35.620  1.00  0.00     0.010 A 
ATOM     25  C   UNL A   1      40.800  33.146  33.364  1.00  0.00     0.010 A 
BRANCH  21  26
ATOM     26  S   UNL A   1      41.391  36.473  35.597  1.00  0.00     0.175 S 
ATOM     27  C   UNL A   1      42.224  36.419  37.162  1.00  0.00     0.163 C 
ATOM     28  O   UNL A   1      40.062  36.993  35.843  1.00  0.00    -0.224 OA
ATOM     29  O   UNL A   1      42.277  37.096  34.629  1.00  0.00    -0.224 OA
ENDBRANCH  21  26
ENDBRANCH  14  20
ENDBRANCH   8  13
ENDBRANCH   4   7
ENDBRANCH   2   3
ENDBRANCH   1   2
BRANCH   1  30
ATOM     30  C   UNL A   1      33.919  33.843  28.178  1.00  0.00     0.023 C 
BRANCH  30  31
ATOM     31  C   UNL A   1      34.819  32.616  28.107  1.00  0.00     0.116 C 
BRANCH  31  32
ATOM     32  N   UNL A   1      34.101  31.385  27.811  1.00  0.00    -0.352 N 
ATOM     33  C   UNL A   1      34.590  30.101  27.780  1.00  0.00     0.251 C 
ATOM     34  H   UNL A   1      33.143  31.485  27.607  1.00  0.00     0.163 HD
ATOM     35  O   UNL A   1      33.876  29.171  27.424  1.00  0.00    -0.269 OA
BRANCH  33  36
ATOM     36  C   UNL A   1      36.004  29.864  28.131  1.00  0.00     0.039 A 
ATOM     37  C   UNL A   1      36.304  29.353  29.396  1.00  0.00     0.014 A 
ATOM     38  C   UNL A   1      37.019  30.099  27.201  1.00  0.00     0.014 A 
ATOM     39  C   UNL A   1      37.620  29.006  29.703  1.00  0.00     0.010 A 
ATOM     40  C   UNL A   1      38.319  29.695  27.485  1.00  0.00     0.010 A 
ATOM     41  C   UNL A   1      38.629  29.139  28.735  1.00  0.00    -0.014 A 
BRANCH  41  42
ATOM     42  C   UNL A   1      40.017  28.694  29.009  1.00  0.00     0.031 A 
ATOM     43  C   UNL A   1      40.997  29.635  29.650  1.00  0.00     0.074 A 
ATOM     44  C   UNL A   1      40.411  27.468  28.616  1.00  0.00     0.049 A 
ATOM     45  N   UNL A   1      42.267  29.454  29.903  1.00  0.00    -0.248 NA
ATOM     46  C   UNL A   1      40.486  30.960  30.037  1.00  0.00     0.031 C 
ATOM     47  C   UNL A   1      39.565  26.475  27.948  1.00  0.00     0.029 A 
ATOM     48  N   UNL A   1      41.632  26.849  28.717  1.00  0.00    -0.354 N 
ATOM     49  C   UNL A   1      42.711  30.645  30.463  1.00  0.00     0.074 A 
ATOM     50  C   UNL A   1      41.587  31.556  30.471  1.00  0.00     0.031 C 
ATOM     51  C   UNL A   1      40.286  25.364  27.725  1.00  0.00     0.029 A 
ATOM     52  C   UNL A   1      41.650  25.578  28.199  1.00  0.00     0.049 A 
ATOM     53  H   UNL A   1      42.421  27.277  29.123  1.00  0.00     0.167 HD
ATOM     54  C   UNL A   1      43.939  30.947  30.945  1.00  0.00     0.031 A 
ATOM     55  C   UNL A   1      42.653  24.686  28.113  1.00  0.00     0.031 A 
ATOM     56  C   UNL A   1      45.054  30.040  30.952  1.00  0.00     0.049 A 
ATOM     57  C   UNL A   1      44.009  25.050  28.649  1.00  0.00     0.074 A 
ATOM     58  C   UNL A   1      46.327  30.241  31.458  1.00  0.00     0.029 A 
ATOM     59  N   UNL A   1      45.027  28.758  30.428  1.00  0.00    -0.354 N 
ATOM     60  N   UNL A   1      44.397  26.162  29.223  1.00  0.00    -0.248 NA
ATOM     61  C   UNL A   1      45.060  24.029  28.534  1.00  0.00     0.031 C 
ATOM     62  C   UNL A   1      47.081  29.088  31.211  1.00  0.00     0.029 A 
ATOM     63  C   UNL A   1      46.263  28.157  30.589  1.00  0.00     0.049 A 
ATOM     64  H   UNL A   1      44.244  28.336  30.006  1.00  0.00     0.167 HD
ATOM     65  C   UNL A   1      45.730  25.965  29.562  1.00  0.00     0.074 A 
ATOM     66  C   UNL A   1      46.078  24.624  29.141  1.00  0.00     0.031 C 
ATOM     67  C   UNL A   1      46.588  26.820  30.170  1.00  0.00     0.031 A 
BRANCH  54  68
ATOM     68  C   UNL A   1      44.135  32.325  31.511  1.00  0.00    -0.014 A 
ATOM     69  C   UNL A   1      44.123  33.456  30.680  1.00  0.00     0.009 A 
ATOM     70  C   UNL A   1      44.306  32.498  32.893  1.00  0.00     0.009 A 
ATOM     71  C   UNL A   1      44.312  34.731  31.217  1.00  0.00     0.001 A 
ATOM     72  C   UNL A   1      44.469  33.776  33.431  1.00  0.00     0.001 A 
ATOM     73  C   UNL A   1      44.481  34.890  32.592  1.00  0.00     0.000 A 
ENDBRANCH  54  68
BRANCH  55  74
ATOM     74  C   UNL A   1      42.415  23.347  27.515  1.00  0.00    -0.014 A 
ATOM     75  C   UNL A   1      42.611  23.142  26.141  1.00  0.00     0.009 A 
ATOM     76  C   UNL A   1      41.976  22.275  28.307  1.00  0.00     0.009 A 
ATOM     77  C   UNL A   1      42.345  21.897  25.566  1.00  0.00     0.001 A 
ATOM     78  C   UNL A   1      41.735  21.025  27.733  1.00  0.00     0.001 A 
ATOM     79  C   UNL A   1      41.909  20.839  26.362  1.00  0.00     0.000 A 
ENDBRANCH  55  74
BRANCH  67  80
ATOM     80  C   UNL A   1      47.974  26.313  30.450  1.00  0.00    -0.014 A 
ATOM     81  C   UNL A   1      48.303  25.749  31.691  1.00  0.00     0.009 A 
ATOM     82  C   UNL A   1      48.949  26.368  29.442  1.00  0.00     0.009 A 
ATOM     83  C   UNL A   1      49.596  25.276  31.927  1.00  0.00     0.001 A 
ATOM     84  C   UNL A   1      50.232  25.872  29.673  1.00  0.00     0.001 A 
ATOM     85  C   UNL A   1      50.556  25.335  30.917  1.00  0.00     0.000 A 
ENDBRANCH  67  80
ENDBRANCH  41  42
ENDBRANCH  33  36
ENDBRANCH  31  32
ENDBRANCH  30  31
ENDBRANCH   1  30
TORSDOF 14
ENDMDL
