MODEL 1
REMARK VINA RESULT:     -11.0      0.000      0.000
REMARK SMILES CC[NH2+][C@@]1(C(=O)NCCCCNC(=O)c2ccc(-c3c4nc(c(-c5ccccc5)c5ccc([nH]5)c(-c5ccccc5)c5nc(c(-c6ccccc6)c6ccc3[nH]6)C=C5)C=C4)cc2)CC[C@@H](Oc2cccc(OC)c2)C1
REMARK SMILES IDX 9 1 8 2 7 3 5 4 6 5 4 7 63 8 75 9 64 10 65 11 3 12 2 15 1 16
REMARK SMILES IDX 66 17 67 18 68 19 74 20 69 21 71 22 70 23 72 24 73 25 10 26
REMARK SMILES IDX 11 27 12 28 13 29 14 31 15 32 16 33 62 34 17 35 61 36 18 37
REMARK SMILES IDX 19 38 20 39 55 40 21 41 60 42 54 43 56 44 22 45 59 46 53 47
REMARK SMILES IDX 52 48 23 50 45 51 30 52 44 53 31 54 34 55 43 56 57 57 32 58
REMARK SMILES IDX 33 59 42 61 58 62 35 63 24 64 25 65 29 66 26 67 28 68 27 69
REMARK SMILES IDX 46 70 47 71 51 72 48 73 50 74 49 75 36 76 37 77 41 78 38 79
REMARK SMILES IDX 40 80 39 81
REMARK H PARENT 7 6 3 13 3 14 12 30 56 49 34 60
REMARK Flexibility Score: inf
ROOT
ATOM      1  C   UNL A   1      36.934  22.722  24.199  1.00  0.00     0.023 C 
ENDROOT
BRANCH   1   2
ATOM      2  C   UNL A   1      35.531  22.872  23.615  1.00  0.00     0.116 C 
BRANCH   2   3
ATOM      3  N   UNL A   1      34.970  24.179  23.861  1.00  0.00    -0.351 N 
ATOM      4  C   UNL A   1      34.029  24.617  24.737  1.00  0.00     0.281 C 
ATOM      5  O   UNL A   1      33.926  25.850  24.811  1.00  0.00    -0.268 OA
ATOM      6  H   UNL A   1      35.340  24.888  23.285  1.00  0.00     0.163 HD
BRANCH   4   7
ATOM      7  C   UNL A   1      33.154  23.676  25.656  1.00  0.00     0.179 C 
ATOM      8  C   UNL A   1      34.046  22.964  26.695  1.00  0.00     0.083 C 
ATOM      9  C   UNL A   1      32.372  22.572  24.933  1.00  0.00     0.124 C 
ATOM     10  C   UNL A   1      33.922  21.457  26.496  1.00  0.00     0.052 C 
ATOM     11  C   UNL A   1      33.017  21.231  25.284  1.00  0.00     0.180 C 
BRANCH   7  12
ATOM     12  N   UNL A   1      32.231  24.559  26.447  1.00  0.00    -0.334 N 
ATOM     13  H   UNL A   1      32.349  24.335  27.435  1.00  0.00     0.347 HD
ATOM     14  H   UNL A   1      32.489  25.518  26.212  1.00  0.00     0.347 HD
BRANCH  12  15
ATOM     15  C   UNL A   1      30.807  24.430  26.119  1.00  0.00     0.257 C 
ATOM     16  C   UNL A   1      30.224  25.811  25.846  1.00  0.00     0.071 C 
ENDBRANCH  12  15
ENDBRANCH   7  12
BRANCH  11  17
ATOM     17  O   UNL A   1      32.090  20.132  25.317  1.00  0.00    -0.490 OA
BRANCH  17  18
ATOM     18  C   UNL A   1      32.511  18.996  24.688  1.00  0.00     0.123 A 
ATOM     19  C   UNL A   1      32.379  18.913  23.304  1.00  0.00     0.047 A 
ATOM     20  C   UNL A   1      33.032  17.928  25.416  1.00  0.00     0.092 A 
ATOM     21  C   UNL A   1      32.855  17.787  22.636  1.00  0.00     0.008 A 
ATOM     22  C   UNL A   1      33.534  16.812  24.752  1.00  0.00     0.122 A 
ATOM     23  C   UNL A   1      33.441  16.746  23.359  1.00  0.00     0.046 A 
BRANCH  22  24
ATOM     24  O   UNL A   1      34.127  15.736  25.356  1.00  0.00    -0.497 OA
ATOM     25  C   UNL A   1      35.550  15.756  25.411  1.00  0.00     0.278 C 
ENDBRANCH  22  24
ENDBRANCH  17  18
ENDBRANCH  11  17
ENDBRANCH   4   7
ENDBRANCH   2   3
ENDBRANCH   1   2
BRANCH   1  26
ATOM     26  C   UNL A   1      37.300  21.304  24.631  1.00  0.00     0.023 C 
BRANCH  26  27
ATOM     27  C   UNL A   1      38.389  21.215  25.692  1.00  0.00     0.116 C 
BRANCH  27  28
ATOM     28  N   UNL A   1      39.242  20.041  25.576  1.00  0.00    -0.352 N 
ATOM     29  C   UNL A   1      40.561  19.921  25.944  1.00  0.00     0.251 C 
ATOM     30  H   UNL A   1      38.824  19.237  25.189  1.00  0.00     0.163 HD
ATOM     31  O   UNL A   1      41.187  18.889  25.730  1.00  0.00    -0.269 OA
BRANCH  29  32
ATOM     32  C   UNL A   1      41.228  21.087  26.554  1.00  0.00     0.039 A 
ATOM     33  C   UNL A   1      41.840  22.024  25.719  1.00  0.00     0.014 A 
ATOM     34  C   UNL A   1      41.160  21.296  27.934  1.00  0.00     0.014 A 
ATOM     35  C   UNL A   1      42.314  23.217  26.263  1.00  0.00     0.010 A 
ATOM     36  C   UNL A   1      41.564  22.516  28.462  1.00  0.00     0.010 A 
ATOM     37  C   UNL A   1      42.140  23.489  27.630  1.00  0.00    -0.014 A 
BRANCH  37  38
ATOM     38  C   UNL A   1      42.542  24.793  28.209  1.00  0.00     0.031 A 
ATOM     39  C   UNL A   1      41.519  25.873  28.417  1.00  0.00     0.074 A 
ATOM     40  C   UNL A   1      43.840  25.027  28.484  1.00  0.00     0.049 A 
ATOM     41  N   UNL A   1      41.684  27.090  28.869  1.00  0.00    -0.248 NA
ATOM     42  C   UNL A   1      40.132  25.553  28.039  1.00  0.00     0.031 C 
ATOM     43  C   UNL A   1      44.939  24.082  28.274  1.00  0.00     0.029 A 
ATOM     44  N   UNL A   1      44.455  26.141  28.998  1.00  0.00    -0.354 N 
ATOM     45  C   UNL A   1      40.431  27.684  28.812  1.00  0.00     0.074 A 
ATOM     46  C   UNL A   1      39.526  26.715  28.234  1.00  0.00     0.031 C 
ATOM     47  C   UNL A   1      46.086  24.642  28.688  1.00  0.00     0.029 A 
ATOM     48  C   UNL A   1      45.811  25.994  29.161  1.00  0.00     0.049 A 
ATOM     49  H   UNL A   1      43.970  26.967  29.228  1.00  0.00     0.167 HD
ATOM     50  C   UNL A   1      40.059  28.919  29.224  1.00  0.00     0.031 A 
ATOM     51  C   UNL A   1      46.728  26.853  29.644  1.00  0.00     0.031 A 
ATOM     52  C   UNL A   1      40.953  29.876  29.818  1.00  0.00     0.049 A 
ATOM     53  C   UNL A   1      46.288  28.211  30.111  1.00  0.00     0.074 A 
ATOM     54  C   UNL A   1      40.661  31.130  30.325  1.00  0.00     0.029 A 
ATOM     55  N   UNL A   1      42.314  29.681  29.985  1.00  0.00    -0.354 N 
ATOM     56  N   UNL A   1      45.085  28.732  30.117  1.00  0.00    -0.248 NA
ATOM     57  C   UNL A   1      47.332  29.093  30.652  1.00  0.00     0.031 C 
ATOM     58  C   UNL A   1      41.855  31.709  30.768  1.00  0.00     0.029 A 
ATOM     59  C   UNL A   1      42.880  30.798  30.575  1.00  0.00     0.049 A 
ATOM     60  H   UNL A   1      42.806  28.869  29.724  1.00  0.00     0.167 HD
ATOM     61  C   UNL A   1      45.223  29.993  30.684  1.00  0.00     0.074 A 
ATOM     62  C   UNL A   1      46.622  30.150  31.023  1.00  0.00     0.031 C 
ATOM     63  C   UNL A   1      44.275  30.936  30.904  1.00  0.00     0.031 A 
BRANCH  50  64
ATOM     64  C   UNL A   1      38.616  29.297  29.044  1.00  0.00    -0.014 A 
ATOM     65  C   UNL A   1      37.707  29.213  30.111  1.00  0.00     0.009 A 
ATOM     66  C   UNL A   1      38.164  29.758  27.799  1.00  0.00     0.009 A 
ATOM     67  C   UNL A   1      36.364  29.546  29.923  1.00  0.00     0.001 A 
ATOM     68  C   UNL A   1      36.826  30.117  27.622  1.00  0.00     0.001 A 
ATOM     69  C   UNL A   1      35.926  30.002  28.680  1.00  0.00     0.000 A 
ENDBRANCH  50  64
BRANCH  51  70
ATOM     70  C   UNL A   1      48.152  26.444  29.743  1.00  0.00    -0.014 A 
ATOM     71  C   UNL A   1      48.626  25.809  30.901  1.00  0.00     0.009 A 
ATOM     72  C   UNL A   1      49.045  26.689  28.689  1.00  0.00     0.009 A 
ATOM     73  C   UNL A   1      49.972  25.451  31.012  1.00  0.00     0.001 A 
ATOM     74  C   UNL A   1      50.384  26.308  28.793  1.00  0.00     0.001 A 
ATOM     75  C   UNL A   1      50.849  25.698  29.957  1.00  0.00     0.000 A 
ENDBRANCH  51  70
BRANCH  63  76
ATOM     76  C   UNL A   1      44.718  32.207  31.569  1.00  0.00    -0.014 A 
ATOM     77  C   UNL A   1      44.731  32.328  32.966  1.00  0.00     0.009 A 
ATOM     78  C   UNL A   1      45.160  33.284  30.785  1.00  0.00     0.009 A 
ATOM     79  C   UNL A   1      45.148  33.518  33.566  1.00  0.00     0.001 A 
ATOM     80  C   UNL A   1      45.600  34.463  31.387  1.00  0.00     0.001 A 
ATOM     81  C   UNL A   1      45.586  34.581  32.776  1.00  0.00     0.000 A 
ENDBRANCH  63  76
ENDBRANCH  37  38
ENDBRANCH  29  32
ENDBRANCH  27  28
ENDBRANCH  26  27
ENDBRANCH   1  26
TORSDOF 16
ENDMDL
MODEL 2
REMARK VINA RESULT:     -11.0      0.518      5.898
REMARK SMILES CC[NH2+][C@@]1(C(=O)NCCCCNC(=O)c2ccc(-c3c4nc(c(-c5ccccc5)c5ccc([nH]5)c(-c5ccccc5)c5nc(c(-c6ccccc6)c6ccc3[nH]6)C=C5)C=C4)cc2)CC[C@@H](Oc2cccc(OC)c2)C1
REMARK SMILES IDX 9 1 8 2 7 3 5 4 6 5 4 7 63 8 75 9 64 10 65 11 3 12 2 15 1 16
REMARK SMILES IDX 66 17 67 18 68 19 74 20 69 21 71 22 70 23 72 24 73 25 10 26
REMARK SMILES IDX 11 27 12 28 13 29 14 31 15 32 16 33 62 34 17 35 61 36 18 37
REMARK SMILES IDX 19 38 20 39 55 40 21 41 60 42 54 43 56 44 22 45 59 46 53 47
REMARK SMILES IDX 52 48 23 50 45 51 30 52 44 53 31 54 34 55 43 56 57 57 32 58
REMARK SMILES IDX 33 59 42 61 58 62 35 63 24 64 25 65 29 66 26 67 28 68 27 69
REMARK SMILES IDX 46 70 47 71 51 72 48 73 50 74 49 75 36 76 37 77 41 78 38 79
REMARK SMILES IDX 40 80 39 81
REMARK H PARENT 7 6 3 13 3 14 12 30 56 49 34 60
REMARK Flexibility Score: inf
ROOT
ATOM      1  C   UNL A   1      36.926  21.912  24.452  1.00  0.00     0.023 C 
ENDROOT
BRANCH   1   2
ATOM      2  C   UNL A   1      36.457  22.762  25.631  1.00  0.00     0.116 C 
BRANCH   2   3
ATOM      3  N   UNL A   1      35.767  23.957  25.207  1.00  0.00    -0.351 N 
ATOM      4  C   UNL A   1      34.495  24.390  25.398  1.00  0.00     0.281 C 
ATOM      5  O   UNL A   1      34.292  25.564  25.055  1.00  0.00    -0.268 OA
ATOM      6  H   UNL A   1      36.325  24.574  24.679  1.00  0.00     0.163 HD
BRANCH   4   7
ATOM      7  C   UNL A   1      33.344  23.531  26.058  1.00  0.00     0.179 C 
ATOM      8  C   UNL A   1      33.884  22.772  27.289  1.00  0.00     0.083 C 
ATOM      9  C   UNL A   1      32.694  22.475  25.154  1.00  0.00     0.124 C 
ATOM     10  C   UNL A   1      33.703  21.275  27.060  1.00  0.00     0.052 C 
ATOM     11  C   UNL A   1      33.125  21.097  25.655  1.00  0.00     0.180 C 
BRANCH   7  12
ATOM     12  N   UNL A   1      32.318  24.492  26.588  1.00  0.00    -0.334 N 
ATOM     13  H   UNL A   1      32.282  24.387  27.602  1.00  0.00     0.347 HD
ATOM     14  H   UNL A   1      32.617  25.419  26.283  1.00  0.00     0.347 HD
BRANCH  12  15
ATOM     15  C   UNL A   1      30.961  24.309  26.063  1.00  0.00     0.257 C 
ATOM     16  C   UNL A   1      30.319  25.672  25.836  1.00  0.00     0.071 C 
ENDBRANCH  12  15
ENDBRANCH   7  12
BRANCH  11  17
ATOM     17  O   UNL A   1      32.142  20.069  25.444  1.00  0.00    -0.490 OA
BRANCH  17  18
ATOM     18  C   UNL A   1      32.568  18.995  24.717  1.00  0.00     0.123 A 
ATOM     19  C   UNL A   1      32.440  19.037  23.330  1.00  0.00     0.047 A 
ATOM     20  C   UNL A   1      33.090  17.868  25.347  1.00  0.00     0.092 A 
ATOM     21  C   UNL A   1      32.921  17.977  22.565  1.00  0.00     0.008 A 
ATOM     22  C   UNL A   1      33.597  16.817  24.587  1.00  0.00     0.122 A 
ATOM     23  C   UNL A   1      33.508  16.877  23.194  1.00  0.00     0.046 A 
BRANCH  22  24
ATOM     24  O   UNL A   1      34.191  15.693  25.093  1.00  0.00    -0.497 OA
ATOM     25  C   UNL A   1      35.581  15.799  25.388  1.00  0.00     0.278 C 
ENDBRANCH  22  24
ENDBRANCH  17  18
ENDBRANCH  11  17
ENDBRANCH   4   7
ENDBRANCH   2   3
ENDBRANCH   1   2
BRANCH   1  26
ATOM     26  C   UNL A   1      37.625  20.610  24.838  1.00  0.00     0.023 C 
BRANCH  26  27
ATOM     27  C   UNL A   1      38.837  20.775  25.745  1.00  0.00     0.116 C 
BRANCH  27  28
ATOM     28  N   UNL A   1      39.789  19.675  25.676  1.00  0.00    -0.352 N 
ATOM     29  C   UNL A   1      41.115  19.688  26.039  1.00  0.00     0.251 C 
ATOM     30  H   UNL A   1      39.442  18.821  25.329  1.00  0.00     0.163 HD
ATOM     31  O   UNL A   1      41.828  18.705  25.868  1.00  0.00    -0.269 OA
BRANCH  29  32
ATOM     32  C   UNL A   1      41.679  20.934  26.591  1.00  0.00     0.039 A 
ATOM     33  C   UNL A   1      42.178  21.894  25.709  1.00  0.00     0.014 A 
ATOM     34  C   UNL A   1      41.622  21.186  27.965  1.00  0.00     0.014 A 
ATOM     35  C   UNL A   1      42.547  23.146  26.199  1.00  0.00     0.010 A 
ATOM     36  C   UNL A   1      41.918  22.457  28.439  1.00  0.00     0.010 A 
ATOM     37  C   UNL A   1      42.378  23.451  27.560  1.00  0.00    -0.014 A 
BRANCH  37  38
ATOM     38  C   UNL A   1      42.665  24.808  28.082  1.00  0.00     0.031 A 
ATOM     39  C   UNL A   1      44.063  25.180  28.485  1.00  0.00     0.074 A 
ATOM     40  C   UNL A   1      41.654  25.681  28.257  1.00  0.00     0.049 A 
ATOM     41  N   UNL A   1      44.502  26.299  29.002  1.00  0.00    -0.248 NA
ATOM     42  C   UNL A   1      45.100  24.148  28.312  1.00  0.00     0.031 C 
ATOM     43  C   UNL A   1      40.243  25.421  27.958  1.00  0.00     0.029 A 
ATOM     44  N   UNL A   1      41.660  26.968  28.734  1.00  0.00    -0.354 N 
ATOM     45  C   UNL A   1      45.856  26.100  29.232  1.00  0.00     0.074 A 
ATOM     46  C   UNL A   1      46.157  24.738  28.849  1.00  0.00     0.031 C 
ATOM     47  C   UNL A   1      39.527  26.525  28.226  1.00  0.00     0.029 A 
ATOM     48  C   UNL A   1      40.419  27.556  28.744  1.00  0.00     0.049 A 
ATOM     49  H   UNL A   1      42.476  27.425  29.041  1.00  0.00     0.167 HD
ATOM     50  C   UNL A   1      46.774  26.978  29.700  1.00  0.00     0.031 A 
ATOM     51  C   UNL A   1      40.044  28.792  29.124  1.00  0.00     0.031 A 
ATOM     52  C   UNL A   1      46.481  28.338  30.061  1.00  0.00     0.049 A 
ATOM     53  C   UNL A   1      41.084  29.754  29.624  1.00  0.00     0.074 A 
ATOM     54  C   UNL A   1      47.353  29.326  30.486  1.00  0.00     0.029 A 
ATOM     55  N   UNL A   1      45.216  28.903  30.037  1.00  0.00    -0.354 N 
ATOM     56  N   UNL A   1      42.374  29.572  29.768  1.00  0.00    -0.248 NA
ATOM     57  C   UNL A   1      40.617  31.095  29.997  1.00  0.00     0.031 C 
ATOM     58  C   UNL A   1      46.608  30.479  30.754  1.00  0.00     0.029 A 
ATOM     59  C   UNL A   1      45.281  30.221  30.454  1.00  0.00     0.049 A 
ATOM     60  H   UNL A   1      44.394  28.436  29.763  1.00  0.00     0.167 HD
ATOM     61  C   UNL A   1      42.876  30.783  30.226  1.00  0.00     0.074 A 
ATOM     62  C   UNL A   1      41.755  31.695  30.319  1.00  0.00     0.031 C 
ATOM     63  C   UNL A   1      44.154  31.111  30.541  1.00  0.00     0.031 A 
BRANCH  50  64
ATOM     64  C   UNL A   1      48.186  26.484  29.843  1.00  0.00    -0.014 A 
ATOM     65  C   UNL A   1      48.618  25.862  31.026  1.00  0.00     0.009 A 
ATOM     66  C   UNL A   1      49.088  26.624  28.779  1.00  0.00     0.009 A 
ATOM     67  C   UNL A   1      49.939  25.426  31.154  1.00  0.00     0.001 A 
ATOM     68  C   UNL A   1      50.401  26.163  28.900  1.00  0.00     0.001 A 
ATOM     69  C   UNL A   1      50.828  25.574  30.089  1.00  0.00     0.000 A 
ENDBRANCH  50  64
BRANCH  51  70
ATOM     70  C   UNL A   1      38.622  29.205  29.016  1.00  0.00    -0.014 A 
ATOM     71  C   UNL A   1      37.776  29.131  30.134  1.00  0.00     0.009 A 
ATOM     72  C   UNL A   1      38.099  29.666  27.799  1.00  0.00     0.009 A 
ATOM     73  C   UNL A   1      36.430  29.487  30.028  1.00  0.00     0.001 A 
ATOM     74  C   UNL A   1      36.759  30.045  27.702  1.00  0.00     0.001 A 
ATOM     75  C   UNL A   1      35.923  29.946  28.813  1.00  0.00     0.000 A 
ENDBRANCH  51  70
BRANCH  63  76
ATOM     76  C   UNL A   1      44.405  32.523  30.986  1.00  0.00    -0.014 A 
ATOM     77  C   UNL A   1      44.440  32.859  32.348  1.00  0.00     0.009 A 
ATOM     78  C   UNL A   1      44.642  33.522  30.029  1.00  0.00     0.009 A 
ATOM     79  C   UNL A   1      44.676  34.177  32.741  1.00  0.00     0.001 A 
ATOM     80  C   UNL A   1      44.903  34.833  30.426  1.00  0.00     0.001 A 
ATOM     81  C   UNL A   1      44.912  35.161  31.781  1.00  0.00     0.000 A 
ENDBRANCH  63  76
ENDBRANCH  37  38
ENDBRANCH  29  32
ENDBRANCH  27  28
ENDBRANCH  26  27
ENDBRANCH   1  26
TORSDOF 16
ENDMDL
MODEL 3
REMARK VINA RESULT:     -10.7      3.668      9.314
REMARK SMILES CC[NH2+][C@@]1(C(=O)NCCCCNC(=O)c2ccc(-c3c4nc(c(-c5ccccc5)c5ccc([nH]5)c(-c5ccccc5)c5nc(c(-c6ccccc6)c6ccc3[nH]6)C=C5)C=C4)cc2)CC[C@@H](Oc2cccc(OC)c2)C1
REMARK SMILES IDX 9 1 8 2 7 3 5 4 6 5 4 7 63 8 75 9 64 10 65 11 3 12 2 15 1 16
REMARK SMILES IDX 66 17 67 18 68 19 74 20 69 21 71 22 70 23 72 24 73 25 10 26
REMARK SMILES IDX 11 27 12 28 13 29 14 31 15 32 16 33 62 34 17 35 61 36 18 37
REMARK SMILES IDX 19 38 20 39 55 40 21 41 60 42 54 43 56 44 22 45 59 46 53 47
REMARK SMILES IDX 52 48 23 50 45 51 30 52 44 53 31 54 34 55 43 56 57 57 32 58
REMARK SMILES IDX 33 59 42 61 58 62 35 63 24 64 25 65 29 66 26 67 28 68 27 69
REMARK SMILES IDX 46 70 47 71 51 72 48 73 50 74 49 75 36 76 37 77 41 78 38 79
REMARK SMILES IDX 40 80 39 81
REMARK H PARENT 7 6 3 13 3 14 12 30 56 49 34 60
REMARK Flexibility Score: inf
ROOT
ATOM      1  C   UNL A   1      32.189  28.733  27.226  1.00  0.00     0.023 C 
ENDROOT
BRANCH   1   2
ATOM      2  C   UNL A   1      31.216  27.675  26.712  1.00  0.00     0.116 C 
BRANCH   2   3
ATOM      3  N   UNL A   1      31.738  26.336  26.848  1.00  0.00    -0.351 N 
ATOM      4  C   UNL A   1      32.293  25.479  25.953  1.00  0.00     0.281 C 
ATOM      5  O   UNL A   1      32.813  24.472  26.455  1.00  0.00    -0.268 OA
ATOM      6  H   UNL A   1      31.681  25.976  27.764  1.00  0.00     0.163 HD
BRANCH   4   7
ATOM      7  C   UNL A   1      32.353  25.726  24.393  1.00  0.00     0.179 C 
ATOM      8  C   UNL A   1      33.425  26.786  24.062  1.00  0.00     0.083 C 
ATOM      9  C   UNL A   1      31.052  26.213  23.741  1.00  0.00     0.124 C 
ATOM     10  C   UNL A   1      32.751  27.961  23.362  1.00  0.00     0.052 C 
ATOM     11  C   UNL A   1      31.250  27.671  23.327  1.00  0.00     0.180 C 
BRANCH   7  12
ATOM     12  N   UNL A   1      32.829  24.451  23.758  1.00  0.00    -0.334 N 
ATOM     13  H   UNL A   1      32.867  23.733  24.482  1.00  0.00     0.347 HD
ATOM     14  H   UNL A   1      32.166  24.244  23.010  1.00  0.00     0.347 HD
BRANCH  12  15
ATOM     15  C   UNL A   1      34.149  24.524  23.122  1.00  0.00     0.257 C 
ATOM     16  C   UNL A   1      35.024  23.391  23.644  1.00  0.00     0.071 C 
ENDBRANCH  12  15
ENDBRANCH   7  12
BRANCH  11  17
ATOM     17  O   UNL A   1      30.506  28.048  22.155  1.00  0.00    -0.490 OA
BRANCH  17  18
ATOM     18  C   UNL A   1      29.506  28.954  22.366  1.00  0.00     0.123 A 
ATOM     19  C   UNL A   1      28.324  28.514  22.958  1.00  0.00     0.047 A 
ATOM     20  C   UNL A   1      29.651  30.281  21.970  1.00  0.00     0.092 A 
ATOM     21  C   UNL A   1      27.314  29.433  23.235  1.00  0.00     0.008 A 
ATOM     22  C   UNL A   1      28.656  31.209  22.268  1.00  0.00     0.122 A 
ATOM     23  C   UNL A   1      27.487  30.778  22.900  1.00  0.00     0.046 A 
BRANCH  22  24
ATOM     24  O   UNL A   1      28.717  32.547  21.988  1.00  0.00    -0.497 OA
ATOM     25  C   UNL A   1      29.077  33.398  23.073  1.00  0.00     0.278 C 
ENDBRANCH  22  24
ENDBRANCH  17  18
ENDBRANCH  11  17
ENDBRANCH   4   7
ENDBRANCH   2   3
ENDBRANCH   1   2
BRANCH   1  26
ATOM     26  C   UNL A   1      31.862  30.164  26.805  1.00  0.00     0.023 C 
BRANCH  26  27
ATOM     27  C   UNL A   1      32.934  31.194  27.136  1.00  0.00     0.116 C 
BRANCH  27  28
ATOM     28  N   UNL A   1      32.420  32.534  27.381  1.00  0.00    -0.352 N 
ATOM     29  C   UNL A   1      33.022  33.549  28.086  1.00  0.00     0.251 C 
ATOM     30  H   UNL A   1      31.537  32.738  26.995  1.00  0.00     0.163 HD
ATOM     31  O   UNL A   1      32.448  34.616  28.275  1.00  0.00    -0.269 OA
BRANCH  29  32
ATOM     32  C   UNL A   1      34.358  33.306  28.663  1.00  0.00     0.039 A 
ATOM     33  C   UNL A   1      34.450  32.658  29.896  1.00  0.00     0.014 A 
ATOM     34  C   UNL A   1      35.508  33.631  27.939  1.00  0.00     0.014 A 
ATOM     35  C   UNL A   1      35.700  32.261  30.368  1.00  0.00     0.010 A 
ATOM     36  C   UNL A   1      36.743  33.168  28.374  1.00  0.00     0.010 A 
ATOM     37  C   UNL A   1      36.850  32.474  29.589  1.00  0.00    -0.014 A 
BRANCH  37  38
ATOM     38  C   UNL A   1      38.173  31.967  30.023  1.00  0.00     0.031 A 
ATOM     39  C   UNL A   1      38.687  30.656  29.499  1.00  0.00     0.074 A 
ATOM     40  C   UNL A   1      38.882  32.655  30.939  1.00  0.00     0.049 A 
ATOM     41  N   UNL A   1      39.797  30.029  29.793  1.00  0.00    -0.248 NA
ATOM     42  C   UNL A   1      37.825  29.941  28.542  1.00  0.00     0.031 C 
ATOM     43  C   UNL A   1      38.467  33.912  31.568  1.00  0.00     0.029 A 
ATOM     44  N   UNL A   1      40.103  32.389  31.505  1.00  0.00    -0.354 N 
ATOM     45  C   UNL A   1      39.758  28.842  29.074  1.00  0.00     0.074 A 
ATOM     46  C   UNL A   1      38.494  28.811  28.372  1.00  0.00     0.031 C 
ATOM     47  C   UNL A   1      39.433  34.324  32.405  1.00  0.00     0.029 A 
ATOM     48  C   UNL A   1      40.516  33.348  32.397  1.00  0.00     0.049 A 
ATOM     49  H   UNL A   1      40.632  31.586  31.293  1.00  0.00     0.167 HD
ATOM     50  C   UNL A   1      40.699  27.873  28.987  1.00  0.00     0.031 A 
ATOM     51  C   UNL A   1      41.647  33.432  33.123  1.00  0.00     0.031 A 
ATOM     52  C   UNL A   1      41.965  27.912  29.668  1.00  0.00     0.049 A 
ATOM     53  C   UNL A   1      42.684  32.353  32.996  1.00  0.00     0.074 A 
ATOM     54  C   UNL A   1      43.012  27.009  29.595  1.00  0.00     0.029 A 
ATOM     55  N   UNL A   1      42.355  28.911  30.545  1.00  0.00    -0.354 N 
ATOM     56  N   UNL A   1      42.663  31.271  32.256  1.00  0.00    -0.248 NA
ATOM     57  C   UNL A   1      43.907  32.516  33.794  1.00  0.00     0.031 C 
ATOM     58  C   UNL A   1      44.023  27.445  30.458  1.00  0.00     0.029 A 
ATOM     59  C   UNL A   1      43.622  28.640  31.033  1.00  0.00     0.049 A 
ATOM     60  H   UNL A   1      41.813  29.696  30.785  1.00  0.00     0.167 HD
ATOM     61  C   UNL A   1      43.878  30.637  32.480  1.00  0.00     0.074 A 
ATOM     62  C   UNL A   1      44.617  31.464  33.412  1.00  0.00     0.031 C 
ATOM     63  C   UNL A   1      44.340  29.474  31.960  1.00  0.00     0.031 A 
BRANCH  50  64
ATOM     64  C   UNL A   1      40.386  26.688  28.118  1.00  0.00    -0.014 A 
ATOM     65  C   UNL A   1      40.851  26.618  26.794  1.00  0.00     0.009 A 
ATOM     66  C   UNL A   1      39.633  25.623  28.631  1.00  0.00     0.009 A 
ATOM     67  C   UNL A   1      40.533  25.521  25.991  1.00  0.00     0.001 A 
ATOM     68  C   UNL A   1      39.340  24.515  27.834  1.00  0.00     0.001 A 
ATOM     69  C   UNL A   1      39.782  24.469  26.512  1.00  0.00     0.000 A 
ENDBRANCH  50  64
BRANCH  51  70
ATOM     70  C   UNL A   1      41.875  34.600  34.012  1.00  0.00    -0.014 A 
ATOM     71  C   UNL A   1      41.483  34.551  35.359  1.00  0.00     0.009 A 
ATOM     72  C   UNL A   1      42.476  35.768  33.522  1.00  0.00     0.009 A 
ATOM     73  C   UNL A   1      41.666  35.658  36.190  1.00  0.00     0.001 A 
ATOM     74  C   UNL A   1      42.680  36.865  34.362  1.00  0.00     0.001 A 
ATOM     75  C   UNL A   1      42.266  36.813  35.692  1.00  0.00     0.000 A 
ENDBRANCH  51  70
BRANCH  63  76
ATOM     76  C   UNL A   1      45.721  29.046  32.367  1.00  0.00    -0.014 A 
ATOM     77  C   UNL A   1      45.922  28.178  33.451  1.00  0.00     0.009 A 
ATOM     78  C   UNL A   1      46.831  29.493  31.633  1.00  0.00     0.009 A 
ATOM     79  C   UNL A   1      47.214  27.791  33.812  1.00  0.00     0.001 A 
ATOM     80  C   UNL A   1      48.118  29.085  31.981  1.00  0.00     0.001 A 
ATOM     81  C   UNL A   1      48.309  28.241  33.075  1.00  0.00     0.000 A 
ENDBRANCH  63  76
ENDBRANCH  37  38
ENDBRANCH  29  32
ENDBRANCH  27  28
ENDBRANCH  26  27
ENDBRANCH   1  26
TORSDOF 16
ENDMDL
