MODEL 1
REMARK VINA RESULT:     -13.1      0.000      0.000
REMARK SMILES NS(=O)(=O)c1ccc(-n2nc(C(=O)NCCCCNC(=O)c3ccc(-c4c5nc(c(-c6ccccc6)c6ccc([nH]6)c(-c6ccccc6)c6nc(c(-c7ccccc7)c7ccc4[nH]7)C=C6)C=C5)cc3)c(Cl)c2-c2ccc(Cl)cc2)cc1
REMARK SMILES IDX 16 1 15 2 14 3 12 4 13 5 11 7 9 8 10 9 72 10 70 11 71 12
REMARK SMILES IDX 8 13 5 14 6 15 81 16 7 17 80 18 2 19 3 20 4 21 1 22 73 25
REMARK SMILES IDX 74 26 79 27 75 28 78 29 76 30 77 31 17 32 18 33 19 34 20 35
REMARK SMILES IDX 21 37 22 38 23 39 69 40 24 41 68 42 25 43 26 44 27 45 62 46
REMARK SMILES IDX 28 47 67 48 61 49 63 50 29 51 66 52 60 53 59 54 30 56 52 57
REMARK SMILES IDX 37 58 51 59 38 60 41 61 50 62 64 63 39 64 40 65 49 67 65 68
REMARK SMILES IDX 42 69 31 70 32 71 36 72 33 73 35 74 34 75 53 76 54 77 58 78
REMARK SMILES IDX 55 79 57 80 56 81 43 82 44 83 48 84 45 85 47 86 46 87
REMARK H PARENT 14 6 1 23 1 24 19 36 63 55 41 66
REMARK Flexibility Score: inf
ROOT
ATOM      1  C   UNL A   1      31.843  28.802  26.280  1.00  0.00     0.023 C 
ENDROOT
BRANCH   1   2
ATOM      2  C   UNL A   1      31.723  29.106  24.777  1.00  0.00     0.116 C 
BRANCH   2   3
ATOM      3  N   UNL A   1      30.592  28.421  24.171  1.00  0.00    -0.351 N 
ATOM      4  C   UNL A   1      30.353  27.111  23.795  1.00  0.00     0.273 C 
ATOM      5  O   UNL A   1      29.206  26.894  23.390  1.00  0.00    -0.267 OA
ATOM      6  H   UNL A   1      29.832  29.019  23.987  1.00  0.00     0.163 HD
BRANCH   4   7
ATOM      7  C   UNL A   1      31.346  26.019  23.928  1.00  0.00     0.169 A 
ATOM      8  N   UNL A   1      32.046  23.997  24.282  1.00  0.00    -0.231 N 
ATOM      9  N   UNL A   1      30.923  24.744  24.126  1.00  0.00    -0.160 NA
ATOM     10  C   UNL A   1      33.178  24.786  24.311  1.00  0.00     0.094 A 
ATOM     11  C   UNL A   1      32.750  25.993  23.789  1.00  0.00     0.100 A 
ATOM     12  Cl  UNL A   1      33.814  27.091  23.050  1.00  0.00    -0.079 Cl
BRANCH   8  13
ATOM     13  C   UNL A   1      32.013  22.579  24.218  1.00  0.00     0.065 A 
ATOM     14  C   UNL A   1      32.368  19.823  24.007  1.00  0.00     0.082 A 
ATOM     15  C   UNL A   1      32.127  20.579  22.854  1.00  0.00     0.024 A 
ATOM     16  C   UNL A   1      32.393  20.430  25.266  1.00  0.00     0.024 A 
ATOM     17  C   UNL A   1      31.917  21.958  22.962  1.00  0.00     0.030 A 
ATOM     18  C   UNL A   1      32.233  21.812  25.370  1.00  0.00     0.030 A 
BRANCH  14  19
ATOM     19  S   UNL A   1      32.701  18.089  23.872  1.00  0.00     0.238 S 
ATOM     20  O   UNL A   1      31.872  17.368  24.798  1.00  0.00    -0.207 OA
ATOM     21  O   UNL A   1      34.136  17.905  23.787  1.00  0.00    -0.207 OA
BRANCH  19  22
ATOM     22  N   UNL A   1      32.094  17.707  22.349  1.00  0.00    -0.225 NA
ATOM     23  H   UNL A   1      32.297  16.730  22.137  1.00  0.00     0.137 HD
ATOM     24  H   UNL A   1      32.532  18.305  21.648  1.00  0.00     0.137 HD
ENDBRANCH  19  22
ENDBRANCH  14  19
ENDBRANCH   8  13
BRANCH  10  25
ATOM     25  C   UNL A   1      34.578  24.394  24.429  1.00  0.00     0.002 A 
ATOM     26  C   UNL A   1      35.143  23.653  23.379  1.00  0.00     0.012 A 
ATOM     27  C   UNL A   1      35.220  24.448  25.670  1.00  0.00     0.012 A 
ATOM     28  C   UNL A   1      36.301  22.908  23.595  1.00  0.00     0.021 A 
ATOM     29  C   UNL A   1      36.379  23.701  25.882  1.00  0.00     0.021 A 
ATOM     30  C   UNL A   1      36.897  22.915  24.853  1.00  0.00     0.041 A 
ATOM     31  Cl  UNL A   1      38.248  21.895  25.160  1.00  0.00    -0.084 Cl
ENDBRANCH  10  25
ENDBRANCH   4   7
ENDBRANCH   2   3
ENDBRANCH   1   2
BRANCH   1  32
ATOM     32  C   UNL A   1      32.311  29.932  27.199  1.00  0.00     0.023 C 
BRANCH  32  33
ATOM     33  C   UNL A   1      33.804  30.217  27.146  1.00  0.00     0.116 C 
BRANCH  33  34
ATOM     34  N   UNL A   1      34.193  31.453  27.828  1.00  0.00    -0.352 N 
ATOM     35  C   UNL A   1      35.164  31.598  28.802  1.00  0.00     0.251 C 
ATOM     36  H   UNL A   1      33.711  32.269  27.564  1.00  0.00     0.163 HD
ATOM     37  O   UNL A   1      35.139  32.530  29.594  1.00  0.00    -0.269 OA
BRANCH  35  38
ATOM     38  C   UNL A   1      36.249  30.601  28.858  1.00  0.00     0.039 A 
ATOM     39  C   UNL A   1      37.257  30.566  27.894  1.00  0.00     0.014 A 
ATOM     40  C   UNL A   1      36.266  29.729  29.947  1.00  0.00     0.014 A 
ATOM     41  C   UNL A   1      38.336  29.707  28.092  1.00  0.00     0.010 A 
ATOM     42  C   UNL A   1      37.395  28.992  30.214  1.00  0.00     0.010 A 
ATOM     43  C   UNL A   1      38.418  28.947  29.276  1.00  0.00    -0.014 A 
BRANCH  43  44
ATOM     44  C   UNL A   1      39.659  28.256  29.626  1.00  0.00     0.031 A 
ATOM     45  C   UNL A   1      39.960  28.307  31.081  1.00  0.00     0.074 A 
ATOM     46  C   UNL A   1      40.377  27.481  28.782  1.00  0.00     0.049 A 
ATOM     47  N   UNL A   1      40.867  29.023  31.655  1.00  0.00    -0.248 NA
ATOM     48  C   UNL A   1      39.047  27.633  32.021  1.00  0.00     0.031 C 
ATOM     49  C   UNL A   1      40.049  27.104  27.403  1.00  0.00     0.029 A 
ATOM     50  N   UNL A   1      41.522  26.774  29.014  1.00  0.00    -0.354 N 
ATOM     51  C   UNL A   1      40.808  28.694  33.002  1.00  0.00     0.074 A 
ATOM     52  C   UNL A   1      39.550  28.018  33.197  1.00  0.00     0.031 C 
ATOM     53  C   UNL A   1      40.828  26.069  27.012  1.00  0.00     0.029 A 
ATOM     54  C   UNL A   1      41.824  25.825  28.038  1.00  0.00     0.049 A 
ATOM     55  H   UNL A   1      42.087  26.922  29.806  1.00  0.00     0.167 HD
ATOM     56  C   UNL A   1      41.939  28.704  33.761  1.00  0.00     0.031 A 
ATOM     57  C   UNL A   1      42.821  24.904  28.067  1.00  0.00     0.031 A 
ATOM     58  C   UNL A   1      43.004  29.428  33.106  1.00  0.00     0.049 A 
ATOM     59  C   UNL A   1      43.828  25.379  29.036  1.00  0.00     0.074 A 
ATOM     60  C   UNL A   1      43.166  30.706  32.610  1.00  0.00     0.029 A 
ATOM     61  N   UNL A   1      43.973  28.662  32.506  1.00  0.00    -0.354 N 
ATOM     62  N   UNL A   1      44.572  26.425  28.835  1.00  0.00    -0.248 NA
ATOM     63  C   UNL A   1      43.719  24.939  30.415  1.00  0.00     0.031 C 
ATOM     64  C   UNL A   1      43.924  30.547  31.411  1.00  0.00     0.029 A 
ATOM     65  C   UNL A   1      44.266  29.199  31.282  1.00  0.00     0.049 A 
ATOM     66  H   UNL A   1      44.389  27.858  32.894  1.00  0.00     0.167 HD
ATOM     67  C   UNL A   1      44.618  27.051  30.070  1.00  0.00     0.074 A 
ATOM     68  C   UNL A   1      44.196  26.028  31.024  1.00  0.00     0.031 C 
ATOM     69  C   UNL A   1      44.707  28.412  30.151  1.00  0.00     0.031 A 
BRANCH  56  70
ATOM     70  C   UNL A   1      42.232  27.640  34.797  1.00  0.00    -0.014 A 
ATOM     71  C   UNL A   1      42.831  26.439  34.376  1.00  0.00     0.009 A 
ATOM     72  C   UNL A   1      41.664  27.641  36.086  1.00  0.00     0.009 A 
ATOM     73  C   UNL A   1      42.788  25.286  35.170  1.00  0.00     0.001 A 
ATOM     74  C   UNL A   1      41.656  26.505  36.899  1.00  0.00     0.001 A 
ATOM     75  C   UNL A   1      42.193  25.318  36.427  1.00  0.00     0.000 A 
ENDBRANCH  56  70
BRANCH  57  76
ATOM     76  C   UNL A   1      42.905  23.541  27.494  1.00  0.00    -0.014 A 
ATOM     77  C   UNL A   1      42.181  22.479  28.067  1.00  0.00     0.009 A 
ATOM     78  C   UNL A   1      43.432  23.349  26.205  1.00  0.00     0.009 A 
ATOM     79  C   UNL A   1      41.942  21.296  27.354  1.00  0.00     0.001 A 
ATOM     80  C   UNL A   1      43.195  22.166  25.494  1.00  0.00     0.001 A 
ATOM     81  C   UNL A   1      42.434  21.148  26.060  1.00  0.00     0.000 A 
ENDBRANCH  57  76
BRANCH  69  82
ATOM     82  C   UNL A   1      45.096  29.168  28.901  1.00  0.00    -0.014 A 
ATOM     83  C   UNL A   1      46.415  29.281  28.425  1.00  0.00     0.009 A 
ATOM     84  C   UNL A   1      44.062  29.707  28.122  1.00  0.00     0.009 A 
ATOM     85  C   UNL A   1      46.688  29.955  27.227  1.00  0.00     0.001 A 
ATOM     86  C   UNL A   1      44.332  30.356  26.916  1.00  0.00     0.001 A 
ATOM     87  C   UNL A   1      45.645  30.489  26.473  1.00  0.00     0.000 A 
ENDBRANCH  69  82
ENDBRANCH  43  44
ENDBRANCH  35  38
ENDBRANCH  33  34
ENDBRANCH  32  33
ENDBRANCH   1  32
TORSDOF 15
ENDMDL
MODEL 2
REMARK VINA RESULT:     -13.0      5.987      9.570
REMARK SMILES NS(=O)(=O)c1ccc(-n2nc(C(=O)NCCCCNC(=O)c3ccc(-c4c5nc(c(-c6ccccc6)c6ccc([nH]6)c(-c6ccccc6)c6nc(c(-c7ccccc7)c7ccc4[nH]7)C=C6)C=C5)cc3)c(Cl)c2-c2ccc(Cl)cc2)cc1
REMARK SMILES IDX 16 1 15 2 14 3 12 4 13 5 11 7 9 8 10 9 72 10 70 11 71 12
REMARK SMILES IDX 8 13 5 14 6 15 81 16 7 17 80 18 2 19 3 20 4 21 1 22 73 25
REMARK SMILES IDX 74 26 79 27 75 28 78 29 76 30 77 31 17 32 18 33 19 34 20 35
REMARK SMILES IDX 21 37 22 38 23 39 69 40 24 41 68 42 25 43 26 44 27 45 62 46
REMARK SMILES IDX 28 47 67 48 61 49 63 50 29 51 66 52 60 53 59 54 30 56 52 57
REMARK SMILES IDX 37 58 51 59 38 60 41 61 50 62 64 63 39 64 40 65 49 67 65 68
REMARK SMILES IDX 42 69 31 70 32 71 36 72 33 73 35 74 34 75 53 76 54 77 58 78
REMARK SMILES IDX 55 79 57 80 56 81 43 82 44 83 48 84 45 85 47 86 46 87
REMARK H PARENT 14 6 1 23 1 24 19 36 63 55 41 66
REMARK Flexibility Score: inf
ROOT
ATOM      1  C   UNL A   1      41.200  32.862  35.602  1.00  0.00     0.023 C 
ENDROOT
BRANCH   1   2
ATOM      2  C   UNL A   1      40.151  33.153  36.689  1.00  0.00     0.116 C 
BRANCH   2   3
ATOM      3  N   UNL A   1      39.418  31.957  37.073  1.00  0.00    -0.351 N 
ATOM      4  C   UNL A   1      38.448  31.187  36.456  1.00  0.00     0.273 C 
ATOM      5  O   UNL A   1      38.130  30.167  37.077  1.00  0.00    -0.267 OA
ATOM      6  H   UNL A   1      39.664  31.624  37.966  1.00  0.00     0.163 HD
BRANCH   4   7
ATOM      7  C   UNL A   1      37.875  31.492  35.123  1.00  0.00     0.169 A 
ATOM      8  N   UNL A   1      36.514  32.407  33.704  1.00  0.00    -0.231 N 
ATOM      9  N   UNL A   1      36.873  32.402  35.014  1.00  0.00    -0.160 NA
ATOM     10  C   UNL A   1      37.180  31.429  32.994  1.00  0.00     0.094 A 
ATOM     11  C   UNL A   1      38.231  31.081  33.822  1.00  0.00     0.100 A 
ATOM     12  Cl  UNL A   1      39.666  30.394  33.227  1.00  0.00    -0.079 Cl
BRANCH   8  13
ATOM     13  C   UNL A   1      35.703  33.437  33.157  1.00  0.00     0.065 A 
ATOM     14  C   UNL A   1      34.009  35.546  32.490  1.00  0.00     0.082 A 
ATOM     15  C   UNL A   1      33.477  34.265  32.677  1.00  0.00     0.024 A 
ATOM     16  C   UNL A   1      35.385  35.770  32.594  1.00  0.00     0.024 A 
ATOM     17  C   UNL A   1      34.331  33.199  32.981  1.00  0.00     0.030 A 
ATOM     18  C   UNL A   1      36.231  34.718  32.946  1.00  0.00     0.030 A 
BRANCH  14  19
ATOM     19  S   UNL A   1      32.928  36.912  32.172  1.00  0.00     0.238 S 
ATOM     20  O   UNL A   1      31.877  36.930  33.153  1.00  0.00    -0.207 OA
ATOM     21  O   UNL A   1      32.678  36.974  30.746  1.00  0.00    -0.207 OA
BRANCH  19  22
ATOM     22  N   UNL A   1      33.890  38.245  32.533  1.00  0.00    -0.225 NA
ATOM     23  H   UNL A   1      33.757  38.505  33.511  1.00  0.00     0.137 HD
ATOM     24  H   UNL A   1      33.626  39.027  31.935  1.00  0.00     0.137 HD
ENDBRANCH  19  22
ENDBRANCH  14  19
ENDBRANCH   8  13
BRANCH  10  25
ATOM     25  C   UNL A   1      37.116  31.112  31.572  1.00  0.00     0.002 A 
ATOM     26  C   UNL A   1      37.060  32.180  30.662  1.00  0.00     0.012 A 
ATOM     27  C   UNL A   1      36.775  29.821  31.155  1.00  0.00     0.012 A 
ATOM     28  C   UNL A   1      36.590  31.969  29.367  1.00  0.00     0.021 A 
ATOM     29  C   UNL A   1      36.305  29.615  29.858  1.00  0.00     0.021 A 
ATOM     30  C   UNL A   1      36.190  30.692  28.981  1.00  0.00     0.041 A 
ATOM     31  Cl  UNL A   1      35.486  30.455  27.429  1.00  0.00    -0.084 Cl
ENDBRANCH  10  25
ENDBRANCH   4   7
ENDBRANCH   2   3
ENDBRANCH   1   2
BRANCH   1  32
ATOM     32  C   UNL A   1      41.384  33.903  34.496  1.00  0.00     0.023 C 
BRANCH  32  33
ATOM     33  C   UNL A   1      41.580  33.323  33.103  1.00  0.00     0.116 C 
BRANCH  33  34
ATOM     34  N   UNL A   1      40.933  34.099  32.045  1.00  0.00    -0.352 N 
ATOM     35  C   UNL A   1      41.041  33.901  30.680  1.00  0.00     0.251 C 
ATOM     36  H   UNL A   1      40.357  34.842  32.337  1.00  0.00     0.163 HD
ATOM     37  O   UNL A   1      40.827  34.807  29.885  1.00  0.00    -0.269 OA
BRANCH  35  38
ATOM     38  C   UNL A   1      41.411  32.558  30.198  1.00  0.00     0.039 A 
ATOM     39  C   UNL A   1      42.742  32.203  29.981  1.00  0.00     0.014 A 
ATOM     40  C   UNL A   1      40.383  31.631  30.023  1.00  0.00     0.014 A 
ATOM     41  C   UNL A   1      43.035  30.874  29.681  1.00  0.00     0.010 A 
ATOM     42  C   UNL A   1      40.683  30.300  29.871  1.00  0.00     0.010 A 
ATOM     43  C   UNL A   1      42.002  29.916  29.663  1.00  0.00    -0.014 A 
BRANCH  43  44
ATOM     44  C   UNL A   1      42.318  28.488  29.623  1.00  0.00     0.031 A 
ATOM     45  C   UNL A   1      42.983  28.006  30.861  1.00  0.00     0.074 A 
ATOM     46  C   UNL A   1      41.894  27.630  28.667  1.00  0.00     0.049 A 
ATOM     47  N   UNL A   1      44.228  27.695  30.995  1.00  0.00    -0.248 NA
ATOM     48  C   UNL A   1      42.235  28.042  32.131  1.00  0.00     0.031 C 
ATOM     49  C   UNL A   1      40.991  27.904  27.543  1.00  0.00     0.029 A 
ATOM     50  N   UNL A   1      42.105  26.286  28.552  1.00  0.00    -0.354 N 
ATOM     51  C   UNL A   1      44.364  27.249  32.302  1.00  0.00     0.074 A 
ATOM     52  C   UNL A   1      43.183  27.686  33.003  1.00  0.00     0.031 C 
ATOM     53  C   UNL A   1      40.550  26.740  27.015  1.00  0.00     0.029 A 
ATOM     54  C   UNL A   1      41.267  25.645  27.640  1.00  0.00     0.049 A 
ATOM     55  H   UNL A   1      42.791  25.809  29.071  1.00  0.00     0.167 HD
ATOM     56  C   UNL A   1      45.268  26.276  32.604  1.00  0.00     0.031 A 
ATOM     57  C   UNL A   1      41.167  24.310  27.412  1.00  0.00     0.031 A 
ATOM     58  C   UNL A   1      46.230  26.104  31.541  1.00  0.00     0.049 A 
ATOM     59  C   UNL A   1      42.412  23.689  27.903  1.00  0.00     0.074 A 
ATOM     60  C   UNL A   1      47.129  26.922  30.885  1.00  0.00     0.029 A 
ATOM     61  N   UNL A   1      46.035  25.019  30.722  1.00  0.00    -0.354 N 
ATOM     62  N   UNL A   1      43.570  23.869  27.340  1.00  0.00    -0.248 NA
ATOM     63  C   UNL A   1      42.447  23.200  29.270  1.00  0.00     0.031 C 
ATOM     64  C   UNL A   1      47.081  26.508  29.519  1.00  0.00     0.029 A 
ATOM     65  C   UNL A   1      46.230  25.405  29.423  1.00  0.00     0.049 A 
ATOM     66  H   UNL A   1      45.796  24.112  31.021  1.00  0.00     0.167 HD
ATOM     67  C   UNL A   1      44.449  23.993  28.403  1.00  0.00     0.074 A 
ATOM     68  C   UNL A   1      43.731  23.438  29.550  1.00  0.00     0.031 C 
ATOM     69  C   UNL A   1      45.546  24.800  28.301  1.00  0.00     0.031 A 
BRANCH  56  70
ATOM     70  C   UNL A   1      44.963  25.157  33.577  1.00  0.00    -0.014 A 
ATOM     71  C   UNL A   1      44.125  24.109  33.154  1.00  0.00     0.009 A 
ATOM     72  C   UNL A   1      45.200  25.252  34.962  1.00  0.00     0.009 A 
ATOM     73  C   UNL A   1      43.497  23.261  34.076  1.00  0.00     0.001 A 
ATOM     74  C   UNL A   1      44.610  24.381  35.882  1.00  0.00     0.001 A 
ATOM     75  C   UNL A   1      43.734  23.404  35.439  1.00  0.00     0.000 A 
ENDBRANCH  56  70
BRANCH  57  76
ATOM     76  C   UNL A   1      40.017  23.476  26.997  1.00  0.00    -0.014 A 
ATOM     77  C   UNL A   1      38.781  24.069  26.679  1.00  0.00     0.009 A 
ATOM     78  C   UNL A   1      40.219  22.143  26.601  1.00  0.00     0.009 A 
ATOM     79  C   UNL A   1      37.812  23.376  25.941  1.00  0.00     0.001 A 
ATOM     80  C   UNL A   1      39.249  21.449  25.866  1.00  0.00     0.001 A 
ATOM     81  C   UNL A   1      38.054  22.072  25.520  1.00  0.00     0.000 A 
ENDBRANCH  57  76
BRANCH  69  82
ATOM     82  C   UNL A   1      45.953  25.264  26.921  1.00  0.00    -0.014 A 
ATOM     83  C   UNL A   1      45.464  26.430  26.303  1.00  0.00     0.009 A 
ATOM     84  C   UNL A   1      46.950  24.532  26.260  1.00  0.00     0.009 A 
ATOM     85  C   UNL A   1      45.931  26.821  25.041  1.00  0.00     0.001 A 
ATOM     86  C   UNL A   1      47.433  24.935  25.014  1.00  0.00     0.001 A 
ATOM     87  C   UNL A   1      46.917  26.074  24.399  1.00  0.00     0.000 A 
ENDBRANCH  69  82
ENDBRANCH  43  44
ENDBRANCH  35  38
ENDBRANCH  33  34
ENDBRANCH  32  33
ENDBRANCH   1  32
TORSDOF 15
ENDMDL
MODEL 3
REMARK VINA RESULT:     -12.8      5.801     10.724
REMARK SMILES NS(=O)(=O)c1ccc(-n2nc(C(=O)NCCCCNC(=O)c3ccc(-c4c5nc(c(-c6ccccc6)c6ccc([nH]6)c(-c6ccccc6)c6nc(c(-c7ccccc7)c7ccc4[nH]7)C=C6)C=C5)cc3)c(Cl)c2-c2ccc(Cl)cc2)cc1
REMARK SMILES IDX 16 1 15 2 14 3 12 4 13 5 11 7 9 8 10 9 72 10 70 11 71 12
REMARK SMILES IDX 8 13 5 14 6 15 81 16 7 17 80 18 2 19 3 20 4 21 1 22 73 25
REMARK SMILES IDX 74 26 79 27 75 28 78 29 76 30 77 31 17 32 18 33 19 34 20 35
REMARK SMILES IDX 21 37 22 38 23 39 69 40 24 41 68 42 25 43 26 44 27 45 62 46
REMARK SMILES IDX 28 47 67 48 61 49 63 50 29 51 66 52 60 53 59 54 30 56 52 57
REMARK SMILES IDX 37 58 51 59 38 60 41 61 50 62 64 63 39 64 40 65 49 67 65 68
REMARK SMILES IDX 42 69 31 70 32 71 36 72 33 73 35 74 34 75 53 76 54 77 58 78
REMARK SMILES IDX 55 79 57 80 56 81 43 82 44 83 48 84 45 85 47 86 46 87
REMARK H PARENT 14 6 1 23 1 24 19 36 63 55 41 66
REMARK Flexibility Score: inf
ROOT
ATOM      1  C   UNL A   1      48.188  27.877  27.886  1.00  0.00     0.023 C 
ENDROOT
BRANCH   1   2
ATOM      2  C   UNL A   1      48.796  27.389  26.560  1.00  0.00     0.116 C 
BRANCH   2   3
ATOM      3  N   UNL A   1      48.212  28.063  25.411  1.00  0.00    -0.351 N 
ATOM      4  C   UNL A   1      47.024  27.920  24.716  1.00  0.00     0.273 C 
ATOM      5  O   UNL A   1      46.841  28.763  23.832  1.00  0.00    -0.267 OA
ATOM      6  H   UNL A   1      48.787  28.775  25.048  1.00  0.00     0.163 HD
BRANCH   4   7
ATOM      7  C   UNL A   1      46.000  26.896  25.033  1.00  0.00     0.169 A 
ATOM      8  N   UNL A   1      45.065  24.940  25.000  1.00  0.00    -0.231 N 
ATOM      9  N   UNL A   1      46.188  25.610  24.638  1.00  0.00    -0.160 NA
ATOM     10  C   UNL A   1      44.108  25.794  25.509  1.00  0.00     0.094 A 
ATOM     11  C   UNL A   1      44.817  26.945  25.800  1.00  0.00     0.100 A 
ATOM     12  Cl  UNL A   1      44.294  28.064  26.965  1.00  0.00    -0.079 Cl
BRANCH   8  13
ATOM     13  C   UNL A   1      45.015  23.520  25.015  1.00  0.00     0.065 A 
ATOM     14  C   UNL A   1      45.269  20.754  24.798  1.00  0.00     0.082 A 
ATOM     15  C   UNL A   1      44.587  21.465  23.804  1.00  0.00     0.024 A 
ATOM     16  C   UNL A   1      45.789  21.411  25.917  1.00  0.00     0.024 A 
ATOM     17  C   UNL A   1      44.431  22.851  23.928  1.00  0.00     0.030 A 
ATOM     18  C   UNL A   1      45.678  22.798  26.016  1.00  0.00     0.030 A 
BRANCH  14  19
ATOM     19  S   UNL A   1      45.529  19.012  24.615  1.00  0.00     0.238 S 
ATOM     20  O   UNL A   1      44.268  18.327  24.711  1.00  0.00    -0.207 OA
ATOM     21  O   UNL A   1      46.691  18.639  25.395  1.00  0.00    -0.207 OA
BRANCH  19  22
ATOM     22  N   UNL A   1      45.986  18.867  23.002  1.00  0.00    -0.225 NA
ATOM     23  H   UNL A   1      46.970  19.119  22.903  1.00  0.00     0.137 HD
ATOM     24  H   UNL A   1      45.417  19.490  22.430  1.00  0.00     0.137 HD
ENDBRANCH  19  22
ENDBRANCH  14  19
ENDBRANCH   8  13
BRANCH  10  25
ATOM     25  C   UNL A   1      42.783  25.491  26.039  1.00  0.00     0.002 A 
ATOM     26  C   UNL A   1      41.732  26.364  25.718  1.00  0.00     0.012 A 
ATOM     27  C   UNL A   1      42.640  24.583  27.093  1.00  0.00     0.012 A 
ATOM     28  C   UNL A   1      40.576  26.381  26.497  1.00  0.00     0.021 A 
ATOM     29  C   UNL A   1      41.481  24.602  27.870  1.00  0.00     0.021 A 
ATOM     30  C   UNL A   1      40.469  25.518  27.585  1.00  0.00     0.041 A 
ATOM     31  Cl  UNL A   1      39.104  25.628  28.626  1.00  0.00    -0.084 Cl
ENDBRANCH  10  25
ENDBRANCH   4   7
ENDBRANCH   2   3
ENDBRANCH   1   2
BRANCH   1  32
ATOM     32  C   UNL A   1      47.976  26.844  28.993  1.00  0.00     0.023 C 
BRANCH  32  33
ATOM     33  C   UNL A   1      46.653  26.967  29.734  1.00  0.00     0.116 C 
BRANCH  33  34
ATOM     34  N   UNL A   1      46.213  25.723  30.368  1.00  0.00    -0.352 N 
ATOM     35  C   UNL A   1      45.165  25.564  31.255  1.00  0.00     0.251 C 
ATOM     36  H   UNL A   1      46.720  24.912  30.137  1.00  0.00     0.163 HD
ATOM     37  O   UNL A   1      45.127  24.623  32.037  1.00  0.00    -0.269 OA
BRANCH  35  38
ATOM     38  C   UNL A   1      44.075  26.557  31.231  1.00  0.00     0.039 A 
ATOM     39  C   UNL A   1      43.919  27.494  32.252  1.00  0.00     0.014 A 
ATOM     40  C   UNL A   1      43.237  26.565  30.115  1.00  0.00     0.014 A 
ATOM     41  C   UNL A   1      42.971  28.502  32.090  1.00  0.00     0.010 A 
ATOM     42  C   UNL A   1      42.408  27.638  29.892  1.00  0.00     0.010 A 
ATOM     43  C   UNL A   1      42.242  28.591  30.888  1.00  0.00    -0.014 A 
BRANCH  43  44
ATOM     44  C   UNL A   1      41.451  29.785  30.589  1.00  0.00     0.031 A 
ATOM     45  C   UNL A   1      42.286  30.954  30.207  1.00  0.00     0.074 A 
ATOM     46  C   UNL A   1      40.104  29.810  30.472  1.00  0.00     0.049 A 
ATOM     47  N   UNL A   1      42.531  31.994  30.931  1.00  0.00    -0.248 NA
ATOM     48  C   UNL A   1      43.081  30.886  28.968  1.00  0.00     0.031 C 
ATOM     49  C   UNL A   1      39.171  28.679  30.535  1.00  0.00     0.029 A 
ATOM     50  N   UNL A   1      39.278  30.855  30.169  1.00  0.00    -0.354 N 
ATOM     51  C   UNL A   1      43.303  32.830  30.135  1.00  0.00     0.074 A 
ATOM     52  C   UNL A   1      43.786  32.018  29.047  1.00  0.00     0.031 C 
ATOM     53  C   UNL A   1      37.965  29.053  30.049  1.00  0.00     0.029 A 
ATOM     54  C   UNL A   1      37.984  30.483  29.807  1.00  0.00     0.049 A 
ATOM     55  H   UNL A   1      39.573  31.793  30.204  1.00  0.00     0.167 HD
ATOM     56  C   UNL A   1      43.196  34.182  30.257  1.00  0.00     0.031 A 
ATOM     57  C   UNL A   1      36.995  31.290  29.342  1.00  0.00     0.031 A 
ATOM     58  C   UNL A   1      42.534  34.548  31.488  1.00  0.00     0.049 A 
ATOM     59  C   UNL A   1      37.331  32.669  29.747  1.00  0.00     0.074 A 
ATOM     60  C   UNL A   1      42.751  34.311  32.831  1.00  0.00     0.029 A 
ATOM     61  N   UNL A   1      41.217  34.922  31.376  1.00  0.00    -0.354 N 
ATOM     62  N   UNL A   1      37.310  33.074  30.982  1.00  0.00    -0.248 NA
ATOM     63  C   UNL A   1      38.095  33.492  28.827  1.00  0.00     0.031 C 
ATOM     64  C   UNL A   1      41.452  34.119  33.389  1.00  0.00     0.029 A 
ATOM     65  C   UNL A   1      40.505  34.338  32.387  1.00  0.00     0.049 A 
ATOM     66  H   UNL A   1      40.848  35.515  30.682  1.00  0.00     0.167 HD
ATOM     67  C   UNL A   1      38.425  33.888  31.090  1.00  0.00     0.074 A 
ATOM     68  C   UNL A   1      38.786  34.216  29.712  1.00  0.00     0.031 C 
ATOM     69  C   UNL A   1      39.112  33.966  32.269  1.00  0.00     0.031 A 
BRANCH  56  70
ATOM     70  C   UNL A   1      43.198  35.109  29.060  1.00  0.00    -0.014 A 
ATOM     71  C   UNL A   1      44.246  36.039  28.931  1.00  0.00     0.009 A 
ATOM     72  C   UNL A   1      42.069  35.318  28.243  1.00  0.00     0.009 A 
ATOM     73  C   UNL A   1      44.130  37.156  28.095  1.00  0.00     0.001 A 
ATOM     74  C   UNL A   1      41.967  36.408  27.376  1.00  0.00     0.001 A 
ATOM     75  C   UNL A   1      42.987  37.344  27.324  1.00  0.00     0.000 A 
ENDBRANCH  56  70
BRANCH  57  76
ATOM     76  C   UNL A   1      35.885  31.026  28.400  1.00  0.00    -0.014 A 
ATOM     77  C   UNL A   1      35.762  29.771  27.773  1.00  0.00     0.009 A 
ATOM     78  C   UNL A   1      34.772  31.883  28.364  1.00  0.00     0.009 A 
ATOM     79  C   UNL A   1      34.554  29.368  27.188  1.00  0.00     0.001 A 
ATOM     80  C   UNL A   1      33.566  31.480  27.777  1.00  0.00     0.001 A 
ATOM     81  C   UNL A   1      33.450  30.217  27.207  1.00  0.00     0.000 A 
ENDBRANCH  57  76
BRANCH  69  82
ATOM     82  C   UNL A   1      38.438  33.431  33.512  1.00  0.00    -0.014 A 
ATOM     83  C   UNL A   1      38.524  32.095  33.944  1.00  0.00     0.009 A 
ATOM     84  C   UNL A   1      37.765  34.349  34.331  1.00  0.00     0.009 A 
ATOM     85  C   UNL A   1      37.914  31.688  35.138  1.00  0.00     0.001 A 
ATOM     86  C   UNL A   1      37.179  33.950  35.533  1.00  0.00     0.001 A 
ATOM     87  C   UNL A   1      37.244  32.617  35.932  1.00  0.00     0.000 A 
ENDBRANCH  69  82
ENDBRANCH  43  44
ENDBRANCH  35  38
ENDBRANCH  33  34
ENDBRANCH  32  33
ENDBRANCH   1  32
TORSDOF 15
ENDMDL
