MODEL 1
REMARK VINA RESULT:     -10.3      0.000      0.000
REMARK SMILES Cc1ccn2c(CC(=O)NCCCCNC(=O)c3ccc(-c4c5nc(c(-c6ccccc6)c6ccc([nH]6)c(-c6ccccc6)c6nc(c(-c7ccccc7)c7ccc4[nH]7)C=C6)C=C5)cc3)nnc2c1
REMARK SMILES IDX 13 1 12 2 11 3 10 4 8 5 9 6 7 8 6 9 1 10 2 11 3 12 69 13
REMARK SMILES IDX 4 14 68 15 5 16 67 17 66 18 14 19 15 20 16 21 17 23 18 24
REMARK SMILES IDX 19 25 65 26 20 27 64 28 21 29 22 30 23 31 58 32 24 33 63 34
REMARK SMILES IDX 57 35 59 36 25 37 62 38 56 39 55 40 26 42 48 43 33 44 47 45
REMARK SMILES IDX 34 46 37 47 46 48 60 49 35 50 36 51 45 53 61 54 38 55 27 56
REMARK SMILES IDX 28 57 32 58 29 59 31 60 30 61 49 62 50 63 54 64 51 65 53 66
REMARK SMILES IDX 52 67 39 68 40 69 44 70 41 71 43 72 42 73
REMARK H PARENT 10 7 15 22 59 41 37 52
REMARK Flexibility Score: inf
ROOT
ATOM      1  C   UNL A   1      33.126  34.841  29.193  1.00  0.00     0.023 C 
ENDROOT
BRANCH   1   2
ATOM      2  C   UNL A   1      33.501  36.172  29.863  1.00  0.00     0.023 C 
BRANCH   2   3
ATOM      3  C   UNL A   1      33.211  36.217  31.362  1.00  0.00     0.116 C 
BRANCH   3   4
ATOM      4  N   UNL A   1      32.984  34.901  31.911  1.00  0.00    -0.356 N 
ATOM      5  C   UNL A   1      33.676  34.235  32.889  1.00  0.00     0.227 C 
ATOM      6  O   UNL A   1      33.278  33.128  33.221  1.00  0.00    -0.275 OA
ATOM      7  H   UNL A   1      32.220  34.412  31.528  1.00  0.00     0.163 HD
BRANCH   5   8
ATOM      8  C   UNL A   1      34.825  34.922  33.611  1.00  0.00     0.177 C 
BRANCH   8   9
ATOM      9  C   UNL A   1      35.957  33.988  33.839  1.00  0.00     0.146 A 
ATOM     10  C   UNL A   1      40.636  32.774  31.017  1.00  0.00     0.044 C 
ATOM     11  C   UNL A   1      39.396  33.136  31.780  1.00  0.00    -0.046 A 
ATOM     12  C   UNL A   1      38.615  34.265  31.277  1.00  0.00     0.022 A 
ATOM     13  C   UNL A   1      39.008  32.472  32.891  1.00  0.00     0.053 A 
ATOM     14  C   UNL A   1      37.498  34.633  31.927  1.00  0.00     0.095 A 
ATOM     15  C   UNL A   1      37.813  32.846  33.563  1.00  0.00     0.161 A 
ATOM     16  N   UNL A   1      37.089  33.911  33.050  1.00  0.00    -0.286 N 
ATOM     17  N   UNL A   1      37.195  32.360  34.615  1.00  0.00    -0.130 NA
ATOM     18  N   UNL A   1      36.038  33.079  34.794  1.00  0.00    -0.134 NA
ENDBRANCH   8   9
ENDBRANCH   5   8
ENDBRANCH   3   4
ENDBRANCH   2   3
ENDBRANCH   1   2
BRANCH   1  19
ATOM     19  C   UNL A   1      34.310  33.891  28.993  1.00  0.00     0.116 C 
BRANCH  19  20
ATOM     20  N   UNL A   1      34.017  32.800  28.082  1.00  0.00    -0.352 N 
ATOM     21  C   UNL A   1      34.558  31.568  27.849  1.00  0.00     0.251 C 
ATOM     22  H   UNL A   1      33.250  32.993  27.497  1.00  0.00     0.163 HD
ATOM     23  O   UNL A   1      33.964  30.862  27.030  1.00  0.00    -0.269 OA
BRANCH  21  24
ATOM     24  C   UNL A   1      35.825  31.067  28.441  1.00  0.00     0.039 A 
ATOM     25  C   UNL A   1      36.952  31.841  28.708  1.00  0.00     0.014 A 
ATOM     26  C   UNL A   1      35.893  29.678  28.661  1.00  0.00     0.014 A 
ATOM     27  C   UNL A   1      38.153  31.239  29.046  1.00  0.00     0.010 A 
ATOM     28  C   UNL A   1      37.087  29.070  29.024  1.00  0.00     0.010 A 
ATOM     29  C   UNL A   1      38.230  29.851  29.142  1.00  0.00    -0.014 A 
BRANCH  29  30
ATOM     30  C   UNL A   1      39.548  29.278  29.378  1.00  0.00     0.031 A 
ATOM     31  C   UNL A   1      39.886  29.016  30.802  1.00  0.00     0.074 A 
ATOM     32  C   UNL A   1      40.386  28.977  28.368  1.00  0.00     0.049 A 
ATOM     33  N   UNL A   1      40.877  29.484  31.490  1.00  0.00    -0.248 NA
ATOM     34  C   UNL A   1      38.940  28.206  31.584  1.00  0.00     0.031 C 
ATOM     35  C   UNL A   1      40.088  28.953  26.931  1.00  0.00     0.029 A 
ATOM     36  N   UNL A   1      41.666  28.516  28.428  1.00  0.00    -0.354 N 
ATOM     37  C   UNL A   1      40.763  28.921  32.760  1.00  0.00     0.074 A 
ATOM     38  C   UNL A   1      39.500  28.230  32.793  1.00  0.00     0.031 C 
ATOM     39  C   UNL A   1      41.060  28.268  26.289  1.00  0.00     0.029 A 
ATOM     40  C   UNL A   1      42.113  27.962  27.239  1.00  0.00     0.049 A 
ATOM     41  H   UNL A   1      42.221  28.571  29.239  1.00  0.00     0.167 HD
ATOM     42  C   UNL A   1      41.797  28.910  33.645  1.00  0.00     0.031 A 
ATOM     43  C   UNL A   1      43.247  27.248  27.062  1.00  0.00     0.031 A 
ATOM     44  C   UNL A   1      42.828  29.840  33.286  1.00  0.00     0.049 A 
ATOM     45  C   UNL A   1      44.173  27.573  28.165  1.00  0.00     0.074 A 
ATOM     46  C   UNL A   1      42.998  31.204  33.357  1.00  0.00     0.029 A 
ATOM     47  N   UNL A   1      43.784  29.352  32.434  1.00  0.00    -0.354 N 
ATOM     48  N   UNL A   1      44.714  28.746  28.321  1.00  0.00    -0.248 NA
ATOM     49  C   UNL A   1      44.264  26.685  29.316  1.00  0.00     0.031 C 
ATOM     50  C   UNL A   1      43.876  31.537  32.286  1.00  0.00     0.029 A 
ATOM     51  C   UNL A   1      44.230  30.361  31.620  1.00  0.00     0.049 A 
ATOM     52  H   UNL A   1      44.103  28.421  32.410  1.00  0.00     0.167 HD
ATOM     53  C   UNL A   1      44.823  28.898  29.691  1.00  0.00     0.074 A 
ATOM     54  C   UNL A   1      44.707  27.550  30.233  1.00  0.00     0.031 C 
ATOM     55  C   UNL A   1      44.701  30.127  30.270  1.00  0.00     0.031 A 
BRANCH  42  56
ATOM     56  C   UNL A   1      42.055  27.790  34.623  1.00  0.00    -0.014 A 
ATOM     57  C   UNL A   1      41.528  27.776  35.929  1.00  0.00     0.009 A 
ATOM     58  C   UNL A   1      42.601  26.581  34.153  1.00  0.00     0.009 A 
ATOM     59  C   UNL A   1      41.537  26.625  36.722  1.00  0.00     0.001 A 
ATOM     60  C   UNL A   1      42.579  25.415  34.931  1.00  0.00     0.001 A 
ATOM     61  C   UNL A   1      42.042  25.437  36.215  1.00  0.00     0.000 A 
ENDBRANCH  42  56
BRANCH  43  62
ATOM     62  C   UNL A   1      43.434  26.068  26.197  1.00  0.00    -0.014 A 
ATOM     63  C   UNL A   1      42.511  25.009  26.265  1.00  0.00     0.009 A 
ATOM     64  C   UNL A   1      44.650  25.846  25.536  1.00  0.00     0.009 A 
ATOM     65  C   UNL A   1      42.813  23.753  25.734  1.00  0.00     0.001 A 
ATOM     66  C   UNL A   1      44.950  24.587  25.001  1.00  0.00     0.001 A 
ATOM     67  C   UNL A   1      44.040  23.538  25.117  1.00  0.00     0.000 A 
ENDBRANCH  43  62
BRANCH  55  68
ATOM     68  C   UNL A   1      44.819  31.334  29.374  1.00  0.00    -0.014 A 
ATOM     69  C   UNL A   1      46.068  31.965  29.271  1.00  0.00     0.009 A 
ATOM     70  C   UNL A   1      43.713  31.932  28.745  1.00  0.00     0.009 A 
ATOM     71  C   UNL A   1      46.208  33.165  28.571  1.00  0.00     0.001 A 
ATOM     72  C   UNL A   1      43.860  33.121  28.022  1.00  0.00     0.001 A 
ATOM     73  C   UNL A   1      45.105  33.741  27.945  1.00  0.00     0.000 A 
ENDBRANCH  55  68
ENDBRANCH  29  30
ENDBRANCH  21  24
ENDBRANCH  19  20
ENDBRANCH   1  19
TORSDOF 12
ENDMDL
MODEL 2
REMARK VINA RESULT:     -10.1      4.550     10.429
REMARK SMILES Cc1ccn2c(CC(=O)NCCCCNC(=O)c3ccc(-c4c5nc(c(-c6ccccc6)c6ccc([nH]6)c(-c6ccccc6)c6nc(c(-c7ccccc7)c7ccc4[nH]7)C=C6)C=C5)cc3)nnc2c1
REMARK SMILES IDX 13 1 12 2 11 3 10 4 8 5 9 6 7 8 6 9 1 10 2 11 3 12 69 13
REMARK SMILES IDX 4 14 68 15 5 16 67 17 66 18 14 19 15 20 16 21 17 23 18 24
REMARK SMILES IDX 19 25 65 26 20 27 64 28 21 29 22 30 23 31 58 32 24 33 63 34
REMARK SMILES IDX 57 35 59 36 25 37 62 38 56 39 55 40 26 42 48 43 33 44 47 45
REMARK SMILES IDX 34 46 37 47 46 48 60 49 35 50 36 51 45 53 61 54 38 55 27 56
REMARK SMILES IDX 28 57 32 58 29 59 31 60 30 61 49 62 50 63 54 64 51 65 53 66
REMARK SMILES IDX 52 67 39 68 40 69 44 70 41 71 43 72 42 73
REMARK H PARENT 10 7 15 22 59 41 37 52
REMARK Flexibility Score: inf
ROOT
ATOM      1  C   UNL A   1      40.878  20.002  26.284  1.00  0.00     0.023 C 
ENDROOT
BRANCH   1   2
ATOM      2  C   UNL A   1      40.576  21.365  26.925  1.00  0.00     0.023 C 
BRANCH   2   3
ATOM      3  C   UNL A   1      39.575  22.212  26.142  1.00  0.00     0.116 C 
BRANCH   3   4
ATOM      4  N   UNL A   1      38.243  21.655  26.183  1.00  0.00    -0.356 N 
ATOM      5  C   UNL A   1      37.057  22.205  25.770  1.00  0.00     0.227 C 
ATOM      6  O   UNL A   1      36.045  21.529  25.873  1.00  0.00    -0.275 OA
ATOM      7  H   UNL A   1      38.177  20.749  26.562  1.00  0.00     0.163 HD
BRANCH   5   8
ATOM      8  C   UNL A   1      37.044  23.568  25.094  1.00  0.00     0.177 C 
BRANCH   8   9
ATOM      9  C   UNL A   1      35.894  23.699  24.162  1.00  0.00     0.146 A 
ATOM     10  C   UNL A   1      30.832  26.059  24.527  1.00  0.00     0.044 C 
ATOM     11  C   UNL A   1      32.205  25.462  24.433  1.00  0.00    -0.046 A 
ATOM     12  C   UNL A   1      33.114  25.711  25.550  1.00  0.00     0.022 A 
ATOM     13  C   UNL A   1      32.609  24.737  23.366  1.00  0.00     0.053 A 
ATOM     14  C   UNL A   1      34.358  25.203  25.512  1.00  0.00     0.095 A 
ATOM     15  C   UNL A   1      33.916  24.179  23.338  1.00  0.00     0.161 A 
ATOM     16  N   UNL A   1      34.746  24.423  24.421  1.00  0.00    -0.286 N 
ATOM     17  N   UNL A   1      34.540  23.419  22.468  1.00  0.00    -0.130 NA
ATOM     18  N   UNL A   1      35.781  23.125  22.978  1.00  0.00    -0.134 NA
ENDBRANCH   8   9
ENDBRANCH   5   8
ENDBRANCH   3   4
ENDBRANCH   2   3
ENDBRANCH   1   2
BRANCH   1  19
ATOM     19  C   UNL A   1      42.288  19.480  26.570  1.00  0.00     0.116 C 
BRANCH  19  20
ATOM     20  N   UNL A   1      43.187  19.615  25.438  1.00  0.00    -0.352 N 
ATOM     21  C   UNL A   1      44.004  20.602  24.968  1.00  0.00     0.251 C 
ATOM     22  H   UNL A   1      43.213  18.805  24.880  1.00  0.00     0.163 HD
ATOM     23  O   UNL A   1      44.706  20.309  23.998  1.00  0.00    -0.269 OA
BRANCH  21  24
ATOM     24  C   UNL A   1      44.045  21.994  25.487  1.00  0.00     0.039 A 
ATOM     25  C   UNL A   1      44.792  22.425  26.582  1.00  0.00     0.014 A 
ATOM     26  C   UNL A   1      43.184  22.911  24.855  1.00  0.00     0.014 A 
ATOM     27  C   UNL A   1      44.586  23.685  27.120  1.00  0.00     0.010 A 
ATOM     28  C   UNL A   1      42.989  24.184  25.374  1.00  0.00     0.010 A 
ATOM     29  C   UNL A   1      43.640  24.536  26.550  1.00  0.00    -0.014 A 
BRANCH  29  30
ATOM     30  C   UNL A   1      43.385  25.793  27.239  1.00  0.00     0.031 A 
ATOM     31  C   UNL A   1      44.372  26.875  26.983  1.00  0.00     0.074 A 
ATOM     32  C   UNL A   1      42.307  25.969  28.028  1.00  0.00     0.049 A 
ATOM     33  N   UNL A   1      45.106  27.510  27.839  1.00  0.00    -0.248 NA
ATOM     34  C   UNL A   1      44.645  27.223  25.581  1.00  0.00     0.031 C 
ATOM     35  C   UNL A   1      41.144  25.085  28.168  1.00  0.00     0.029 A 
ATOM     36  N   UNL A   1      41.975  27.044  28.793  1.00  0.00    -0.354 N 
ATOM     37  C   UNL A   1      45.840  28.438  27.102  1.00  0.00     0.074 A 
ATOM     38  C   UNL A   1      45.597  28.147  25.713  1.00  0.00     0.031 C 
ATOM     39  C   UNL A   1      40.138  25.766  28.759  1.00  0.00     0.029 A 
ATOM     40  C   UNL A   1      40.644  27.059  29.182  1.00  0.00     0.049 A 
ATOM     41  H   UNL A   1      42.617  27.745  29.047  1.00  0.00     0.167 HD
ATOM     42  C   UNL A   1      46.461  29.500  27.684  1.00  0.00     0.031 A 
ATOM     43  C   UNL A   1      39.988  28.089  29.761  1.00  0.00     0.031 A 
ATOM     44  C   UNL A   1      46.593  29.339  29.103  1.00  0.00     0.049 A 
ATOM     45  C   UNL A   1      40.987  28.985  30.376  1.00  0.00     0.074 A 
ATOM     46  C   UNL A   1      47.406  28.613  29.944  1.00  0.00     0.029 A 
ATOM     47  N   UNL A   1      45.529  29.782  29.844  1.00  0.00    -0.354 N 
ATOM     48  N   UNL A   1      41.727  28.641  31.390  1.00  0.00    -0.248 NA
ATOM     49  C   UNL A   1      41.421  30.179  29.663  1.00  0.00     0.031 C 
ATOM     50  C   UNL A   1      46.633  28.381  31.117  1.00  0.00     0.029 A 
ATOM     51  C   UNL A   1      45.390  28.997  30.959  1.00  0.00     0.049 A 
ATOM     52  H   UNL A   1      44.953  30.546  29.611  1.00  0.00     0.167 HD
ATOM     53  C   UNL A   1      42.925  29.300  31.184  1.00  0.00     0.074 A 
ATOM     54  C   UNL A   1      42.619  30.355  30.227  1.00  0.00     0.031 C 
ATOM     55  C   UNL A   1      44.106  28.743  31.582  1.00  0.00     0.031 A 
BRANCH  42  56
ATOM     56  C   UNL A   1      46.605  30.852  27.030  1.00  0.00    -0.014 A 
ATOM     57  C   UNL A   1      45.503  31.650  26.670  1.00  0.00     0.009 A 
ATOM     58  C   UNL A   1      47.864  31.480  27.023  1.00  0.00     0.009 A 
ATOM     59  C   UNL A   1      45.641  32.999  26.328  1.00  0.00     0.001 A 
ATOM     60  C   UNL A   1      48.003  32.841  26.716  1.00  0.00     0.001 A 
ATOM     61  C   UNL A   1      46.889  33.601  26.373  1.00  0.00     0.000 A 
ENDBRANCH  42  56
BRANCH  43  62
ATOM     62  C   UNL A   1      38.595  28.509  29.521  1.00  0.00    -0.014 A 
ATOM     63  C   UNL A   1      38.206  28.904  28.228  1.00  0.00     0.009 A 
ATOM     64  C   UNL A   1      37.738  28.804  30.590  1.00  0.00     0.009 A 
ATOM     65  C   UNL A   1      37.023  29.616  28.015  1.00  0.00     0.001 A 
ATOM     66  C   UNL A   1      36.551  29.516  30.375  1.00  0.00     0.001 A 
ATOM     67  C   UNL A   1      36.205  29.937  29.092  1.00  0.00     0.000 A 
ENDBRANCH  43  62
BRANCH  55  68
ATOM     68  C   UNL A   1      44.041  27.598  32.561  1.00  0.00    -0.014 A 
ATOM     69  C   UNL A   1      44.207  26.295  32.070  1.00  0.00     0.009 A 
ATOM     70  C   UNL A   1      43.692  27.766  33.913  1.00  0.00     0.009 A 
ATOM     71  C   UNL A   1      44.019  25.188  32.901  1.00  0.00     0.001 A 
ATOM     72  C   UNL A   1      43.529  26.657  34.750  1.00  0.00     0.001 A 
ATOM     73  C   UNL A   1      43.683  25.370  34.241  1.00  0.00     0.000 A 
ENDBRANCH  55  68
ENDBRANCH  29  30
ENDBRANCH  21  24
ENDBRANCH  19  20
ENDBRANCH   1  19
TORSDOF 12
ENDMDL
MODEL 3
REMARK VINA RESULT:     -10.1      3.929      8.504
REMARK SMILES Cc1ccn2c(CC(=O)NCCCCNC(=O)c3ccc(-c4c5nc(c(-c6ccccc6)c6ccc([nH]6)c(-c6ccccc6)c6nc(c(-c7ccccc7)c7ccc4[nH]7)C=C6)C=C5)cc3)nnc2c1
REMARK SMILES IDX 13 1 12 2 11 3 10 4 8 5 9 6 7 8 6 9 1 10 2 11 3 12 69 13
REMARK SMILES IDX 4 14 68 15 5 16 67 17 66 18 14 19 15 20 16 21 17 23 18 24
REMARK SMILES IDX 19 25 65 26 20 27 64 28 21 29 22 30 23 31 58 32 24 33 63 34
REMARK SMILES IDX 57 35 59 36 25 37 62 38 56 39 55 40 26 42 48 43 33 44 47 45
REMARK SMILES IDX 34 46 37 47 46 48 60 49 35 50 36 51 45 53 61 54 38 55 27 56
REMARK SMILES IDX 28 57 32 58 29 59 31 60 30 61 49 62 50 63 54 64 51 65 53 66
REMARK SMILES IDX 52 67 39 68 40 69 44 70 41 71 43 72 42 73
REMARK H PARENT 10 7 15 22 59 41 37 52
REMARK Flexibility Score: inf
ROOT
ATOM      1  C   UNL A   1      33.124  29.005  26.857  1.00  0.00     0.023 C 
ENDROOT
BRANCH   1   2
ATOM      2  C   UNL A   1      32.776  29.553  25.465  1.00  0.00     0.023 C 
BRANCH   2   3
ATOM      3  C   UNL A   1      31.281  29.550  25.151  1.00  0.00     0.116 C 
BRANCH   3   4
ATOM      4  N   UNL A   1      31.022  29.730  23.741  1.00  0.00    -0.356 N 
ATOM      5  C   UNL A   1      30.689  28.799  22.792  1.00  0.00     0.227 C 
ATOM      6  O   UNL A   1      30.481  29.189  21.653  1.00  0.00    -0.275 OA
ATOM      7  H   UNL A   1      31.094  30.656  23.415  1.00  0.00     0.163 HD
BRANCH   5   8
ATOM      8  C   UNL A   1      30.468  27.348  23.194  1.00  0.00     0.177 C 
BRANCH   8   9
ATOM      9  C   UNL A   1      31.617  26.494  22.793  1.00  0.00     0.146 A 
ATOM     10  C   UNL A   1      35.793  24.019  25.579  1.00  0.00     0.044 C 
ATOM     11  C   UNL A   1      34.648  24.659  24.851  1.00  0.00    -0.046 A 
ATOM     12  C   UNL A   1      33.610  25.286  25.668  1.00  0.00     0.022 A 
ATOM     13  C   UNL A   1      34.552  24.655  23.503  1.00  0.00     0.053 A 
ATOM     14  C   UNL A   1      32.560  25.869  25.065  1.00  0.00     0.095 A 
ATOM     15  C   UNL A   1      33.454  25.294  22.865  1.00  0.00     0.161 A 
ATOM     16  N   UNL A   1      32.497  25.891  23.671  1.00  0.00    -0.286 N 
ATOM     17  N   UNL A   1      33.140  25.472  21.603  1.00  0.00    -0.130 NA
ATOM     18  N   UNL A   1      31.986  26.216  21.556  1.00  0.00    -0.134 NA
ENDBRANCH   8   9
ENDBRANCH   5   8
ENDBRANCH   3   4
ENDBRANCH   2   3
ENDBRANCH   1   2
BRANCH   1  19
ATOM     19  C   UNL A   1      34.623  29.003  27.167  1.00  0.00     0.116 C 
BRANCH  19  20
ATOM     20  N   UNL A   1      34.967  29.815  28.320  1.00  0.00    -0.352 N 
ATOM     21  C   UNL A   1      36.115  30.062  29.016  1.00  0.00     0.251 C 
ATOM     22  H   UNL A   1      34.193  30.299  28.684  1.00  0.00     0.163 HD
ATOM     23  O   UNL A   1      36.035  30.905  29.913  1.00  0.00    -0.269 OA
BRANCH  21  24
ATOM     24  C   UNL A   1      37.402  29.344  28.823  1.00  0.00     0.039 A 
ATOM     25  C   UNL A   1      37.979  28.463  29.735  1.00  0.00     0.014 A 
ATOM     26  C   UNL A   1      38.114  29.665  27.652  1.00  0.00     0.014 A 
ATOM     27  C   UNL A   1      39.282  28.026  29.561  1.00  0.00     0.010 A 
ATOM     28  C   UNL A   1      39.412  29.210  27.457  1.00  0.00     0.010 A 
ATOM     29  C   UNL A   1      40.013  28.451  28.454  1.00  0.00    -0.014 A 
BRANCH  29  30
ATOM     30  C   UNL A   1      41.413  28.054  28.396  1.00  0.00     0.031 A 
ATOM     31  C   UNL A   1      41.685  26.762  27.712  1.00  0.00     0.074 A 
ATOM     32  C   UNL A   1      42.395  28.826  28.902  1.00  0.00     0.049 A 
ATOM     33  N   UNL A   1      42.263  25.708  28.190  1.00  0.00    -0.248 NA
ATOM     34  C   UNL A   1      41.155  26.594  26.351  1.00  0.00     0.031 C 
ATOM     35  C   UNL A   1      42.294  30.213  29.373  1.00  0.00     0.029 A 
ATOM     36  N   UNL A   1      43.727  28.562  28.996  1.00  0.00    -0.354 N 
ATOM     37  C   UNL A   1      42.296  24.783  27.148  1.00  0.00     0.074 A 
ATOM     38  C   UNL A   1      41.509  25.338  26.078  1.00  0.00     0.031 C 
ATOM     39  C   UNL A   1      43.533  30.742  29.460  1.00  0.00     0.029 A 
ATOM     40  C   UNL A   1      44.503  29.690  29.217  1.00  0.00     0.049 A 
ATOM     41  H   UNL A   1      44.104  27.657  28.914  1.00  0.00     0.167 HD
ATOM     42  C   UNL A   1      43.116  23.697  27.167  1.00  0.00     0.031 A 
ATOM     43  C   UNL A   1      45.850  29.763  29.147  1.00  0.00     0.031 A 
ATOM     44  C   UNL A   1      43.621  23.422  28.481  1.00  0.00     0.049 A 
ATOM     45  C   UNL A   1      46.396  28.401  29.308  1.00  0.00     0.074 A 
ATOM     46  C   UNL A   1      43.123  22.860  29.635  1.00  0.00     0.029 A 
ATOM     47  N   UNL A   1      44.777  24.079  28.812  1.00  0.00    -0.354 N 
ATOM     48  N   UNL A   1      46.303  27.720  30.413  1.00  0.00    -0.248 NA
ATOM     49  C   UNL A   1      46.772  27.632  28.130  1.00  0.00     0.031 C 
ATOM     50  C   UNL A   1      43.848  23.466  30.700  1.00  0.00     0.029 A 
ATOM     51  C   UNL A   1      44.779  24.353  30.155  1.00  0.00     0.049 A 
ATOM     52  H   UNL A   1      45.496  24.318  28.183  1.00  0.00     0.167 HD
ATOM     53  C   UNL A   1      46.186  26.405  30.001  1.00  0.00     0.074 A 
ATOM     54  C   UNL A   1      46.660  26.395  28.623  1.00  0.00     0.031 C 
ATOM     55  C   UNL A   1      45.442  25.513  30.717  1.00  0.00     0.031 A 
BRANCH  42  56
ATOM     56  C   UNL A   1      43.766  23.113  25.937  1.00  0.00    -0.014 A 
ATOM     57  C   UNL A   1      44.670  23.833  25.133  1.00  0.00     0.009 A 
ATOM     58  C   UNL A   1      43.704  21.723  25.722  1.00  0.00     0.009 A 
ATOM     59  C   UNL A   1      45.473  23.209  24.174  1.00  0.00     0.001 A 
ATOM     60  C   UNL A   1      44.532  21.088  24.786  1.00  0.00     0.001 A 
ATOM     61  C   UNL A   1      45.420  21.832  24.015  1.00  0.00     0.000 A 
ENDBRANCH  42  56
BRANCH  43  62
ATOM     62  C   UNL A   1      46.658  30.879  28.619  1.00  0.00    -0.014 A 
ATOM     63  C   UNL A   1      46.356  31.409  27.350  1.00  0.00     0.009 A 
ATOM     64  C   UNL A   1      47.883  31.222  29.207  1.00  0.00     0.009 A 
ATOM     65  C   UNL A   1      47.271  32.215  26.669  1.00  0.00     0.001 A 
ATOM     66  C   UNL A   1      48.797  32.033  28.523  1.00  0.00     0.001 A 
ATOM     67  C   UNL A   1      48.499  32.512  27.249  1.00  0.00     0.000 A 
ENDBRANCH  43  62
BRANCH  55  68
ATOM     68  C   UNL A   1      45.072  25.889  32.129  1.00  0.00    -0.014 A 
ATOM     69  C   UNL A   1      45.848  25.372  33.178  1.00  0.00     0.009 A 
ATOM     70  C   UNL A   1      43.915  26.619  32.450  1.00  0.00     0.009 A 
ATOM     71  C   UNL A   1      45.473  25.568  34.509  1.00  0.00     0.001 A 
ATOM     72  C   UNL A   1      43.555  26.837  33.783  1.00  0.00     0.001 A 
ATOM     73  C   UNL A   1      44.329  26.302  34.811  1.00  0.00     0.000 A 
ENDBRANCH  55  68
ENDBRANCH  29  30
ENDBRANCH  21  24
ENDBRANCH  19  20
ENDBRANCH   1  19
TORSDOF 12
ENDMDL
