MODEL 1
REMARK VINA RESULT:     -11.3      0.000      0.000
REMARK SMILES CC[C@@](C)(C(=O)NCCCCNC(=O)c1ccc(-c2c3nc(c(-c4ccccc4)c4ccc([nH]4)c(-c4ccccc4)c4nc(c(-c5ccccc5)c5ccc2[nH]5)C=C4)C=C3)cc1)n1nnnc1-c1ccc(Br)c(F)c1
REMARK SMILES IDX 9 1 8 2 7 3 5 4 6 5 3 7 4 8 2 9 1 10 63 11 64 12 67 13 65 14
REMARK SMILES IDX 66 15 68 16 69 17 75 18 70 19 73 20 71 21 74 22 72 23 10 24
REMARK SMILES IDX 11 25 12 26 13 27 14 29 15 30 16 31 62 32 17 33 61 34 18 35
REMARK SMILES IDX 19 36 20 37 55 38 21 39 60 40 54 41 56 42 22 43 59 44 53 45
REMARK SMILES IDX 52 46 23 48 45 49 30 50 44 51 31 52 34 53 43 54 57 55 32 56
REMARK SMILES IDX 33 57 42 59 58 60 35 61 24 62 25 63 29 64 26 65 28 66 27 67
REMARK SMILES IDX 46 68 47 69 51 70 48 71 50 72 49 73 36 74 37 75 41 76 38 77
REMARK SMILES IDX 40 78 39 79
REMARK H PARENT 7 6 12 28 56 47 34 58
REMARK Flexibility Score: inf
ROOT
ATOM      1  C   UNL A   1      36.471  20.926  24.648  1.00  0.00     0.023 C 
ENDROOT
BRANCH   1   2
ATOM      2  C   UNL A   1      35.492  21.117  25.803  1.00  0.00     0.116 C 
BRANCH   2   3
ATOM      3  N   UNL A   1      34.220  20.474  25.529  1.00  0.00    -0.354 N 
ATOM      4  C   UNL A   1      32.949  20.943  25.382  1.00  0.00     0.247 C 
ATOM      5  O   UNL A   1      32.103  20.069  25.162  1.00  0.00    -0.272 OA
ATOM      6  H   UNL A   1      34.291  19.497  25.429  1.00  0.00     0.163 HD
BRANCH   4   7
ATOM      7  C   UNL A   1      32.579  22.451  25.428  1.00  0.00     0.142 C 
ATOM      8  C   UNL A   1      33.282  23.042  26.683  1.00  0.00     0.048 C 
BRANCH   7   9
ATOM      9  C   UNL A   1      31.045  22.669  25.538  1.00  0.00     0.037 C 
ATOM     10  C   UNL A   1      30.567  23.450  26.758  1.00  0.00     0.007 C 
ENDBRANCH   7   9
BRANCH   7  11
ATOM     11  N   UNL A   1      33.108  23.101  24.204  1.00  0.00    -0.210 N 
ATOM     12  N   UNL A   1      33.555  22.331  23.182  1.00  0.00    -0.044 NA
ATOM     13  C   UNL A   1      33.291  24.432  23.860  1.00  0.00     0.183 A 
ATOM     14  N   UNL A   1      33.940  23.166  22.235  1.00  0.00    -0.023 NA
ATOM     15  N   UNL A   1      33.784  24.461  22.635  1.00  0.00    -0.108 NA
BRANCH  13  16
ATOM     16  C   UNL A   1      32.991  25.626  24.639  1.00  0.00     0.024 A 
ATOM     17  C   UNL A   1      31.709  26.192  24.575  1.00  0.00     0.013 A 
ATOM     18  C   UNL A   1      33.980  26.285  25.374  1.00  0.00     0.052 A 
ATOM     19  C   UNL A   1      31.402  27.355  25.291  1.00  0.00     0.019 A 
ATOM     20  C   UNL A   1      33.664  27.424  26.111  1.00  0.00     0.138 A 
ATOM     21  C   UNL A   1      32.380  27.959  26.078  1.00  0.00     0.053 A 
ATOM     22  F   UNL A   1      34.626  27.986  26.857  1.00  0.00    -0.206 F 
ATOM     23  Br  UNL A   1      31.953  29.499  27.084  1.00  0.00    -0.048 Br
ENDBRANCH  13  16
ENDBRANCH   7  11
ENDBRANCH   4   7
ENDBRANCH   2   3
ENDBRANCH   1   2
BRANCH   1  24
ATOM     24  C   UNL A   1      37.540  19.864  24.907  1.00  0.00     0.023 C 
BRANCH  24  25
ATOM     25  C   UNL A   1      38.723  20.333  25.747  1.00  0.00     0.116 C 
BRANCH  25  26
ATOM     26  N   UNL A   1      39.838  19.398  25.740  1.00  0.00    -0.352 N 
ATOM     27  C   UNL A   1      41.150  19.625  26.071  1.00  0.00     0.251 C 
ATOM     28  H   UNL A   1      39.621  18.480  25.459  1.00  0.00     0.163 HD
ATOM     29  O   UNL A   1      41.993  18.751  25.883  1.00  0.00    -0.269 OA
BRANCH  27  30
ATOM     30  C   UNL A   1      41.549  20.933  26.628  1.00  0.00     0.039 A 
ATOM     31  C   UNL A   1      41.987  21.931  25.755  1.00  0.00     0.014 A 
ATOM     32  C   UNL A   1      41.480  21.178  28.002  1.00  0.00     0.014 A 
ATOM     33  C   UNL A   1      42.315  23.190  26.258  1.00  0.00     0.010 A 
ATOM     34  C   UNL A   1      41.721  22.457  28.489  1.00  0.00     0.010 A 
ATOM     35  C   UNL A   1      42.159  23.472  27.626  1.00  0.00    -0.014 A 
BRANCH  35  36
ATOM     36  C   UNL A   1      42.482  24.813  28.170  1.00  0.00     0.031 A 
ATOM     37  C   UNL A   1      43.900  25.157  28.541  1.00  0.00     0.074 A 
ATOM     38  C   UNL A   1      41.497  25.710  28.367  1.00  0.00     0.049 A 
ATOM     39  N   UNL A   1      44.380  26.275  29.026  1.00  0.00    -0.248 NA
ATOM     40  C   UNL A   1      44.908  24.097  28.372  1.00  0.00     0.031 C 
ATOM     41  C   UNL A   1      40.077  25.486  28.087  1.00  0.00     0.029 A 
ATOM     42  N   UNL A   1      41.542  26.996  28.841  1.00  0.00    -0.354 N 
ATOM     43  C   UNL A   1      45.734  26.045  29.234  1.00  0.00     0.074 A 
ATOM     44  C   UNL A   1      45.989  24.666  28.882  1.00  0.00     0.031 C 
ATOM     45  C   UNL A   1      39.395  26.613  28.349  1.00  0.00     0.029 A 
ATOM     46  C   UNL A   1      40.319  27.622  28.854  1.00  0.00     0.049 A 
ATOM     47  H   UNL A   1      42.373  27.430  29.145  1.00  0.00     0.167 HD
ATOM     48  C   UNL A   1      46.688  26.908  29.659  1.00  0.00     0.031 A 
ATOM     49  C   UNL A   1      39.983  28.871  29.224  1.00  0.00     0.031 A 
ATOM     50  C   UNL A   1      46.434  28.282  29.999  1.00  0.00     0.049 A 
ATOM     51  C   UNL A   1      41.058  29.807  29.706  1.00  0.00     0.074 A 
ATOM     52  C   UNL A   1      47.339  29.258  30.377  1.00  0.00     0.029 A 
ATOM     53  N   UNL A   1      45.180  28.874  30.008  1.00  0.00    -0.354 N 
ATOM     54  N   UNL A   1      42.348  29.600  29.818  1.00  0.00    -0.248 NA
ATOM     55  C   UNL A   1      40.627  31.156  30.098  1.00  0.00     0.031 C 
ATOM     56  C   UNL A   1      46.626  30.422  30.677  1.00  0.00     0.029 A 
ATOM     57  C   UNL A   1      45.285  30.193  30.417  1.00  0.00     0.049 A 
ATOM     58  H   UNL A   1      44.341  28.423  29.761  1.00  0.00     0.167 HD
ATOM     59  C   UNL A   1      42.887  30.803  30.256  1.00  0.00     0.074 A 
ATOM     60  C   UNL A   1      41.786  31.737  30.374  1.00  0.00     0.031 C 
ATOM     61  C   UNL A   1      44.179  31.109  30.532  1.00  0.00     0.031 A 
BRANCH  48  62
ATOM     62  C   UNL A   1      48.090  26.379  29.794  1.00  0.00    -0.014 A 
ATOM     63  C   UNL A   1      48.554  25.830  31.002  1.00  0.00     0.009 A 
ATOM     64  C   UNL A   1      48.956  26.413  28.691  1.00  0.00     0.009 A 
ATOM     65  C   UNL A   1      49.868  25.371  31.113  1.00  0.00     0.001 A 
ATOM     66  C   UNL A   1      50.258  25.919  28.794  1.00  0.00     0.001 A 
ATOM     67  C   UNL A   1      50.717  25.410  30.008  1.00  0.00     0.000 A 
ENDBRANCH  48  62
BRANCH  49  68
ATOM     68  C   UNL A   1      38.572  29.329  29.120  1.00  0.00    -0.014 A 
ATOM     69  C   UNL A   1      38.088  29.873  27.919  1.00  0.00     0.009 A 
ATOM     70  C   UNL A   1      37.705  29.239  30.220  1.00  0.00     0.009 A 
ATOM     71  C   UNL A   1      36.778  30.347  27.833  1.00  0.00     0.001 A 
ATOM     72  C   UNL A   1      36.385  29.683  30.120  1.00  0.00     0.001 A 
ATOM     73  C   UNL A   1      35.926  30.247  28.931  1.00  0.00     0.000 A 
ENDBRANCH  49  68
BRANCH  61  74
ATOM     74  C   UNL A   1      44.476  32.526  30.941  1.00  0.00    -0.014 A 
ATOM     75  C   UNL A   1      44.761  33.522  29.995  1.00  0.00     0.009 A 
ATOM     76  C   UNL A   1      44.444  32.872  32.303  1.00  0.00     0.009 A 
ATOM     77  C   UNL A   1      45.052  34.825  30.407  1.00  0.00     0.001 A 
ATOM     78  C   UNL A   1      44.700  34.181  32.708  1.00  0.00     0.001 A 
ATOM     79  C   UNL A   1      45.017  35.154  31.761  1.00  0.00     0.000 A 
ENDBRANCH  61  74
ENDBRANCH  35  36
ENDBRANCH  27  30
ENDBRANCH  25  26
ENDBRANCH  24  25
ENDBRANCH   1  24
TORSDOF 14
ENDMDL
MODEL 2
REMARK VINA RESULT:     -11.2      0.475      5.915
REMARK SMILES CC[C@@](C)(C(=O)NCCCCNC(=O)c1ccc(-c2c3nc(c(-c4ccccc4)c4ccc([nH]4)c(-c4ccccc4)c4nc(c(-c5ccccc5)c5ccc2[nH]5)C=C4)C=C3)cc1)n1nnnc1-c1ccc(Br)c(F)c1
REMARK SMILES IDX 9 1 8 2 7 3 5 4 6 5 3 7 4 8 2 9 1 10 63 11 64 12 67 13 65 14
REMARK SMILES IDX 66 15 68 16 69 17 75 18 70 19 73 20 71 21 74 22 72 23 10 24
REMARK SMILES IDX 11 25 12 26 13 27 14 29 15 30 16 31 62 32 17 33 61 34 18 35
REMARK SMILES IDX 19 36 20 37 55 38 21 39 60 40 54 41 56 42 22 43 59 44 53 45
REMARK SMILES IDX 52 46 23 48 45 49 30 50 44 51 31 52 34 53 43 54 57 55 32 56
REMARK SMILES IDX 33 57 42 59 58 60 35 61 24 62 25 63 29 64 26 65 28 66 27 67
REMARK SMILES IDX 46 68 47 69 51 70 48 71 50 72 49 73 36 74 37 75 41 76 38 77
REMARK SMILES IDX 40 78 39 79
REMARK H PARENT 7 6 12 28 56 47 34 58
REMARK Flexibility Score: inf
ROOT
ATOM      1  C   UNL A   1      36.523  21.122  24.689  1.00  0.00     0.023 C 
ENDROOT
BRANCH   1   2
ATOM      2  C   UNL A   1      35.509  21.346  25.806  1.00  0.00     0.116 C 
BRANCH   2   3
ATOM      3  N   UNL A   1      34.260  20.660  25.532  1.00  0.00    -0.354 N 
ATOM      4  C   UNL A   1      32.978  21.089  25.356  1.00  0.00     0.247 C 
ATOM      5  O   UNL A   1      32.160  20.186  25.147  1.00  0.00    -0.272 OA
ATOM      6  H   UNL A   1      34.360  19.683  25.458  1.00  0.00     0.163 HD
BRANCH   4   7
ATOM      7  C   UNL A   1      32.565  22.586  25.358  1.00  0.00     0.142 C 
ATOM      8  C   UNL A   1      33.218  23.225  26.616  1.00  0.00     0.048 C 
BRANCH   7   9
ATOM      9  C   UNL A   1      31.023  22.763  25.423  1.00  0.00     0.037 C 
ATOM     10  C   UNL A   1      30.435  22.988  26.813  1.00  0.00     0.007 C 
ENDBRANCH   7   9
BRANCH   7  11
ATOM     11  N   UNL A   1      33.108  23.224  24.133  1.00  0.00    -0.210 N 
ATOM     12  N   UNL A   1      33.573  22.444  23.127  1.00  0.00    -0.044 NA
ATOM     13  C   UNL A   1      33.289  24.551  23.775  1.00  0.00     0.183 A 
ATOM     14  N   UNL A   1      33.967  23.269  22.175  1.00  0.00    -0.023 NA
ATOM     15  N   UNL A   1      33.799  24.567  22.556  1.00  0.00    -0.108 NA
BRANCH  13  16
ATOM     16  C   UNL A   1      32.972  25.753  24.534  1.00  0.00     0.024 A 
ATOM     17  C   UNL A   1      31.690  26.315  24.442  1.00  0.00     0.013 A 
ATOM     18  C   UNL A   1      33.947  26.424  25.279  1.00  0.00     0.052 A 
ATOM     19  C   UNL A   1      31.367  27.484  25.140  1.00  0.00     0.019 A 
ATOM     20  C   UNL A   1      33.615  27.570  25.997  1.00  0.00     0.138 A 
ATOM     21  C   UNL A   1      32.330  28.101  25.936  1.00  0.00     0.053 A 
ATOM     22  F   UNL A   1      34.563  28.144  26.752  1.00  0.00    -0.206 F 
ATOM     23  Br  UNL A   1      31.882  29.651  26.917  1.00  0.00    -0.048 Br
ENDBRANCH  13  16
ENDBRANCH   7  11
ENDBRANCH   4   7
ENDBRANCH   2   3
ENDBRANCH   1   2
BRANCH   1  24
ATOM     24  C   UNL A   1      37.543  20.020  24.985  1.00  0.00     0.023 C 
BRANCH  24  25
ATOM     25  C   UNL A   1      38.788  20.481  25.736  1.00  0.00     0.116 C 
BRANCH  25  26
ATOM     26  N   UNL A   1      39.834  19.472  25.784  1.00  0.00    -0.352 N 
ATOM     27  C   UNL A   1      41.157  19.623  26.115  1.00  0.00     0.251 C 
ATOM     28  H   UNL A   1      39.556  18.559  25.545  1.00  0.00     0.163 HD
ATOM     29  O   UNL A   1      41.938  18.685  25.977  1.00  0.00    -0.269 OA
BRANCH  27  30
ATOM     30  C   UNL A   1      41.643  20.927  26.612  1.00  0.00     0.039 A 
ATOM     31  C   UNL A   1      42.107  21.867  25.691  1.00  0.00     0.014 A 
ATOM     32  C   UNL A   1      41.630  21.223  27.977  1.00  0.00     0.014 A 
ATOM     33  C   UNL A   1      42.518  23.124  26.138  1.00  0.00     0.010 A 
ATOM     34  C   UNL A   1      41.955  22.503  28.410  1.00  0.00     0.010 A 
ATOM     35  C   UNL A   1      42.420  23.461  27.498  1.00  0.00    -0.014 A 
BRANCH  35  36
ATOM     36  C   UNL A   1      42.832  24.801  27.983  1.00  0.00     0.031 A 
ATOM     37  C   UNL A   1      41.794  25.856  28.259  1.00  0.00     0.074 A 
ATOM     38  C   UNL A   1      44.139  25.083  28.141  1.00  0.00     0.049 A 
ATOM     39  N   UNL A   1      41.956  27.082  28.691  1.00  0.00    -0.248 NA
ATOM     40  C   UNL A   1      40.391  25.498  27.987  1.00  0.00     0.031 C 
ATOM     41  C   UNL A   1      45.244  24.160  27.870  1.00  0.00     0.029 A 
ATOM     42  N   UNL A   1      44.760  26.226  28.577  1.00  0.00    -0.354 N 
ATOM     43  C   UNL A   1      40.685  27.641  28.723  1.00  0.00     0.074 A 
ATOM     44  C   UNL A   1      39.770  26.646  28.211  1.00  0.00     0.031 C 
ATOM     45  C   UNL A   1      46.404  24.759  28.192  1.00  0.00     0.029 A 
ATOM     46  C   UNL A   1      46.127  26.116  28.651  1.00  0.00     0.049 A 
ATOM     47  H   UNL A   1      44.271  27.047  28.814  1.00  0.00     0.167 HD
ATOM     48  C   UNL A   1      40.306  28.866  29.161  1.00  0.00     0.031 A 
ATOM     49  C   UNL A   1      47.053  27.006  29.050  1.00  0.00     0.031 A 
ATOM     50  C   UNL A   1      41.216  29.852  29.679  1.00  0.00     0.049 A 
ATOM     51  C   UNL A   1      46.608  28.365  29.518  1.00  0.00     0.074 A 
ATOM     52  C   UNL A   1      40.927  31.097  30.208  1.00  0.00     0.029 A 
ATOM     53  N   UNL A   1      42.594  29.705  29.727  1.00  0.00    -0.354 N 
ATOM     54  N   UNL A   1      45.395  28.850  29.622  1.00  0.00    -0.248 NA
ATOM     55  C   UNL A   1      47.666  29.294  29.939  1.00  0.00     0.031 C 
ATOM     56  C   UNL A   1      42.135  31.730  30.517  1.00  0.00     0.029 A 
ATOM     57  C   UNL A   1      43.171  30.851  30.247  1.00  0.00     0.049 A 
ATOM     58  H   UNL A   1      43.087  28.906  29.434  1.00  0.00     0.167 HD
ATOM     59  C   UNL A   1      45.540  30.124  30.155  1.00  0.00     0.074 A 
ATOM     60  C   UNL A   1      46.959  30.330  30.367  1.00  0.00     0.031 C 
ATOM     61  C   UNL A   1      44.585  31.042  30.449  1.00  0.00     0.031 A 
BRANCH  48  62
ATOM     62  C   UNL A   1      38.843  29.209  29.078  1.00  0.00    -0.014 A 
ATOM     63  C   UNL A   1      37.985  29.037  30.179  1.00  0.00     0.009 A 
ATOM     64  C   UNL A   1      38.317  29.729  27.886  1.00  0.00     0.009 A 
ATOM     65  C   UNL A   1      36.625  29.336  30.070  1.00  0.00     0.001 A 
ATOM     66  C   UNL A   1      36.963  30.060  27.792  1.00  0.00     0.001 A 
ATOM     67  C   UNL A   1      36.116  29.852  28.879  1.00  0.00     0.000 A 
ENDBRANCH  48  62
BRANCH  49  68
ATOM     68  C   UNL A   1      48.493  26.635  29.064  1.00  0.00    -0.014 A 
ATOM     69  C   UNL A   1      49.053  26.004  30.185  1.00  0.00     0.009 A 
ATOM     70  C   UNL A   1      49.318  26.922  27.965  1.00  0.00     0.009 A 
ATOM     71  C   UNL A   1      50.415  25.696  30.219  1.00  0.00     0.001 A 
ATOM     72  C   UNL A   1      50.673  26.583  27.989  1.00  0.00     0.001 A 
ATOM     73  C   UNL A   1      51.223  25.982  29.120  1.00  0.00     0.000 A 
ENDBRANCH  49  68
BRANCH  61  74
ATOM     74  C   UNL A   1      45.041  32.331  31.075  1.00  0.00    -0.014 A 
ATOM     75  C   UNL A   1      45.339  33.462  30.298  1.00  0.00     0.009 A 
ATOM     76  C   UNL A   1      45.150  32.419  32.473  1.00  0.00     0.009 A 
ATOM     77  C   UNL A   1      45.779  34.640  30.907  1.00  0.00     0.001 A 
ATOM     78  C   UNL A   1      45.555  33.608  33.079  1.00  0.00     0.001 A 
ATOM     79  C   UNL A   1      45.882  34.713  32.295  1.00  0.00     0.000 A 
ENDBRANCH  61  74
ENDBRANCH  35  36
ENDBRANCH  27  30
ENDBRANCH  25  26
ENDBRANCH  24  25
ENDBRANCH   1  24
TORSDOF 14
ENDMDL
MODEL 3
REMARK VINA RESULT:     -11.1      3.992      8.796
REMARK SMILES CC[C@@](C)(C(=O)NCCCCNC(=O)c1ccc(-c2c3nc(c(-c4ccccc4)c4ccc([nH]4)c(-c4ccccc4)c4nc(c(-c5ccccc5)c5ccc2[nH]5)C=C4)C=C3)cc1)n1nnnc1-c1ccc(Br)c(F)c1
REMARK SMILES IDX 9 1 8 2 7 3 5 4 6 5 3 7 4 8 2 9 1 10 63 11 64 12 67 13 65 14
REMARK SMILES IDX 66 15 68 16 69 17 75 18 70 19 73 20 71 21 74 22 72 23 10 24
REMARK SMILES IDX 11 25 12 26 13 27 14 29 15 30 16 31 62 32 17 33 61 34 18 35
REMARK SMILES IDX 19 36 20 37 55 38 21 39 60 40 54 41 56 42 22 43 59 44 53 45
REMARK SMILES IDX 52 46 23 48 45 49 30 50 44 51 31 52 34 53 43 54 57 55 32 56
REMARK SMILES IDX 33 57 42 59 58 60 35 61 24 62 25 63 29 64 26 65 28 66 27 67
REMARK SMILES IDX 46 68 47 69 51 70 48 71 50 72 49 73 36 74 37 75 41 76 38 77
REMARK SMILES IDX 40 78 39 79
REMARK H PARENT 7 6 12 28 56 47 34 58
REMARK Flexibility Score: inf
ROOT
ATOM      1  C   UNL A   1      31.537  30.301  26.527  1.00  0.00     0.023 C 
ENDROOT
BRANCH   1   2
ATOM      2  C   UNL A   1      32.259  29.768  25.293  1.00  0.00     0.116 C 
BRANCH   2   3
ATOM      3  N   UNL A   1      31.333  29.535  24.199  1.00  0.00    -0.354 N 
ATOM      4  C   UNL A   1      31.121  28.478  23.365  1.00  0.00     0.247 C 
ATOM      5  O   UNL A   1      30.229  28.658  22.528  1.00  0.00    -0.272 OA
ATOM      6  H   UNL A   1      30.735  30.297  24.025  1.00  0.00     0.163 HD
BRANCH   4   7
ATOM      7  C   UNL A   1      31.885  27.130  23.474  1.00  0.00     0.142 C 
ATOM      8  C   UNL A   1      33.399  27.481  23.513  1.00  0.00     0.048 C 
BRANCH   7   9
ATOM      9  C   UNL A   1      31.595  26.199  22.265  1.00  0.00     0.037 C 
ATOM     10  C   UNL A   1      32.783  25.896  21.356  1.00  0.00     0.007 C 
ENDBRANCH   7   9
BRANCH   7  11
ATOM     11  N   UNL A   1      31.491  26.469  24.742  1.00  0.00    -0.210 N 
ATOM     12  N   UNL A   1      30.419  26.933  25.429  1.00  0.00    -0.044 NA
ATOM     13  C   UNL A   1      32.042  25.415  25.454  1.00  0.00     0.183 A 
ATOM     14  N   UNL A   1      30.294  26.153  26.486  1.00  0.00    -0.023 NA
ATOM     15  N   UNL A   1      31.283  25.214  26.517  1.00  0.00    -0.108 NA
BRANCH  13  16
ATOM     16  C   UNL A   1      33.217  24.614  25.137  1.00  0.00     0.024 A 
ATOM     17  C   UNL A   1      33.089  23.497  24.298  1.00  0.00     0.013 A 
ATOM     18  C   UNL A   1      34.456  24.869  25.731  1.00  0.00     0.052 A 
ATOM     19  C   UNL A   1      34.196  22.694  23.999  1.00  0.00     0.019 A 
ATOM     20  C   UNL A   1      35.563  24.088  25.408  1.00  0.00     0.138 A 
ATOM     21  C   UNL A   1      35.441  23.006  24.541  1.00  0.00     0.053 A 
ATOM     22  F   UNL A   1      36.748  24.409  25.946  1.00  0.00    -0.206 F 
ATOM     23  Br  UNL A   1      36.945  21.953  24.099  1.00  0.00    -0.048 Br
ENDBRANCH  13  16
ENDBRANCH   7  11
ENDBRANCH   4   7
ENDBRANCH   2   3
ENDBRANCH   1   2
BRANCH   1  24
ATOM     24  C   UNL A   1      31.405  31.824  26.563  1.00  0.00     0.023 C 
BRANCH  24  25
ATOM     25  C   UNL A   1      32.669  32.569  26.979  1.00  0.00     0.116 C 
BRANCH  25  26
ATOM     26  N   UNL A   1      32.396  33.845  27.622  1.00  0.00    -0.352 N 
ATOM     27  C   UNL A   1      33.113  34.483  28.603  1.00  0.00     0.251 C 
ATOM     28  H   UNL A   1      31.588  34.314  27.312  1.00  0.00     0.163 HD
ATOM     29  O   UNL A   1      32.668  35.499  29.130  1.00  0.00    -0.269 OA
BRANCH  27  30
ATOM     30  C   UNL A   1      34.408  33.925  29.043  1.00  0.00     0.039 A 
ATOM     31  C   UNL A   1      34.434  33.075  30.149  1.00  0.00     0.014 A 
ATOM     32  C   UNL A   1      35.588  34.230  28.359  1.00  0.00     0.014 A 
ATOM     33  C   UNL A   1      35.641  32.495  30.545  1.00  0.00     0.010 A 
ATOM     34  C   UNL A   1      36.770  33.583  28.699  1.00  0.00     0.010 A 
ATOM     35  C   UNL A   1      36.814  32.724  29.806  1.00  0.00    -0.014 A 
BRANCH  35  36
ATOM     36  C   UNL A   1      38.098  32.096  30.201  1.00  0.00     0.031 A 
ATOM     37  C   UNL A   1      38.989  32.769  31.210  1.00  0.00     0.074 A 
ATOM     38  C   UNL A   1      38.483  30.940  29.626  1.00  0.00     0.049 A 
ATOM     39  N   UNL A   1      40.144  32.374  31.686  1.00  0.00    -0.248 NA
ATOM     40  C   UNL A   1      38.538  34.069  31.735  1.00  0.00     0.031 C 
ATOM     41  C   UNL A   1      37.728  30.209  28.605  1.00  0.00     0.029 A 
ATOM     42  N   UNL A   1      39.602  30.172  29.826  1.00  0.00    -0.354 N 
ATOM     43  C   UNL A   1      40.561  33.383  32.546  1.00  0.00     0.074 A 
ATOM     44  C   UNL A   1      39.569  34.432  32.482  1.00  0.00     0.031 C 
ATOM     45  C   UNL A   1      38.384  29.075  28.304  1.00  0.00     0.029 A 
ATOM     46  C   UNL A   1      39.619  29.020  29.077  1.00  0.00     0.049 A 
ATOM     47  H   UNL A   1      40.324  30.424  30.446  1.00  0.00     0.167 HD
ATOM     48  C   UNL A   1      41.660  33.425  33.337  1.00  0.00     0.031 A 
ATOM     49  C   UNL A   1      40.527  28.028  29.026  1.00  0.00     0.031 A 
ATOM     50  C   UNL A   1      42.641  32.376  33.407  1.00  0.00     0.049 A 
ATOM     51  C   UNL A   1      41.746  28.105  29.904  1.00  0.00     0.074 A 
ATOM     52  C   UNL A   1      43.755  32.291  34.223  1.00  0.00     0.029 A 
ATOM     53  N   UNL A   1      42.628  31.231  32.625  1.00  0.00    -0.354 N 
ATOM     54  N   UNL A   1      42.085  29.025  30.774  1.00  0.00    -0.248 NA
ATOM     55  C   UNL A   1      42.702  26.993  29.800  1.00  0.00     0.031 C 
ATOM     56  C   UNL A   1      44.452  31.125  33.890  1.00  0.00     0.029 A 
ATOM     57  C   UNL A   1      43.733  30.448  32.918  1.00  0.00     0.049 A 
ATOM     58  H   UNL A   1      41.937  31.008  31.962  1.00  0.00     0.167 HD
ATOM     59  C   UNL A   1      43.270  28.585  31.348  1.00  0.00     0.074 A 
ATOM     60  C   UNL A   1      43.583  27.309  30.738  1.00  0.00     0.031 C 
ATOM     61  C   UNL A   1      44.031  29.182  32.300  1.00  0.00     0.031 A 
BRANCH  48  62
ATOM     62  C   UNL A   1      41.863  34.658  34.176  1.00  0.00    -0.014 A 
ATOM     63  C   UNL A   1      42.577  35.766  33.691  1.00  0.00     0.009 A 
ATOM     64  C   UNL A   1      41.314  34.720  35.466  1.00  0.00     0.009 A 
ATOM     65  C   UNL A   1      42.776  36.890  34.497  1.00  0.00     0.001 A 
ATOM     66  C   UNL A   1      41.484  35.858  36.256  1.00  0.00     0.001 A 
ATOM     67  C   UNL A   1      42.225  36.937  35.777  1.00  0.00     0.000 A 
ENDBRANCH  48  62
BRANCH  49  68
ATOM     68  C   UNL A   1      40.305  26.855  28.140  1.00  0.00    -0.014 A 
ATOM     69  C   UNL A   1      39.589  25.739  28.604  1.00  0.00     0.009 A 
ATOM     70  C   UNL A   1      40.817  26.835  26.833  1.00  0.00     0.009 A 
ATOM     71  C   UNL A   1      39.419  24.617  27.791  1.00  0.00     0.001 A 
ATOM     72  C   UNL A   1      40.617  25.724  26.011  1.00  0.00     0.001 A 
ATOM     73  C   UNL A   1      39.929  24.612  26.494  1.00  0.00     0.000 A 
ENDBRANCH  49  68
BRANCH  61  74
ATOM     74  C   UNL A   1      45.249  28.435  32.772  1.00  0.00    -0.014 A 
ATOM     75  C   UNL A   1      46.501  28.606  32.162  1.00  0.00     0.009 A 
ATOM     76  C   UNL A   1      45.142  27.563  33.868  1.00  0.00     0.009 A 
ATOM     77  C   UNL A   1      47.609  27.885  32.610  1.00  0.00     0.001 A 
ATOM     78  C   UNL A   1      46.258  26.871  34.337  1.00  0.00     0.001 A 
ATOM     79  C   UNL A   1      47.488  27.022  33.699  1.00  0.00     0.000 A 
ENDBRANCH  61  74
ENDBRANCH  35  36
ENDBRANCH  27  30
ENDBRANCH  25  26
ENDBRANCH  24  25
ENDBRANCH   1  24
TORSDOF 14
ENDMDL
