MODEL 1
REMARK VINA RESULT:     -12.7      0.000      0.000
REMARK SMILES COc1cc2c(CC(=O)NCCCCNC(=O)c3ccc(-c4c5nc(c(-c6ccccc6)c6ccc([nH]6)c(-c6ccccc6)c6nc(c(-c7ccccc7)c7ccc4[nH]7)C=C6)C=C5)cc3)c(C)n(C(=O)c3ccc(Cl)cc3)c2cc1Cl
REMARK SMILES IDX 12 1 11 2 10 3 8 4 9 5 7 7 6 8 3 9 4 10 80 11 5 12 79 13
REMARK SMILES IDX 81 14 78 15 66 16 68 17 67 18 2 19 1 20 69 21 70 22 71 23
REMARK SMILES IDX 72 24 77 25 73 26 76 27 74 28 75 29 13 30 14 31 15 32 16 33
REMARK SMILES IDX 17 35 18 36 19 37 65 38 20 39 64 40 21 41 22 42 23 43 58 44
REMARK SMILES IDX 24 45 63 46 57 47 59 48 25 49 62 50 56 51 55 52 26 54 48 55
REMARK SMILES IDX 33 56 47 57 34 58 37 59 46 60 60 61 35 62 36 63 45 65 61 66
REMARK SMILES IDX 38 67 27 68 28 69 32 70 29 71 31 72 30 73 49 74 50 75 54 76
REMARK SMILES IDX 51 77 53 78 52 79 39 80 40 81 44 82 41 83 43 84 42 85
REMARK H PARENT 10 6 15 34 59 53 37 64
REMARK Flexibility Score: inf
ROOT
ATOM      1  C   UNL A   1      31.780  27.657  27.206  1.00  0.00     0.023 C 
ENDROOT
BRANCH   1   2
ATOM      2  C   UNL A   1      31.366  26.577  26.211  1.00  0.00     0.116 C 
BRANCH   2   3
ATOM      3  N   UNL A   1      31.076  25.320  26.869  1.00  0.00    -0.356 N 
ATOM      4  C   UNL A   1      31.189  24.053  26.368  1.00  0.00     0.224 C 
ATOM      5  O   UNL A   1      30.885  23.107  27.098  1.00  0.00    -0.275 OA
ATOM      6  H   UNL A   1      30.756  25.386  27.797  1.00  0.00     0.163 HD
BRANCH   4   7
ATOM      7  C   UNL A   1      31.734  23.830  24.964  1.00  0.00     0.138 C 
BRANCH   7   8
ATOM      8  C   UNL A   1      33.080  23.160  24.942  1.00  0.00    -0.009 A 
ATOM      9  C   UNL A   1      33.007  19.339  24.676  1.00  0.00     0.138 A 
ATOM     10  C   UNL A   1      32.471  20.632  24.735  1.00  0.00     0.058 A 
ATOM     11  C   UNL A   1      34.384  19.162  24.711  1.00  0.00     0.085 A 
ATOM     12  C   UNL A   1      33.321  21.760  24.836  1.00  0.00     0.008 A 
ATOM     13  C   UNL A   1      35.234  20.261  24.866  1.00  0.00     0.051 A 
ATOM     14  Cl  UNL A   1      35.144  17.626  24.484  1.00  0.00    -0.080 Cl
ATOM     15  C   UNL A   1      34.706  21.569  24.870  1.00  0.00     0.058 A 
ATOM     16  C   UNL A   1      34.317  23.780  25.080  1.00  0.00     0.028 A 
ATOM     17  N   UNL A   1      35.319  22.833  24.840  1.00  0.00    -0.280 N 
ATOM     18  C   UNL A   1      34.589  25.224  25.377  1.00  0.00     0.065 C 
BRANCH   9  19
ATOM     19  O   UNL A   1      32.104  18.319  24.514  1.00  0.00    -0.495 OA
ATOM     20  C   UNL A   1      32.103  17.800  23.184  1.00  0.00     0.278 C 
ENDBRANCH   9  19
BRANCH  17  21
ATOM     21  C   UNL A   1      36.696  23.113  24.585  1.00  0.00     0.262 C 
ATOM     22  O   UNL A   1      37.037  23.476  23.468  1.00  0.00    -0.268 OA
BRANCH  21  23
ATOM     23  C   UNL A   1      37.775  22.987  25.584  1.00  0.00     0.040 A 
ATOM     24  C   UNL A   1      38.112  24.064  26.411  1.00  0.00     0.015 A 
ATOM     25  C   UNL A   1      38.498  21.791  25.628  1.00  0.00     0.015 A 
ATOM     26  C   UNL A   1      39.245  23.970  27.224  1.00  0.00     0.021 A 
ATOM     27  C   UNL A   1      39.620  21.699  26.453  1.00  0.00     0.021 A 
ATOM     28  C   UNL A   1      40.000  22.794  27.231  1.00  0.00     0.041 A 
ATOM     29  Cl  UNL A   1      41.431  22.705  28.182  1.00  0.00    -0.084 Cl
ENDBRANCH  21  23
ENDBRANCH  17  21
ENDBRANCH   7   8
ENDBRANCH   4   7
ENDBRANCH   2   3
ENDBRANCH   1   2
BRANCH   1  30
ATOM     30  C   UNL A   1      31.792  29.075  26.624  1.00  0.00     0.023 C 
BRANCH  30  31
ATOM     31  C   UNL A   1      33.168  29.750  26.602  1.00  0.00     0.116 C 
BRANCH  31  32
ATOM     32  N   UNL A   1      33.309  30.831  27.558  1.00  0.00    -0.352 N 
ATOM     33  C   UNL A   1      34.376  31.427  28.175  1.00  0.00     0.251 C 
ATOM     34  H   UNL A   1      32.445  31.222  27.824  1.00  0.00     0.163 HD
ATOM     35  O   UNL A   1      34.136  32.458  28.808  1.00  0.00    -0.269 OA
BRANCH  33  36
ATOM     36  C   UNL A   1      35.764  30.891  28.186  1.00  0.00     0.039 A 
ATOM     37  C   UNL A   1      36.144  29.647  27.691  1.00  0.00     0.014 A 
ATOM     38  C   UNL A   1      36.739  31.678  28.832  1.00  0.00     0.014 A 
ATOM     39  C   UNL A   1      37.416  29.149  27.933  1.00  0.00     0.010 A 
ATOM     40  C   UNL A   1      38.028  31.196  29.054  1.00  0.00     0.010 A 
ATOM     41  C   UNL A   1      38.347  29.906  28.647  1.00  0.00    -0.014 A 
BRANCH  41  42
ATOM     42  C   UNL A   1      39.638  29.273  28.891  1.00  0.00     0.031 A 
ATOM     43  C   UNL A   1      39.936  28.931  30.310  1.00  0.00     0.074 A 
ATOM     44  C   UNL A   1      40.539  28.999  27.931  1.00  0.00     0.049 A 
ATOM     45  N   UNL A   1      40.882  29.400  31.059  1.00  0.00    -0.248 NA
ATOM     46  C   UNL A   1      39.019  28.014  30.998  1.00  0.00     0.031 C 
ATOM     47  C   UNL A   1      40.368  29.004  26.479  1.00  0.00     0.029 A 
ATOM     48  N   UNL A   1      41.820  28.564  28.094  1.00  0.00    -0.354 N 
ATOM     49  C   UNL A   1      40.760  28.757  32.287  1.00  0.00     0.074 A 
ATOM     50  C   UNL A   1      39.550  27.974  32.220  1.00  0.00     0.031 C 
ATOM     51  C   UNL A   1      41.418  28.369  25.909  1.00  0.00     0.029 A 
ATOM     52  C   UNL A   1      42.396  28.062  26.941  1.00  0.00     0.049 A 
ATOM     53  H   UNL A   1      42.295  28.604  28.957  1.00  0.00     0.167 HD
ATOM     54  C   UNL A   1      41.726  28.809  33.247  1.00  0.00     0.031 A 
ATOM     55  C   UNL A   1      43.559  27.377  26.864  1.00  0.00     0.031 A 
ATOM     56  C   UNL A   1      42.658  29.878  33.030  1.00  0.00     0.049 A 
ATOM     57  C   UNL A   1      44.365  27.699  28.063  1.00  0.00     0.074 A 
ATOM     58  C   UNL A   1      42.568  31.256  33.021  1.00  0.00     0.029 A 
ATOM     59  N   UNL A   1      43.866  29.577  32.451  1.00  0.00    -0.354 N 
ATOM     60  N   UNL A   1      44.900  28.864  28.286  1.00  0.00    -0.248 NA
ATOM     61  C   UNL A   1      44.273  26.824  29.221  1.00  0.00     0.031 C 
ATOM     62  C   UNL A   1      43.486  31.679  32.018  1.00  0.00     0.029 A 
ATOM     63  C   UNL A   1      44.105  30.538  31.503  1.00  0.00     0.049 A 
ATOM     64  H   UNL A   1      44.449  28.816  32.674  1.00  0.00     0.167 HD
ATOM     65  C   UNL A   1      44.819  29.035  29.659  1.00  0.00     0.074 A 
ATOM     66  C   UNL A   1      44.542  27.704  30.189  1.00  0.00     0.031 C 
ATOM     67  C   UNL A   1      44.712  30.280  30.213  1.00  0.00     0.031 A 
BRANCH  54  68
ATOM     68  C   UNL A   1      41.978  27.718  34.249  1.00  0.00    -0.014 A 
ATOM     69  C   UNL A   1      42.773  26.591  33.963  1.00  0.00     0.009 A 
ATOM     70  C   UNL A   1      41.628  27.920  35.597  1.00  0.00     0.009 A 
ATOM     71  C   UNL A   1      43.192  25.708  34.962  1.00  0.00     0.001 A 
ATOM     72  C   UNL A   1      42.082  27.060  36.605  1.00  0.00     0.001 A 
ATOM     73  C   UNL A   1      42.864  25.954  36.287  1.00  0.00     0.000 A 
ENDBRANCH  54  68
BRANCH  55  74
ATOM     74  C   UNL A   1      43.847  26.199  26.020  1.00  0.00    -0.014 A 
ATOM     75  C   UNL A   1      42.934  25.129  25.967  1.00  0.00     0.009 A 
ATOM     76  C   UNL A   1      45.136  25.988  25.506  1.00  0.00     0.009 A 
ATOM     77  C   UNL A   1      43.308  23.881  25.463  1.00  0.00     0.001 A 
ATOM     78  C   UNL A   1      45.512  24.735  25.007  1.00  0.00     0.001 A 
ATOM     79  C   UNL A   1      44.603  23.679  25.000  1.00  0.00     0.000 A 
ENDBRANCH  55  74
BRANCH  67  80
ATOM     80  C   UNL A   1      44.932  31.485  29.326  1.00  0.00    -0.014 A 
ATOM     81  C   UNL A   1      46.175  32.136  29.375  1.00  0.00     0.009 A 
ATOM     82  C   UNL A   1      43.896  32.090  28.592  1.00  0.00     0.009 A 
ATOM     83  C   UNL A   1      46.375  33.354  28.720  1.00  0.00     0.001 A 
ATOM     84  C   UNL A   1      44.105  33.294  27.913  1.00  0.00     0.001 A 
ATOM     85  C   UNL A   1      45.341  33.931  27.986  1.00  0.00     0.000 A 
ENDBRANCH  67  80
ENDBRANCH  41  42
ENDBRANCH  33  36
ENDBRANCH  31  32
ENDBRANCH  30  31
ENDBRANCH   1  30
TORSDOF 15
ENDMDL
MODEL 2
REMARK VINA RESULT:     -12.2      3.311      8.240
REMARK SMILES COc1cc2c(CC(=O)NCCCCNC(=O)c3ccc(-c4c5nc(c(-c6ccccc6)c6ccc([nH]6)c(-c6ccccc6)c6nc(c(-c7ccccc7)c7ccc4[nH]7)C=C6)C=C5)cc3)c(C)n(C(=O)c3ccc(Cl)cc3)c2cc1Cl
REMARK SMILES IDX 12 1 11 2 10 3 8 4 9 5 7 7 6 8 3 9 4 10 80 11 5 12 79 13
REMARK SMILES IDX 81 14 78 15 66 16 68 17 67 18 2 19 1 20 69 21 70 22 71 23
REMARK SMILES IDX 72 24 77 25 73 26 76 27 74 28 75 29 13 30 14 31 15 32 16 33
REMARK SMILES IDX 17 35 18 36 19 37 65 38 20 39 64 40 21 41 22 42 23 43 58 44
REMARK SMILES IDX 24 45 63 46 57 47 59 48 25 49 62 50 56 51 55 52 26 54 48 55
REMARK SMILES IDX 33 56 47 57 34 58 37 59 46 60 60 61 35 62 36 63 45 65 61 66
REMARK SMILES IDX 38 67 27 68 28 69 32 70 29 71 31 72 30 73 49 74 50 75 54 76
REMARK SMILES IDX 51 77 53 78 52 79 39 80 40 81 44 82 41 83 43 84 42 85
REMARK H PARENT 10 6 15 34 59 53 37 64
REMARK Flexibility Score: inf
ROOT
ATOM      1  C   UNL A   1      35.437  22.350  24.027  1.00  0.00     0.023 C 
ENDROOT
BRANCH   1   2
ATOM      2  C   UNL A   1      34.602  23.313  23.188  1.00  0.00     0.116 C 
BRANCH   2   3
ATOM      3  N   UNL A   1      33.199  23.261  23.543  1.00  0.00    -0.356 N 
ATOM      4  C   UNL A   1      32.257  24.244  23.430  1.00  0.00     0.224 C 
ATOM      5  O   UNL A   1      31.106  23.996  23.796  1.00  0.00    -0.275 OA
ATOM      6  H   UNL A   1      32.882  22.406  23.913  1.00  0.00     0.163 HD
BRANCH   4   7
ATOM      7  C   UNL A   1      32.622  25.587  22.812  1.00  0.00     0.138 C 
BRANCH   7   8
ATOM      8  C   UNL A   1      32.443  26.748  23.751  1.00  0.00    -0.009 A 
ATOM      9  C   UNL A   1      29.924  29.402  22.617  1.00  0.00     0.138 A 
ATOM     10  C   UNL A   1      30.651  28.207  22.541  1.00  0.00     0.058 A 
ATOM     11  C   UNL A   1      30.092  30.243  23.711  1.00  0.00     0.085 A 
ATOM     12  C   UNL A   1      31.561  27.852  23.566  1.00  0.00     0.008 A 
ATOM     13  C   UNL A   1      31.027  29.932  24.703  1.00  0.00     0.051 A 
ATOM     14  Cl  UNL A   1      29.127  31.652  23.975  1.00  0.00    -0.080 Cl
ATOM     15  C   UNL A   1      31.721  28.706  24.662  1.00  0.00     0.058 A 
ATOM     16  C   UNL A   1      33.146  26.978  24.929  1.00  0.00     0.028 A 
ATOM     17  N   UNL A   1      32.569  28.071  25.585  1.00  0.00    -0.280 N 
ATOM     18  C   UNL A   1      34.295  26.187  25.478  1.00  0.00     0.065 C 
BRANCH   9  19
ATOM     19  O   UNL A   1      29.021  29.624  21.609  1.00  0.00    -0.495 OA
ATOM     20  C   UNL A   1      27.683  29.320  22.000  1.00  0.00     0.278 C 
ENDBRANCH   9  19
BRANCH  17  21
ATOM     21  C   UNL A   1      32.787  28.444  26.947  1.00  0.00     0.262 C 
ATOM     22  O   UNL A   1      32.182  27.857  27.833  1.00  0.00    -0.268 OA
BRANCH  21  23
ATOM     23  C   UNL A   1      33.700  29.516  27.386  1.00  0.00     0.040 A 
ATOM     24  C   UNL A   1      33.236  30.825  27.558  1.00  0.00     0.015 A 
ATOM     25  C   UNL A   1      35.054  29.204  27.551  1.00  0.00     0.015 A 
ATOM     26  C   UNL A   1      34.156  31.846  27.809  1.00  0.00     0.021 A 
ATOM     27  C   UNL A   1      35.965  30.227  27.815  1.00  0.00     0.021 A 
ATOM     28  C   UNL A   1      35.516  31.545  27.922  1.00  0.00     0.041 A 
ATOM     29  Cl  UNL A   1      36.653  32.813  28.164  1.00  0.00    -0.084 Cl
ENDBRANCH  21  23
ENDBRANCH  17  21
ENDBRANCH   7   8
ENDBRANCH   4   7
ENDBRANCH   2   3
ENDBRANCH   1   2
BRANCH   1  30
ATOM     30  C   UNL A   1      36.784  22.921  24.484  1.00  0.00     0.023 C 
BRANCH  30  31
ATOM     31  C   UNL A   1      37.422  22.192  25.673  1.00  0.00     0.116 C 
BRANCH  31  32
ATOM     32  N   UNL A   1      38.851  21.987  25.539  1.00  0.00    -0.352 N 
ATOM     33  C   UNL A   1      39.954  22.521  26.149  1.00  0.00     0.251 C 
ATOM     34  H   UNL A   1      39.079  21.315  24.856  1.00  0.00     0.163 HD
ATOM     35  O   UNL A   1      41.033  21.973  25.907  1.00  0.00    -0.269 OA
BRANCH  33  36
ATOM     36  C   UNL A   1      39.948  23.731  27.015  1.00  0.00     0.039 A 
ATOM     37  C   UNL A   1      38.928  24.677  27.059  1.00  0.00     0.014 A 
ATOM     38  C   UNL A   1      41.111  23.969  27.775  1.00  0.00     0.014 A 
ATOM     39  C   UNL A   1      39.102  25.874  27.737  1.00  0.00     0.010 A 
ATOM     40  C   UNL A   1      41.283  25.158  28.482  1.00  0.00     0.010 A 
ATOM     41  C   UNL A   1      40.294  26.132  28.417  1.00  0.00    -0.014 A 
BRANCH  41  42
ATOM     42  C   UNL A   1      40.398  27.440  29.056  1.00  0.00     0.031 A 
ATOM     43  C   UNL A   1      41.371  28.387  28.443  1.00  0.00     0.074 A 
ATOM     44  C   UNL A   1      39.688  27.813  30.135  1.00  0.00     0.049 A 
ATOM     45  N   UNL A   1      42.438  28.887  28.977  1.00  0.00    -0.248 NA
ATOM     46  C   UNL A   1      41.169  28.757  27.036  1.00  0.00     0.031 C 
ATOM     47  C   UNL A   1      38.520  27.170  30.736  1.00  0.00     0.029 A 
ATOM     48  N   UNL A   1      39.843  28.942  30.882  1.00  0.00    -0.354 N 
ATOM     49  C   UNL A   1      42.994  29.731  28.020  1.00  0.00     0.074 A 
ATOM     50  C   UNL A   1      42.217  29.552  26.818  1.00  0.00     0.031 C 
ATOM     51  C   UNL A   1      37.935  28.034  31.597  1.00  0.00     0.029 A 
ATOM     52  C   UNL A   1      38.776  29.215  31.719  1.00  0.00     0.049 A 
ATOM     53  H   UNL A   1      40.644  29.513  30.832  1.00  0.00     0.167 HD
ATOM     54  C   UNL A   1      43.986  30.620  28.306  1.00  0.00     0.031 A 
ATOM     55  C   UNL A   1      38.571  30.365  32.401  1.00  0.00     0.031 A 
ATOM     56  C   UNL A   1      44.648  30.324  29.545  1.00  0.00     0.049 A 
ATOM     57  C   UNL A   1      39.873  31.054  32.544  1.00  0.00     0.074 A 
ATOM     58  C   UNL A   1      45.427  29.280  30.002  1.00  0.00     0.029 A 
ATOM     59  N   UNL A   1      44.286  31.039  30.659  1.00  0.00    -0.354 N 
ATOM     60  N   UNL A   1      40.847  30.618  33.289  1.00  0.00    -0.248 NA
ATOM     61  C   UNL A   1      40.244  32.056  31.558  1.00  0.00     0.031 C 
ATOM     62  C   UNL A   1      45.095  29.148  31.380  1.00  0.00     0.029 A 
ATOM     63  C   UNL A   1      44.161  30.140  31.687  1.00  0.00     0.049 A 
ATOM     64  H   UNL A   1      44.144  32.012  30.710  1.00  0.00     0.167 HD
ATOM     65  C   UNL A   1      42.001  30.956  32.600  1.00  0.00     0.074 A 
ATOM     66  C   UNL A   1      41.574  31.943  31.613  1.00  0.00     0.031 C 
ATOM     67  C   UNL A   1      43.138  30.206  32.709  1.00  0.00     0.031 A 
BRANCH  54  68
ATOM     68  C   UNL A   1      44.185  31.923  27.583  1.00  0.00    -0.014 A 
ATOM     69  C   UNL A   1      44.517  31.990  26.216  1.00  0.00     0.009 A 
ATOM     70  C   UNL A   1      43.793  33.125  28.200  1.00  0.00     0.009 A 
ATOM     71  C   UNL A   1      44.469  33.190  25.501  1.00  0.00     0.001 A 
ATOM     72  C   UNL A   1      43.705  34.321  27.476  1.00  0.00     0.001 A 
ATOM     73  C   UNL A   1      44.042  34.352  26.127  1.00  0.00     0.000 A 
ENDBRANCH  54  68
BRANCH  55  74
ATOM     74  C   UNL A   1      37.287  31.066  32.603  1.00  0.00    -0.014 A 
ATOM     75  C   UNL A   1      36.343  31.123  31.560  1.00  0.00     0.009 A 
ATOM     76  C   UNL A   1      37.109  31.925  33.698  1.00  0.00     0.009 A 
ATOM     77  C   UNL A   1      35.287  32.038  31.587  1.00  0.00     0.001 A 
ATOM     78  C   UNL A   1      36.053  32.845  33.722  1.00  0.00     0.001 A 
ATOM     79  C   UNL A   1      35.154  32.911  32.660  1.00  0.00     0.000 A 
ENDBRANCH  55  74
BRANCH  67  80
ATOM     80  C   UNL A   1      43.200  29.144  33.785  1.00  0.00    -0.014 A 
ATOM     81  C   UNL A   1      42.551  27.921  33.558  1.00  0.00     0.009 A 
ATOM     82  C   UNL A   1      43.720  29.390  35.068  1.00  0.00     0.009 A 
ATOM     83  C   UNL A   1      42.418  26.976  34.579  1.00  0.00     0.001 A 
ATOM     84  C   UNL A   1      43.612  28.433  36.083  1.00  0.00     0.001 A 
ATOM     85  C   UNL A   1      42.952  27.231  35.841  1.00  0.00     0.000 A 
ENDBRANCH  67  80
ENDBRANCH  41  42
ENDBRANCH  33  36
ENDBRANCH  31  32
ENDBRANCH  30  31
ENDBRANCH   1  30
TORSDOF 15
ENDMDL
MODEL 3
REMARK VINA RESULT:     -11.9      3.415      8.816
REMARK SMILES COc1cc2c(CC(=O)NCCCCNC(=O)c3ccc(-c4c5nc(c(-c6ccccc6)c6ccc([nH]6)c(-c6ccccc6)c6nc(c(-c7ccccc7)c7ccc4[nH]7)C=C6)C=C5)cc3)c(C)n(C(=O)c3ccc(Cl)cc3)c2cc1Cl
REMARK SMILES IDX 12 1 11 2 10 3 8 4 9 5 7 7 6 8 3 9 4 10 80 11 5 12 79 13
REMARK SMILES IDX 81 14 78 15 66 16 68 17 67 18 2 19 1 20 69 21 70 22 71 23
REMARK SMILES IDX 72 24 77 25 73 26 76 27 74 28 75 29 13 30 14 31 15 32 16 33
REMARK SMILES IDX 17 35 18 36 19 37 65 38 20 39 64 40 21 41 22 42 23 43 58 44
REMARK SMILES IDX 24 45 63 46 57 47 59 48 25 49 62 50 56 51 55 52 26 54 48 55
REMARK SMILES IDX 33 56 47 57 34 58 37 59 46 60 60 61 35 62 36 63 45 65 61 66
REMARK SMILES IDX 38 67 27 68 28 69 32 70 29 71 31 72 30 73 49 74 50 75 54 76
REMARK SMILES IDX 51 77 53 78 52 79 39 80 40 81 44 82 41 83 43 84 42 85
REMARK H PARENT 10 6 15 34 59 53 37 64
REMARK Flexibility Score: inf
ROOT
ATOM      1  C   UNL A   1      38.048  23.300  26.077  1.00  0.00     0.023 C 
ENDROOT
BRANCH   1   2
ATOM      2  C   UNL A   1      36.830  23.687  25.242  1.00  0.00     0.116 C 
BRANCH   2   3
ATOM      3  N   UNL A   1      35.597  23.542  25.986  1.00  0.00    -0.356 N 
ATOM      4  C   UNL A   1      34.396  24.157  25.769  1.00  0.00     0.224 C 
ATOM      5  O   UNL A   1      33.461  23.896  26.528  1.00  0.00    -0.275 OA
ATOM      6  H   UNL A   1      35.627  22.918  26.747  1.00  0.00     0.163 HD
BRANCH   4   7
ATOM      7  C   UNL A   1      34.219  25.092  24.581  1.00  0.00     0.138 C 
BRANCH   7   8
ATOM      8  C   UNL A   1      33.024  25.996  24.703  1.00  0.00    -0.009 A 
ATOM      9  C   UNL A   1      33.677  29.359  26.417  1.00  0.00     0.138 A 
ATOM     10  C   UNL A   1      34.001  28.101  25.893  1.00  0.00     0.058 A 
ATOM     11  C   UNL A   1      32.370  29.825  26.334  1.00  0.00     0.085 A 
ATOM     12  C   UNL A   1      33.007  27.297  25.284  1.00  0.00     0.008 A 
ATOM     13  C   UNL A   1      31.368  29.019  25.786  1.00  0.00     0.051 A 
ATOM     14  Cl  UNL A   1      31.906  31.421  26.804  1.00  0.00    -0.080 Cl
ATOM     15  C   UNL A   1      31.696  27.777  25.206  1.00  0.00     0.058 A 
ATOM     16  C   UNL A   1      31.718  25.701  24.325  1.00  0.00     0.028 A 
ATOM     17  N   UNL A   1      30.944  26.860  24.452  1.00  0.00    -0.280 N 
ATOM     18  C   UNL A   1      31.188  24.397  23.808  1.00  0.00     0.065 C 
BRANCH   9  19
ATOM     19  O   UNL A   1      34.721  30.088  26.927  1.00  0.00    -0.495 OA
ATOM     20  C   UNL A   1      35.349  29.438  28.032  1.00  0.00     0.278 C 
ENDBRANCH   9  19
BRANCH  17  21
ATOM     21  C   UNL A   1      29.647  27.070  23.891  1.00  0.00     0.262 C 
ATOM     22  O   UNL A   1      28.766  26.246  24.097  1.00  0.00    -0.268 OA
BRANCH  21  23
ATOM     23  C   UNL A   1      29.274  28.224  23.053  1.00  0.00     0.040 A 
ATOM     24  C   UNL A   1      30.241  28.912  22.311  1.00  0.00     0.015 A 
ATOM     25  C   UNL A   1      27.944  28.658  23.080  1.00  0.00     0.015 A 
ATOM     26  C   UNL A   1      29.886  30.099  21.664  1.00  0.00     0.021 A 
ATOM     27  C   UNL A   1      27.595  29.837  22.421  1.00  0.00     0.021 A 
ATOM     28  C   UNL A   1      28.570  30.562  21.734  1.00  0.00     0.041 A 
ATOM     29  Cl  UNL A   1      28.152  32.058  20.994  1.00  0.00    -0.084 Cl
ENDBRANCH  21  23
ENDBRANCH  17  21
ENDBRANCH   7   8
ENDBRANCH   4   7
ENDBRANCH   2   3
ENDBRANCH   1   2
BRANCH   1  30
ATOM     30  C   UNL A   1      38.602  21.905  25.770  1.00  0.00     0.023 C 
BRANCH  30  31
ATOM     31  C   UNL A   1      39.892  21.546  26.517  1.00  0.00     0.116 C 
BRANCH  31  32
ATOM     32  N   UNL A   1      41.101  21.999  25.855  1.00  0.00    -0.352 N 
ATOM     33  C   UNL A   1      41.884  23.117  25.958  1.00  0.00     0.251 C 
ATOM     34  H   UNL A   1      41.430  21.361  25.182  1.00  0.00     0.163 HD
ATOM     35  O   UNL A   1      42.959  23.090  25.354  1.00  0.00    -0.269 OA
BRANCH  33  36
ATOM     36  C   UNL A   1      41.504  24.362  26.679  1.00  0.00     0.039 A 
ATOM     37  C   UNL A   1      40.740  25.395  26.143  1.00  0.00     0.014 A 
ATOM     38  C   UNL A   1      42.041  24.532  27.971  1.00  0.00     0.014 A 
ATOM     39  C   UNL A   1      40.612  26.601  26.814  1.00  0.00     0.010 A 
ATOM     40  C   UNL A   1      41.895  25.733  28.664  1.00  0.00     0.010 A 
ATOM     41  C   UNL A   1      41.221  26.786  28.058  1.00  0.00    -0.014 A 
BRANCH  41  42
ATOM     42  C   UNL A   1      41.070  28.106  28.657  1.00  0.00     0.031 A 
ATOM     43  C   UNL A   1      42.121  29.103  28.308  1.00  0.00     0.074 A 
ATOM     44  C   UNL A   1      40.067  28.451  29.484  1.00  0.00     0.049 A 
ATOM     45  N   UNL A   1      42.967  29.678  29.101  1.00  0.00    -0.248 NA
ATOM     46  C   UNL A   1      42.298  29.438  26.889  1.00  0.00     0.031 C 
ATOM     47  C   UNL A   1      38.815  27.746  29.758  1.00  0.00     0.029 A 
ATOM     48  N   UNL A   1      39.945  29.599  30.208  1.00  0.00    -0.354 N 
ATOM     49  C   UNL A   1      43.719  30.540  28.308  1.00  0.00     0.074 A 
ATOM     50  C   UNL A   1      43.319  30.294  26.944  1.00  0.00     0.031 C 
ATOM     51  C   UNL A   1      37.967  28.585  30.394  1.00  0.00     0.029 A 
ATOM     52  C   UNL A   1      38.673  29.817  30.707  1.00  0.00     0.049 A 
ATOM     53  H   UNL A   1      40.694  30.219  30.363  1.00  0.00     0.167 HD
ATOM     54  C   UNL A   1      44.541  31.493  28.829  1.00  0.00     0.031 A 
ATOM     55  C   UNL A   1      38.222  30.963  31.267  1.00  0.00     0.031 A 
ATOM     56  C   UNL A   1      44.846  31.259  30.212  1.00  0.00     0.049 A 
ATOM     57  C   UNL A   1      39.392  31.735  31.743  1.00  0.00     0.074 A 
ATOM     58  C   UNL A   1      45.525  30.274  30.900  1.00  0.00     0.029 A 
ATOM     59  N   UNL A   1      44.149  31.967  31.158  1.00  0.00    -0.354 N 
ATOM     60  N   UNL A   1      40.141  31.372  32.743  1.00  0.00    -0.248 NA
ATOM     61  C   UNL A   1      39.966  32.743  30.867  1.00  0.00     0.031 C 
ATOM     62  C   UNL A   1      44.829  30.142  32.136  1.00  0.00     0.029 A 
ATOM     63  C   UNL A   1      43.793  31.079  32.139  1.00  0.00     0.049 A 
ATOM     64  H   UNL A   1      43.944  32.930  31.136  1.00  0.00     0.167 HD
ATOM     65  C   UNL A   1      41.421  31.772  32.391  1.00  0.00     0.074 A 
ATOM     66  C   UNL A   1      41.232  32.714  31.292  1.00  0.00     0.031 C 
ATOM     67  C   UNL A   1      42.523  31.097  32.835  1.00  0.00     0.031 A 
BRANCH  54  68
ATOM     68  C   UNL A   1      44.860  32.795  28.147  1.00  0.00    -0.014 A 
ATOM     69  C   UNL A   1      46.029  32.987  27.385  1.00  0.00     0.009 A 
ATOM     70  C   UNL A   1      43.867  33.785  28.044  1.00  0.00     0.009 A 
ATOM     71  C   UNL A   1      46.204  34.108  26.569  1.00  0.00     0.001 A 
ATOM     72  C   UNL A   1      44.022  34.888  27.195  1.00  0.00     0.001 A 
ATOM     73  C   UNL A   1      45.191  35.048  26.457  1.00  0.00     0.000 A 
ENDBRANCH  54  68
BRANCH  55  74
ATOM     74  C   UNL A   1      36.895  31.585  31.082  1.00  0.00    -0.014 A 
ATOM     75  C   UNL A   1      36.589  32.249  29.879  1.00  0.00     0.009 A 
ATOM     76  C   UNL A   1      36.044  31.788  32.179  1.00  0.00     0.009 A 
ATOM     77  C   UNL A   1      35.500  33.121  29.788  1.00  0.00     0.001 A 
ATOM     78  C   UNL A   1      34.957  32.667  32.089  1.00  0.00     0.001 A 
ATOM     79  C   UNL A   1      34.696  33.343  30.900  1.00  0.00     0.000 A 
ENDBRANCH  55  74
BRANCH  67  80
ATOM     80  C   UNL A   1      42.341  30.057  33.920  1.00  0.00    -0.014 A 
ATOM     81  C   UNL A   1      42.504  30.448  35.258  1.00  0.00     0.009 A 
ATOM     82  C   UNL A   1      42.197  28.686  33.643  1.00  0.00     0.009 A 
ATOM     83  C   UNL A   1      42.530  29.502  36.286  1.00  0.00     0.001 A 
ATOM     84  C   UNL A   1      42.193  27.741  34.675  1.00  0.00     0.001 A 
ATOM     85  C   UNL A   1      42.371  28.149  35.994  1.00  0.00     0.000 A 
ENDBRANCH  67  80
ENDBRANCH  41  42
ENDBRANCH  33  36
ENDBRANCH  31  32
ENDBRANCH  30  31
ENDBRANCH   1  30
TORSDOF 15
ENDMDL
