MODEL 1
REMARK VINA RESULT:     -10.9      0.000      0.000
REMARK SMILES Cc1nc(CCC(F)(F)F)[nH]c(=O)c1CCC(=O)NCCCCNC(=O)c1ccc(-c2c3nc(c(-c4ccccc4)c4ccc([nH]4)c(-c4ccccc4)c4nc(c(-c5ccccc5)c5ccc2[nH]5)C=C4)C=C3)cc1
REMARK SMILES IDX 20 1 19 2 17 3 18 4 16 6 15 7 14 8 1 9 2 10 3 11 4 12 12 13
REMARK SMILES IDX 11 14 13 15 5 17 6 18 7 19 8 20 9 21 10 22 21 23 22 24 23 25
REMARK SMILES IDX 24 26 25 27 26 29 27 30 28 31 74 32 29 33 73 34 30 35 31 36
REMARK SMILES IDX 32 37 67 38 33 39 72 40 66 41 68 42 34 43 71 44 65 45 64 46
REMARK SMILES IDX 35 48 57 49 42 50 56 51 43 52 46 53 55 54 69 55 44 56 45 57
REMARK SMILES IDX 54 59 70 60 47 61 36 62 37 63 41 64 38 65 40 66 39 67 58 68
REMARK SMILES IDX 59 69 63 70 60 71 62 72 61 73 48 74 49 75 53 76 50 77 52 78
REMARK SMILES IDX 51 79
REMARK H PARENT 19 5 11 16 24 28 68 47 46 58
REMARK Flexibility Score: inf
ROOT
ATOM      1  C   UNL A   1      36.665  23.002  25.132  1.00  0.00     0.116 C 
ENDROOT
BRANCH   1   2
ATOM      2  N   UNL A   1      35.759  23.946  24.503  1.00  0.00    -0.356 N 
ATOM      3  C   UNL A   1      34.573  24.476  24.900  1.00  0.00     0.220 C 
ATOM      4  O   UNL A   1      34.005  25.261  24.137  1.00  0.00    -0.275 OA
ATOM      5  H   UNL A   1      36.061  24.262  23.621  1.00  0.00     0.163 HD
BRANCH   3   6
ATOM      6  C   UNL A   1      33.973  24.153  26.251  1.00  0.00     0.105 C 
BRANCH   6   7
ATOM      7  C   UNL A   1      32.624  23.424  26.136  1.00  0.00     0.053 C 
BRANCH   7   8
ATOM      8  C   UNL A   1      32.817  22.027  25.608  1.00  0.00     0.039 A 
ATOM      9  C   UNL A   1      31.985  22.460  23.298  1.00  0.00     0.067 C 
ATOM     10  C   UNL A   1      32.467  21.551  24.397  1.00  0.00     0.048 A 
ATOM     11  N   UNL A   1      32.417  20.206  24.090  1.00  0.00    -0.240 NA
ATOM     12  C   UNL A   1      32.769  19.359  25.003  1.00  0.00     0.109 A 
ATOM     13  C   UNL A   1      33.446  21.061  26.524  1.00  0.00     0.254 A 
ATOM     14  N   UNL A   1      33.290  19.753  26.193  1.00  0.00    -0.310 N 
ATOM     15  O   UNL A   1      34.040  21.404  27.540  1.00  0.00    -0.269 OA
ATOM     16  H   UNL A   1      33.565  19.064  26.839  1.00  0.00     0.171 HD
BRANCH  12  17
ATOM     17  C   UNL A   1      32.480  17.881  24.810  1.00  0.00     0.084 C 
BRANCH  17  18
ATOM     18  C   UNL A   1      33.432  16.864  25.431  1.00  0.00     0.123 C 
BRANCH  18  19
ATOM     19  C   UNL A   1      34.644  16.522  24.593  1.00  0.00     0.389 C 
ATOM     20  F   UNL A   1      35.362  15.510  25.113  1.00  0.00    -0.171 F 
ATOM     21  F   UNL A   1      34.286  16.172  23.341  1.00  0.00    -0.171 F 
ATOM     22  F   UNL A   1      35.478  17.581  24.491  1.00  0.00    -0.171 F 
ENDBRANCH  18  19
ENDBRANCH  17  18
ENDBRANCH  12  17
ENDBRANCH   7   8
ENDBRANCH   6   7
ENDBRANCH   3   6
ENDBRANCH   1   2
BRANCH   1  23
ATOM     23  C   UNL A   1      36.814  21.733  24.287  1.00  0.00     0.023 C 
BRANCH  23  24
ATOM     24  C   UNL A   1      37.487  20.546  24.962  1.00  0.00     0.023 C 
BRANCH  24  25
ATOM     25  C   UNL A   1      38.783  20.833  25.702  1.00  0.00     0.116 C 
BRANCH  25  26
ATOM     26  N   UNL A   1      39.768  19.757  25.679  1.00  0.00    -0.352 N 
ATOM     27  C   UNL A   1      41.091  19.742  26.076  1.00  0.00     0.251 C 
ATOM     28  H   UNL A   1      39.436  18.902  25.322  1.00  0.00     0.163 HD
ATOM     29  O   UNL A   1      41.755  18.712  25.977  1.00  0.00    -0.269 OA
BRANCH  27  30
ATOM     30  C   UNL A   1      41.732  20.981  26.567  1.00  0.00     0.039 A 
ATOM     31  C   UNL A   1      42.285  21.885  25.655  1.00  0.00     0.014 A 
ATOM     32  C   UNL A   1      41.723  21.286  27.923  1.00  0.00     0.014 A 
ATOM     33  C   UNL A   1      42.695  23.148  26.094  1.00  0.00     0.010 A 
ATOM     34  C   UNL A   1      41.984  22.587  28.330  1.00  0.00     0.010 A 
ATOM     35  C   UNL A   1      42.471  23.542  27.423  1.00  0.00    -0.014 A 
BRANCH  35  36
ATOM     36  C   UNL A   1      42.724  24.925  27.919  1.00  0.00     0.031 A 
ATOM     37  C   UNL A   1      44.108  25.301  28.388  1.00  0.00     0.074 A 
ATOM     38  C   UNL A   1      41.708  25.795  28.089  1.00  0.00     0.049 A 
ATOM     39  N   UNL A   1      44.493  26.327  29.104  1.00  0.00    -0.248 NA
ATOM     40  C   UNL A   1      45.193  24.357  28.065  1.00  0.00     0.031 C 
ATOM     41  C   UNL A   1      40.305  25.560  27.736  1.00  0.00     0.029 A 
ATOM     42  N   UNL A   1      41.700  27.058  28.630  1.00  0.00    -0.354 N 
ATOM     43  C   UNL A   1      45.838  26.107  29.379  1.00  0.00     0.074 A 
ATOM     44  C   UNL A   1      46.189  24.833  28.795  1.00  0.00     0.031 C 
ATOM     45  C   UNL A   1      39.583  26.651  28.036  1.00  0.00     0.029 A 
ATOM     46  C   UNL A   1      40.455  27.641  28.657  1.00  0.00     0.049 A 
ATOM     47  H   UNL A   1      42.510  27.505  28.967  1.00  0.00     0.167 HD
ATOM     48  C   UNL A   1      46.713  26.904  30.039  1.00  0.00     0.031 A 
ATOM     49  C   UNL A   1      40.056  28.833  29.140  1.00  0.00     0.031 A 
ATOM     50  C   UNL A   1      46.391  28.210  30.543  1.00  0.00     0.049 A 
ATOM     51  C   UNL A   1      41.063  29.738  29.794  1.00  0.00     0.074 A 
ATOM     52  C   UNL A   1      47.227  29.132  31.147  1.00  0.00     0.029 A 
ATOM     53  N   UNL A   1      45.136  28.792  30.468  1.00  0.00    -0.354 N 
ATOM     54  N   UNL A   1      42.336  29.527  30.022  1.00  0.00    -0.248 NA
ATOM     55  C   UNL A   1      40.577  31.048  30.251  1.00  0.00     0.031 C 
ATOM     56  C   UNL A   1      46.472  30.268  31.454  1.00  0.00     0.029 A 
ATOM     57  C   UNL A   1      45.176  30.065  31.008  1.00  0.00     0.049 A 
ATOM     58  H   UNL A   1      44.335  28.364  30.089  1.00  0.00     0.167 HD
ATOM     59  C   UNL A   1      42.808  30.685  30.625  1.00  0.00     0.074 A 
ATOM     60  C   UNL A   1      41.690  31.601  30.713  1.00  0.00     0.031 C 
ATOM     61  C   UNL A   1      44.057  30.966  31.070  1.00  0.00     0.031 A 
BRANCH  48  62
ATOM     62  C   UNL A   1      48.110  26.382  30.234  1.00  0.00    -0.014 A 
ATOM     63  C   UNL A   1      49.094  26.550  29.247  1.00  0.00     0.009 A 
ATOM     64  C   UNL A   1      48.450  25.726  31.426  1.00  0.00     0.009 A 
ATOM     65  C   UNL A   1      50.376  26.029  29.429  1.00  0.00     0.001 A 
ATOM     66  C   UNL A   1      49.742  25.234  31.620  1.00  0.00     0.001 A 
ATOM     67  C   UNL A   1      50.700  25.375  30.616  1.00  0.00     0.000 A 
ENDBRANCH  48  62
BRANCH  49  68
ATOM     68  C   UNL A   1      38.638  29.260  29.009  1.00  0.00    -0.014 A 
ATOM     69  C   UNL A   1      37.761  29.136  30.098  1.00  0.00     0.009 A 
ATOM     70  C   UNL A   1      38.150  29.778  27.801  1.00  0.00     0.009 A 
ATOM     71  C   UNL A   1      36.416  29.491  29.970  1.00  0.00     0.001 A 
ATOM     72  C   UNL A   1      36.810  30.158  27.684  1.00  0.00     0.001 A 
ATOM     73  C   UNL A   1      35.943  30.004  28.764  1.00  0.00     0.000 A 
ENDBRANCH  49  68
BRANCH  61  74
ATOM     74  C   UNL A   1      44.291  32.332  31.646  1.00  0.00    -0.014 A 
ATOM     75  C   UNL A   1      44.597  33.425  30.821  1.00  0.00     0.009 A 
ATOM     76  C   UNL A   1      44.152  32.533  33.028  1.00  0.00     0.009 A 
ATOM     77  C   UNL A   1      44.786  34.692  31.377  1.00  0.00     0.001 A 
ATOM     78  C   UNL A   1      44.319  33.804  33.576  1.00  0.00     0.001 A 
ATOM     79  C   UNL A   1      44.642  34.881  32.751  1.00  0.00     0.000 A 
ENDBRANCH  61  74
ENDBRANCH  35  36
ENDBRANCH  27  30
ENDBRANCH  25  26
ENDBRANCH  24  25
ENDBRANCH  23  24
ENDBRANCH   1  23
TORSDOF 16
ENDMDL
MODEL 2
REMARK VINA RESULT:     -10.8      0.792      6.048
REMARK SMILES Cc1nc(CCC(F)(F)F)[nH]c(=O)c1CCC(=O)NCCCCNC(=O)c1ccc(-c2c3nc(c(-c4ccccc4)c4ccc([nH]4)c(-c4ccccc4)c4nc(c(-c5ccccc5)c5ccc2[nH]5)C=C4)C=C3)cc1
REMARK SMILES IDX 20 1 19 2 17 3 18 4 16 6 15 7 14 8 1 9 2 10 3 11 4 12 12 13
REMARK SMILES IDX 11 14 13 15 5 17 6 18 7 19 8 20 9 21 10 22 21 23 22 24 23 25
REMARK SMILES IDX 24 26 25 27 26 29 27 30 28 31 74 32 29 33 73 34 30 35 31 36
REMARK SMILES IDX 32 37 67 38 33 39 72 40 66 41 68 42 34 43 71 44 65 45 64 46
REMARK SMILES IDX 35 48 57 49 42 50 56 51 43 52 46 53 55 54 69 55 44 56 45 57
REMARK SMILES IDX 54 59 70 60 47 61 36 62 37 63 41 64 38 65 40 66 39 67 58 68
REMARK SMILES IDX 59 69 63 70 60 71 62 72 61 73 48 74 49 75 53 76 50 77 52 78
REMARK SMILES IDX 51 79
REMARK H PARENT 19 5 11 16 24 28 68 47 46 58
REMARK Flexibility Score: inf
ROOT
ATOM      1  C   UNL A   1      36.126  23.622  25.029  1.00  0.00     0.116 C 
ENDROOT
BRANCH   1   2
ATOM      2  N   UNL A   1      35.161  24.416  24.289  1.00  0.00    -0.356 N 
ATOM      3  C   UNL A   1      33.949  24.928  24.628  1.00  0.00     0.220 C 
ATOM      4  O   UNL A   1      33.330  25.565  23.772  1.00  0.00    -0.275 OA
ATOM      5  H   UNL A   1      35.437  24.623  23.368  1.00  0.00     0.163 HD
BRANCH   3   6
ATOM      6  C   UNL A   1      33.379  24.762  26.019  1.00  0.00     0.105 C 
BRANCH   6   7
ATOM      7  C   UNL A   1      32.156  23.829  26.047  1.00  0.00     0.053 C 
BRANCH   7   8
ATOM      8  C   UNL A   1      32.562  22.411  25.748  1.00  0.00     0.039 A 
ATOM      9  C   UNL A   1      31.787  22.368  23.379  1.00  0.00     0.067 C 
ATOM     10  C   UNL A   1      32.336  21.713  24.618  1.00  0.00     0.048 A 
ATOM     11  N   UNL A   1      32.484  20.344  24.523  1.00  0.00    -0.240 NA
ATOM     12  C   UNL A   1      32.905  19.702  25.565  1.00  0.00     0.109 A 
ATOM     13  C   UNL A   1      33.273  21.692  26.819  1.00  0.00     0.254 A 
ATOM     14  N   UNL A   1      33.312  20.340  26.692  1.00  0.00    -0.310 N 
ATOM     15  O   UNL A   1      33.767  22.265  27.783  1.00  0.00    -0.269 OA
ATOM     16  H   UNL A   1      33.648  19.803  27.444  1.00  0.00     0.171 HD
BRANCH  12  17
ATOM     17  C   UNL A   1      32.829  18.186  25.597  1.00  0.00     0.084 C 
BRANCH  17  18
ATOM     18  C   UNL A   1      32.904  17.424  24.278  1.00  0.00     0.123 C 
BRANCH  18  19
ATOM     19  C   UNL A   1      34.299  17.048  23.830  1.00  0.00     0.389 C 
ATOM     20  F   UNL A   1      34.404  16.953  22.492  1.00  0.00    -0.171 F 
ATOM     21  F   UNL A   1      35.205  17.953  24.252  1.00  0.00    -0.171 F 
ATOM     22  F   UNL A   1      34.664  15.848  24.337  1.00  0.00    -0.171 F 
ENDBRANCH  18  19
ENDBRANCH  17  18
ENDBRANCH  12  17
ENDBRANCH   7   8
ENDBRANCH   6   7
ENDBRANCH   3   6
ENDBRANCH   1   2
BRANCH   1  23
ATOM     23  C   UNL A   1      36.511  22.359  24.252  1.00  0.00     0.023 C 
BRANCH  23  24
ATOM     24  C   UNL A   1      37.018  21.185  25.079  1.00  0.00     0.023 C 
BRANCH  24  25
ATOM     25  C   UNL A   1      38.416  21.321  25.662  1.00  0.00     0.116 C 
BRANCH  25  26
ATOM     26  N   UNL A   1      39.256  20.133  25.556  1.00  0.00    -0.352 N 
ATOM     27  C   UNL A   1      40.570  19.926  25.928  1.00  0.00     0.251 C 
ATOM     28  H   UNL A   1      38.815  19.351  25.153  1.00  0.00     0.163 HD
ATOM     29  O   UNL A   1      41.096  18.830  25.755  1.00  0.00    -0.269 OA
BRANCH  27  30
ATOM     30  C   UNL A   1      41.367  21.041  26.484  1.00  0.00     0.039 A 
ATOM     31  C   UNL A   1      41.902  22.008  25.627  1.00  0.00     0.014 A 
ATOM     32  C   UNL A   1      41.526  21.173  27.859  1.00  0.00     0.014 A 
ATOM     33  C   UNL A   1      42.467  23.170  26.160  1.00  0.00     0.010 A 
ATOM     34  C   UNL A   1      41.944  22.389  28.382  1.00  0.00     0.010 A 
ATOM     35  C   UNL A   1      42.418  23.410  27.543  1.00  0.00    -0.014 A 
BRANCH  35  36
ATOM     36  C   UNL A   1      42.845  24.696  28.164  1.00  0.00     0.031 A 
ATOM     37  C   UNL A   1      41.812  25.754  28.462  1.00  0.00     0.074 A 
ATOM     38  C   UNL A   1      44.153  24.982  28.330  1.00  0.00     0.049 A 
ATOM     39  N   UNL A   1      41.976  27.024  28.732  1.00  0.00    -0.248 NA
ATOM     40  C   UNL A   1      40.400  25.340  28.375  1.00  0.00     0.031 C 
ATOM     41  C   UNL A   1      45.275  24.085  28.037  1.00  0.00     0.029 A 
ATOM     42  N   UNL A   1      44.763  26.132  28.769  1.00  0.00    -0.354 N 
ATOM     43  C   UNL A   1      40.698  27.567  28.767  1.00  0.00     0.074 A 
ATOM     44  C   UNL A   1      39.774  26.503  28.446  1.00  0.00     0.031 C 
ATOM     45  C   UNL A   1      46.428  24.704  28.337  1.00  0.00     0.029 A 
ATOM     46  C   UNL A   1      46.136  26.060  28.786  1.00  0.00     0.049 A 
ATOM     47  H   UNL A   1      44.263  26.934  29.047  1.00  0.00     0.167 HD
ATOM     48  C   UNL A   1      40.319  28.834  29.063  1.00  0.00     0.031 A 
ATOM     49  C   UNL A   1      47.058  26.985  29.111  1.00  0.00     0.031 A 
ATOM     50  C   UNL A   1      41.224  29.871  29.470  1.00  0.00     0.049 A 
ATOM     51  C   UNL A   1      46.610  28.361  29.519  1.00  0.00     0.074 A 
ATOM     52  C   UNL A   1      40.933  31.162  29.877  1.00  0.00     0.029 A 
ATOM     53  N   UNL A   1      42.600  29.723  29.555  1.00  0.00    -0.354 N 
ATOM     54  N   UNL A   1      45.395  28.851  29.573  1.00  0.00    -0.248 NA
ATOM     55  C   UNL A   1      47.661  29.310  29.916  1.00  0.00     0.031 C 
ATOM     56  C   UNL A   1      42.136  31.801  30.192  1.00  0.00     0.029 A 
ATOM     57  C   UNL A   1      43.170  30.896  30.015  1.00  0.00     0.049 A 
ATOM     58  H   UNL A   1      43.096  28.906  29.322  1.00  0.00     0.167 HD
ATOM     59  C   UNL A   1      45.534  30.153  30.034  1.00  0.00     0.074 A 
ATOM     60  C   UNL A   1      46.948  30.373  30.259  1.00  0.00     0.031 C 
ATOM     61  C   UNL A   1      44.576  31.088  30.249  1.00  0.00     0.031 A 
BRANCH  48  62
ATOM     62  C   UNL A   1      38.852  29.155  28.973  1.00  0.00    -0.014 A 
ATOM     63  C   UNL A   1      38.015  29.060  30.096  1.00  0.00     0.009 A 
ATOM     64  C   UNL A   1      38.302  29.571  27.751  1.00  0.00     0.009 A 
ATOM     65  C   UNL A   1      36.649  29.327  29.986  1.00  0.00     0.001 A 
ATOM     66  C   UNL A   1      36.942  29.870  27.652  1.00  0.00     0.001 A 
ATOM     67  C   UNL A   1      36.115  29.736  28.766  1.00  0.00     0.000 A 
ENDBRANCH  48  62
BRANCH  49  68
ATOM     68  C   UNL A   1      48.504  26.644  29.090  1.00  0.00    -0.014 A 
ATOM     69  C   UNL A   1      49.272  26.899  27.942  1.00  0.00     0.009 A 
ATOM     70  C   UNL A   1      49.123  26.052  30.200  1.00  0.00     0.009 A 
ATOM     71  C   UNL A   1      50.621  26.540  27.895  1.00  0.00     0.001 A 
ATOM     72  C   UNL A   1      50.479  25.717  30.161  1.00  0.00     0.001 A 
ATOM     73  C   UNL A   1      51.224  25.952  29.006  1.00  0.00     0.000 A 
ENDBRANCH  49  68
BRANCH  61  74
ATOM     74  C   UNL A   1      45.020  32.412  30.798  1.00  0.00    -0.014 A 
ATOM     75  C   UNL A   1      45.099  32.635  32.180  1.00  0.00     0.009 A 
ATOM     76  C   UNL A   1      45.409  33.431  29.915  1.00  0.00     0.009 A 
ATOM     77  C   UNL A   1      45.537  33.868  32.668  1.00  0.00     0.001 A 
ATOM     78  C   UNL A   1      45.869  34.653  30.407  1.00  0.00     0.001 A 
ATOM     79  C   UNL A   1      45.925  34.872  31.783  1.00  0.00     0.000 A 
ENDBRANCH  61  74
ENDBRANCH  35  36
ENDBRANCH  27  30
ENDBRANCH  25  26
ENDBRANCH  24  25
ENDBRANCH  23  24
ENDBRANCH   1  23
TORSDOF 16
ENDMDL
MODEL 3
REMARK VINA RESULT:     -10.7      4.783      6.485
REMARK SMILES Cc1nc(CCC(F)(F)F)[nH]c(=O)c1CCC(=O)NCCCCNC(=O)c1ccc(-c2c3nc(c(-c4ccccc4)c4ccc([nH]4)c(-c4ccccc4)c4nc(c(-c5ccccc5)c5ccc2[nH]5)C=C4)C=C3)cc1
REMARK SMILES IDX 20 1 19 2 17 3 18 4 16 6 15 7 14 8 1 9 2 10 3 11 4 12 12 13
REMARK SMILES IDX 11 14 13 15 5 17 6 18 7 19 8 20 9 21 10 22 21 23 22 24 23 25
REMARK SMILES IDX 24 26 25 27 26 29 27 30 28 31 74 32 29 33 73 34 30 35 31 36
REMARK SMILES IDX 32 37 67 38 33 39 72 40 66 41 68 42 34 43 71 44 65 45 64 46
REMARK SMILES IDX 35 48 57 49 42 50 56 51 43 52 46 53 55 54 69 55 44 56 45 57
REMARK SMILES IDX 54 59 70 60 47 61 36 62 37 63 41 64 38 65 40 66 39 67 58 68
REMARK SMILES IDX 59 69 63 70 60 71 62 72 61 73 48 74 49 75 53 76 50 77 52 78
REMARK SMILES IDX 51 79
REMARK H PARENT 19 5 11 16 24 28 68 47 46 58
REMARK Flexibility Score: inf
ROOT
ATOM      1  C   UNL A   1      34.847  22.951  23.302  1.00  0.00     0.116 C 
ENDROOT
BRANCH   1   2
ATOM      2  N   UNL A   1      34.258  23.430  24.539  1.00  0.00    -0.356 N 
ATOM      3  C   UNL A   1      33.879  24.667  24.951  1.00  0.00     0.220 C 
ATOM      4  O   UNL A   1      33.410  24.781  26.086  1.00  0.00    -0.275 OA
ATOM      5  H   UNL A   1      34.104  22.723  25.207  1.00  0.00     0.163 HD
BRANCH   3   6
ATOM      6  C   UNL A   1      33.987  25.873  24.043  1.00  0.00     0.105 C 
BRANCH   6   7
ATOM      7  C   UNL A   1      33.962  27.199  24.821  1.00  0.00     0.053 C 
BRANCH   7   8
ATOM      8  C   UNL A   1      32.873  28.100  24.304  1.00  0.00     0.039 A 
ATOM      9  C   UNL A   1      31.409  27.993  26.319  1.00  0.00     0.067 C 
ATOM     10  C   UNL A   1      31.701  28.399  24.899  1.00  0.00     0.048 A 
ATOM     11  N   UNL A   1      30.643  28.998  24.246  1.00  0.00    -0.240 NA
ATOM     12  C   UNL A   1      30.802  29.331  23.006  1.00  0.00     0.109 A 
ATOM     13  C   UNL A   1      33.102  28.717  22.985  1.00  0.00     0.254 A 
ATOM     14  N   UNL A   1      31.997  29.218  22.374  1.00  0.00    -0.310 N 
ATOM     15  O   UNL A   1      34.205  28.745  22.453  1.00  0.00    -0.269 OA
ATOM     16  H   UNL A   1      32.067  29.512  21.437  1.00  0.00     0.171 HD
BRANCH  12  17
ATOM     17  C   UNL A   1      29.598  29.741  22.177  1.00  0.00     0.084 C 
BRANCH  17  18
ATOM     18  C   UNL A   1      28.279  30.017  22.892  1.00  0.00     0.123 C 
BRANCH  18  19
ATOM     19  C   UNL A   1      28.092  31.439  23.372  1.00  0.00     0.389 C 
ATOM     20  F   UNL A   1      29.046  31.821  24.240  1.00  0.00    -0.171 F 
ATOM     21  F   UNL A   1      28.104  32.306  22.339  1.00  0.00    -0.171 F 
ATOM     22  F   UNL A   1      26.906  31.585  24.005  1.00  0.00    -0.171 F 
ENDBRANCH  18  19
ENDBRANCH  17  18
ENDBRANCH  12  17
ENDBRANCH   7   8
ENDBRANCH   6   7
ENDBRANCH   3   6
ENDBRANCH   1   2
BRANCH   1  23
ATOM     23  C   UNL A   1      36.320  22.577  23.501  1.00  0.00     0.023 C 
BRANCH  23  24
ATOM     24  C   UNL A   1      37.079  23.360  24.563  1.00  0.00     0.023 C 
BRANCH  24  25
ATOM     25  C   UNL A   1      37.585  22.567  25.757  1.00  0.00     0.116 C 
BRANCH  25  26
ATOM     26  N   UNL A   1      39.001  22.218  25.721  1.00  0.00    -0.352 N 
ATOM     27  C   UNL A   1      40.106  22.896  26.198  1.00  0.00     0.251 C 
ATOM     28  H   UNL A   1      39.203  21.359  25.285  1.00  0.00     0.163 HD
ATOM     29  O   UNL A   1      41.230  22.415  26.071  1.00  0.00    -0.269 OA
BRANCH  27  30
ATOM     30  C   UNL A   1      39.947  24.231  26.815  1.00  0.00     0.039 A 
ATOM     31  C   UNL A   1      39.272  24.357  28.033  1.00  0.00     0.014 A 
ATOM     32  C   UNL A   1      40.525  25.349  26.226  1.00  0.00     0.014 A 
ATOM     33  C   UNL A   1      39.306  25.574  28.721  1.00  0.00     0.010 A 
ATOM     34  C   UNL A   1      40.689  26.505  26.978  1.00  0.00     0.010 A 
ATOM     35  C   UNL A   1      40.087  26.636  28.239  1.00  0.00    -0.014 A 
BRANCH  35  36
ATOM     36  C   UNL A   1      40.307  27.899  29.000  1.00  0.00     0.031 A 
ATOM     37  C   UNL A   1      41.508  28.018  29.905  1.00  0.00     0.074 A 
ATOM     38  C   UNL A   1      39.376  28.875  29.003  1.00  0.00     0.049 A 
ATOM     39  N   UNL A   1      41.751  28.885  30.855  1.00  0.00    -0.248 NA
ATOM     40  C   UNL A   1      42.544  26.979  29.766  1.00  0.00     0.031 C 
ATOM     41  C   UNL A   1      38.134  28.883  28.225  1.00  0.00     0.029 A 
ATOM     42  N   UNL A   1      39.323  30.052  29.712  1.00  0.00    -0.354 N 
ATOM     43  C   UNL A   1      42.918  28.449  31.471  1.00  0.00     0.074 A 
ATOM     44  C   UNL A   1      43.308  27.219  30.820  1.00  0.00     0.031 C 
ATOM     45  C   UNL A   1      37.463  30.020  28.471  1.00  0.00     0.029 A 
ATOM     46  C   UNL A   1      38.193  30.795  29.467  1.00  0.00     0.049 A 
ATOM     47  H   UNL A   1      40.029  30.336  30.336  1.00  0.00     0.167 HD
ATOM     48  C   UNL A   1      43.619  29.028  32.475  1.00  0.00     0.031 A 
ATOM     49  C   UNL A   1      37.781  31.963  29.996  1.00  0.00     0.031 A 
ATOM     50  C   UNL A   1      43.285  30.295  33.063  1.00  0.00     0.049 A 
ATOM     51  C   UNL A   1      38.620  32.632  31.049  1.00  0.00     0.074 A 
ATOM     52  C   UNL A   1      43.979  31.011  34.023  1.00  0.00     0.029 A 
ATOM     53  N   UNL A   1      42.176  31.052  32.721  1.00  0.00    -0.354 N 
ATOM     54  N   UNL A   1      39.734  32.219  31.602  1.00  0.00    -0.248 NA
ATOM     55  C   UNL A   1      38.145  33.931  31.547  1.00  0.00     0.031 C 
ATOM     56  C   UNL A   1      43.280  32.195  34.273  1.00  0.00     0.029 A 
ATOM     57  C   UNL A   1      42.171  32.230  33.443  1.00  0.00     0.049 A 
ATOM     58  H   UNL A   1      41.494  30.789  32.061  1.00  0.00     0.167 HD
ATOM     59  C   UNL A   1      40.106  33.218  32.491  1.00  0.00     0.074 A 
ATOM     60  C   UNL A   1      39.109  34.263  32.394  1.00  0.00     0.031 C 
ATOM     61  C   UNL A   1      41.179  33.265  33.319  1.00  0.00     0.031 A 
BRANCH  48  62
ATOM     62  C   UNL A   1      44.832  28.297  32.982  1.00  0.00    -0.014 A 
ATOM     63  C   UNL A   1      44.739  27.382  34.043  1.00  0.00     0.009 A 
ATOM     64  C   UNL A   1      46.081  28.517  32.384  1.00  0.00     0.009 A 
ATOM     65  C   UNL A   1      45.880  26.739  34.525  1.00  0.00     0.001 A 
ATOM     66  C   UNL A   1      47.215  27.847  32.846  1.00  0.00     0.001 A 
ATOM     67  C   UNL A   1      47.116  26.969  33.925  1.00  0.00     0.000 A 
ENDBRANCH  48  62
BRANCH  49  68
ATOM     68  C   UNL A   1      36.520  32.596  29.527  1.00  0.00    -0.014 A 
ATOM     69  C   UNL A   1      36.534  33.456  28.418  1.00  0.00     0.009 A 
ATOM     70  C   UNL A   1      35.305  32.360  30.187  1.00  0.00     0.009 A 
ATOM     71  C   UNL A   1      35.364  34.092  27.998  1.00  0.00     0.001 A 
ATOM     72  C   UNL A   1      34.130  32.977  29.748  1.00  0.00     0.001 A 
ATOM     73  C   UNL A   1      34.162  33.849  28.661  1.00  0.00     0.000 A 
ENDBRANCH  49  68
BRANCH  61  74
ATOM     74  C   UNL A   1      41.354  34.504  34.147  1.00  0.00    -0.014 A 
ATOM     75  C   UNL A   1      42.149  35.570  33.700  1.00  0.00     0.009 A 
ATOM     76  C   UNL A   1      40.671  34.623  35.367  1.00  0.00     0.009 A 
ATOM     77  C   UNL A   1      42.278  36.723  34.476  1.00  0.00     0.001 A 
ATOM     78  C   UNL A   1      40.784  35.786  36.128  1.00  0.00     0.001 A 
ATOM     79  C   UNL A   1      41.592  36.832  35.685  1.00  0.00     0.000 A 
ENDBRANCH  61  74
ENDBRANCH  35  36
ENDBRANCH  27  30
ENDBRANCH  25  26
ENDBRANCH  24  25
ENDBRANCH  23  24
ENDBRANCH   1  23
TORSDOF 16
ENDMDL
