MODEL 1
REMARK VINA RESULT:     -12.3      0.000      0.000
REMARK SMILES CN(C)S(=O)(=O)c1ccc(-n2c(CCC(=O)NCCCCNC(=O)c3ccc(-c4c5nc(c(-c6ccccc6)c6ccc([nH]6)c(-c6ccccc6)c6nc(c(-c7ccccc7)c7ccc4[nH]7)C=C6)C=C5)cc3)ccc2-c2ccc(F)cc2)cc1
REMARK SMILES IDX 18 1 17 2 15 3 16 4 14 6 13 7 12 8 11 9 75 10 73 11 74 12
REMARK SMILES IDX 10 13 7 14 8 15 84 16 9 17 83 18 4 19 5 20 6 21 2 22 1 23
REMARK SMILES IDX 3 24 76 25 77 26 82 27 78 28 81 29 79 30 80 31 19 32 20 33
REMARK SMILES IDX 21 34 22 35 23 36 24 38 25 39 26 40 72 41 27 42 71 43 28 44
REMARK SMILES IDX 29 45 30 46 65 47 31 48 70 49 64 50 66 51 32 52 69 53 63 54
REMARK SMILES IDX 62 55 33 57 55 58 40 59 54 60 41 61 44 62 53 63 67 64 42 65
REMARK SMILES IDX 43 66 52 68 68 69 45 70 34 71 35 72 39 73 36 74 38 75 37 76
REMARK SMILES IDX 56 77 57 78 61 79 58 80 60 81 59 82 46 83 47 84 51 85 48 86
REMARK SMILES IDX 50 87 49 88
REMARK H PARENT 17 5 22 37 66 56 44 67
REMARK Flexibility Score: inf
ROOT
ATOM      1  C   UNL A   1      35.426  22.616  23.754  1.00  0.00     0.116 C 
ENDROOT
BRANCH   1   2
ATOM      2  N   UNL A   1      34.839  23.313  22.625  1.00  0.00    -0.356 N 
ATOM      3  C   UNL A   1      33.541  23.291  22.193  1.00  0.00     0.220 C 
ATOM      4  O   UNL A   1      33.279  23.835  21.120  1.00  0.00    -0.275 OA
ATOM      5  H   UNL A   1      35.455  23.874  22.101  1.00  0.00     0.163 HD
BRANCH   3   6
ATOM      6  C   UNL A   1      32.455  22.604  23.012  1.00  0.00     0.106 C 
BRANCH   6   7
ATOM      7  C   UNL A   1      31.522  23.533  23.824  1.00  0.00     0.064 C 
BRANCH   7   8
ATOM      8  C   UNL A   1      32.247  24.535  24.712  1.00  0.00     0.024 A 
ATOM      9  N   UNL A   1      32.168  25.958  24.729  1.00  0.00    -0.314 N 
ATOM     10  C   UNL A   1      33.053  26.397  25.753  1.00  0.00     0.053 A 
ATOM     11  C   UNL A   1      33.182  24.143  25.656  1.00  0.00     0.024 A 
ATOM     12  C   UNL A   1      33.683  25.284  26.285  1.00  0.00     0.029 A 
BRANCH   9  13
ATOM     13  C   UNL A   1      31.251  26.804  23.977  1.00  0.00     0.046 A 
ATOM     14  C   UNL A   1      29.430  28.657  22.837  1.00  0.00     0.082 A 
ATOM     15  C   UNL A   1      30.781  28.714  22.502  1.00  0.00     0.024 A 
ATOM     16  C   UNL A   1      28.975  27.653  23.676  1.00  0.00     0.024 A 
ATOM     17  C   UNL A   1      31.684  27.784  23.067  1.00  0.00     0.028 A 
ATOM     18  C   UNL A   1      29.876  26.746  24.220  1.00  0.00     0.028 A 
BRANCH  14  19
ATOM     19  S   UNL A   1      28.198  29.794  22.266  1.00  0.00     0.242 S 
ATOM     20  O   UNL A   1      26.910  29.259  22.664  1.00  0.00    -0.207 OA
ATOM     21  O   UNL A   1      28.504  30.057  20.876  1.00  0.00    -0.207 OA
BRANCH  19  22
ATOM     22  N   UNL A   1      28.410  31.246  23.144  1.00  0.00    -0.204 NA
ATOM     23  C   UNL A   1      28.750  32.376  22.237  1.00  0.00     0.124 C 
ATOM     24  C   UNL A   1      27.278  31.613  24.029  1.00  0.00     0.124 C 
ENDBRANCH  19  22
ENDBRANCH  14  19
ENDBRANCH   9  13
BRANCH  10  25
ATOM     25  C   UNL A   1      33.137  27.724  26.395  1.00  0.00    -0.001 A 
ATOM     26  C   UNL A   1      31.995  28.426  26.795  1.00  0.00     0.013 A 
ATOM     27  C   UNL A   1      34.366  28.387  26.454  1.00  0.00     0.013 A 
ATOM     28  C   UNL A   1      32.100  29.750  27.250  1.00  0.00     0.040 A 
ATOM     29  C   UNL A   1      34.480  29.707  26.881  1.00  0.00     0.040 A 
ATOM     30  C   UNL A   1      33.340  30.379  27.279  1.00  0.00     0.123 A 
ATOM     31  F   UNL A   1      33.436  31.651  27.689  1.00  0.00    -0.207 F 
ENDBRANCH  10  25
ENDBRANCH   7   8
ENDBRANCH   6   7
ENDBRANCH   3   6
ENDBRANCH   1   2
BRANCH   1  32
ATOM     32  C   UNL A   1      36.643  23.373  24.251  1.00  0.00     0.023 C 
BRANCH  32  33
ATOM     33  C   UNL A   1      37.112  22.998  25.654  1.00  0.00     0.023 C 
BRANCH  33  34
ATOM     34  C   UNL A   1      37.941  24.097  26.292  1.00  0.00     0.116 C 
BRANCH  34  35
ATOM     35  N   UNL A   1      39.398  23.972  26.126  1.00  0.00    -0.352 N 
ATOM     36  C   UNL A   1      40.380  24.847  26.529  1.00  0.00     0.251 C 
ATOM     37  H   UNL A   1      39.710  23.158  25.668  1.00  0.00     0.163 HD
ATOM     38  O   UNL A   1      41.542  24.716  26.210  1.00  0.00    -0.269 OA
BRANCH  36  39
ATOM     39  C   UNL A   1      39.941  25.998  27.335  1.00  0.00     0.039 A 
ATOM     40  C   UNL A   1      39.279  25.777  28.542  1.00  0.00     0.014 A 
ATOM     41  C   UNL A   1      40.384  27.263  26.951  1.00  0.00     0.014 A 
ATOM     42  C   UNL A   1      39.171  26.833  29.433  1.00  0.00     0.010 A 
ATOM     43  C   UNL A   1      40.410  28.264  27.887  1.00  0.00     0.010 A 
ATOM     44  C   UNL A   1      39.784  28.055  29.120  1.00  0.00    -0.014 A 
BRANCH  44  45
ATOM     45  C   UNL A   1      39.773  29.164  30.086  1.00  0.00     0.031 A 
ATOM     46  C   UNL A   1      40.791  29.011  31.206  1.00  0.00     0.074 A 
ATOM     47  C   UNL A   1      38.872  30.149  29.808  1.00  0.00     0.049 A 
ATOM     48  N   UNL A   1      40.732  29.445  32.426  1.00  0.00    -0.248 NA
ATOM     49  C   UNL A   1      42.014  28.199  30.977  1.00  0.00     0.031 C 
ATOM     50  C   UNL A   1      37.958  30.124  28.643  1.00  0.00     0.029 A 
ATOM     51  N   UNL A   1      38.539  31.347  30.396  1.00  0.00    -0.354 N 
ATOM     52  C   UNL A   1      41.924  29.072  33.078  1.00  0.00     0.074 A 
ATOM     53  C   UNL A   1      42.634  28.228  32.161  1.00  0.00     0.031 C 
ATOM     54  C   UNL A   1      37.174  31.213  28.621  1.00  0.00     0.029 A 
ATOM     55  C   UNL A   1      37.468  32.028  29.777  1.00  0.00     0.049 A 
ATOM     56  H   UNL A   1      39.010  31.701  31.184  1.00  0.00     0.167 HD
ATOM     57  C   UNL A   1      42.296  29.583  34.291  1.00  0.00     0.031 A 
ATOM     58  C   UNL A   1      36.784  33.131  30.191  1.00  0.00     0.031 A 
ATOM     59  C   UNL A   1      41.296  30.479  34.774  1.00  0.00     0.049 A 
ATOM     60  C   UNL A   1      37.389  33.556  31.462  1.00  0.00     0.074 A 
ATOM     61  C   UNL A   1      40.033  30.307  35.279  1.00  0.00     0.029 A 
ATOM     62  N   UNL A   1      41.458  31.801  34.437  1.00  0.00    -0.354 N 
ATOM     63  N   UNL A   1      38.543  34.137  31.588  1.00  0.00    -0.248 NA
ATOM     64  C   UNL A   1      36.723  33.179  32.716  1.00  0.00     0.031 C 
ATOM     65  C   UNL A   1      39.319  31.428  34.790  1.00  0.00     0.029 A 
ATOM     66  C   UNL A   1      40.209  32.295  34.150  1.00  0.00     0.049 A 
ATOM     67  H   UNL A   1      42.306  32.299  34.408  1.00  0.00     0.167 HD
ATOM     68  C   UNL A   1      38.885  33.846  32.890  1.00  0.00     0.074 A 
ATOM     69  C   UNL A   1      37.655  33.555  33.589  1.00  0.00     0.031 C 
ATOM     70  C   UNL A   1      40.119  33.356  33.173  1.00  0.00     0.031 A 
BRANCH  57  71
ATOM     71  C   UNL A   1      43.611  29.560  35.024  1.00  0.00    -0.014 A 
ATOM     72  C   UNL A   1      44.647  30.394  34.533  1.00  0.00     0.009 A 
ATOM     73  C   UNL A   1      43.973  28.588  35.963  1.00  0.00     0.009 A 
ATOM     74  C   UNL A   1      45.987  30.194  34.870  1.00  0.00     0.001 A 
ATOM     75  C   UNL A   1      45.316  28.411  36.333  1.00  0.00     0.001 A 
ATOM     76  C   UNL A   1      46.324  29.187  35.762  1.00  0.00     0.000 A 
ENDBRANCH  57  71
BRANCH  58  77
ATOM     77  C   UNL A   1      35.525  33.802  29.734  1.00  0.00    -0.014 A 
ATOM     78  C   UNL A   1      34.413  34.074  30.541  1.00  0.00     0.009 A 
ATOM     79  C   UNL A   1      35.426  34.231  28.389  1.00  0.00     0.009 A 
ATOM     80  C   UNL A   1      33.328  34.830  30.063  1.00  0.00     0.001 A 
ATOM     81  C   UNL A   1      34.359  34.995  27.911  1.00  0.00     0.001 A 
ATOM     82  C   UNL A   1      33.314  35.313  28.758  1.00  0.00     0.000 A 
ENDBRANCH  58  77
BRANCH  70  83
ATOM     83  C   UNL A   1      41.177  33.655  32.124  1.00  0.00    -0.014 A 
ATOM     84  C   UNL A   1      41.442  32.724  31.109  1.00  0.00     0.009 A 
ATOM     85  C   UNL A   1      42.002  34.793  32.186  1.00  0.00     0.009 A 
ATOM     86  C   UNL A   1      42.502  32.908  30.212  1.00  0.00     0.001 A 
ATOM     87  C   UNL A   1      43.060  34.986  31.286  1.00  0.00     0.001 A 
ATOM     88  C   UNL A   1      43.313  34.037  30.302  1.00  0.00     0.000 A 
ENDBRANCH  70  83
ENDBRANCH  44  45
ENDBRANCH  36  39
ENDBRANCH  34  35
ENDBRANCH  33  34
ENDBRANCH  32  33
ENDBRANCH   1  32
TORSDOF 17
ENDMDL
MODEL 2
REMARK VINA RESULT:     -12.0      1.821      5.745
REMARK SMILES CN(C)S(=O)(=O)c1ccc(-n2c(CCC(=O)NCCCCNC(=O)c3ccc(-c4c5nc(c(-c6ccccc6)c6ccc([nH]6)c(-c6ccccc6)c6nc(c(-c7ccccc7)c7ccc4[nH]7)C=C6)C=C5)cc3)ccc2-c2ccc(F)cc2)cc1
REMARK SMILES IDX 18 1 17 2 15 3 16 4 14 6 13 7 12 8 11 9 75 10 73 11 74 12
REMARK SMILES IDX 10 13 7 14 8 15 84 16 9 17 83 18 4 19 5 20 6 21 2 22 1 23
REMARK SMILES IDX 3 24 76 25 77 26 82 27 78 28 81 29 79 30 80 31 19 32 20 33
REMARK SMILES IDX 21 34 22 35 23 36 24 38 25 39 26 40 72 41 27 42 71 43 28 44
REMARK SMILES IDX 29 45 30 46 65 47 31 48 70 49 64 50 66 51 32 52 69 53 63 54
REMARK SMILES IDX 62 55 33 57 55 58 40 59 54 60 41 61 44 62 53 63 67 64 42 65
REMARK SMILES IDX 43 66 52 68 68 69 45 70 34 71 35 72 39 73 36 74 38 75 37 76
REMARK SMILES IDX 56 77 57 78 61 79 58 80 60 81 59 82 46 83 47 84 51 85 48 86
REMARK SMILES IDX 50 87 49 88
REMARK H PARENT 17 5 22 37 66 56 44 67
REMARK Flexibility Score: inf
ROOT
ATOM      1  C   UNL A   1      35.048  22.698  23.444  1.00  0.00     0.116 C 
ENDROOT
BRANCH   1   2
ATOM      2  N   UNL A   1      34.480  23.696  22.558  1.00  0.00    -0.356 N 
ATOM      3  C   UNL A   1      33.183  23.823  22.142  1.00  0.00     0.220 C 
ATOM      4  O   UNL A   1      32.935  24.653  21.266  1.00  0.00    -0.275 OA
ATOM      5  H   UNL A   1      35.108  24.369  22.211  1.00  0.00     0.163 HD
BRANCH   3   6
ATOM      6  C   UNL A   1      32.081  22.956  22.738  1.00  0.00     0.106 C 
BRANCH   6   7
ATOM      7  C   UNL A   1      31.198  23.621  23.820  1.00  0.00     0.064 C 
BRANCH   7   8
ATOM      8  C   UNL A   1      31.941  24.584  24.735  1.00  0.00     0.024 A 
ATOM      9  N   UNL A   1      31.934  26.010  24.752  1.00  0.00    -0.314 N 
ATOM     10  C   UNL A   1      32.804  26.402  25.808  1.00  0.00     0.053 A 
ATOM     11  C   UNL A   1      32.820  24.145  25.711  1.00  0.00     0.024 A 
ATOM     12  C   UNL A   1      33.356  25.257  26.360  1.00  0.00     0.029 A 
BRANCH   9  13
ATOM     13  C   UNL A   1      31.090  26.902  23.970  1.00  0.00     0.046 A 
ATOM     14  C   UNL A   1      29.381  28.827  22.777  1.00  0.00     0.082 A 
ATOM     15  C   UNL A   1      30.757  28.897  22.572  1.00  0.00     0.024 A 
ATOM     16  C   UNL A   1      28.851  27.779  23.511  1.00  0.00     0.024 A 
ATOM     17  C   UNL A   1      31.605  27.931  23.162  1.00  0.00     0.028 A 
ATOM     18  C   UNL A   1      29.699  26.837  24.082  1.00  0.00     0.028 A 
BRANCH  14  19
ATOM     19  S   UNL A   1      28.206  30.001  22.162  1.00  0.00     0.242 S 
ATOM     20  O   UNL A   1      27.042  29.929  23.025  1.00  0.00    -0.207 OA
ATOM     21  O   UNL A   1      28.101  29.760  20.739  1.00  0.00    -0.207 OA
BRANCH  19  22
ATOM     22  N   UNL A   1      28.882  31.555  22.394  1.00  0.00    -0.204 NA
ATOM     23  C   UNL A   1      28.161  32.578  21.588  1.00  0.00     0.124 C 
ATOM     24  C   UNL A   1      28.987  31.988  23.808  1.00  0.00     0.124 C 
ENDBRANCH  19  22
ENDBRANCH  14  19
ENDBRANCH   9  13
BRANCH  10  25
ATOM     25  C   UNL A   1      32.933  27.723  26.457  1.00  0.00    -0.001 A 
ATOM     26  C   UNL A   1      31.815  28.495  26.792  1.00  0.00     0.013 A 
ATOM     27  C   UNL A   1      34.195  28.308  26.587  1.00  0.00     0.013 A 
ATOM     28  C   UNL A   1      31.976  29.810  27.253  1.00  0.00     0.040 A 
ATOM     29  C   UNL A   1      34.366  29.620  27.021  1.00  0.00     0.040 A 
ATOM     30  C   UNL A   1      33.249  30.362  27.354  1.00  0.00     0.123 A 
ATOM     31  F   UNL A   1      33.400  31.626  27.771  1.00  0.00    -0.207 F 
ENDBRANCH  10  25
ENDBRANCH   7   8
ENDBRANCH   6   7
ENDBRANCH   3   6
ENDBRANCH   1   2
BRANCH   1  32
ATOM     32  C   UNL A   1      36.388  23.178  23.969  1.00  0.00     0.023 C 
BRANCH  32  33
ATOM     33  C   UNL A   1      36.569  23.073  25.480  1.00  0.00     0.023 C 
BRANCH  33  34
ATOM     34  C   UNL A   1      37.590  24.065  26.005  1.00  0.00     0.116 C 
BRANCH  34  35
ATOM     35  N   UNL A   1      38.929  23.517  26.276  1.00  0.00    -0.352 N 
ATOM     36  C   UNL A   1      40.004  24.145  26.860  1.00  0.00     0.251 C 
ATOM     37  H   UNL A   1      39.073  22.583  26.003  1.00  0.00     0.163 HD
ATOM     38  O   UNL A   1      41.108  23.645  26.901  1.00  0.00    -0.269 OA
BRANCH  36  39
ATOM     39  C   UNL A   1      39.763  25.494  27.398  1.00  0.00     0.039 A 
ATOM     40  C   UNL A   1      39.399  25.644  28.735  1.00  0.00     0.014 A 
ATOM     41  C   UNL A   1      40.102  26.580  26.593  1.00  0.00     0.014 A 
ATOM     42  C   UNL A   1      39.499  26.905  29.303  1.00  0.00     0.010 A 
ATOM     43  C   UNL A   1      40.344  27.792  27.188  1.00  0.00     0.010 A 
ATOM     44  C   UNL A   1      40.021  27.958  28.539  1.00  0.00    -0.014 A 
BRANCH  44  45
ATOM     45  C   UNL A   1      40.233  29.283  29.142  1.00  0.00     0.031 A 
ATOM     46  C   UNL A   1      38.945  29.996  29.524  1.00  0.00     0.074 A 
ATOM     47  C   UNL A   1      41.542  29.642  29.277  1.00  0.00     0.049 A 
ATOM     48  N   UNL A   1      38.700  31.267  29.568  1.00  0.00    -0.248 NA
ATOM     49  C   UNL A   1      37.728  29.197  29.823  1.00  0.00     0.031 C 
ATOM     50  C   UNL A   1      42.677  28.792  28.848  1.00  0.00     0.029 A 
ATOM     51  N   UNL A   1      42.195  30.737  29.791  1.00  0.00    -0.354 N 
ATOM     52  C   UNL A   1      37.369  31.439  29.998  1.00  0.00     0.074 A 
ATOM     53  C   UNL A   1      36.794  30.126  30.051  1.00  0.00     0.031 C 
ATOM     54  C   UNL A   1      43.850  29.396  29.089  1.00  0.00     0.029 A 
ATOM     55  C   UNL A   1      43.600  30.701  29.656  1.00  0.00     0.049 A 
ATOM     56  H   UNL A   1      41.720  31.486  30.219  1.00  0.00     0.167 HD
ATOM     57  C   UNL A   1      36.868  32.648  30.392  1.00  0.00     0.031 A 
ATOM     58  C   UNL A   1      44.521  31.675  29.897  1.00  0.00     0.031 A 
ATOM     59  C   UNL A   1      37.864  33.660  30.257  1.00  0.00     0.049 A 
ATOM     60  C   UNL A   1      43.783  32.852  30.379  1.00  0.00     0.074 A 
ATOM     61  C   UNL A   1      38.434  34.292  29.182  1.00  0.00     0.029 A 
ATOM     62  N   UNL A   1      38.642  33.892  31.366  1.00  0.00    -0.354 N 
ATOM     63  N   UNL A   1      43.245  32.972  31.554  1.00  0.00    -0.248 NA
ATOM     64  C   UNL A   1      43.492  33.934  29.429  1.00  0.00     0.031 C 
ATOM     65  C   UNL A   1      39.780  34.485  29.579  1.00  0.00     0.029 A 
ATOM     66  C   UNL A   1      39.923  34.105  30.917  1.00  0.00     0.049 A 
ATOM     67  H   UNL A   1      38.339  33.903  32.303  1.00  0.00     0.167 HD
ATOM     68  C   UNL A   1      42.274  33.926  31.344  1.00  0.00     0.074 A 
ATOM     69  C   UNL A   1      42.670  34.671  30.171  1.00  0.00     0.031 C 
ATOM     70  C   UNL A   1      41.008  33.714  31.786  1.00  0.00     0.031 A 
BRANCH  57  71
ATOM     71  C   UNL A   1      35.612  33.014  31.138  1.00  0.00    -0.014 A 
ATOM     72  C   UNL A   1      34.853  34.104  30.641  1.00  0.00     0.009 A 
ATOM     73  C   UNL A   1      35.293  32.554  32.420  1.00  0.00     0.009 A 
ATOM     74  C   UNL A   1      33.908  34.772  31.424  1.00  0.00     0.001 A 
ATOM     75  C   UNL A   1      34.316  33.200  33.194  1.00  0.00     0.001 A 
ATOM     76  C   UNL A   1      33.651  34.326  32.712  1.00  0.00     0.000 A 
ENDBRANCH  57  71
BRANCH  58  77
ATOM     77  C   UNL A   1      45.983  31.817  29.597  1.00  0.00    -0.014 A 
ATOM     78  C   UNL A   1      46.723  30.977  28.757  1.00  0.00     0.009 A 
ATOM     79  C   UNL A   1      46.699  32.891  30.178  1.00  0.00     0.009 A 
ATOM     80  C   UNL A   1      48.060  31.265  28.425  1.00  0.00     0.001 A 
ATOM     81  C   UNL A   1      48.021  33.192  29.842  1.00  0.00     0.001 A 
ATOM     82  C   UNL A   1      48.698  32.387  28.945  1.00  0.00     0.000 A 
ENDBRANCH  58  77
BRANCH  70  83
ATOM     83  C   UNL A   1      40.890  32.698  32.911  1.00  0.00    -0.014 A 
ATOM     84  C   UNL A   1      40.600  31.358  32.618  1.00  0.00     0.009 A 
ATOM     85  C   UNL A   1      40.947  33.064  34.268  1.00  0.00     0.009 A 
ATOM     86  C   UNL A   1      40.350  30.428  33.636  1.00  0.00     0.001 A 
ATOM     87  C   UNL A   1      40.705  32.136  35.290  1.00  0.00     0.001 A 
ATOM     88  C   UNL A   1      40.398  30.818  34.972  1.00  0.00     0.000 A 
ENDBRANCH  70  83
ENDBRANCH  44  45
ENDBRANCH  36  39
ENDBRANCH  34  35
ENDBRANCH  33  34
ENDBRANCH  32  33
ENDBRANCH   1  32
TORSDOF 17
ENDMDL
MODEL 3
REMARK VINA RESULT:     -12.0      3.094      4.552
REMARK SMILES CN(C)S(=O)(=O)c1ccc(-n2c(CCC(=O)NCCCCNC(=O)c3ccc(-c4c5nc(c(-c6ccccc6)c6ccc([nH]6)c(-c6ccccc6)c6nc(c(-c7ccccc7)c7ccc4[nH]7)C=C6)C=C5)cc3)ccc2-c2ccc(F)cc2)cc1
REMARK SMILES IDX 18 1 17 2 15 3 16 4 14 6 13 7 12 8 11 9 75 10 73 11 74 12
REMARK SMILES IDX 10 13 7 14 8 15 84 16 9 17 83 18 4 19 5 20 6 21 2 22 1 23
REMARK SMILES IDX 3 24 76 25 77 26 82 27 78 28 81 29 79 30 80 31 19 32 20 33
REMARK SMILES IDX 21 34 22 35 23 36 24 38 25 39 26 40 72 41 27 42 71 43 28 44
REMARK SMILES IDX 29 45 30 46 65 47 31 48 70 49 64 50 66 51 32 52 69 53 63 54
REMARK SMILES IDX 62 55 33 57 55 58 40 59 54 60 41 61 44 62 53 63 67 64 42 65
REMARK SMILES IDX 43 66 52 68 68 69 45 70 34 71 35 72 39 73 36 74 38 75 37 76
REMARK SMILES IDX 56 77 57 78 61 79 58 80 60 81 59 82 46 83 47 84 51 85 48 86
REMARK SMILES IDX 50 87 49 88
REMARK H PARENT 17 5 22 37 66 56 44 67
REMARK Flexibility Score: inf
ROOT
ATOM      1  C   UNL A   1      34.978  22.107  23.904  1.00  0.00     0.116 C 
ENDROOT
BRANCH   1   2
ATOM      2  N   UNL A   1      34.581  22.947  22.790  1.00  0.00    -0.356 N 
ATOM      3  C   UNL A   1      33.343  23.077  22.222  1.00  0.00     0.220 C 
ATOM      4  O   UNL A   1      33.249  23.732  21.183  1.00  0.00    -0.275 OA
ATOM      5  H   UNL A   1      35.294  23.493  22.390  1.00  0.00     0.163 HD
BRANCH   3   6
ATOM      6  C   UNL A   1      32.120  22.422  22.852  1.00  0.00     0.106 C 
BRANCH   6   7
ATOM      7  C   UNL A   1      31.200  23.349  23.682  1.00  0.00     0.064 C 
BRANCH   7   8
ATOM      8  C   UNL A   1      31.939  24.305  24.608  1.00  0.00     0.024 A 
ATOM      9  N   UNL A   1      31.897  25.730  24.665  1.00  0.00    -0.314 N 
ATOM     10  C   UNL A   1      32.780  26.115  25.713  1.00  0.00     0.053 A 
ATOM     11  C   UNL A   1      32.849  23.862  25.552  1.00  0.00     0.024 A 
ATOM     12  C   UNL A   1      33.372  24.969  26.221  1.00  0.00     0.029 A 
BRANCH   9  13
ATOM     13  C   UNL A   1      31.014  26.621  23.926  1.00  0.00     0.046 A 
ATOM     14  C   UNL A   1      29.254  28.551  22.817  1.00  0.00     0.082 A 
ATOM     15  C   UNL A   1      30.615  28.600  22.522  1.00  0.00     0.024 A 
ATOM     16  C   UNL A   1      28.761  27.520  23.600  1.00  0.00     0.024 A 
ATOM     17  C   UNL A   1      31.487  27.632  23.070  1.00  0.00     0.028 A 
ATOM     18  C   UNL A   1      29.633  26.575  24.129  1.00  0.00     0.028 A 
BRANCH  14  19
ATOM     19  S   UNL A   1      28.056  29.730  22.262  1.00  0.00     0.242 S 
ATOM     20  O   UNL A   1      26.771  29.312  22.791  1.00  0.00    -0.207 OA
ATOM     21  O   UNL A   1      28.268  29.883  20.839  1.00  0.00    -0.207 OA
BRANCH  19  22
ATOM     22  N   UNL A   1      28.427  31.217  23.021  1.00  0.00    -0.204 NA
ATOM     23  C   UNL A   1      28.807  32.250  22.018  1.00  0.00     0.124 C 
ATOM     24  C   UNL A   1      27.377  31.736  23.929  1.00  0.00     0.124 C 
ENDBRANCH  19  22
ENDBRANCH  14  19
ENDBRANCH   9  13
BRANCH  10  25
ATOM     25  C   UNL A   1      32.890  27.420  26.395  1.00  0.00    -0.001 A 
ATOM     26  C   UNL A   1      31.765  28.108  26.861  1.00  0.00     0.013 A 
ATOM     27  C   UNL A   1      34.121  28.080  26.429  1.00  0.00     0.013 A 
ATOM     28  C   UNL A   1      31.889  29.417  27.354  1.00  0.00     0.040 A 
ATOM     29  C   UNL A   1      34.253  29.386  26.894  1.00  0.00     0.040 A 
ATOM     30  C   UNL A   1      33.130  30.045  27.357  1.00  0.00     0.123 A 
ATOM     31  F   UNL A   1      33.244  31.302  27.804  1.00  0.00    -0.207 F 
ENDBRANCH  10  25
ENDBRANCH   7   8
ENDBRANCH   6   7
ENDBRANCH   3   6
ENDBRANCH   1   2
BRANCH   1  32
ATOM     32  C   UNL A   1      36.469  22.243  24.147  1.00  0.00     0.023 C 
BRANCH  32  33
ATOM     33  C   UNL A   1      36.905  22.097  25.602  1.00  0.00     0.023 C 
BRANCH  33  34
ATOM     34  C   UNL A   1      38.415  22.099  25.749  1.00  0.00     0.116 C 
BRANCH  34  35
ATOM     35  N   UNL A   1      39.065  20.781  25.663  1.00  0.00    -0.352 N 
ATOM     36  C   UNL A   1      40.360  20.447  25.983  1.00  0.00     0.251 C 
ATOM     37  H   UNL A   1      38.499  20.045  25.335  1.00  0.00     0.163 HD
ATOM     38  O   UNL A   1      40.834  19.358  25.734  1.00  0.00    -0.269 OA
BRANCH  36  39
ATOM     39  C   UNL A   1      41.175  21.503  26.604  1.00  0.00     0.039 A 
ATOM     40  C   UNL A   1      41.706  22.517  25.809  1.00  0.00     0.014 A 
ATOM     41  C   UNL A   1      41.214  21.553  27.997  1.00  0.00     0.014 A 
ATOM     42  C   UNL A   1      42.178  23.661  26.434  1.00  0.00     0.010 A 
ATOM     43  C   UNL A   1      41.540  22.738  28.605  1.00  0.00     0.010 A 
ATOM     44  C   UNL A   1      42.042  23.784  27.824  1.00  0.00    -0.014 A 
BRANCH  44  45
ATOM     45  C   UNL A   1      42.441  25.025  28.505  1.00  0.00     0.031 A 
ATOM     46  C   UNL A   1      43.871  25.008  29.022  1.00  0.00     0.074 A 
ATOM     47  C   UNL A   1      41.476  25.987  28.542  1.00  0.00     0.049 A 
ATOM     48  N   UNL A   1      44.375  25.621  30.047  1.00  0.00    -0.248 NA
ATOM     49  C   UNL A   1      44.875  24.129  28.367  1.00  0.00     0.031 C 
ATOM     50  C   UNL A   1      40.123  25.818  27.963  1.00  0.00     0.029 A 
ATOM     51  N   UNL A   1      41.408  27.270  29.033  1.00  0.00    -0.354 N 
ATOM     52  C   UNL A   1      45.748  25.310  30.108  1.00  0.00     0.074 A 
ATOM     53  C   UNL A   1      45.978  24.315  29.100  1.00  0.00     0.031 C 
ATOM     54  C   UNL A   1      39.376  26.917  28.152  1.00  0.00     0.029 A 
ATOM     55  C   UNL A   1      40.145  27.886  28.899  1.00  0.00     0.049 A 
ATOM     56  H   UNL A   1      42.180  27.722  29.445  1.00  0.00     0.167 HD
ATOM     57  C   UNL A   1      46.625  25.984  30.912  1.00  0.00     0.031 A 
ATOM     58  C   UNL A   1      39.691  29.061  29.417  1.00  0.00     0.031 A 
ATOM     59  C   UNL A   1      45.934  26.975  31.671  1.00  0.00     0.049 A 
ATOM     60  C   UNL A   1      40.805  29.651  30.176  1.00  0.00     0.074 A 
ATOM     61  C   UNL A   1      45.064  26.923  32.730  1.00  0.00     0.029 A 
ATOM     62  N   UNL A   1      45.863  28.226  31.107  1.00  0.00    -0.354 N 
ATOM     63  N   UNL A   1      41.857  30.206  29.656  1.00  0.00    -0.248 NA
ATOM     64  C   UNL A   1      40.823  29.488  31.635  1.00  0.00     0.031 C 
ATOM     65  C   UNL A   1      44.159  27.981  32.476  1.00  0.00     0.029 A 
ATOM     66  C   UNL A   1      44.606  28.713  31.372  1.00  0.00     0.049 A 
ATOM     67  H   UNL A   1      46.577  28.685  30.608  1.00  0.00     0.167 HD
ATOM     68  C   UNL A   1      42.783  30.101  30.670  1.00  0.00     0.074 A 
ATOM     69  C   UNL A   1      42.039  29.959  31.900  1.00  0.00     0.031 C 
ATOM     70  C   UNL A   1      44.024  29.618  30.408  1.00  0.00     0.031 A 
BRANCH  57  71
ATOM     71  C   UNL A   1      48.130  26.027  30.934  1.00  0.00    -0.014 A 
ATOM     72  C   UNL A   1      48.791  26.357  29.724  1.00  0.00     0.009 A 
ATOM     73  C   UNL A   1      48.919  25.500  31.962  1.00  0.00     0.009 A 
ATOM     74  C   UNL A   1      50.141  26.069  29.511  1.00  0.00     0.001 A 
ATOM     75  C   UNL A   1      50.285  25.246  31.763  1.00  0.00     0.001 A 
ATOM     76  C   UNL A   1      50.886  25.496  30.530  1.00  0.00     0.000 A 
ENDBRANCH  57  71
BRANCH  58  77
ATOM     77  C   UNL A   1      38.339  29.698  29.514  1.00  0.00    -0.014 A 
ATOM     78  C   UNL A   1      37.440  29.536  30.575  1.00  0.00     0.009 A 
ATOM     79  C   UNL A   1      37.912  30.560  28.475  1.00  0.00     0.009 A 
ATOM     80  C   UNL A   1      36.249  30.280  30.648  1.00  0.00     0.001 A 
ATOM     81  C   UNL A   1      36.738  31.313  28.547  1.00  0.00     0.001 A 
ATOM     82  C   UNL A   1      35.912  31.188  29.649  1.00  0.00     0.000 A 
ENDBRANCH  58  77
BRANCH  70  83
ATOM     83  C   UNL A   1      44.452  29.721  28.953  1.00  0.00    -0.014 A 
ATOM     84  C   UNL A   1      44.464  28.577  28.143  1.00  0.00     0.009 A 
ATOM     85  C   UNL A   1      44.955  30.911  28.396  1.00  0.00     0.009 A 
ATOM     86  C   UNL A   1      44.981  28.613  26.841  1.00  0.00     0.001 A 
ATOM     87  C   UNL A   1      45.467  30.954  27.092  1.00  0.00     0.001 A 
ATOM     88  C   UNL A   1      45.487  29.800  26.316  1.00  0.00     0.000 A 
ENDBRANCH  70  83
ENDBRANCH  44  45
ENDBRANCH  36  39
ENDBRANCH  34  35
ENDBRANCH  33  34
ENDBRANCH  32  33
ENDBRANCH   1  32
TORSDOF 17
ENDMDL
