MODEL 1
REMARK VINA RESULT:     -10.8      0.000      0.000
REMARK SMILES CCSc1cccc(-c2ccc([C@@H](C)C(=O)NCCCCNC(=O)c3ccc(-c4c5nc(c(-c6ccccc6)c6ccc([nH]6)c(-c6ccccc6)c6nc(c(-c7ccccc7)c7ccc4[nH]7)C=C6)C=C5)cc3)cc2)c1
REMARK SMILES IDX 18 1 17 2 15 3 16 4 13 6 14 7 12 8 9 9 10 10 74 11 11 12
REMARK SMILES IDX 73 13 8 14 4 15 5 16 75 17 6 18 7 19 3 20 2 21 1 22 19 23
REMARK SMILES IDX 20 24 21 25 22 26 23 27 24 29 25 30 26 31 72 32 27 33 71 34
REMARK SMILES IDX 28 35 29 36 30 37 65 38 31 39 70 40 64 41 66 42 32 43 69 44
REMARK SMILES IDX 63 45 62 46 33 48 55 49 40 50 54 51 41 52 44 53 53 54 67 55
REMARK SMILES IDX 42 56 43 57 52 59 68 60 45 61 34 62 35 63 39 64 36 65 38 66
REMARK SMILES IDX 37 67 56 68 57 69 61 70 58 71 60 72 59 73 46 74 47 75 51 76
REMARK SMILES IDX 48 77 50 78 49 79
REMARK H PARENT 17 5 22 28 66 47 44 58
REMARK Flexibility Score: inf
ROOT
ATOM      1  C   UNL A   1      31.369  29.458  24.965  1.00  0.00     0.116 C 
ENDROOT
BRANCH   1   2
ATOM      2  N   UNL A   1      30.843  29.671  23.633  1.00  0.00    -0.356 N 
ATOM      3  C   UNL A   1      30.294  28.806  22.735  1.00  0.00     0.227 C 
ATOM      4  O   UNL A   1      30.004  29.276  21.628  1.00  0.00    -0.274 OA
ATOM      5  H   UNL A   1      30.889  30.603  23.322  1.00  0.00     0.163 HD
BRANCH   3   6
ATOM      6  C   UNL A   1      30.022  27.322  23.035  1.00  0.00     0.105 C 
ATOM      7  C   UNL A   1      28.719  27.065  23.789  1.00  0.00     0.023 C 
BRANCH   6   8
ATOM      8  C   UNL A   1      31.249  26.575  23.534  1.00  0.00    -0.036 A 
ATOM      9  C   UNL A   1      33.422  24.943  24.453  1.00  0.00    -0.018 A 
ATOM     10  C   UNL A   1      33.502  25.690  23.266  1.00  0.00     0.009 A 
ATOM     11  C   UNL A   1      32.240  25.093  25.199  1.00  0.00     0.009 A 
ATOM     12  C   UNL A   1      32.453  26.515  22.832  1.00  0.00     0.005 A 
ATOM     13  C   UNL A   1      31.168  25.868  24.739  1.00  0.00     0.005 A 
BRANCH   9  14
ATOM     14  C   UNL A   1      34.506  24.012  24.873  1.00  0.00    -0.017 A 
ATOM     15  C   UNL A   1      35.374  21.716  25.094  1.00  0.00     0.008 A 
ATOM     16  C   UNL A   1      36.579  22.211  25.587  1.00  0.00     0.015 A 
ATOM     17  C   UNL A   1      34.355  22.614  24.755  1.00  0.00     0.023 A 
ATOM     18  C   UNL A   1      36.760  23.584  25.730  1.00  0.00     0.002 A 
ATOM     19  C   UNL A   1      35.734  24.470  25.383  1.00  0.00     0.009 A 
BRANCH  15  20
ATOM     20  S   UNL A   1      35.117  19.953  25.015  1.00  0.00    -0.126 SA
BRANCH  20  21
ATOM     21  C   UNL A   1      33.391  19.850  24.424  1.00  0.00     0.071 C 
ATOM     22  C   UNL A   1      32.695  18.561  24.825  1.00  0.00     0.016 C 
ENDBRANCH  20  21
ENDBRANCH  15  20
ENDBRANCH   9  14
ENDBRANCH   6   8
ENDBRANCH   3   6
ENDBRANCH   1   2
BRANCH   1  23
ATOM     23  C   UNL A   1      32.895  29.523  25.000  1.00  0.00     0.023 C 
BRANCH  23  24
ATOM     24  C   UNL A   1      33.560  28.543  25.964  1.00  0.00     0.023 C 
BRANCH  24  25
ATOM     25  C   UNL A   1      33.392  28.866  27.446  1.00  0.00     0.116 C 
BRANCH  25  26
ATOM     26  N   UNL A   1      33.551  30.278  27.769  1.00  0.00    -0.352 N 
ATOM     27  C   UNL A   1      34.679  30.926  28.220  1.00  0.00     0.251 C 
ATOM     28  H   UNL A   1      32.750  30.838  27.651  1.00  0.00     0.163 HD
ATOM     29  O   UNL A   1      34.647  32.114  28.514  1.00  0.00    -0.269 OA
BRANCH  27  30
ATOM     30  C   UNL A   1      35.921  30.147  28.396  1.00  0.00     0.039 A 
ATOM     31  C   UNL A   1      36.843  30.104  27.349  1.00  0.00     0.014 A 
ATOM     32  C   UNL A   1      36.209  29.546  29.624  1.00  0.00     0.014 A 
ATOM     33  C   UNL A   1      38.103  29.543  27.565  1.00  0.00     0.010 A 
ATOM     34  C   UNL A   1      37.484  29.045  29.858  1.00  0.00     0.010 A 
ATOM     35  C   UNL A   1      38.450  29.062  28.838  1.00  0.00    -0.014 A 
BRANCH  35  36
ATOM     36  C   UNL A   1      39.828  28.612  29.151  1.00  0.00     0.031 A 
ATOM     37  C   UNL A   1      40.804  29.562  29.782  1.00  0.00     0.074 A 
ATOM     38  C   UNL A   1      40.230  27.385  28.766  1.00  0.00     0.049 A 
ATOM     39  N   UNL A   1      42.084  29.403  30.002  1.00  0.00    -0.248 NA
ATOM     40  C   UNL A   1      40.277  30.873  30.195  1.00  0.00     0.031 C 
ATOM     41  C   UNL A   1      39.390  26.382  28.108  1.00  0.00     0.029 A 
ATOM     42  N   UNL A   1      41.460  26.781  28.855  1.00  0.00    -0.354 N 
ATOM     43  C   UNL A   1      42.520  30.601  30.553  1.00  0.00     0.074 A 
ATOM     44  C   UNL A   1      41.377  31.487  30.602  1.00  0.00     0.031 C 
ATOM     45  C   UNL A   1      40.125  25.284  27.867  1.00  0.00     0.029 A 
ATOM     46  C   UNL A   1      41.493  25.521  28.311  1.00  0.00     0.049 A 
ATOM     47  H   UNL A   1      42.242  27.211  29.269  1.00  0.00     0.167 HD
ATOM     48  C   UNL A   1      43.759  30.928  30.989  1.00  0.00     0.031 A 
ATOM     49  C   UNL A   1      42.517  24.658  28.167  1.00  0.00     0.031 A 
ATOM     50  C   UNL A   1      44.890  30.042  30.960  1.00  0.00     0.049 A 
ATOM     51  C   UNL A   1      43.886  25.053  28.641  1.00  0.00     0.074 A 
ATOM     52  C   UNL A   1      46.165  30.255  31.452  1.00  0.00     0.029 A 
ATOM     53  N   UNL A   1      44.881  28.772  30.404  1.00  0.00    -0.354 N 
ATOM     54  N   UNL A   1      44.269  26.166  29.217  1.00  0.00    -0.248 NA
ATOM     55  C   UNL A   1      44.964  24.075  28.440  1.00  0.00     0.031 C 
ATOM     56  C   UNL A   1      46.941  29.129  31.156  1.00  0.00     0.029 A 
ATOM     57  C   UNL A   1      46.137  28.201  30.515  1.00  0.00     0.049 A 
ATOM     58  H   UNL A   1      44.097  28.340  29.993  1.00  0.00     0.167 HD
ATOM     59  C   UNL A   1      45.627  26.017  29.460  1.00  0.00     0.074 A 
ATOM     60  C   UNL A   1      45.999  24.701  28.982  1.00  0.00     0.031 C 
ATOM     61  C   UNL A   1      46.490  26.895  30.027  1.00  0.00     0.031 A 
BRANCH  48  62
ATOM     62  C   UNL A   1      43.953  32.315  31.531  1.00  0.00    -0.014 A 
ATOM     63  C   UNL A   1      44.327  33.376  30.690  1.00  0.00     0.009 A 
ATOM     64  C   UNL A   1      43.732  32.569  32.892  1.00  0.00     0.009 A 
ATOM     65  C   UNL A   1      44.510  34.657  31.211  1.00  0.00     0.001 A 
ATOM     66  C   UNL A   1      43.893  33.857  33.406  1.00  0.00     0.001 A 
ATOM     67  C   UNL A   1      44.290  34.898  32.567  1.00  0.00     0.000 A 
ENDBRANCH  48  62
BRANCH  49  68
ATOM     68  C   UNL A   1      42.289  23.333  27.537  1.00  0.00    -0.014 A 
ATOM     69  C   UNL A   1      41.817  22.257  28.305  1.00  0.00     0.009 A 
ATOM     70  C   UNL A   1      42.540  23.135  26.171  1.00  0.00     0.009 A 
ATOM     71  C   UNL A   1      41.621  21.004  27.722  1.00  0.00     0.001 A 
ATOM     72  C   UNL A   1      42.322  21.886  25.585  1.00  0.00     0.001 A 
ATOM     73  C   UNL A   1      41.870  20.821  26.362  1.00  0.00     0.000 A 
ENDBRANCH  49  68
BRANCH  61  74
ATOM     74  C   UNL A   1      47.917  26.455  30.171  1.00  0.00    -0.014 A 
ATOM     75  C   UNL A   1      48.846  26.677  29.144  1.00  0.00     0.009 A 
ATOM     76  C   UNL A   1      48.347  25.861  31.368  1.00  0.00     0.009 A 
ATOM     77  C   UNL A   1      50.178  26.293  29.306  1.00  0.00     0.001 A 
ATOM     78  C   UNL A   1      49.684  25.497  31.534  1.00  0.00     0.001 A 
ATOM     79  C   UNL A   1      50.596  25.708  30.501  1.00  0.00     0.000 A 
ENDBRANCH  61  74
ENDBRANCH  35  36
ENDBRANCH  27  30
ENDBRANCH  25  26
ENDBRANCH  24  25
ENDBRANCH  23  24
ENDBRANCH   1  23
TORSDOF 15
ENDMDL
MODEL 2
REMARK VINA RESULT:     -10.7      2.464      6.880
REMARK SMILES CCSc1cccc(-c2ccc([C@@H](C)C(=O)NCCCCNC(=O)c3ccc(-c4c5nc(c(-c6ccccc6)c6ccc([nH]6)c(-c6ccccc6)c6nc(c(-c7ccccc7)c7ccc4[nH]7)C=C6)C=C5)cc3)cc2)c1
REMARK SMILES IDX 18 1 17 2 15 3 16 4 13 6 14 7 12 8 9 9 10 10 74 11 11 12
REMARK SMILES IDX 73 13 8 14 4 15 5 16 75 17 6 18 7 19 3 20 2 21 1 22 19 23
REMARK SMILES IDX 20 24 21 25 22 26 23 27 24 29 25 30 26 31 72 32 27 33 71 34
REMARK SMILES IDX 28 35 29 36 30 37 65 38 31 39 70 40 64 41 66 42 32 43 69 44
REMARK SMILES IDX 63 45 62 46 33 48 55 49 40 50 54 51 41 52 44 53 53 54 67 55
REMARK SMILES IDX 42 56 43 57 52 59 68 60 45 61 34 62 35 63 39 64 36 65 38 66
REMARK SMILES IDX 37 67 56 68 57 69 61 70 58 71 60 72 59 73 46 74 47 75 51 76
REMARK SMILES IDX 48 77 50 78 49 79
REMARK H PARENT 17 5 22 28 66 47 44 58
REMARK Flexibility Score: inf
ROOT
ATOM      1  C   UNL A   1      31.681  27.517  26.638  1.00  0.00     0.116 C 
ENDROOT
BRANCH   1   2
ATOM      2  N   UNL A   1      31.190  27.718  25.292  1.00  0.00    -0.356 N 
ATOM      3  C   UNL A   1      31.848  27.876  24.110  1.00  0.00     0.227 C 
ATOM      4  O   UNL A   1      31.147  28.113  23.119  1.00  0.00    -0.274 OA
ATOM      5  H   UNL A   1      30.209  27.747  25.217  1.00  0.00     0.163 HD
BRANCH   3   6
ATOM      6  C   UNL A   1      33.375  27.766  23.961  1.00  0.00     0.105 C 
ATOM      7  C   UNL A   1      33.959  28.631  22.846  1.00  0.00     0.023 C 
BRANCH   6   8
ATOM      8  C   UNL A   1      33.885  26.336  24.041  1.00  0.00    -0.036 A 
ATOM      9  C   UNL A   1      34.668  23.597  24.384  1.00  0.00    -0.018 A 
ATOM     10  C   UNL A   1      34.121  24.069  23.179  1.00  0.00     0.009 A 
ATOM     11  C   UNL A   1      34.870  24.557  25.389  1.00  0.00     0.009 A 
ATOM     12  C   UNL A   1      33.769  25.416  22.998  1.00  0.00     0.005 A 
ATOM     13  C   UNL A   1      34.465  25.889  25.234  1.00  0.00     0.005 A 
BRANCH   9  14
ATOM     14  C   UNL A   1      34.971  22.155  24.598  1.00  0.00    -0.017 A 
ATOM     15  C   UNL A   1      34.209  19.816  24.743  1.00  0.00     0.008 A 
ATOM     16  C   UNL A   1      35.522  19.390  24.924  1.00  0.00     0.015 A 
ATOM     17  C   UNL A   1      33.948  21.183  24.594  1.00  0.00     0.023 A 
ATOM     18  C   UNL A   1      36.558  20.321  24.948  1.00  0.00     0.002 A 
ATOM     19  C   UNL A   1      36.283  21.684  24.793  1.00  0.00     0.009 A 
BRANCH  15  20
ATOM     20  S   UNL A   1      32.882  18.625  24.820  1.00  0.00    -0.126 SA
BRANCH  20  21
ATOM     21  C   UNL A   1      33.786  17.045  24.668  1.00  0.00     0.071 C 
ATOM     22  C   UNL A   1      33.991  16.607  23.227  1.00  0.00     0.016 C 
ENDBRANCH  20  21
ENDBRANCH  15  20
ENDBRANCH   9  14
ENDBRANCH   6   8
ENDBRANCH   3   6
ENDBRANCH   1   2
BRANCH   1  23
ATOM     23  C   UNL A   1      31.745  28.822  27.431  1.00  0.00     0.023 C 
BRANCH  23  24
ATOM     24  C   UNL A   1      32.000  30.074  26.592  1.00  0.00     0.023 C 
BRANCH  24  25
ATOM     25  C   UNL A   1      32.989  31.071  27.189  1.00  0.00     0.116 C 
BRANCH  25  26
ATOM     26  N   UNL A   1      32.446  32.410  27.378  1.00  0.00    -0.352 N 
ATOM     27  C   UNL A   1      33.016  33.475  28.037  1.00  0.00     0.251 C 
ATOM     28  H   UNL A   1      31.558  32.572  26.984  1.00  0.00     0.163 HD
ATOM     29  O   UNL A   1      32.411  34.529  28.173  1.00  0.00    -0.269 OA
BRANCH  27  30
ATOM     30  C   UNL A   1      34.358  33.304  28.631  1.00  0.00     0.039 A 
ATOM     31  C   UNL A   1      34.471  32.660  29.865  1.00  0.00     0.014 A 
ATOM     32  C   UNL A   1      35.498  33.696  27.925  1.00  0.00     0.014 A 
ATOM     33  C   UNL A   1      35.735  32.313  30.346  1.00  0.00     0.010 A 
ATOM     34  C   UNL A   1      36.750  33.295  28.373  1.00  0.00     0.010 A 
ATOM     35  C   UNL A   1      36.878  32.580  29.575  1.00  0.00    -0.014 A 
BRANCH  35  36
ATOM     36  C   UNL A   1      38.217  32.082  29.972  1.00  0.00     0.031 A 
ATOM     37  C   UNL A   1      38.713  30.762  29.457  1.00  0.00     0.074 A 
ATOM     38  C   UNL A   1      38.938  32.767  30.882  1.00  0.00     0.049 A 
ATOM     39  N   UNL A   1      39.786  30.095  29.796  1.00  0.00    -0.248 NA
ATOM     40  C   UNL A   1      37.877  30.091  28.448  1.00  0.00     0.031 C 
ATOM     41  C   UNL A   1      38.550  34.042  31.489  1.00  0.00     0.029 A 
ATOM     42  N   UNL A   1      40.142  32.472  31.471  1.00  0.00    -0.354 N 
ATOM     43  C   UNL A   1      39.741  28.916  29.064  1.00  0.00     0.074 A 
ATOM     44  C   UNL A   1      38.520  28.944  28.289  1.00  0.00     0.031 C 
ATOM     45  C   UNL A   1      39.504  34.425  32.353  1.00  0.00     0.029 A 
ATOM     46  C   UNL A   1      40.546  33.406  32.394  1.00  0.00     0.049 A 
ATOM     47  H   UNL A   1      40.666  31.667  31.253  1.00  0.00     0.167 HD
ATOM     48  C   UNL A   1      40.643  27.907  29.032  1.00  0.00     0.031 A 
ATOM     49  C   UNL A   1      41.626  33.430  33.198  1.00  0.00     0.031 A 
ATOM     50  C   UNL A   1      41.866  27.888  29.785  1.00  0.00     0.049 A 
ATOM     51  C   UNL A   1      42.600  32.288  33.157  1.00  0.00     0.074 A 
ATOM     52  C   UNL A   1      42.881  26.947  29.758  1.00  0.00     0.029 A 
ATOM     53  N   UNL A   1      42.240  28.855  30.705  1.00  0.00    -0.354 N 
ATOM     54  N   UNL A   1      42.575  31.209  32.414  1.00  0.00    -0.248 NA
ATOM     55  C   UNL A   1      43.749  32.365  34.072  1.00  0.00     0.031 C 
ATOM     56  C   UNL A   1      43.850  27.324  30.694  1.00  0.00     0.029 A 
ATOM     57  C   UNL A   1      43.456  28.518  31.274  1.00  0.00     0.049 A 
ATOM     58  H   UNL A   1      41.718  29.662  30.921  1.00  0.00     0.167 HD
ATOM     59  C   UNL A   1      43.709  30.487  32.758  1.00  0.00     0.074 A 
ATOM     60  C   UNL A   1      44.408  31.256  33.768  1.00  0.00     0.031 C 
ATOM     61  C   UNL A   1      44.132  29.291  32.282  1.00  0.00     0.031 A 
BRANCH  48  62
ATOM     62  C   UNL A   1      40.328  26.732  28.152  1.00  0.00    -0.014 A 
ATOM     63  C   UNL A   1      40.855  26.638  26.854  1.00  0.00     0.009 A 
ATOM     64  C   UNL A   1      39.518  25.694  28.636  1.00  0.00     0.009 A 
ATOM     65  C   UNL A   1      40.546  25.543  26.046  1.00  0.00     0.001 A 
ATOM     66  C   UNL A   1      39.231  24.589  27.835  1.00  0.00     0.001 A 
ATOM     67  C   UNL A   1      39.738  24.518  26.537  1.00  0.00     0.000 A 
ENDBRANCH  48  62
BRANCH  49  68
ATOM     68  C   UNL A   1      41.840  34.574  34.120  1.00  0.00    -0.014 A 
ATOM     69  C   UNL A   1      41.353  34.522  35.435  1.00  0.00     0.009 A 
ATOM     70  C   UNL A   1      42.528  35.720  33.693  1.00  0.00     0.009 A 
ATOM     71  C   UNL A   1      41.534  35.605  36.299  1.00  0.00     0.001 A 
ATOM     72  C   UNL A   1      42.727  36.792  34.566  1.00  0.00     0.001 A 
ATOM     73  C   UNL A   1      42.224  36.736  35.864  1.00  0.00     0.000 A 
ENDBRANCH  49  68
BRANCH  61  74
ATOM     74  C   UNL A   1      45.414  28.747  32.839  1.00  0.00    -0.014 A 
ATOM     75  C   UNL A   1      45.406  27.819  33.891  1.00  0.00     0.009 A 
ATOM     76  C   UNL A   1      46.640  29.127  32.270  1.00  0.00     0.009 A 
ATOM     77  C   UNL A   1      46.605  27.296  34.377  1.00  0.00     0.001 A 
ATOM     78  C   UNL A   1      47.835  28.586  32.744  1.00  0.00     0.001 A 
ATOM     79  C   UNL A   1      47.817  27.676  33.800  1.00  0.00     0.000 A 
ENDBRANCH  61  74
ENDBRANCH  35  36
ENDBRANCH  27  30
ENDBRANCH  25  26
ENDBRANCH  24  25
ENDBRANCH  23  24
ENDBRANCH   1  23
TORSDOF 15
ENDMDL
MODEL 3
REMARK VINA RESULT:     -10.6      2.750      4.014
REMARK SMILES CCSc1cccc(-c2ccc([C@@H](C)C(=O)NCCCCNC(=O)c3ccc(-c4c5nc(c(-c6ccccc6)c6ccc([nH]6)c(-c6ccccc6)c6nc(c(-c7ccccc7)c7ccc4[nH]7)C=C6)C=C5)cc3)cc2)c1
REMARK SMILES IDX 18 1 17 2 15 3 16 4 13 6 14 7 12 8 9 9 10 10 74 11 11 12
REMARK SMILES IDX 73 13 8 14 4 15 5 16 75 17 6 18 7 19 3 20 2 21 1 22 19 23
REMARK SMILES IDX 20 24 21 25 22 26 23 27 24 29 25 30 26 31 72 32 27 33 71 34
REMARK SMILES IDX 28 35 29 36 30 37 65 38 31 39 70 40 64 41 66 42 32 43 69 44
REMARK SMILES IDX 63 45 62 46 33 48 55 49 40 50 54 51 41 52 44 53 53 54 67 55
REMARK SMILES IDX 42 56 43 57 52 59 68 60 45 61 34 62 35 63 39 64 36 65 38 66
REMARK SMILES IDX 37 67 56 68 57 69 61 70 58 71 60 72 59 73 46 74 47 75 51 76
REMARK SMILES IDX 48 77 50 78 49 79
REMARK H PARENT 17 5 22 28 66 47 44 58
REMARK Flexibility Score: inf
ROOT
ATOM      1  C   UNL A   1      34.736  29.324  27.404  1.00  0.00     0.116 C 
ENDROOT
BRANCH   1   2
ATOM      2  N   UNL A   1      33.436  28.936  27.907  1.00  0.00    -0.356 N 
ATOM      3  C   UNL A   1      32.350  28.406  27.278  1.00  0.00     0.227 C 
ATOM      4  O   UNL A   1      31.336  28.252  27.969  1.00  0.00    -0.274 OA
ATOM      5  H   UNL A   1      33.313  29.082  28.873  1.00  0.00     0.163 HD
BRANCH   3   6
ATOM      6  C   UNL A   1      32.338  27.996  25.796  1.00  0.00     0.105 C 
ATOM      7  C   UNL A   1      31.084  28.426  25.037  1.00  0.00     0.023 C 
BRANCH   6   8
ATOM      8  C   UNL A   1      32.811  26.569  25.563  1.00  0.00    -0.036 A 
ATOM      9  C   UNL A   1      33.929  23.947  25.241  1.00  0.00    -0.018 A 
ATOM     10  C   UNL A   1      32.793  24.179  26.034  1.00  0.00     0.009 A 
ATOM     11  C   UNL A   1      34.448  25.063  24.562  1.00  0.00     0.009 A 
ATOM     12  C   UNL A   1      32.225  25.455  26.166  1.00  0.00     0.005 A 
ATOM     13  C   UNL A   1      33.919  26.348  24.738  1.00  0.00     0.005 A 
BRANCH   9  14
ATOM     14  C   UNL A   1      34.574  22.607  25.161  1.00  0.00    -0.017 A 
ATOM     15  C   UNL A   1      34.383  20.163  24.910  1.00  0.00     0.008 A 
ATOM     16  C   UNL A   1      35.771  20.045  24.928  1.00  0.00     0.015 A 
ATOM     17  C   UNL A   1      33.804  21.431  25.036  1.00  0.00     0.023 A 
ATOM     18  C   UNL A   1      36.564  21.181  25.063  1.00  0.00     0.002 A 
ATOM     19  C   UNL A   1      35.971  22.443  25.184  1.00  0.00     0.009 A 
BRANCH  15  20
ATOM     20  S   UNL A   1      33.378  18.691  24.842  1.00  0.00    -0.126 SA
BRANCH  20  21
ATOM     21  C   UNL A   1      34.593  17.430  24.320  1.00  0.00     0.071 C 
ATOM     22  C   UNL A   1      34.182  16.686  23.060  1.00  0.00     0.016 C 
ENDBRANCH  20  21
ENDBRANCH  15  20
ENDBRANCH   9  14
ENDBRANCH   6   8
ENDBRANCH   3   6
ENDBRANCH   1   2
BRANCH   1  23
ATOM     23  C   UNL A   1      35.144  30.720  27.872  1.00  0.00     0.023 C 
BRANCH  23  24
ATOM     24  C   UNL A   1      33.993  31.716  28.009  1.00  0.00     0.023 C 
BRANCH  24  25
ATOM     25  C   UNL A   1      34.393  33.188  27.979  1.00  0.00     0.116 C 
BRANCH  25  26
ATOM     26  N   UNL A   1      33.664  34.023  28.924  1.00  0.00    -0.352 N 
ATOM     27  C   UNL A   1      33.947  34.252  30.252  1.00  0.00     0.251 C 
ATOM     28  H   UNL A   1      32.869  34.481  28.569  1.00  0.00     0.163 HD
ATOM     29  O   UNL A   1      33.204  34.933  30.946  1.00  0.00    -0.269 OA
BRANCH  27  30
ATOM     30  C   UNL A   1      35.141  33.613  30.842  1.00  0.00     0.039 A 
ATOM     31  C   UNL A   1      34.971  32.494  31.660  1.00  0.00     0.014 A 
ATOM     32  C   UNL A   1      36.421  34.065  30.510  1.00  0.00     0.014 A 
ATOM     33  C   UNL A   1      36.088  31.762  32.063  1.00  0.00     0.010 A 
ATOM     34  C   UNL A   1      37.527  33.300  30.859  1.00  0.00     0.010 A 
ATOM     35  C   UNL A   1      37.368  32.128  31.618  1.00  0.00    -0.014 A 
BRANCH  35  36
ATOM     36  C   UNL A   1      38.557  31.284  31.886  1.00  0.00     0.031 A 
ATOM     37  C   UNL A   1      39.478  31.620  33.023  1.00  0.00     0.074 A 
ATOM     38  C   UNL A   1      38.866  30.283  31.039  1.00  0.00     0.049 A 
ATOM     39  N   UNL A   1      40.635  31.092  33.330  1.00  0.00    -0.248 NA
ATOM     40  C   UNL A   1      39.055  32.711  33.915  1.00  0.00     0.031 C 
ATOM     41  C   UNL A   1      38.075  29.880  29.873  1.00  0.00     0.029 A 
ATOM     42  N   UNL A   1      39.944  29.433  31.017  1.00  0.00    -0.354 N 
ATOM     43  C   UNL A   1      41.090  31.803  34.432  1.00  0.00     0.074 A 
ATOM     44  C   UNL A   1      40.102  32.820  34.719  1.00  0.00     0.031 C 
ATOM     45  C   UNL A   1      38.687  28.854  29.260  1.00  0.00     0.029 A 
ATOM     46  C   UNL A   1      39.931  28.556  29.960  1.00  0.00     0.049 A 
ATOM     47  H   UNL A   1      40.658  29.452  31.694  1.00  0.00     0.167 HD
ATOM     48  C   UNL A   1      42.224  31.617  35.148  1.00  0.00     0.031 A 
ATOM     49  C   UNL A   1      40.831  27.627  29.584  1.00  0.00     0.031 A 
ATOM     50  C   UNL A   1      43.196  30.594  34.877  1.00  0.00     0.049 A 
ATOM     51  C   UNL A   1      42.090  27.454  30.384  1.00  0.00     0.074 A 
ATOM     52  C   UNL A   1      44.336  30.276  35.595  1.00  0.00     0.029 A 
ATOM     53  N   UNL A   1      43.143  29.724  33.800  1.00  0.00    -0.354 N 
ATOM     54  N   UNL A   1      42.476  28.093  31.461  1.00  0.00    -0.248 NA
ATOM     55  C   UNL A   1      43.039  26.436  29.912  1.00  0.00     0.031 C 
ATOM     56  C   UNL A   1      44.997  29.239  34.927  1.00  0.00     0.029 A 
ATOM     57  C   UNL A   1      44.247  28.888  33.816  1.00  0.00     0.049 A 
ATOM     58  H   UNL A   1      42.427  29.702  33.124  1.00  0.00     0.167 HD
ATOM     59  C   UNL A   1      43.704  27.546  31.804  1.00  0.00     0.074 A 
ATOM     60  C   UNL A   1      43.993  26.514  30.830  1.00  0.00     0.031 C 
ATOM     61  C   UNL A   1      44.521  27.872  32.835  1.00  0.00     0.031 A 
BRANCH  48  62
ATOM     62  C   UNL A   1      42.474  32.554  36.294  1.00  0.00    -0.014 A 
ATOM     63  C   UNL A   1      43.176  33.756  36.109  1.00  0.00     0.009 A 
ATOM     64  C   UNL A   1      41.978  32.244  37.569  1.00  0.00     0.009 A 
ATOM     65  C   UNL A   1      43.406  34.611  37.187  1.00  0.00     0.001 A 
ATOM     66  C   UNL A   1      42.189  33.113  38.641  1.00  0.00     0.001 A 
ATOM     67  C   UNL A   1      42.910  34.291  38.451  1.00  0.00     0.000 A 
ENDBRANCH  48  62
BRANCH  49  68
ATOM     68  C   UNL A   1      40.577  26.790  28.384  1.00  0.00    -0.014 A 
ATOM     69  C   UNL A   1      39.769  25.647  28.478  1.00  0.00     0.009 A 
ATOM     70  C   UNL A   1      41.138  27.127  27.143  1.00  0.00     0.009 A 
ATOM     71  C   UNL A   1      39.545  24.845  27.357  1.00  0.00     0.001 A 
ATOM     72  C   UNL A   1      40.895  26.335  26.018  1.00  0.00     0.001 A 
ATOM     73  C   UNL A   1      40.105  25.192  26.128  1.00  0.00     0.000 A 
ENDBRANCH  49  68
BRANCH  61  74
ATOM     74  C   UNL A   1      45.798  27.097  32.967  1.00  0.00    -0.014 A 
ATOM     75  C   UNL A   1      47.001  27.598  32.448  1.00  0.00     0.009 A 
ATOM     76  C   UNL A   1      45.808  25.880  33.665  1.00  0.00     0.009 A 
ATOM     77  C   UNL A   1      48.189  26.882  32.607  1.00  0.00     0.001 A 
ATOM     78  C   UNL A   1      47.001  25.177  33.841  1.00  0.00     0.001 A 
ATOM     79  C   UNL A   1      48.188  25.676  33.308  1.00  0.00     0.000 A 
ENDBRANCH  61  74
ENDBRANCH  35  36
ENDBRANCH  27  30
ENDBRANCH  25  26
ENDBRANCH  24  25
ENDBRANCH  23  24
ENDBRANCH   1  23
TORSDOF 15
ENDMDL
