MODEL 1
REMARK VINA RESULT:     -11.4      0.000      0.000
REMARK SMILES COc1cc(OC(F)(F)F)cc2c1O[C@@H](C(F)(F)F)C(C(=O)NCCCCNC(=O)c1ccc(-c3c4nc(c(-c5ccccc5)c5ccc([nH]5)c(-c5ccccc5)c5nc(c(-c6ccccc6)c6ccc3[nH]6)C=C5)C=C4)cc1)=C2
REMARK SMILES IDX 25 1 24 2 23 3 21 4 22 5 20 7 3 8 4 9 13 10 5 11 12 12 14 13
REMARK SMILES IDX 11 14 79 15 15 16 2 17 1 18 6 19 7 20 8 21 9 22 10 23 16 24
REMARK SMILES IDX 17 25 18 26 19 27 26 28 27 29 28 30 29 31 30 33 31 34 32 35
REMARK SMILES IDX 78 36 33 37 77 38 34 39 35 40 36 41 71 42 37 43 76 44 70 45
REMARK SMILES IDX 72 46 38 47 75 48 69 49 68 50 39 52 61 53 46 54 60 55 47 56
REMARK SMILES IDX 50 57 59 58 73 59 48 60 49 61 58 63 74 64 51 65 40 66 41 67
REMARK SMILES IDX 45 68 42 69 44 70 43 71 62 72 63 73 67 74 64 75 66 76 65 77
REMARK SMILES IDX 52 78 53 79 57 80 54 81 56 82 55 83
REMARK H PARENT 23 6 28 32 72 51 50 62
REMARK Flexibility Score: inf
ROOT
ATOM      1  C   UNL A   1      39.381  22.711  26.455  1.00  0.00     0.023 C 
ENDROOT
BRANCH   1   2
ATOM      2  C   UNL A   1      38.133  23.536  26.125  1.00  0.00     0.116 C 
BRANCH   2   3
ATOM      3  N   UNL A   1      37.766  23.345  24.732  1.00  0.00    -0.352 N 
ATOM      4  C   UNL A   1      36.566  23.326  24.097  1.00  0.00     0.251 C 
ATOM      5  O   UNL A   1      36.543  22.953  22.926  1.00  0.00    -0.270 OA
ATOM      6  H   UNL A   1      38.536  23.203  24.135  1.00  0.00     0.163 HD
BRANCH   4   7
ATOM      7  C   UNL A   1      35.303  23.794  24.730  1.00  0.00     0.067 C 
ATOM      8  C   UNL A   1      31.604  24.792  26.475  1.00  0.00     0.165 A 
ATOM      9  C   UNL A   1      31.022  26.035  26.189  1.00  0.00     0.097 A 
ATOM     10  C   UNL A   1      32.843  24.446  25.923  1.00  0.00     0.170 A 
ATOM     11  C   UNL A   1      31.691  26.959  25.390  1.00  0.00     0.134 A 
ATOM     12  C   UNL A   1      33.522  25.373  25.136  1.00  0.00     0.025 A 
ATOM     13  O   UNL A   1      33.304  23.173  26.088  1.00  0.00    -0.471 OA
ATOM     14  C   UNL A   1      32.948  26.626  24.880  1.00  0.00     0.059 A 
ATOM     15  C   UNL A   1      34.779  25.007  24.505  1.00  0.00     0.026 C 
ATOM     16  C   UNL A   1      34.700  22.883  25.793  1.00  0.00     0.314 C 
BRANCH   8  17
ATOM     17  O   UNL A   1      30.840  23.958  27.251  1.00  0.00    -0.493 OA
ATOM     18  C   UNL A   1      30.155  22.953  26.505  1.00  0.00     0.278 C 
ENDBRANCH   8  17
BRANCH  11  19
ATOM     19  O   UNL A   1      31.245  28.194  25.017  1.00  0.00    -0.406 OA
BRANCH  19  20
ATOM     20  C   UNL A   1      30.635  28.322  23.743  1.00  0.00     0.573 C 
ATOM     21  F   UNL A   1      30.086  27.157  23.344  1.00  0.00    -0.132 F 
ATOM     22  F   UNL A   1      29.694  29.289  23.756  1.00  0.00    -0.132 F 
ATOM     23  F   UNL A   1      31.583  28.670  22.846  1.00  0.00    -0.132 F 
ENDBRANCH  19  20
ENDBRANCH  11  19
BRANCH  16  24
ATOM     24  C   UNL A   1      34.799  21.359  25.540  1.00  0.00     0.429 C 
ATOM     25  F   UNL A   1      33.936  20.646  26.296  1.00  0.00    -0.167 F 
ATOM     26  F   UNL A   1      34.477  21.062  24.251  1.00  0.00    -0.167 F 
ATOM     27  F   UNL A   1      36.047  20.881  25.752  1.00  0.00    -0.167 F 
ENDBRANCH  16  24
ENDBRANCH   4   7
ENDBRANCH   2   3
ENDBRANCH   1   2
BRANCH   1  28
ATOM     28  C   UNL A   1      39.421  21.333  25.785  1.00  0.00     0.023 C 
BRANCH  28  29
ATOM     29  C   UNL A   1      40.072  20.239  26.622  1.00  0.00     0.116 C 
BRANCH  29  30
ATOM     30  N   UNL A   1      41.217  19.625  25.969  1.00  0.00    -0.352 N 
ATOM     31  C   UNL A   1      42.464  20.161  25.751  1.00  0.00     0.251 C 
ATOM     32  H   UNL A   1      41.081  18.706  25.642  1.00  0.00     0.163 HD
ATOM     33  O   UNL A   1      43.295  19.553  25.091  1.00  0.00    -0.269 OA
BRANCH  31  34
ATOM     34  C   UNL A   1      42.771  21.502  26.286  1.00  0.00     0.039 A 
ATOM     35  C   UNL A   1      43.004  22.544  25.385  1.00  0.00     0.014 A 
ATOM     36  C   UNL A   1      42.789  21.736  27.663  1.00  0.00     0.014 A 
ATOM     37  C   UNL A   1      43.192  23.839  25.866  1.00  0.00     0.010 A 
ATOM     38  C   UNL A   1      42.913  23.037  28.138  1.00  0.00     0.010 A 
ATOM     39  C   UNL A   1      43.113  24.101  27.244  1.00  0.00    -0.014 A 
BRANCH  39  40
ATOM     40  C   UNL A   1      43.233  25.481  27.771  1.00  0.00     0.031 A 
ATOM     41  C   UNL A   1      44.579  26.024  28.157  1.00  0.00     0.074 A 
ATOM     42  C   UNL A   1      42.122  26.220  27.961  1.00  0.00     0.049 A 
ATOM     43  N   UNL A   1      44.878  27.180  28.695  1.00  0.00    -0.248 NA
ATOM     44  C   UNL A   1      45.740  25.147  27.932  1.00  0.00     0.031 C 
ATOM     45  C   UNL A   1      40.754  25.789  27.664  1.00  0.00     0.029 A 
ATOM     46  N   UNL A   1      41.970  27.488  28.460  1.00  0.00    -0.354 N 
ATOM     47  C   UNL A   1      46.253  27.161  28.886  1.00  0.00     0.074 A 
ATOM     48  C   UNL A   1      46.726  25.864  28.450  1.00  0.00     0.031 C 
ATOM     49  C   UNL A   1      39.905  26.786  27.965  1.00  0.00     0.029 A 
ATOM     50  C   UNL A   1      40.663  27.907  28.509  1.00  0.00     0.049 A 
ATOM     51  H   UNL A   1      42.726  28.046  28.754  1.00  0.00     0.167 HD
ATOM     52  C   UNL A   1      47.056  28.142  29.361  1.00  0.00     0.031 A 
ATOM     53  C   UNL A   1      40.134  29.065  28.948  1.00  0.00     0.031 A 
ATOM     54  C   UNL A   1      46.591  29.436  29.781  1.00  0.00     0.049 A 
ATOM     55  C   UNL A   1      41.048  30.135  29.477  1.00  0.00     0.074 A 
ATOM     56  C   UNL A   1      47.332  30.513  30.233  1.00  0.00     0.029 A 
ATOM     57  N   UNL A   1      45.262  29.827  29.798  1.00  0.00    -0.354 N 
ATOM     58  N   UNL A   1      42.354  30.124  29.591  1.00  0.00    -0.248 NA
ATOM     59  C   UNL A   1      40.414  31.384  29.924  1.00  0.00     0.031 C 
ATOM     60  C   UNL A   1      46.446  31.545  30.560  1.00  0.00     0.029 A 
ATOM     61  C   UNL A   1      45.159  31.125  30.266  1.00  0.00     0.049 A 
ATOM     62  H   UNL A   1      44.503  29.266  29.518  1.00  0.00     0.167 HD
ATOM     63  C   UNL A   1      42.699  31.370  30.097  1.00  0.00     0.074 A 
ATOM     64  C   UNL A   1      41.468  32.118  30.251  1.00  0.00     0.031 C 
ATOM     65  C   UNL A   1      43.927  31.854  30.405  1.00  0.00     0.031 A 
BRANCH  52  66
ATOM     66  C   UNL A   1      48.528  27.850  29.449  1.00  0.00    -0.014 A 
ATOM     67  C   UNL A   1      49.078  27.247  30.592  1.00  0.00     0.009 A 
ATOM     68  C   UNL A   1      49.366  28.142  28.364  1.00  0.00     0.009 A 
ATOM     69  C   UNL A   1      50.445  26.971  30.657  1.00  0.00     0.001 A 
ATOM     70  C   UNL A   1      50.728  27.842  28.421  1.00  0.00     0.001 A 
ATOM     71  C   UNL A   1      51.268  27.264  29.569  1.00  0.00     0.000 A 
ENDBRANCH  52  66
BRANCH  53  72
ATOM     72  C   UNL A   1      38.665  29.284  28.899  1.00  0.00    -0.014 A 
ATOM     73  C   UNL A   1      38.050  29.703  27.709  1.00  0.00     0.009 A 
ATOM     74  C   UNL A   1      37.876  29.096  30.044  1.00  0.00     0.009 A 
ATOM     75  C   UNL A   1      36.677  29.961  27.677  1.00  0.00     0.001 A 
ATOM     76  C   UNL A   1      36.500  29.328  29.999  1.00  0.00     0.001 A 
ATOM     77  C   UNL A   1      35.903  29.771  28.820  1.00  0.00     0.000 A 
ENDBRANCH  53  72
BRANCH  65  78
ATOM     78  C   UNL A   1      44.000  33.269  30.905  1.00  0.00    -0.014 A 
ATOM     79  C   UNL A   1      44.108  34.349  30.018  1.00  0.00     0.009 A 
ATOM     80  C   UNL A   1      43.919  33.521  32.283  1.00  0.00     0.009 A 
ATOM     81  C   UNL A   1      44.165  35.657  30.505  1.00  0.00     0.001 A 
ATOM     82  C   UNL A   1      43.950  34.830  32.766  1.00  0.00     0.001 A 
ATOM     83  C   UNL A   1      44.082  35.895  31.877  1.00  0.00     0.000 A 
ENDBRANCH  65  78
ENDBRANCH  39  40
ENDBRANCH  31  34
ENDBRANCH  29  30
ENDBRANCH  28  29
ENDBRANCH   1  28
TORSDOF 15
ENDMDL
MODEL 2
REMARK VINA RESULT:     -11.1      1.614      2.345
REMARK SMILES COc1cc(OC(F)(F)F)cc2c1O[C@@H](C(F)(F)F)C(C(=O)NCCCCNC(=O)c1ccc(-c3c4nc(c(-c5ccccc5)c5ccc([nH]5)c(-c5ccccc5)c5nc(c(-c6ccccc6)c6ccc3[nH]6)C=C5)C=C4)cc1)=C2
REMARK SMILES IDX 25 1 24 2 23 3 21 4 22 5 20 7 3 8 4 9 13 10 5 11 12 12 14 13
REMARK SMILES IDX 11 14 79 15 15 16 2 17 1 18 6 19 7 20 8 21 9 22 10 23 16 24
REMARK SMILES IDX 17 25 18 26 19 27 26 28 27 29 28 30 29 31 30 33 31 34 32 35
REMARK SMILES IDX 78 36 33 37 77 38 34 39 35 40 36 41 71 42 37 43 76 44 70 45
REMARK SMILES IDX 72 46 38 47 75 48 69 49 68 50 39 52 61 53 46 54 60 55 47 56
REMARK SMILES IDX 50 57 59 58 73 59 48 60 49 61 58 63 74 64 51 65 40 66 41 67
REMARK SMILES IDX 45 68 42 69 44 70 43 71 62 72 63 73 67 74 64 75 66 76 65 77
REMARK SMILES IDX 52 78 53 79 57 80 54 81 56 82 55 83
REMARK H PARENT 23 6 28 32 72 51 50 62
REMARK Flexibility Score: inf
ROOT
ATOM      1  C   UNL A   1      38.789  22.692  25.983  1.00  0.00     0.023 C 
ENDROOT
BRANCH   1   2
ATOM      2  C   UNL A   1      37.483  23.475  25.807  1.00  0.00     0.116 C 
BRANCH   2   3
ATOM      3  N   UNL A   1      36.350  22.630  26.143  1.00  0.00    -0.352 N 
ATOM      4  C   UNL A   1      35.012  22.865  26.175  1.00  0.00     0.251 C 
ATOM      5  O   UNL A   1      34.292  22.009  26.682  1.00  0.00    -0.270 OA
ATOM      6  H   UNL A   1      36.599  21.712  26.393  1.00  0.00     0.163 HD
BRANCH   4   7
ATOM      7  C   UNL A   1      34.384  24.071  25.570  1.00  0.00     0.067 C 
ATOM      8  C   UNL A   1      32.716  27.363  23.545  1.00  0.00     0.165 A 
ATOM      9  C   UNL A   1      32.809  28.640  24.115  1.00  0.00     0.097 A 
ATOM     10  C   UNL A   1      33.244  26.250  24.209  1.00  0.00     0.170 A 
ATOM     11  C   UNL A   1      33.387  28.811  25.371  1.00  0.00     0.134 A 
ATOM     12  C   UNL A   1      33.810  26.414  25.471  1.00  0.00     0.025 A 
ATOM     13  O   UNL A   1      33.282  25.052  23.557  1.00  0.00    -0.471 OA
ATOM     14  C   UNL A   1      33.871  27.689  26.049  1.00  0.00     0.059 A 
ATOM     15  C   UNL A   1      34.419  25.281  26.146  1.00  0.00     0.026 C 
ATOM     16  C   UNL A   1      33.540  23.840  24.322  1.00  0.00     0.314 C 
BRANCH   8  17
ATOM     17  O   UNL A   1      32.148  27.325  22.296  1.00  0.00    -0.493 OA
ATOM     18  C   UNL A   1      30.729  27.472  22.310  1.00  0.00     0.278 C 
ENDBRANCH   8  17
BRANCH  11  19
ATOM     19  O   UNL A   1      33.560  29.987  26.040  1.00  0.00    -0.406 OA
BRANCH  19  20
ATOM     20  C   UNL A   1      32.440  30.539  26.713  1.00  0.00     0.573 C 
ATOM     21  F   UNL A   1      32.808  31.551  27.526  1.00  0.00    -0.132 F 
ATOM     22  F   UNL A   1      31.516  30.976  25.831  1.00  0.00    -0.132 F 
ATOM     23  F   UNL A   1      31.875  29.574  27.470  1.00  0.00    -0.132 F 
ENDBRANCH  19  20
ENDBRANCH  11  19
BRANCH  16  24
ATOM     24  C   UNL A   1      34.055  22.779  23.320  1.00  0.00     0.429 C 
ATOM     25  F   UNL A   1      33.551  22.943  22.077  1.00  0.00    -0.167 F 
ATOM     26  F   UNL A   1      35.405  22.866  23.176  1.00  0.00    -0.167 F 
ATOM     27  F   UNL A   1      33.786  21.515  23.724  1.00  0.00    -0.167 F 
ENDBRANCH  16  24
ENDBRANCH   4   7
ENDBRANCH   2   3
ENDBRANCH   1   2
BRANCH   1  28
ATOM     28  C   UNL A   1      38.737  21.254  25.457  1.00  0.00     0.023 C 
BRANCH  28  29
ATOM     29  C   UNL A   1      39.251  20.202  26.432  1.00  0.00     0.116 C 
BRANCH  29  30
ATOM     30  N   UNL A   1      40.379  19.445  25.915  1.00  0.00    -0.352 N 
ATOM     31  C   UNL A   1      41.702  19.818  25.853  1.00  0.00     0.251 C 
ATOM     32  H   UNL A   1      40.169  18.549  25.564  1.00  0.00     0.163 HD
ATOM     33  O   UNL A   1      42.522  19.107  25.291  1.00  0.00    -0.269 OA
BRANCH  31  34
ATOM     34  C   UNL A   1      42.108  21.112  26.434  1.00  0.00     0.039 A 
ATOM     35  C   UNL A   1      42.465  22.151  25.571  1.00  0.00     0.014 A 
ATOM     36  C   UNL A   1      42.101  21.309  27.818  1.00  0.00     0.014 A 
ATOM     37  C   UNL A   1      42.751  23.411  26.094  1.00  0.00     0.010 A 
ATOM     38  C   UNL A   1      42.324  22.581  28.332  1.00  0.00     0.010 A 
ATOM     39  C   UNL A   1      42.649  23.644  27.476  1.00  0.00    -0.014 A 
BRANCH  39  40
ATOM     40  C   UNL A   1      42.874  24.994  28.045  1.00  0.00     0.031 A 
ATOM     41  C   UNL A   1      44.240  25.387  28.532  1.00  0.00     0.074 A 
ATOM     42  C   UNL A   1      41.835  25.841  28.181  1.00  0.00     0.049 A 
ATOM     43  N   UNL A   1      44.619  26.495  29.118  1.00  0.00    -0.248 NA
ATOM     44  C   UNL A   1      45.317  24.399  28.359  1.00  0.00     0.031 C 
ATOM     45  C   UNL A   1      40.453  25.560  27.785  1.00  0.00     0.029 A 
ATOM     46  N   UNL A   1      41.780  27.108  28.701  1.00  0.00    -0.354 N 
ATOM     47  C   UNL A   1      45.969  26.329  29.397  1.00  0.00     0.074 A 
ATOM     48  C   UNL A   1      46.334  24.999  28.959  1.00  0.00     0.031 C 
ATOM     49  C   UNL A   1      39.692  26.634  28.056  1.00  0.00     0.029 A 
ATOM     50  C   UNL A   1      40.523  27.660  28.677  1.00  0.00     0.049 A 
ATOM     51  H   UNL A   1      42.567  27.579  29.059  1.00  0.00     0.167 HD
ATOM     52  C   UNL A   1      46.833  27.213  29.949  1.00  0.00     0.031 A 
ATOM     53  C   UNL A   1      40.086  28.858  29.110  1.00  0.00     0.031 A 
ATOM     54  C   UNL A   1      46.477  28.540  30.370  1.00  0.00     0.049 A 
ATOM     55  C   UNL A   1      41.068  29.817  29.724  1.00  0.00     0.074 A 
ATOM     56  C   UNL A   1      47.291  29.526  30.897  1.00  0.00     0.029 A 
ATOM     57  N   UNL A   1      45.196  29.067  30.311  1.00  0.00    -0.354 N 
ATOM     58  N   UNL A   1      42.355  29.668  29.923  1.00  0.00    -0.248 NA
ATOM     59  C   UNL A   1      40.536  31.116  30.162  1.00  0.00     0.031 C 
ATOM     60  C   UNL A   1      46.496  30.638  31.192  1.00  0.00     0.029 A 
ATOM     61  C   UNL A   1      45.196  30.359  30.805  1.00  0.00     0.049 A 
ATOM     62  H   UNL A   1      44.405  28.593  29.967  1.00  0.00     0.167 HD
ATOM     63  C   UNL A   1      42.790  30.862  30.482  1.00  0.00     0.074 A 
ATOM     64  C   UNL A   1      41.635  31.731  30.575  1.00  0.00     0.031 C 
ATOM     65  C   UNL A   1      44.038  31.210  30.882  1.00  0.00     0.031 A 
BRANCH  52  66
ATOM     66  C   UNL A   1      48.258  26.768  30.125  1.00  0.00    -0.014 A 
ATOM     67  C   UNL A   1      49.226  27.040  29.145  1.00  0.00     0.009 A 
ATOM     68  C   UNL A   1      48.646  26.107  31.299  1.00  0.00     0.009 A 
ATOM     69  C   UNL A   1      50.549  26.630  29.325  1.00  0.00     0.001 A 
ATOM     70  C   UNL A   1      49.974  25.721  31.489  1.00  0.00     0.001 A 
ATOM     71  C   UNL A   1      50.922  25.976  30.499  1.00  0.00     0.000 A 
ENDBRANCH  52  66
BRANCH  53  72
ATOM     72  C   UNL A   1      38.655  29.229  28.971  1.00  0.00    -0.014 A 
ATOM     73  C   UNL A   1      37.781  29.110  30.063  1.00  0.00     0.009 A 
ATOM     74  C   UNL A   1      38.150  29.683  27.743  1.00  0.00     0.009 A 
ATOM     75  C   UNL A   1      36.424  29.408  29.919  1.00  0.00     0.001 A 
ATOM     76  C   UNL A   1      36.798  30.006  27.610  1.00  0.00     0.001 A 
ATOM     77  C   UNL A   1      35.934  29.858  28.694  1.00  0.00     0.000 A 
ENDBRANCH  53  72
BRANCH  65  78
ATOM     78  C   UNL A   1      44.222  32.599  31.422  1.00  0.00    -0.014 A 
ATOM     79  C   UNL A   1      44.106  32.869  32.793  1.00  0.00     0.009 A 
ATOM     80  C   UNL A   1      44.556  33.643  30.546  1.00  0.00     0.009 A 
ATOM     81  C   UNL A   1      44.291  34.167  33.273  1.00  0.00     0.001 A 
ATOM     82  C   UNL A   1      44.766  34.934  31.031  1.00  0.00     0.001 A 
ATOM     83  C   UNL A   1      44.624  35.197  32.393  1.00  0.00     0.000 A 
ENDBRANCH  65  78
ENDBRANCH  39  40
ENDBRANCH  31  34
ENDBRANCH  29  30
ENDBRANCH  28  29
ENDBRANCH   1  28
TORSDOF 15
ENDMDL
MODEL 3
REMARK VINA RESULT:     -11.1      3.498      8.820
REMARK SMILES COc1cc(OC(F)(F)F)cc2c1O[C@@H](C(F)(F)F)C(C(=O)NCCCCNC(=O)c1ccc(-c3c4nc(c(-c5ccccc5)c5ccc([nH]5)c(-c5ccccc5)c5nc(c(-c6ccccc6)c6ccc3[nH]6)C=C5)C=C4)cc1)=C2
REMARK SMILES IDX 25 1 24 2 23 3 21 4 22 5 20 7 3 8 4 9 13 10 5 11 12 12 14 13
REMARK SMILES IDX 11 14 79 15 15 16 2 17 1 18 6 19 7 20 8 21 9 22 10 23 16 24
REMARK SMILES IDX 17 25 18 26 19 27 26 28 27 29 28 30 29 31 30 33 31 34 32 35
REMARK SMILES IDX 78 36 33 37 77 38 34 39 35 40 36 41 71 42 37 43 76 44 70 45
REMARK SMILES IDX 72 46 38 47 75 48 69 49 68 50 39 52 61 53 46 54 60 55 47 56
REMARK SMILES IDX 50 57 59 58 73 59 48 60 49 61 58 63 74 64 51 65 40 66 41 67
REMARK SMILES IDX 45 68 42 69 44 70 43 71 62 72 63 73 67 74 64 75 66 76 65 77
REMARK SMILES IDX 52 78 53 79 57 80 54 81 56 82 55 83
REMARK H PARENT 23 6 28 32 72 51 50 62
REMARK Flexibility Score: inf
ROOT
ATOM      1  C   UNL A   1      34.769  30.967  27.940  1.00  0.00     0.023 C 
ENDROOT
BRANCH   1   2
ATOM      2  C   UNL A   1      34.604  29.555  27.368  1.00  0.00     0.116 C 
BRANCH   2   3
ATOM      3  N   UNL A   1      33.340  28.988  27.803  1.00  0.00    -0.352 N 
ATOM      4  C   UNL A   1      32.500  28.084  27.237  1.00  0.00     0.251 C 
ATOM      5  O   UNL A   1      31.395  27.926  27.751  1.00  0.00    -0.270 OA
ATOM      6  H   UNL A   1      33.035  29.321  28.678  1.00  0.00     0.163 HD
BRANCH   4   7
ATOM      7  C   UNL A   1      32.880  27.238  26.073  1.00  0.00     0.067 C 
ATOM      8  C   UNL A   1      33.690  24.997  22.602  1.00  0.00     0.165 A 
ATOM      9  C   UNL A   1      34.042  23.645  22.722  1.00  0.00     0.097 A 
ATOM     10  C   UNL A   1      33.436  25.768  23.742  1.00  0.00     0.170 A 
ATOM     11  C   UNL A   1      34.189  23.066  23.980  1.00  0.00     0.134 A 
ATOM     12  C   UNL A   1      33.597  25.196  25.001  1.00  0.00     0.025 A 
ATOM     13  O   UNL A   1      32.940  27.029  23.587  1.00  0.00    -0.471 OA
ATOM     14  C   UNL A   1      33.980  23.853  25.115  1.00  0.00     0.059 A 
ATOM     15  C   UNL A   1      33.277  25.963  26.193  1.00  0.00     0.026 C 
ATOM     16  C   UNL A   1      32.958  27.940  24.722  1.00  0.00     0.314 C 
BRANCH   8  17
ATOM     17  O   UNL A   1      33.552  25.448  21.313  1.00  0.00    -0.493 OA
ATOM     18  C   UNL A   1      32.193  25.577  20.897  1.00  0.00     0.278 C 
ENDBRANCH   8  17
BRANCH  11  19
ATOM     19  O   UNL A   1      34.511  21.767  24.251  1.00  0.00    -0.406 OA
BRANCH  19  20
ATOM     20  C   UNL A   1      33.464  20.889  24.629  1.00  0.00     0.573 C 
ATOM     21  F   UNL A   1      33.283  20.890  25.966  1.00  0.00    -0.132 F 
ATOM     22  F   UNL A   1      32.310  21.222  24.013  1.00  0.00    -0.132 F 
ATOM     23  F   UNL A   1      33.796  19.636  24.251  1.00  0.00    -0.132 F 
ENDBRANCH  19  20
ENDBRANCH  11  19
BRANCH  16  24
ATOM     24  C   UNL A   1      31.893  29.028  24.441  1.00  0.00     0.429 C 
ATOM     25  F   UNL A   1      30.664  28.685  24.884  1.00  0.00    -0.167 F 
ATOM     26  F   UNL A   1      32.200  30.183  25.093  1.00  0.00    -0.167 F 
ATOM     27  F   UNL A   1      31.802  29.334  23.126  1.00  0.00    -0.167 F 
ENDBRANCH  16  24
ENDBRANCH   4   7
ENDBRANCH   2   3
ENDBRANCH   1   2
BRANCH   1  28
ATOM     28  C   UNL A   1      33.521  31.847  27.814  1.00  0.00     0.023 C 
BRANCH  28  29
ATOM     29  C   UNL A   1      33.807  33.331  27.625  1.00  0.00     0.116 C 
BRANCH  29  30
ATOM     30  N   UNL A   1      33.225  34.163  28.667  1.00  0.00    -0.352 N 
ATOM     31  C   UNL A   1      33.656  34.338  29.961  1.00  0.00     0.251 C 
ATOM     32  H   UNL A   1      32.417  34.666  28.412  1.00  0.00     0.163 HD
ATOM     33  O   UNL A   1      32.995  34.994  30.752  1.00  0.00    -0.269 OA
BRANCH  31  34
ATOM     34  C   UNL A   1      34.905  33.682  30.394  1.00  0.00     0.039 A 
ATOM     35  C   UNL A   1      34.825  32.618  31.296  1.00  0.00     0.014 A 
ATOM     36  C   UNL A   1      36.141  34.090  29.884  1.00  0.00     0.014 A 
ATOM     37  C   UNL A   1      35.982  31.919  31.638  1.00  0.00     0.010 A 
ATOM     38  C   UNL A   1      37.282  33.351  30.175  1.00  0.00     0.010 A 
ATOM     39  C   UNL A   1      37.213  32.258  31.053  1.00  0.00    -0.014 A 
BRANCH  39  40
ATOM     40  C   UNL A   1      38.440  31.479  31.343  1.00  0.00     0.031 A 
ATOM     41  C   UNL A   1      39.359  31.907  32.451  1.00  0.00     0.074 A 
ATOM     42  C   UNL A   1      38.758  30.425  30.566  1.00  0.00     0.049 A 
ATOM     43  N   UNL A   1      40.508  31.395  32.813  1.00  0.00    -0.248 NA
ATOM     44  C   UNL A   1      38.946  33.078  33.242  1.00  0.00     0.031 C 
ATOM     45  C   UNL A   1      37.969  29.935  29.433  1.00  0.00     0.029 A 
ATOM     46  N   UNL A   1      39.838  29.580  30.608  1.00  0.00    -0.354 N 
ATOM     47  C   UNL A   1      40.960  32.188  33.860  1.00  0.00     0.074 A 
ATOM     48  C   UNL A   1      39.986  33.243  34.045  1.00  0.00     0.031 C 
ATOM     49  C   UNL A   1      38.580  28.863  28.903  1.00  0.00     0.029 A 
ATOM     50  C   UNL A   1      39.819  28.613  29.633  1.00  0.00     0.049 A 
ATOM     51  H   UNL A   1      40.559  29.659  31.274  1.00  0.00     0.167 HD
ATOM     52  C   UNL A   1      42.075  32.041  34.614  1.00  0.00     0.031 A 
ATOM     53  C   UNL A   1      40.703  27.637  29.355  1.00  0.00     0.031 A 
ATOM     54  C   UNL A   1      43.035  30.986  34.441  1.00  0.00     0.049 A 
ATOM     55  C   UNL A   1      41.936  27.500  30.205  1.00  0.00     0.074 A 
ATOM     56  C   UNL A   1      44.172  30.724  35.185  1.00  0.00     0.029 A 
ATOM     57  N   UNL A   1      42.969  30.015  33.454  1.00  0.00    -0.354 N 
ATOM     58  N   UNL A   1      42.316  28.221  31.231  1.00  0.00    -0.248 NA
ATOM     59  C   UNL A   1      42.854  26.404  29.865  1.00  0.00     0.031 C 
ATOM     60  C   UNL A   1      44.815  29.617  34.624  1.00  0.00     0.029 A 
ATOM     61  C   UNL A   1      44.053  29.162  33.561  1.00  0.00     0.049 A 
ATOM     62  H   UNL A   1      42.258  29.943  32.778  1.00  0.00     0.167 HD
ATOM     63  C   UNL A   1      43.501  27.650  31.675  1.00  0.00     0.074 A 
ATOM     64  C   UNL A   1      43.769  26.514  30.819  1.00  0.00     0.031 C 
ATOM     65  C   UNL A   1      44.298  28.033  32.703  1.00  0.00     0.031 A 
BRANCH  52  66
ATOM     66  C   UNL A   1      42.312  33.050  35.702  1.00  0.00    -0.014 A 
ATOM     67  C   UNL A   1      42.991  34.251  35.438  1.00  0.00     0.009 A 
ATOM     68  C   UNL A   1      41.817  32.818  36.993  1.00  0.00     0.009 A 
ATOM     69  C   UNL A   1      43.195  35.185  36.455  1.00  0.00     0.001 A 
ATOM     70  C   UNL A   1      42.000  33.765  38.002  1.00  0.00     0.001 A 
ATOM     71  C   UNL A   1      42.695  34.944  37.735  1.00  0.00     0.000 A 
ENDBRANCH  52  66
BRANCH  53  72
ATOM     72  C   UNL A   1      40.456  26.700  28.229  1.00  0.00    -0.014 A 
ATOM     73  C   UNL A   1      39.652  25.564  28.413  1.00  0.00     0.009 A 
ATOM     74  C   UNL A   1      41.037  26.924  26.972  1.00  0.00     0.009 A 
ATOM     75  C   UNL A   1      39.464  24.654  27.370  1.00  0.00     0.001 A 
ATOM     76  C   UNL A   1      40.823  26.027  25.923  1.00  0.00     0.001 A 
ATOM     77  C   UNL A   1      40.047  24.887  26.126  1.00  0.00     0.000 A 
ENDBRANCH  53  72
BRANCH  65  78
ATOM     78  C   UNL A   1      45.512  27.193  32.977  1.00  0.00    -0.014 A 
ATOM     79  C   UNL A   1      46.753  27.495  32.397  1.00  0.00     0.009 A 
ATOM     80  C   UNL A   1      45.418  26.107  33.862  1.00  0.00     0.009 A 
ATOM     81  C   UNL A   1      47.870  26.705  32.674  1.00  0.00     0.001 A 
ATOM     82  C   UNL A   1      46.542  25.336  34.158  1.00  0.00     0.001 A 
ATOM     83  C   UNL A   1      47.764  25.630  33.557  1.00  0.00     0.000 A 
ENDBRANCH  65  78
ENDBRANCH  39  40
ENDBRANCH  31  34
ENDBRANCH  29  30
ENDBRANCH  28  29
ENDBRANCH   1  28
TORSDOF 15
ENDMDL
