MODEL 1
REMARK VINA RESULT:     -11.1      0.000      0.000
REMARK SMILES O=C(NCCCCNC(=O)[C@H]1CS[C@]2(c3ccccc3)CCC(=O)N12)c1ccc(-c2c3nc(c(-c4ccccc4)c4ccc([nH]4)c(-c4ccccc4)c4nc(c(-c5ccccc5)c5ccc2[nH]5)C=C4)C=C3)cc1
REMARK SMILES IDX 5 1 4 2 3 3 1 4 2 5 26 7 27 8 73 9 28 10 72 11 29 12 30 13
REMARK SMILES IDX 31 14 66 15 32 16 71 17 65 18 67 19 33 20 70 21 64 22 63 23
REMARK SMILES IDX 34 25 56 26 41 27 55 28 42 29 45 30 54 31 68 32 43 33 44 34
REMARK SMILES IDX 53 36 69 37 46 38 35 39 36 40 40 41 37 42 39 43 38 44 57 45
REMARK SMILES IDX 58 46 62 47 59 48 61 49 60 50 47 51 48 52 52 53 49 54 51 55
REMARK SMILES IDX 50 56 6 57 7 58 8 59 9 60 10 62 11 63 12 64 25 65 13 66
REMARK SMILES IDX 14 67 23 68 21 69 22 70 24 71 15 72 16 73 20 74 17 75 19 76
REMARK SMILES IDX 18 77
REMARK H PARENT 3 6 67 24 45 35 8 61
REMARK Flexibility Score: inf
ROOT
ATOM      1  C   UNL A   1      36.183  23.202  25.998  1.00  0.00     0.023 C 
ENDROOT
BRANCH   1   2
ATOM      2  C   UNL A   1      37.363  23.142  25.050  1.00  0.00     0.116 C 
BRANCH   2   3
ATOM      3  N   UNL A   1      38.482  22.333  25.516  1.00  0.00    -0.352 N 
ATOM      4  O   UNL A   1      40.429  22.002  26.659  1.00  0.00    -0.269 OA
ATOM      5  C   UNL A   1      39.505  22.741  26.352  1.00  0.00     0.251 C 
ATOM      6  H   UNL A   1      38.515  21.400  25.203  1.00  0.00     0.163 HD
BRANCH   5   7
ATOM      7  C   UNL A   1      39.454  24.140  26.821  1.00  0.00     0.039 A 
ATOM      8  C   UNL A   1      40.069  25.115  26.038  1.00  0.00     0.014 A 
ATOM      9  C   UNL A   1      39.047  24.414  28.129  1.00  0.00     0.014 A 
ATOM     10  C   UNL A   1      40.506  26.274  26.655  1.00  0.00     0.010 A 
ATOM     11  C   UNL A   1      39.342  25.662  28.687  1.00  0.00     0.010 A 
ATOM     12  C   UNL A   1      40.120  26.585  27.974  1.00  0.00    -0.014 A 
BRANCH  12  13
ATOM     13  C   UNL A   1      40.492  27.920  28.513  1.00  0.00     0.031 A 
ATOM     14  C   UNL A   1      39.485  29.019  28.732  1.00  0.00     0.074 A 
ATOM     15  C   UNL A   1      41.777  28.096  28.886  1.00  0.00     0.049 A 
ATOM     16  N   UNL A   1      39.680  30.213  29.237  1.00  0.00    -0.248 NA
ATOM     17  C   UNL A   1      38.094  28.766  28.325  1.00  0.00     0.031 C 
ATOM     18  C   UNL A   1      42.846  27.105  28.711  1.00  0.00     0.029 A 
ATOM     19  N   UNL A   1      42.396  29.132  29.532  1.00  0.00    -0.354 N 
ATOM     20  C   UNL A   1      38.450  30.860  29.186  1.00  0.00     0.074 A 
ATOM     21  C   UNL A   1      37.516  29.934  28.582  1.00  0.00     0.031 C 
ATOM     22  C   UNL A   1      43.950  27.531  29.331  1.00  0.00     0.029 A 
ATOM     23  C   UNL A   1      43.711  28.875  29.832  1.00  0.00     0.049 A 
ATOM     24  H   UNL A   1      41.943  29.977  29.759  1.00  0.00     0.167 HD
ATOM     25  C   UNL A   1      38.134  32.112  29.602  1.00  0.00     0.031 A 
ATOM     26  C   UNL A   1      44.647  29.643  30.415  1.00  0.00     0.031 A 
ATOM     27  C   UNL A   1      39.073  33.028  30.203  1.00  0.00     0.049 A 
ATOM     28  C   UNL A   1      44.270  31.026  30.840  1.00  0.00     0.074 A 
ATOM     29  C   UNL A   1      38.850  34.317  30.660  1.00  0.00     0.029 A 
ATOM     30  N   UNL A   1      40.412  32.752  30.436  1.00  0.00    -0.354 N 
ATOM     31  N   UNL A   1      43.102  31.618  30.774  1.00  0.00    -0.248 NA
ATOM     32  C   UNL A   1      45.341  31.848  31.411  1.00  0.00     0.031 C 
ATOM     33  C   UNL A   1      40.064  34.838  31.122  1.00  0.00     0.029 A 
ATOM     34  C   UNL A   1      41.030  33.851  31.013  1.00  0.00     0.049 A 
ATOM     35  H   UNL A   1      40.858  31.900  30.223  1.00  0.00     0.167 HD
ATOM     36  C   UNL A   1      43.298  32.887  31.297  1.00  0.00     0.074 A 
ATOM     37  C   UNL A   1      44.684  32.958  31.715  1.00  0.00     0.031 C 
ATOM     38  C   UNL A   1      42.415  33.909  31.406  1.00  0.00     0.031 A 
BRANCH  25  39
ATOM     39  C   UNL A   1      36.717  32.587  29.404  1.00  0.00    -0.014 A 
ATOM     40  C   UNL A   1      35.765  32.496  30.431  1.00  0.00     0.009 A 
ATOM     41  C   UNL A   1      36.352  33.211  28.199  1.00  0.00     0.009 A 
ATOM     42  C   UNL A   1      34.472  32.996  30.246  1.00  0.00     0.001 A 
ATOM     43  C   UNL A   1      35.069  33.735  28.027  1.00  0.00     0.001 A 
ATOM     44  C   UNL A   1      34.128  33.622  29.049  1.00  0.00     0.000 A 
ENDBRANCH  25  39
BRANCH  26  45
ATOM     45  C   UNL A   1      46.035  29.135  30.560  1.00  0.00    -0.014 A 
ATOM     46  C   UNL A   1      46.438  28.451  31.715  1.00  0.00     0.009 A 
ATOM     47  C   UNL A   1      46.965  29.322  29.522  1.00  0.00     0.009 A 
ATOM     48  C   UNL A   1      47.751  27.990  31.839  1.00  0.00     0.001 A 
ATOM     49  C   UNL A   1      48.263  28.824  29.631  1.00  0.00     0.001 A 
ATOM     50  C   UNL A   1      48.658  28.170  30.795  1.00  0.00     0.000 A 
ENDBRANCH  26  45
BRANCH  38  51
ATOM     51  C   UNL A   1      42.935  35.175  32.023  1.00  0.00    -0.014 A 
ATOM     52  C   UNL A   1      42.758  35.443  33.390  1.00  0.00     0.009 A 
ATOM     53  C   UNL A   1      43.592  36.120  31.222  1.00  0.00     0.009 A 
ATOM     54  C   UNL A   1      43.182  36.659  33.930  1.00  0.00     0.001 A 
ATOM     55  C   UNL A   1      44.045  37.319  31.771  1.00  0.00     0.001 A 
ATOM     56  C   UNL A   1      43.827  37.594  33.121  1.00  0.00     0.000 A 
ENDBRANCH  38  51
ENDBRANCH  12  13
ENDBRANCH   5   7
ENDBRANCH   2   3
ENDBRANCH   1   2
BRANCH   1  57
ATOM     57  C   UNL A   1      35.135  24.223  25.601  1.00  0.00     0.023 C 
BRANCH  57  58
ATOM     58  C   UNL A   1      33.713  23.663  25.618  1.00  0.00     0.116 C 
BRANCH  58  59
ATOM     59  N   UNL A   1      32.819  24.540  26.346  1.00  0.00    -0.354 N 
ATOM     60  C   UNL A   1      32.062  25.595  25.937  1.00  0.00     0.243 C 
ATOM     61  H   UNL A   1      32.747  24.337  27.307  1.00  0.00     0.163 HD
ATOM     62  O   UNL A   1      31.375  26.149  26.802  1.00  0.00    -0.273 OA
BRANCH  60  63
ATOM     63  C   UNL A   1      31.902  25.959  24.450  1.00  0.00     0.186 C 
ATOM     64  C   UNL A   1      30.547  26.618  24.121  1.00  0.00     0.107 C 
ATOM     65  N   UNL A   1      32.923  26.800  23.846  1.00  0.00    -0.311 N 
ATOM     66  S   UNL A   1      30.899  28.275  23.381  1.00  0.00    -0.126 SA
ATOM     67  C   UNL A   1      32.688  28.232  23.825  1.00  0.00     0.115 C 
ATOM     68  C   UNL A   1      33.523  26.323  22.675  1.00  0.00     0.224 C 
ATOM     69  C   UNL A   1      33.612  28.678  22.672  1.00  0.00     0.055 C 
ATOM     70  C   UNL A   1      33.774  27.481  21.755  1.00  0.00     0.104 C 
ATOM     71  O   UNL A   1      33.710  25.160  22.388  1.00  0.00    -0.275 OA
BRANCH  67  72
ATOM     72  C   UNL A   1      32.938  28.982  25.157  1.00  0.00    -0.012 A 
ATOM     73  C   UNL A   1      34.025  28.682  26.008  1.00  0.00     0.007 A 
ATOM     74  C   UNL A   1      32.073  29.999  25.621  1.00  0.00     0.007 A 
ATOM     75  C   UNL A   1      34.265  29.380  27.201  1.00  0.00     0.000 A 
ATOM     76  C   UNL A   1      32.309  30.700  26.814  1.00  0.00     0.000 A 
ATOM     77  C   UNL A   1      33.410  30.396  27.599  1.00  0.00     0.000 A 
ENDBRANCH  67  72
ENDBRANCH  60  63
ENDBRANCH  58  59
ENDBRANCH  57  58
ENDBRANCH   1  57
TORSDOF 12
ENDMDL
MODEL 2
REMARK VINA RESULT:     -10.9      1.932      7.238
REMARK SMILES O=C(NCCCCNC(=O)[C@H]1CS[C@]2(c3ccccc3)CCC(=O)N12)c1ccc(-c2c3nc(c(-c4ccccc4)c4ccc([nH]4)c(-c4ccccc4)c4nc(c(-c5ccccc5)c5ccc2[nH]5)C=C4)C=C3)cc1
REMARK SMILES IDX 5 1 4 2 3 3 1 4 2 5 26 7 27 8 73 9 28 10 72 11 29 12 30 13
REMARK SMILES IDX 31 14 66 15 32 16 71 17 65 18 67 19 33 20 70 21 64 22 63 23
REMARK SMILES IDX 34 25 56 26 41 27 55 28 42 29 45 30 54 31 68 32 43 33 44 34
REMARK SMILES IDX 53 36 69 37 46 38 35 39 36 40 40 41 37 42 39 43 38 44 57 45
REMARK SMILES IDX 58 46 62 47 59 48 61 49 60 50 47 51 48 52 52 53 49 54 51 55
REMARK SMILES IDX 50 56 6 57 7 58 8 59 9 60 10 62 11 63 12 64 25 65 13 66
REMARK SMILES IDX 14 67 23 68 21 69 22 70 24 71 15 72 16 73 20 74 17 75 19 76
REMARK SMILES IDX 18 77
REMARK H PARENT 3 6 67 24 45 35 8 61
REMARK Flexibility Score: inf
ROOT
ATOM      1  C   UNL A   1      32.517  30.181  26.424  1.00  0.00     0.023 C 
ENDROOT
BRANCH   1   2
ATOM      2  C   UNL A   1      33.246  31.182  27.295  1.00  0.00     0.116 C 
BRANCH   2   3
ATOM      3  N   UNL A   1      32.576  32.470  27.439  1.00  0.00    -0.352 N 
ATOM      4  O   UNL A   1      32.399  34.604  28.228  1.00  0.00    -0.269 OA
ATOM      5  C   UNL A   1      33.050  33.574  28.123  1.00  0.00     0.251 C 
ATOM      6  H   UNL A   1      31.697  32.563  27.007  1.00  0.00     0.163 HD
BRANCH   5   7
ATOM      7  C   UNL A   1      34.369  33.433  28.771  1.00  0.00     0.039 A 
ATOM      8  C   UNL A   1      35.500  33.773  28.033  1.00  0.00     0.014 A 
ATOM      9  C   UNL A   1      34.474  32.727  29.972  1.00  0.00     0.014 A 
ATOM     10  C   UNL A   1      36.705  33.180  28.366  1.00  0.00     0.010 A 
ATOM     11  C   UNL A   1      35.731  32.279  30.391  1.00  0.00     0.010 A 
ATOM     12  C   UNL A   1      36.852  32.456  29.566  1.00  0.00    -0.014 A 
BRANCH  12  13
ATOM     13  C   UNL A   1      38.213  31.987  29.936  1.00  0.00     0.031 A 
ATOM     14  C   UNL A   1      39.089  32.721  30.917  1.00  0.00     0.074 A 
ATOM     15  C   UNL A   1      38.620  30.811  29.414  1.00  0.00     0.049 A 
ATOM     16  N   UNL A   1      40.280  32.387  31.354  1.00  0.00    -0.248 NA
ATOM     17  C   UNL A   1      38.587  33.988  31.470  1.00  0.00     0.031 C 
ATOM     18  C   UNL A   1      37.861  30.015  28.442  1.00  0.00     0.029 A 
ATOM     19  N   UNL A   1      39.732  30.051  29.659  1.00  0.00    -0.354 N 
ATOM     20  C   UNL A   1      40.679  33.410  32.208  1.00  0.00     0.074 A 
ATOM     21  C   UNL A   1      39.612  34.388  32.214  1.00  0.00     0.031 C 
ATOM     22  C   UNL A   1      38.468  28.839  28.261  1.00  0.00     0.029 A 
ATOM     23  C   UNL A   1      39.723  28.848  28.997  1.00  0.00     0.049 A 
ATOM     24  H   UNL A   1      40.465  30.338  30.250  1.00  0.00     0.167 HD
ATOM     25  C   UNL A   1      41.831  33.520  32.915  1.00  0.00     0.031 A 
ATOM     26  C   UNL A   1      40.636  27.863  28.949  1.00  0.00     0.031 A 
ATOM     27  C   UNL A   1      42.888  32.540  32.902  1.00  0.00     0.049 A 
ATOM     28  C   UNL A   1      41.904  28.028  29.723  1.00  0.00     0.074 A 
ATOM     29  C   UNL A   1      44.093  32.558  33.586  1.00  0.00     0.029 A 
ATOM     30  N   UNL A   1      42.868  31.360  32.171  1.00  0.00    -0.354 N 
ATOM     31  N   UNL A   1      42.262  29.008  30.517  1.00  0.00    -0.248 NA
ATOM     32  C   UNL A   1      42.897  26.958  29.587  1.00  0.00     0.031 C 
ATOM     33  C   UNL A   1      44.821  31.417  33.230  1.00  0.00     0.029 A 
ATOM     34  C   UNL A   1      44.044  30.655  32.374  1.00  0.00     0.049 A 
ATOM     35  H   UNL A   1      42.126  31.068  31.594  1.00  0.00     0.167 HD
ATOM     36  C   UNL A   1      43.526  28.671  30.977  1.00  0.00     0.074 A 
ATOM     37  C   UNL A   1      43.847  27.377  30.409  1.00  0.00     0.031 C 
ATOM     38  C   UNL A   1      44.353  29.377  31.785  1.00  0.00     0.031 A 
BRANCH  25  39
ATOM     39  C   UNL A   1      42.031  34.757  33.753  1.00  0.00    -0.014 A 
ATOM     40  C   UNL A   1      41.637  34.801  35.099  1.00  0.00     0.009 A 
ATOM     41  C   UNL A   1      42.698  35.869  33.209  1.00  0.00     0.009 A 
ATOM     42  C   UNL A   1      41.885  35.938  35.875  1.00  0.00     0.001 A 
ATOM     43  C   UNL A   1      42.969  36.992  33.993  1.00  0.00     0.001 A 
ATOM     44  C   UNL A   1      42.557  37.028  35.324  1.00  0.00     0.000 A 
ENDBRANCH  25  39
BRANCH  26  45
ATOM     45  C   UNL A   1      40.400  26.678  28.085  1.00  0.00    -0.014 A 
ATOM     46  C   UNL A   1      40.921  26.615  26.785  1.00  0.00     0.009 A 
ATOM     47  C   UNL A   1      39.657  25.588  28.572  1.00  0.00     0.009 A 
ATOM     48  C   UNL A   1      40.679  25.497  25.983  1.00  0.00     0.001 A 
ATOM     49  C   UNL A   1      39.454  24.456  27.785  1.00  0.00     0.001 A 
ATOM     50  C   UNL A   1      39.954  24.417  26.486  1.00  0.00     0.000 A 
ENDBRANCH  26  45
BRANCH  38  51
ATOM     51  C   UNL A   1      45.673  28.738  32.108  1.00  0.00    -0.014 A 
ATOM     52  C   UNL A   1      45.820  27.894  33.220  1.00  0.00     0.009 A 
ATOM     53  C   UNL A   1      46.788  28.999  31.298  1.00  0.00     0.009 A 
ATOM     54  C   UNL A   1      47.071  27.370  33.547  1.00  0.00     0.001 A 
ATOM     55  C   UNL A   1      48.031  28.446  31.607  1.00  0.00     0.001 A 
ATOM     56  C   UNL A   1      48.175  27.644  32.739  1.00  0.00     0.000 A 
ENDBRANCH  38  51
ENDBRANCH  12  13
ENDBRANCH   5   7
ENDBRANCH   2   3
ENDBRANCH   1   2
BRANCH   1  57
ATOM     57  C   UNL A   1      31.776  29.118  27.211  1.00  0.00     0.023 C 
BRANCH  57  58
ATOM     58  C   UNL A   1      32.337  27.711  26.998  1.00  0.00     0.116 C 
BRANCH  58  59
ATOM     59  N   UNL A   1      33.092  27.636  25.764  1.00  0.00    -0.354 N 
ATOM     60  C   UNL A   1      33.014  26.774  24.712  1.00  0.00     0.243 C 
ATOM     61  H   UNL A   1      33.784  28.330  25.669  1.00  0.00     0.163 HD
ATOM     62  O   UNL A   1      33.795  26.975  23.776  1.00  0.00    -0.273 OA
BRANCH  60  63
ATOM     63  C   UNL A   1      31.887  25.733  24.591  1.00  0.00     0.186 C 
ATOM     64  C   UNL A   1      31.636  25.266  23.142  1.00  0.00     0.107 C 
ATOM     65  N   UNL A   1      31.991  24.526  25.397  1.00  0.00    -0.311 N 
ATOM     66  S   UNL A   1      31.872  23.434  23.098  1.00  0.00    -0.126 SA
ATOM     67  C   UNL A   1      32.609  23.363  24.787  1.00  0.00     0.115 C 
ATOM     68  C   UNL A   1      30.891  24.208  26.202  1.00  0.00     0.224 C 
ATOM     69  C   UNL A   1      32.036  22.222  25.653  1.00  0.00     0.055 C 
ATOM     70  C   UNL A   1      30.716  22.718  26.211  1.00  0.00     0.104 C 
ATOM     71  O   UNL A   1      30.131  24.997  26.719  1.00  0.00    -0.275 OA
BRANCH  67  72
ATOM     72  C   UNL A   1      34.156  23.377  24.709  1.00  0.00    -0.012 A 
ATOM     73  C   UNL A   1      34.970  23.781  25.791  1.00  0.00     0.007 A 
ATOM     74  C   UNL A   1      34.853  23.012  23.535  1.00  0.00     0.007 A 
ATOM     75  C   UNL A   1      36.371  23.768  25.727  1.00  0.00     0.000 A 
ATOM     76  C   UNL A   1      36.254  22.997  23.466  1.00  0.00     0.000 A 
ATOM     77  C   UNL A   1      37.014  23.367  24.565  1.00  0.00     0.000 A 
ENDBRANCH  67  72
ENDBRANCH  60  63
ENDBRANCH  58  59
ENDBRANCH  57  58
ENDBRANCH   1  57
TORSDOF 12
ENDMDL
MODEL 3
REMARK VINA RESULT:     -10.9      2.183      6.891
REMARK SMILES O=C(NCCCCNC(=O)[C@H]1CS[C@]2(c3ccccc3)CCC(=O)N12)c1ccc(-c2c3nc(c(-c4ccccc4)c4ccc([nH]4)c(-c4ccccc4)c4nc(c(-c5ccccc5)c5ccc2[nH]5)C=C4)C=C3)cc1
REMARK SMILES IDX 5 1 4 2 3 3 1 4 2 5 26 7 27 8 73 9 28 10 72 11 29 12 30 13
REMARK SMILES IDX 31 14 66 15 32 16 71 17 65 18 67 19 33 20 70 21 64 22 63 23
REMARK SMILES IDX 34 25 56 26 41 27 55 28 42 29 45 30 54 31 68 32 43 33 44 34
REMARK SMILES IDX 53 36 69 37 46 38 35 39 36 40 40 41 37 42 39 43 38 44 57 45
REMARK SMILES IDX 58 46 62 47 59 48 61 49 60 50 47 51 48 52 52 53 49 54 51 55
REMARK SMILES IDX 50 56 6 57 7 58 8 59 9 60 10 62 11 63 12 64 25 65 13 66
REMARK SMILES IDX 14 67 23 68 21 69 22 70 24 71 15 72 16 73 20 74 17 75 19 76
REMARK SMILES IDX 18 77
REMARK H PARENT 3 6 67 24 45 35 8 61
REMARK Flexibility Score: inf
ROOT
ATOM      1  C   UNL A   1      37.725  21.448  24.990  1.00  0.00     0.023 C 
ENDROOT
BRANCH   1   2
ATOM      2  C   UNL A   1      38.950  21.307  25.871  1.00  0.00     0.116 C 
BRANCH   2   3
ATOM      3  N   UNL A   1      39.684  20.058  25.702  1.00  0.00    -0.352 N 
ATOM      4  O   UNL A   1      41.563  18.765  25.781  1.00  0.00    -0.269 OA
ATOM      5  C   UNL A   1      41.017  19.839  25.995  1.00  0.00     0.251 C 
ATOM      6  H   UNL A   1      39.180  19.293  25.341  1.00  0.00     0.163 HD
BRANCH   5   7
ATOM      7  C   UNL A   1      41.771  20.987  26.536  1.00  0.00     0.039 A 
ATOM      8  C   UNL A   1      41.776  21.175  27.916  1.00  0.00     0.014 A 
ATOM      9  C   UNL A   1      42.221  21.985  25.669  1.00  0.00     0.014 A 
ATOM     10  C   UNL A   1      41.985  22.452  28.405  1.00  0.00     0.010 A 
ATOM     11  C   UNL A   1      42.599  23.225  26.194  1.00  0.00     0.010 A 
ATOM     12  C   UNL A   1      42.435  23.488  27.562  1.00  0.00    -0.014 A 
BRANCH  12  13
ATOM     13  C   UNL A   1      42.793  24.789  28.186  1.00  0.00     0.031 A 
ATOM     14  C   UNL A   1      44.213  25.171  28.515  1.00  0.00     0.074 A 
ATOM     15  C   UNL A   1      41.793  25.674  28.380  1.00  0.00     0.049 A 
ATOM     16  N   UNL A   1      44.657  26.296  29.022  1.00  0.00    -0.248 NA
ATOM     17  C   UNL A   1      45.267  24.175  28.265  1.00  0.00     0.031 C 
ATOM     18  C   UNL A   1      40.374  25.410  28.109  1.00  0.00     0.029 A 
ATOM     19  N   UNL A   1      41.809  26.979  28.792  1.00  0.00    -0.354 N 
ATOM     20  C   UNL A   1      46.030  26.136  29.175  1.00  0.00     0.074 A 
ATOM     21  C   UNL A   1      46.346  24.797  28.726  1.00  0.00     0.031 C 
ATOM     22  C   UNL A   1      39.678  26.541  28.253  1.00  0.00     0.029 A 
ATOM     23  C   UNL A   1      40.572  27.575  28.752  1.00  0.00     0.049 A 
ATOM     24  H   UNL A   1      42.625  27.444  29.088  1.00  0.00     0.167 HD
ATOM     25  C   UNL A   1      46.938  27.025  29.650  1.00  0.00     0.031 A 
ATOM     26  C   UNL A   1      40.178  28.809  29.109  1.00  0.00     0.031 A 
ATOM     27  C   UNL A   1      46.612  28.357  30.095  1.00  0.00     0.049 A 
ATOM     28  C   UNL A   1      41.201  29.755  29.650  1.00  0.00     0.074 A 
ATOM     29  C   UNL A   1      47.460  29.335  30.591  1.00  0.00     0.029 A 
ATOM     30  N   UNL A   1      45.337  28.905  30.095  1.00  0.00    -0.354 N 
ATOM     31  N   UNL A   1      42.493  29.578  29.793  1.00  0.00    -0.248 NA
ATOM     32  C   UNL A   1      40.712  31.066  30.087  1.00  0.00     0.031 C 
ATOM     33  C   UNL A   1      46.693  30.452  30.937  1.00  0.00     0.029 A 
ATOM     34  C   UNL A   1      45.374  30.196  30.597  1.00  0.00     0.049 A 
ATOM     35  H   UNL A   1      44.526  28.443  29.782  1.00  0.00     0.167 HD
ATOM     36  C   UNL A   1      42.972  30.759  30.338  1.00  0.00     0.074 A 
ATOM     37  C   UNL A   1      41.840  31.656  30.455  1.00  0.00     0.031 C 
ATOM     38  C   UNL A   1      44.234  31.068  30.723  1.00  0.00     0.031 A 
BRANCH  25  39
ATOM     39  C   UNL A   1      48.377  26.587  29.740  1.00  0.00    -0.014 A 
ATOM     40  C   UNL A   1      49.297  26.881  28.722  1.00  0.00     0.009 A 
ATOM     41  C   UNL A   1      48.838  25.939  30.899  1.00  0.00     0.009 A 
ATOM     42  C   UNL A   1      50.641  26.516  28.853  1.00  0.00     0.001 A 
ATOM     43  C   UNL A   1      50.186  25.600  31.039  1.00  0.00     0.001 A 
ATOM     44  C   UNL A   1      51.085  25.884  30.013  1.00  0.00     0.000 A 
ENDBRANCH  25  39
BRANCH  26  45
ATOM     45  C   UNL A   1      38.742  29.180  29.026  1.00  0.00    -0.014 A 
ATOM     46  C   UNL A   1      37.892  29.035  30.131  1.00  0.00     0.009 A 
ATOM     47  C   UNL A   1      38.218  29.700  27.829  1.00  0.00     0.009 A 
ATOM     48  C   UNL A   1      36.542  29.378  30.030  1.00  0.00     0.001 A 
ATOM     49  C   UNL A   1      36.880  30.082  27.745  1.00  0.00     0.001 A 
ATOM     50  C   UNL A   1      36.039  29.908  28.842  1.00  0.00     0.000 A 
ENDBRANCH  26  45
BRANCH  38  51
ATOM     51  C   UNL A   1      44.440  32.445  31.285  1.00  0.00    -0.014 A 
ATOM     52  C   UNL A   1      44.759  33.530  30.452  1.00  0.00     0.009 A 
ATOM     53  C   UNL A   1      44.333  32.655  32.667  1.00  0.00     0.009 A 
ATOM     54  C   UNL A   1      45.021  34.786  31.001  1.00  0.00     0.001 A 
ATOM     55  C   UNL A   1      44.562  33.920  33.210  1.00  0.00     0.001 A 
ATOM     56  C   UNL A   1      44.919  34.980  32.378  1.00  0.00     0.000 A 
ENDBRANCH  38  51
ENDBRANCH  12  13
ENDBRANCH   5   7
ENDBRANCH   2   3
ENDBRANCH   1   2
BRANCH   1  57
ATOM     57  C   UNL A   1      36.982  22.755  25.189  1.00  0.00     0.023 C 
BRANCH  57  58
ATOM     58  C   UNL A   1      35.541  22.710  24.682  1.00  0.00     0.116 C 
BRANCH  58  59
ATOM     59  N   UNL A   1      34.608  23.025  25.744  1.00  0.00    -0.354 N 
ATOM     60  C   UNL A   1      33.341  23.524  25.711  1.00  0.00     0.243 C 
ATOM     61  H   UNL A   1      34.950  22.848  26.650  1.00  0.00     0.163 HD
ATOM     62  O   UNL A   1      32.779  23.674  26.802  1.00  0.00    -0.273 OA
BRANCH  60  63
ATOM     63  C   UNL A   1      32.566  23.701  24.393  1.00  0.00     0.186 C 
ATOM     64  C   UNL A   1      31.034  23.665  24.571  1.00  0.00     0.107 C 
ATOM     65  N   UNL A   1      32.857  24.879  23.591  1.00  0.00    -0.311 N 
ATOM     66  S   UNL A   1      30.361  25.263  23.932  1.00  0.00    -0.126 SA
ATOM     67  C   UNL A   1      32.023  26.050  23.790  1.00  0.00     0.115 C 
ATOM     68  C   UNL A   1      33.190  24.662  22.248  1.00  0.00     0.224 C 
ATOM     69  C   UNL A   1      32.228  26.804  22.460  1.00  0.00     0.055 C 
ATOM     70  C   UNL A   1      32.594  25.761  21.420  1.00  0.00     0.104 C 
ATOM     71  O   UNL A   1      33.765  23.694  21.801  1.00  0.00    -0.275 OA
BRANCH  67  72
ATOM     72  C   UNL A   1      32.333  26.899  25.048  1.00  0.00    -0.012 A 
ATOM     73  C   UNL A   1      33.596  27.490  25.275  1.00  0.00     0.007 A 
ATOM     74  C   UNL A   1      31.377  27.113  26.066  1.00  0.00     0.007 A 
ATOM     75  C   UNL A   1      33.868  28.281  26.401  1.00  0.00     0.000 A 
ATOM     76  C   UNL A   1      31.643  27.904  27.194  1.00  0.00     0.000 A 
ATOM     77  C   UNL A   1      32.886  28.495  27.358  1.00  0.00     0.000 A 
ENDBRANCH  67  72
ENDBRANCH  60  63
ENDBRANCH  58  59
ENDBRANCH  57  58
ENDBRANCH   1  57
TORSDOF 12
ENDMDL
