MODEL 1
REMARK VINA RESULT:     -13.2      0.000      0.000
REMARK SMILES Cc1cccc2c1[C@H]1c3c(C)cccc3[C@H](CC(=O)NCCCCNC(=O)c3ccc(-c4c5nc(c(-c6ccccc6)c6ccc([nH]6)c(-c6ccccc6)c6nc(c(-c7ccccc7)c7ccc4[nH]7)C=C6)C=C5)cc3)C[C@H]1CC2
REMARK SMILES IDX 23 1 22 2 21 3 20 4 18 5 19 6 17 8 16 9 1 10 2 11 3 12 7 13
REMARK SMILES IDX 4 14 6 15 8 16 5 17 79 18 9 19 77 20 78 21 10 22 15 23 76 24
REMARK SMILES IDX 12 25 11 26 14 27 13 28 24 29 25 30 26 31 27 33 28 34 29 35
REMARK SMILES IDX 75 36 30 37 74 38 31 39 32 40 33 41 68 42 34 43 73 44 67 45
REMARK SMILES IDX 69 46 35 47 72 48 66 49 65 50 36 52 58 53 43 54 57 55 44 56
REMARK SMILES IDX 47 57 56 58 70 59 45 60 46 61 55 63 71 64 48 65 37 66 38 67
REMARK SMILES IDX 42 68 39 69 41 70 40 71 59 72 60 73 64 74 61 75 63 76 62 77
REMARK SMILES IDX 49 78 50 79 54 80 51 81 53 82 52 83
REMARK H PARENT 20 7 25 32 69 51 47 62
REMARK Flexibility Score: inf
ROOT
ATOM      1  C   UNL A   1      32.355  30.506  27.254  1.00  0.00     0.023 C 
ENDROOT
BRANCH   1   2
ATOM      2  C   UNL A   1      31.816  29.509  25.949  1.00  0.00     0.023 C 
BRANCH   2   3
ATOM      3  C   UNL A   1      31.373  27.388  25.635  1.00  0.00     0.116 C 
BRANCH   3   4
ATOM      4  N   UNL A   1      31.153  26.182  26.684  1.00  0.00    -0.356 N 
ATOM      5  C   UNL A   1      31.754  24.953  26.756  1.00  0.00     0.220 C 
ATOM      6  O   UNL A   1      31.330  24.119  27.556  1.00  0.00    -0.275 OA
ATOM      7  H   UNL A   1      30.481  26.357  27.383  1.00  0.00     0.163 HD
BRANCH   5   8
ATOM      8  C   UNL A   1      32.968  24.680  25.891  1.00  0.00     0.108 C 
BRANCH   8   9
ATOM      9  C   UNL A   1      32.752  24.040  24.499  1.00  0.00     0.029 C 
ATOM     10  C   UNL A   1      32.747  18.165  26.132  1.00  0.00     0.044 C 
ATOM     11  C   UNL A   1      32.841  18.252  24.628  1.00  0.00    -0.047 A 
ATOM     12  C   UNL A   1      33.008  17.040  23.928  1.00  0.00     0.004 A 
ATOM     13  C   UNL A   1      32.717  19.463  23.904  1.00  0.00    -0.034 A 
ATOM     14  C   UNL A   1      32.926  16.992  22.542  1.00  0.00     0.001 A 
ATOM     15  C   UNL A   1      32.471  19.372  22.510  1.00  0.00    -0.044 A 
ATOM     16  C   UNL A   1      32.770  20.837  24.572  1.00  0.00     0.053 C 
ATOM     17  C   UNL A   1      32.609  18.145  21.841  1.00  0.00     0.004 A 
ATOM     18  C   UNL A   1      31.839  20.495  21.720  1.00  0.00     0.036 C 
ATOM     19  C   UNL A   1      34.124  21.563  24.505  1.00  0.00    -0.034 A 
ATOM     20  C   UNL A   1      31.651  21.722  23.930  1.00  0.00     0.002 C 
ATOM     21  C   UNL A   1      31.804  21.849  22.407  1.00  0.00     0.009 C 
ATOM     22  C   UNL A   1      35.752  20.869  24.892  1.00  0.00    -0.047 A 
ATOM     23  C   UNL A   1      34.010  23.321  24.094  1.00  0.00    -0.040 A 
ATOM     24  C   UNL A   1      31.527  23.103  24.592  1.00  0.00     0.013 C 
ATOM     25  C   UNL A   1      37.238  21.885  24.727  1.00  0.00     0.004 A 
ATOM     26  C   UNL A   1      36.033  19.418  25.120  1.00  0.00     0.044 C 
ATOM     27  C   UNL A   1      35.504  24.318  23.836  1.00  0.00     0.004 A 
ATOM     28  C   UNL A   1      37.110  23.615  24.247  1.00  0.00     0.001 A 
ENDBRANCH   8   9
ENDBRANCH   5   8
ENDBRANCH   3   4
ENDBRANCH   2   3
ENDBRANCH   1   2
BRANCH   1  29
ATOM     29  C   UNL A   1      33.161  31.790  27.028  1.00  0.00     0.116 C 
BRANCH  29  30
ATOM     30  N   UNL A   1      32.524  33.012  27.493  1.00  0.00    -0.352 N 
ATOM     31  C   UNL A   1      33.099  33.998  28.258  1.00  0.00     0.251 C 
ATOM     32  H   UNL A   1      31.584  33.145  27.234  1.00  0.00     0.163 HD
ATOM     33  O   UNL A   1      32.537  35.058  28.499  1.00  0.00    -0.269 OA
BRANCH  31  34
ATOM     34  C   UNL A   1      34.405  33.690  28.861  1.00  0.00     0.039 A 
ATOM     35  C   UNL A   1      34.420  32.761  29.901  1.00  0.00     0.014 A 
ATOM     36  C   UNL A   1      35.588  34.169  28.291  1.00  0.00     0.014 A 
ATOM     37  C   UNL A   1      35.638  32.249  30.331  1.00  0.00     0.010 A 
ATOM     38  C   UNL A   1      36.801  33.616  28.690  1.00  0.00     0.010 A 
ATOM     39  C   UNL A   1      36.829  32.644  29.703  1.00  0.00    -0.014 A 
BRANCH  39  40
ATOM     40  C   UNL A   1      38.110  32.043  30.128  1.00  0.00     0.031 A 
ATOM     41  C   UNL A   1      38.911  32.707  31.204  1.00  0.00     0.074 A 
ATOM     42  C   UNL A   1      38.524  30.892  29.569  1.00  0.00     0.049 A 
ATOM     43  N   UNL A   1      40.022  32.305  31.764  1.00  0.00    -0.248 NA
ATOM     44  C   UNL A   1      38.402  33.990  31.719  1.00  0.00     0.031 C 
ATOM     45  C   UNL A   1      37.821  30.164  28.509  1.00  0.00     0.029 A 
ATOM     46  N   UNL A   1      39.627  30.118  29.829  1.00  0.00    -0.354 N 
ATOM     47  C   UNL A   1      40.334  33.275  32.704  1.00  0.00     0.074 A 
ATOM     48  C   UNL A   1      39.332  34.312  32.606  1.00  0.00     0.031 C 
ATOM     49  C   UNL A   1      38.491  29.032  28.236  1.00  0.00     0.029 A 
ATOM     50  C   UNL A   1      39.679  28.965  29.082  1.00  0.00     0.049 A 
ATOM     51  H   UNL A   1      40.316  30.365  30.486  1.00  0.00     0.167 HD
ATOM     52  C   UNL A   1      41.354  33.284  33.590  1.00  0.00     0.031 A 
ATOM     53  C   UNL A   1      40.576  27.960  29.091  1.00  0.00     0.031 A 
ATOM     54  C   UNL A   1      42.344  32.249  33.688  1.00  0.00     0.049 A 
ATOM     55  C   UNL A   1      41.727  28.017  30.055  1.00  0.00     0.074 A 
ATOM     56  C   UNL A   1      43.407  32.162  34.566  1.00  0.00     0.029 A 
ATOM     57  N   UNL A   1      42.388  31.124  32.881  1.00  0.00    -0.354 N 
ATOM     58  N   UNL A   1      41.995  28.928  30.960  1.00  0.00    -0.248 NA
ATOM     59  C   UNL A   1      42.694  26.910  30.010  1.00  0.00     0.031 C 
ATOM     60  C   UNL A   1      44.121  31.000  34.265  1.00  0.00     0.029 A 
ATOM     61  C   UNL A   1      43.473  30.343  33.231  1.00  0.00     0.049 A 
ATOM     62  H   UNL A   1      41.743  30.912  32.167  1.00  0.00     0.167 HD
ATOM     63  C   UNL A   1      43.148  28.498  31.601  1.00  0.00     0.074 A 
ATOM     64  C   UNL A   1      43.526  27.241  30.989  1.00  0.00     0.031 C 
ATOM     65  C   UNL A   1      43.830  29.095  32.609  1.00  0.00     0.031 A 
BRANCH  52  66
ATOM     66  C   UNL A   1      41.441  34.441  34.538  1.00  0.00    -0.014 A 
ATOM     67  C   UNL A   1      42.156  35.598  34.188  1.00  0.00     0.009 A 
ATOM     68  C   UNL A   1      40.748  34.406  35.756  1.00  0.00     0.009 A 
ATOM     69  C   UNL A   1      42.181  36.696  35.047  1.00  0.00     0.001 A 
ATOM     70  C   UNL A   1      40.758  35.514  36.604  1.00  0.00     0.001 A 
ATOM     71  C   UNL A   1      41.476  36.657  36.251  1.00  0.00     0.000 A 
ENDBRANCH  52  66
BRANCH  53  72
ATOM     72  C   UNL A   1      40.392  26.805  28.176  1.00  0.00    -0.014 A 
ATOM     73  C   UNL A   1      39.600  25.713  28.559  1.00  0.00     0.009 A 
ATOM     74  C   UNL A   1      40.970  26.810  26.896  1.00  0.00     0.009 A 
ATOM     75  C   UNL A   1      39.390  24.648  27.679  1.00  0.00     0.001 A 
ATOM     76  C   UNL A   1      40.743  25.753  26.012  1.00  0.00     0.001 A 
ATOM     77  C   UNL A   1      39.956  24.672  26.405  1.00  0.00     0.000 A 
ENDBRANCH  53  72
BRANCH  65  78
ATOM     78  C   UNL A   1      45.054  28.407  33.135  1.00  0.00    -0.014 A 
ATOM     79  C   UNL A   1      44.950  27.427  34.133  1.00  0.00     0.009 A 
ATOM     80  C   UNL A   1      46.297  28.636  32.523  1.00  0.00     0.009 A 
ATOM     81  C   UNL A   1      46.073  26.687  34.508  1.00  0.00     0.001 A 
ATOM     82  C   UNL A   1      47.411  27.880  32.886  1.00  0.00     0.001 A 
ATOM     83  C   UNL A   1      47.298  26.906  33.877  1.00  0.00     0.000 A 
ENDBRANCH  65  78
ENDBRANCH  39  40
ENDBRANCH  31  34
ENDBRANCH  29  30
ENDBRANCH   1  29
TORSDOF 12
ENDMDL
MODEL 2
REMARK VINA RESULT:     -13.2      5.740     12.311
REMARK SMILES Cc1cccc2c1[C@H]1c3c(C)cccc3[C@H](CC(=O)NCCCCNC(=O)c3ccc(-c4c5nc(c(-c6ccccc6)c6ccc([nH]6)c(-c6ccccc6)c6nc(c(-c7ccccc7)c7ccc4[nH]7)C=C6)C=C5)cc3)C[C@H]1CC2
REMARK SMILES IDX 23 1 22 2 21 3 20 4 18 5 19 6 17 8 16 9 1 10 2 11 3 12 7 13
REMARK SMILES IDX 4 14 6 15 8 16 5 17 79 18 9 19 77 20 78 21 10 22 15 23 76 24
REMARK SMILES IDX 12 25 11 26 14 27 13 28 24 29 25 30 26 31 27 33 28 34 29 35
REMARK SMILES IDX 75 36 30 37 74 38 31 39 32 40 33 41 68 42 34 43 73 44 67 45
REMARK SMILES IDX 69 46 35 47 72 48 66 49 65 50 36 52 58 53 43 54 57 55 44 56
REMARK SMILES IDX 47 57 56 58 70 59 45 60 46 61 55 63 71 64 48 65 37 66 38 67
REMARK SMILES IDX 42 68 39 69 41 70 40 71 59 72 60 73 64 74 61 75 63 76 62 77
REMARK SMILES IDX 49 78 50 79 54 80 51 81 53 82 52 83
REMARK H PARENT 20 7 25 32 69 51 47 62
REMARK Flexibility Score: inf
ROOT
ATOM      1  C   UNL A   1      46.513  24.310  27.075  1.00  0.00     0.023 C 
ENDROOT
BRANCH   1   2
ATOM      2  C   UNL A   1      46.642  25.829  27.891  1.00  0.00     0.023 C 
BRANCH   2   3
ATOM      3  C   UNL A   1      45.861  27.856  27.628  1.00  0.00     0.116 C 
BRANCH   3   4
ATOM      4  N   UNL A   1      46.436  29.117  26.801  1.00  0.00    -0.356 N 
ATOM      5  C   UNL A   1      45.861  30.330  26.527  1.00  0.00     0.220 C 
ATOM      6  O   UNL A   1      46.419  31.102  25.748  1.00  0.00    -0.275 OA
ATOM      7  H   UNL A   1      47.343  28.996  26.436  1.00  0.00     0.163 HD
BRANCH   5   8
ATOM      8  C   UNL A   1      44.583  30.714  27.246  1.00  0.00     0.108 C 
BRANCH   8   9
ATOM      9  C   UNL A   1      44.659  31.052  28.754  1.00  0.00     0.029 C 
ATOM     10  C   UNL A   1      39.028  33.261  29.528  1.00  0.00     0.044 C 
ATOM     11  C   UNL A   1      39.850  33.584  30.753  1.00  0.00    -0.047 A 
ATOM     12  C   UNL A   1      39.237  34.379  31.742  1.00  0.00     0.004 A 
ATOM     13  C   UNL A   1      41.160  33.089  30.970  1.00  0.00    -0.034 A 
ATOM     14  C   UNL A   1      39.838  34.581  32.978  1.00  0.00     0.001 A 
ATOM     15  C   UNL A   1      41.681  33.167  32.287  1.00  0.00    -0.044 A 
ATOM     16  C   UNL A   1      41.989  32.425  29.870  1.00  0.00     0.053 C 
ATOM     17  C   UNL A   1      41.031  33.937  33.266  1.00  0.00     0.004 A 
ATOM     18  C   UNL A   1      42.797  32.272  32.775  1.00  0.00     0.036 C 
ATOM     19  C   UNL A   1      43.023  33.325  29.175  1.00  0.00    -0.034 A 
ATOM     20  C   UNL A   1      42.692  31.174  30.493  1.00  0.00     0.002 C 
ATOM     21  C   UNL A   1      43.574  31.536  31.697  1.00  0.00     0.009 C 
ATOM     22  C   UNL A   1      42.752  34.991  28.518  1.00  0.00    -0.047 A 
ATOM     23  C   UNL A   1      44.637  32.548  28.918  1.00  0.00    -0.040 A 
ATOM     24  C   UNL A   1      43.476  30.352  29.458  1.00  0.00     0.013 C 
ATOM     25  C   UNL A   1      44.112  35.902  27.753  1.00  0.00     0.004 A 
ATOM     26  C   UNL A   1      41.530  35.819  28.759  1.00  0.00     0.044 C 
ATOM     27  C   UNL A   1      46.029  33.491  28.236  1.00  0.00     0.004 A 
ATOM     28  C   UNL A   1      45.732  35.138  27.570  1.00  0.00     0.001 A 
ENDBRANCH   8   9
ENDBRANCH   5   8
ENDBRANCH   3   4
ENDBRANCH   2   3
ENDBRANCH   1   2
BRANCH   1  29
ATOM     29  C   UNL A   1      45.319  23.370  27.273  1.00  0.00     0.116 C 
BRANCH  29  30
ATOM     30  N   UNL A   1      44.628  22.979  26.055  1.00  0.00    -0.352 N 
ATOM     31  C   UNL A   1      43.526  23.588  25.504  1.00  0.00     0.251 C 
ATOM     32  H   UNL A   1      44.986  22.197  25.576  1.00  0.00     0.163 HD
ATOM     33  O   UNL A   1      43.081  23.280  24.406  1.00  0.00    -0.269 OA
BRANCH  31  34
ATOM     34  C   UNL A   1      42.836  24.584  26.338  1.00  0.00     0.039 A 
ATOM     35  C   UNL A   1      41.998  24.099  27.342  1.00  0.00     0.014 A 
ATOM     36  C   UNL A   1      43.152  25.942  26.241  1.00  0.00     0.014 A 
ATOM     37  C   UNL A   1      41.526  24.977  28.310  1.00  0.00     0.010 A 
ATOM     38  C   UNL A   1      42.717  26.809  27.241  1.00  0.00     0.010 A 
ATOM     39  C   UNL A   1      41.913  26.326  28.286  1.00  0.00    -0.014 A 
BRANCH  39  40
ATOM     40  C   UNL A   1      41.455  27.234  29.357  1.00  0.00     0.031 A 
ATOM     41  C   UNL A   1      40.189  28.011  29.170  1.00  0.00     0.074 A 
ATOM     42  C   UNL A   1      42.159  27.326  30.500  1.00  0.00     0.049 A 
ATOM     43  N   UNL A   1      39.584  28.805  30.013  1.00  0.00    -0.248 NA
ATOM     44  C   UNL A   1      39.516  27.884  27.866  1.00  0.00     0.031 C 
ATOM     45  C   UNL A   1      43.409  26.615  30.784  1.00  0.00     0.029 A 
ATOM     46  N   UNL A   1      41.914  28.039  31.646  1.00  0.00    -0.354 N 
ATOM     47  C   UNL A   1      38.454  29.258  29.349  1.00  0.00     0.074 A 
ATOM     48  C   UNL A   1      38.482  28.698  28.016  1.00  0.00     0.031 C 
ATOM     49  C   UNL A   1      43.800  26.900  32.037  1.00  0.00     0.029 A 
ATOM     50  C   UNL A   1      42.844  27.828  32.635  1.00  0.00     0.049 A 
ATOM     51  H   UNL A   1      41.147  28.646  31.750  1.00  0.00     0.167 HD
ATOM     52  C   UNL A   1      37.466  30.049  29.821  1.00  0.00     0.031 A 
ATOM     53  C   UNL A   1      42.910  28.317  33.889  1.00  0.00     0.031 A 
ATOM     54  C   UNL A   1      37.440  30.599  31.146  1.00  0.00     0.049 A 
ATOM     55  C   UNL A   1      41.822  29.233  34.374  1.00  0.00     0.074 A 
ATOM     56  C   UNL A   1      36.472  31.400  31.722  1.00  0.00     0.029 A 
ATOM     57  N   UNL A   1      38.425  30.401  32.100  1.00  0.00    -0.354 N 
ATOM     58  N   UNL A   1      40.743  29.631  33.744  1.00  0.00    -0.248 NA
ATOM     59  C   UNL A   1      41.952  29.762  35.740  1.00  0.00     0.031 C 
ATOM     60  C   UNL A   1      36.891  31.720  33.015  1.00  0.00     0.029 A 
ATOM     61  C   UNL A   1      38.096  31.080  33.258  1.00  0.00     0.049 A 
ATOM     62  H   UNL A   1      39.237  29.857  31.972  1.00  0.00     0.167 HD
ATOM     63  C   UNL A   1      40.058  30.441  34.638  1.00  0.00     0.074 A 
ATOM     64  C   UNL A   1      40.837  30.472  35.858  1.00  0.00     0.031 C 
ATOM     65  C   UNL A   1      38.886  31.097  34.461  1.00  0.00     0.031 A 
BRANCH  52  66
ATOM     66  C   UNL A   1      36.322  30.356  28.903  1.00  0.00    -0.014 A 
ATOM     67  C   UNL A   1      35.494  29.327  28.425  1.00  0.00     0.009 A 
ATOM     68  C   UNL A   1      36.025  31.684  28.570  1.00  0.00     0.009 A 
ATOM     69  C   UNL A   1      34.393  29.626  27.623  1.00  0.00     0.001 A 
ATOM     70  C   UNL A   1      34.911  31.982  27.784  1.00  0.00     0.001 A 
ATOM     71  C   UNL A   1      34.098  30.953  27.309  1.00  0.00     0.000 A 
ENDBRANCH  52  66
BRANCH  53  72
ATOM     72  C   UNL A   1      44.033  27.917  34.774  1.00  0.00    -0.014 A 
ATOM     73  C   UNL A   1      45.200  28.694  34.838  1.00  0.00     0.009 A 
ATOM     74  C   UNL A   1      43.927  26.783  35.594  1.00  0.00     0.009 A 
ATOM     75  C   UNL A   1      46.237  28.342  35.706  1.00  0.00     0.001 A 
ATOM     76  C   UNL A   1      44.958  26.444  36.474  1.00  0.00     0.001 A 
ATOM     77  C   UNL A   1      46.112  27.222  36.527  1.00  0.00     0.000 A 
ENDBRANCH  53  72
BRANCH  65  78
ATOM     78  C   UNL A   1      38.351  31.906  35.605  1.00  0.00    -0.014 A 
ATOM     79  C   UNL A   1      37.798  31.275  36.728  1.00  0.00     0.009 A 
ATOM     80  C   UNL A   1      38.538  33.297  35.619  1.00  0.00     0.009 A 
ATOM     81  C   UNL A   1      37.442  32.026  37.850  1.00  0.00     0.001 A 
ATOM     82  C   UNL A   1      38.201  34.041  36.749  1.00  0.00     0.001 A 
ATOM     83  C   UNL A   1      37.654  33.405  37.863  1.00  0.00     0.000 A 
ENDBRANCH  65  78
ENDBRANCH  39  40
ENDBRANCH  31  34
ENDBRANCH  29  30
ENDBRANCH   1  29
TORSDOF 12
ENDMDL
MODEL 3
REMARK VINA RESULT:     -13.2      5.436     12.084
REMARK SMILES Cc1cccc2c1[C@H]1c3c(C)cccc3[C@H](CC(=O)NCCCCNC(=O)c3ccc(-c4c5nc(c(-c6ccccc6)c6ccc([nH]6)c(-c6ccccc6)c6nc(c(-c7ccccc7)c7ccc4[nH]7)C=C6)C=C5)cc3)C[C@H]1CC2
REMARK SMILES IDX 23 1 22 2 21 3 20 4 18 5 19 6 17 8 16 9 1 10 2 11 3 12 7 13
REMARK SMILES IDX 4 14 6 15 8 16 5 17 79 18 9 19 77 20 78 21 10 22 15 23 76 24
REMARK SMILES IDX 12 25 11 26 14 27 13 28 24 29 25 30 26 31 27 33 28 34 29 35
REMARK SMILES IDX 75 36 30 37 74 38 31 39 32 40 33 41 68 42 34 43 73 44 67 45
REMARK SMILES IDX 69 46 35 47 72 48 66 49 65 50 36 52 58 53 43 54 57 55 44 56
REMARK SMILES IDX 47 57 56 58 70 59 45 60 46 61 55 63 71 64 48 65 37 66 38 67
REMARK SMILES IDX 42 68 39 69 41 70 40 71 59 72 60 73 64 74 61 75 63 76 62 77
REMARK SMILES IDX 49 78 50 79 54 80 51 81 53 82 52 83
REMARK H PARENT 20 7 25 32 69 51 47 62
REMARK Flexibility Score: inf
ROOT
ATOM      1  C   UNL A   1      44.236  34.657  33.606  1.00  0.00     0.023 C 
ENDROOT
BRANCH   1   2
ATOM      2  C   UNL A   1      44.091  32.945  33.797  1.00  0.00     0.023 C 
BRANCH   2   3
ATOM      3  C   UNL A   1      42.521  31.438  33.561  1.00  0.00     0.116 C 
BRANCH   3   4
ATOM      4  N   UNL A   1      41.661  30.619  34.653  1.00  0.00    -0.356 N 
ATOM      5  C   UNL A   1      40.305  30.529  34.823  1.00  0.00     0.220 C 
ATOM      6  O   UNL A   1      39.857  29.962  35.819  1.00  0.00    -0.275 OA
ATOM      7  H   UNL A   1      42.196  30.101  35.299  1.00  0.00     0.163 HD
BRANCH   5   8
ATOM      8  C   UNL A   1      39.394  31.077  33.743  1.00  0.00     0.108 C 
BRANCH   8   9
ATOM      9  C   UNL A   1      38.576  32.355  34.048  1.00  0.00     0.029 C 
ATOM     10  C   UNL A   1      34.572  32.051  29.458  1.00  0.00     0.044 C 
ATOM     11  C   UNL A   1      34.472  33.414  30.102  1.00  0.00    -0.047 A 
ATOM     12  C   UNL A   1      33.604  34.343  29.496  1.00  0.00     0.004 A 
ATOM     13  C   UNL A   1      35.155  33.770  31.291  1.00  0.00    -0.034 A 
ATOM     14  C   UNL A   1      33.305  35.554  30.108  1.00  0.00     0.001 A 
ATOM     15  C   UNL A   1      34.713  34.930  31.979  1.00  0.00    -0.044 A 
ATOM     16  C   UNL A   1      36.285  32.927  31.883  1.00  0.00     0.053 C 
ATOM     17  C   UNL A   1      33.819  35.823  31.367  1.00  0.00     0.004 A 
ATOM     18  C   UNL A   1      34.980  35.154  33.450  1.00  0.00     0.036 C 
ATOM     19  C   UNL A   1      37.712  33.398  31.561  1.00  0.00    -0.034 A 
ATOM     20  C   UNL A   1      36.072  32.867  33.433  1.00  0.00     0.002 C 
ATOM     21  C   UNL A   1      36.038  34.262  34.074  1.00  0.00     0.009 C 
ATOM     22  C   UNL A   1      38.367  33.855  29.935  1.00  0.00    -0.047 A 
ATOM     23  C   UNL A   1      38.844  33.372  32.972  1.00  0.00    -0.040 A 
ATOM     24  C   UNL A   1      37.087  31.955  34.140  1.00  0.00     0.013 C 
ATOM     25  C   UNL A   1      40.078  34.410  29.765  1.00  0.00     0.004 A 
ATOM     26  C   UNL A   1      37.542  34.052  28.704  1.00  0.00     0.044 C 
ATOM     27  C   UNL A   1      40.533  34.017  32.825  1.00  0.00     0.004 A 
ATOM     28  C   UNL A   1      41.171  34.446  31.196  1.00  0.00     0.001 A 
ENDBRANCH   8   9
ENDBRANCH   5   8
ENDBRANCH   3   4
ENDBRANCH   2   3
ENDBRANCH   1   2
BRANCH   1  29
ATOM     29  C   UNL A   1      44.485  35.313  32.244  1.00  0.00     0.116 C 
BRANCH  29  30
ATOM     30  N   UNL A   1      45.824  35.846  32.048  1.00  0.00    -0.352 N 
ATOM     31  C   UNL A   1      46.775  35.377  31.174  1.00  0.00     0.251 C 
ATOM     32  H   UNL A   1      46.074  36.623  32.598  1.00  0.00     0.163 HD
ATOM     33  O   UNL A   1      47.832  35.960  30.972  1.00  0.00    -0.269 OA
BRANCH  31  34
ATOM     34  C   UNL A   1      46.507  34.074  30.543  1.00  0.00     0.039 A 
ATOM     35  C   UNL A   1      46.651  32.941  31.343  1.00  0.00     0.014 A 
ATOM     36  C   UNL A   1      45.959  34.000  29.260  1.00  0.00     0.014 A 
ATOM     37  C   UNL A   1      46.172  31.722  30.879  1.00  0.00     0.010 A 
ATOM     38  C   UNL A   1      45.435  32.787  28.819  1.00  0.00     0.010 A 
ATOM     39  C   UNL A   1      45.528  31.647  29.634  1.00  0.00    -0.014 A 
BRANCH  39  40
ATOM     40  C   UNL A   1      44.968  30.357  29.181  1.00  0.00     0.031 A 
ATOM     41  C   UNL A   1      45.882  29.320  28.606  1.00  0.00     0.074 A 
ATOM     42  C   UNL A   1      43.651  30.117  29.321  1.00  0.00     0.049 A 
ATOM     43  N   UNL A   1      45.598  28.105  28.217  1.00  0.00    -0.248 NA
ATOM     44  C   UNL A   1      47.297  29.694  28.446  1.00  0.00     0.031 C 
ATOM     45  C   UNL A   1      42.671  31.061  29.866  1.00  0.00     0.029 A 
ATOM     46  N   UNL A   1      42.912  28.996  29.038  1.00  0.00    -0.354 N 
ATOM     47  C   UNL A   1      46.799  27.567  27.781  1.00  0.00     0.074 A 
ATOM     48  C   UNL A   1      47.804  28.599  27.900  1.00  0.00     0.031 C 
ATOM     49  C   UNL A   1      41.468  30.466  29.911  1.00  0.00     0.029 A 
ATOM     50  C   UNL A   1      41.586  29.111  29.379  1.00  0.00     0.049 A 
ATOM     51  H   UNL A   1      43.294  28.188  28.629  1.00  0.00     0.167 HD
ATOM     52  C   UNL A   1      47.046  26.312  27.346  1.00  0.00     0.031 A 
ATOM     53  C   UNL A   1      40.581  28.218  29.287  1.00  0.00     0.031 A 
ATOM     54  C   UNL A   1      46.046  25.290  27.233  1.00  0.00     0.049 A 
ATOM     55  C   UNL A   1      40.873  26.843  28.756  1.00  0.00     0.074 A 
ATOM     56  C   UNL A   1      46.202  23.981  26.817  1.00  0.00     0.029 A 
ATOM     57  N   UNL A   1      44.706  25.461  27.542  1.00  0.00    -0.354 N 
ATOM     58  N   UNL A   1      42.021  26.338  28.373  1.00  0.00    -0.248 NA
ATOM     59  C   UNL A   1      39.740  25.912  28.649  1.00  0.00     0.031 C 
ATOM     60  C   UNL A   1      44.947  23.369  26.836  1.00  0.00     0.029 A 
ATOM     61  C   UNL A   1      44.020  24.284  27.309  1.00  0.00     0.049 A 
ATOM     62  H   UNL A   1      44.304  26.295  27.878  1.00  0.00     0.167 HD
ATOM     63  C   UNL A   1      41.753  25.029  27.997  1.00  0.00     0.074 A 
ATOM     64  C   UNL A   1      40.337  24.813  28.205  1.00  0.00     0.031 C 
ATOM     65  C   UNL A   1      42.609  24.092  27.524  1.00  0.00     0.031 A 
BRANCH  52  66
ATOM     66  C   UNL A   1      48.456  25.970  26.972  1.00  0.00    -0.014 A 
ATOM     67  C   UNL A   1      48.952  26.279  25.696  1.00  0.00     0.009 A 
ATOM     68  C   UNL A   1      49.316  25.401  27.922  1.00  0.00     0.009 A 
ATOM     69  C   UNL A   1      50.284  26.015  25.376  1.00  0.00     0.001 A 
ATOM     70  C   UNL A   1      50.653  25.157  27.606  1.00  0.00     0.001 A 
ATOM     71  C   UNL A   1      51.135  25.462  26.333  1.00  0.00     0.000 A 
ENDBRANCH  52  66
BRANCH  53  72
ATOM     72  C   UNL A   1      39.220  28.597  29.741  1.00  0.00    -0.014 A 
ATOM     73  C   UNL A   1      38.842  28.420  31.081  1.00  0.00     0.009 A 
ATOM     74  C   UNL A   1      38.306  29.180  28.849  1.00  0.00     0.009 A 
ATOM     75  C   UNL A   1      37.576  28.820  31.517  1.00  0.00     0.001 A 
ATOM     76  C   UNL A   1      37.048  29.596  29.292  1.00  0.00     0.001 A 
ATOM     77  C   UNL A   1      36.683  29.413  30.625  1.00  0.00     0.000 A 
ENDBRANCH  53  72
BRANCH  65  78
ATOM     78  C   UNL A   1      42.059  22.735  27.199  1.00  0.00    -0.014 A 
ATOM     79  C   UNL A   1      42.187  21.676  28.108  1.00  0.00     0.009 A 
ATOM     80  C   UNL A   1      41.282  22.559  26.044  1.00  0.00     0.009 A 
ATOM     81  C   UNL A   1      41.543  20.462  27.866  1.00  0.00     0.001 A 
ATOM     82  C   UNL A   1      40.622  21.352  25.816  1.00  0.00     0.001 A 
ATOM     83  C   UNL A   1      40.753  20.305  26.726  1.00  0.00     0.000 A 
ENDBRANCH  65  78
ENDBRANCH  39  40
ENDBRANCH  31  34
ENDBRANCH  29  30
ENDBRANCH   1  29
TORSDOF 12
ENDMDL
