MODEL 1
REMARK VINA RESULT:     -10.8      0.000      0.000
REMARK SMILES CNC(=O)c1ccc(N(CCC(=O)NCCCCNC(=O)c2ccc(-c3c4nc(c(-c5ccccc5)c5ccc([nH]5)c(-c5ccccc5)c5nc(c(-c6ccccc6)c6ccc3[nH]6)C=C5)C=C4)cc2)C2CC2)nn1
REMARK SMILES IDX 15 1 14 2 12 3 13 4 11 6 10 7 9 8 8 9 5 10 6 11 74 12 7 13
REMARK SMILES IDX 73 14 3 15 1 16 2 17 4 19 70 20 71 21 72 22 16 23 17 24
REMARK SMILES IDX 18 25 19 26 20 27 21 29 22 30 23 31 69 32 24 33 68 34 25 35
REMARK SMILES IDX 26 36 27 37 62 38 28 39 67 40 61 41 63 42 29 43 66 44 60 45
REMARK SMILES IDX 59 46 30 48 52 49 37 50 51 51 38 52 41 53 50 54 64 55 39 56
REMARK SMILES IDX 40 57 49 59 65 60 42 61 31 62 32 63 36 64 33 65 35 66 34 67
REMARK SMILES IDX 53 68 54 69 58 70 55 71 57 72 56 73 43 74 44 75 48 76 45 77
REMARK SMILES IDX 47 78 46 79
REMARK H PARENT 14 5 2 18 19 28 63 47 41 58
REMARK Flexibility Score: inf
ROOT
ATOM      1  C   UNL A   1      35.776  22.963  26.147  1.00  0.00     0.116 C 
ENDROOT
BRANCH   1   2
ATOM      2  N   UNL A   1      34.807  22.553  27.151  1.00  0.00    -0.356 N 
ATOM      3  C   UNL A   1      33.469  22.773  27.249  1.00  0.00     0.221 C 
ATOM      4  O   UNL A   1      32.919  22.482  28.313  1.00  0.00    -0.275 OA
ATOM      5  H   UNL A   1      35.187  22.023  27.889  1.00  0.00     0.163 HD
BRANCH   3   6
ATOM      6  C   UNL A   1      32.676  23.332  26.089  1.00  0.00     0.121 C 
BRANCH   6   7
ATOM      7  C   UNL A   1      31.762  22.265  25.480  1.00  0.00     0.128 C 
BRANCH   7   8
ATOM      8  N   UNL A   1      32.145  21.904  24.096  1.00  0.00    -0.352 N 
BRANCH   8   9
ATOM      9  C   UNL A   1      32.597  20.577  23.916  1.00  0.00     0.151 A 
ATOM     10  C   UNL A   1      33.345  17.937  23.691  1.00  0.00     0.150 A 
ATOM     11  C   UNL A   1      33.983  18.715  24.629  1.00  0.00     0.040 A 
ATOM     12  N   UNL A   1      32.403  18.432  22.866  1.00  0.00    -0.143 NA
ATOM     13  C   UNL A   1      33.612  20.053  24.715  1.00  0.00     0.051 A 
ATOM     14  N   UNL A   1      32.036  19.766  22.986  1.00  0.00    -0.132 NA
BRANCH  10  15
ATOM     15  C   UNL A   1      33.691  16.507  23.581  1.00  0.00     0.271 C 
ATOM     16  C   UNL A   1      32.443  15.930  25.712  1.00  0.00     0.143 C 
ATOM     17  N   UNL A   1      33.297  15.646  24.581  1.00  0.00    -0.354 N 
ATOM     18  H   UNL A   1      33.640  14.725  24.517  1.00  0.00     0.163 HD
ATOM     19  O   UNL A   1      34.389  16.109  22.654  1.00  0.00    -0.267 OA
ENDBRANCH  10  15
ENDBRANCH   8   9
BRANCH   8  20
ATOM     20  C   UNL A   1      32.511  23.029  23.210  1.00  0.00     0.084 C 
ATOM     21  C   UNL A   1      33.951  23.374  22.938  1.00  0.00     0.027 C 
ATOM     22  C   UNL A   1      33.045  22.980  21.811  1.00  0.00     0.027 C 
ENDBRANCH   8  20
ENDBRANCH   7   8
ENDBRANCH   6   7
ENDBRANCH   3   6
ENDBRANCH   1   2
BRANCH   1  23
ATOM     23  C   UNL A   1      36.065  21.770  25.231  1.00  0.00     0.023 C 
BRANCH  23  24
ATOM     24  C   UNL A   1      37.498  21.570  24.731  1.00  0.00     0.023 C 
BRANCH  24  25
ATOM     25  C   UNL A   1      38.576  21.474  25.803  1.00  0.00     0.116 C 
BRANCH  25  26
ATOM     26  N   UNL A   1      39.400  20.268  25.712  1.00  0.00    -0.352 N 
ATOM     27  C   UNL A   1      40.743  20.069  25.986  1.00  0.00     0.251 C 
ATOM     28  H   UNL A   1      38.920  19.464  25.405  1.00  0.00     0.163 HD
ATOM     29  O   UNL A   1      41.277  19.006  25.722  1.00  0.00    -0.269 OA
BRANCH  27  30
ATOM     30  C   UNL A   1      41.536  21.178  26.567  1.00  0.00     0.039 A 
ATOM     31  C   UNL A   1      42.134  22.123  25.730  1.00  0.00     0.014 A 
ATOM     32  C   UNL A   1      41.614  21.325  27.948  1.00  0.00     0.014 A 
ATOM     33  C   UNL A   1      42.672  23.289  26.284  1.00  0.00     0.010 A 
ATOM     34  C   UNL A   1      41.999  22.546  28.480  1.00  0.00     0.010 A 
ATOM     35  C   UNL A   1      42.531  23.549  27.657  1.00  0.00    -0.014 A 
BRANCH  35  36
ATOM     36  C   UNL A   1      42.908  24.850  28.275  1.00  0.00     0.031 A 
ATOM     37  C   UNL A   1      41.850  25.896  28.523  1.00  0.00     0.074 A 
ATOM     38  C   UNL A   1      44.207  25.148  28.491  1.00  0.00     0.049 A 
ATOM     39  N   UNL A   1      41.990  27.150  28.871  1.00  0.00    -0.248 NA
ATOM     40  C   UNL A   1      40.453  25.493  28.290  1.00  0.00     0.031 C 
ATOM     41  C   UNL A   1      45.345  24.262  28.229  1.00  0.00     0.029 A 
ATOM     42  N   UNL A   1      44.790  26.296  28.970  1.00  0.00    -0.354 N 
ATOM     43  C   UNL A   1      40.711  27.692  28.839  1.00  0.00     0.074 A 
ATOM     44  C   UNL A   1      39.819  26.653  28.380  1.00  0.00     0.031 C 
ATOM     45  C   UNL A   1      46.480  24.881  28.591  1.00  0.00     0.029 A 
ATOM     46  C   UNL A   1      46.160  26.223  29.063  1.00  0.00     0.049 A 
ATOM     47  H   UNL A   1      44.276  27.096  29.224  1.00  0.00     0.167 HD
ATOM     48  C   UNL A   1      40.304  28.935  29.190  1.00  0.00     0.031 A 
ATOM     49  C   UNL A   1      47.060  27.135  29.477  1.00  0.00     0.031 A 
ATOM     50  C   UNL A   1      41.178  29.950  29.712  1.00  0.00     0.049 A 
ATOM     51  C   UNL A   1      46.578  28.489  29.921  1.00  0.00     0.074 A 
ATOM     52  C   UNL A   1      40.852  31.209  30.184  1.00  0.00     0.029 A 
ATOM     53  N   UNL A   1      42.549  29.809  29.848  1.00  0.00    -0.354 N 
ATOM     54  N   UNL A   1      45.357  28.964  29.944  1.00  0.00    -0.248 NA
ATOM     55  C   UNL A   1      47.601  29.429  30.403  1.00  0.00     0.031 C 
ATOM     56  C   UNL A   1      42.035  31.843  30.578  1.00  0.00     0.029 A 
ATOM     57  C   UNL A   1      43.088  30.961  30.391  1.00  0.00     0.049 A 
ATOM     58  H   UNL A   1      43.064  29.008  29.596  1.00  0.00     0.167 HD
ATOM     59  C   UNL A   1      45.460  30.245  30.469  1.00  0.00     0.074 A 
ATOM     60  C   UNL A   1      46.861  30.467  30.763  1.00  0.00     0.031 C 
ATOM     61  C   UNL A   1      44.483  31.157  30.686  1.00  0.00     0.031 A 
BRANCH  48  62
ATOM     62  C   UNL A   1      38.842  29.253  29.033  1.00  0.00    -0.014 A 
ATOM     63  C   UNL A   1      38.328  29.735  27.817  1.00  0.00     0.009 A 
ATOM     64  C   UNL A   1      37.965  29.060  30.110  1.00  0.00     0.009 A 
ATOM     65  C   UNL A   1      36.976  30.065  27.700  1.00  0.00     0.001 A 
ATOM     66  C   UNL A   1      36.607  29.360  29.980  1.00  0.00     0.001 A 
ATOM     67  C   UNL A   1      36.117  29.874  28.781  1.00  0.00     0.000 A 
ENDBRANCH  48  62
BRANCH  49  68
ATOM     68  C   UNL A   1      48.505  26.791  29.531  1.00  0.00    -0.014 A 
ATOM     69  C   UNL A   1      49.335  27.057  28.431  1.00  0.00     0.009 A 
ATOM     70  C   UNL A   1      49.062  26.193  30.672  1.00  0.00     0.009 A 
ATOM     71  C   UNL A   1      50.686  26.707  28.461  1.00  0.00     0.001 A 
ATOM     72  C   UNL A   1      50.421  25.870  30.709  1.00  0.00     0.001 A 
ATOM     73  C   UNL A   1      51.229  26.118  29.601  1.00  0.00     0.000 A 
ENDBRANCH  49  68
BRANCH  61  74
ATOM     74  C   UNL A   1      44.887  32.463  31.307  1.00  0.00    -0.014 A 
ATOM     75  C   UNL A   1      44.930  32.622  32.700  1.00  0.00     0.009 A 
ATOM     76  C   UNL A   1      45.277  33.530  30.484  1.00  0.00     0.009 A 
ATOM     77  C   UNL A   1      45.331  33.838  33.257  1.00  0.00     0.001 A 
ATOM     78  C   UNL A   1      45.703  34.735  31.044  1.00  0.00     0.001 A 
ATOM     79  C   UNL A   1      45.721  34.890  32.429  1.00  0.00     0.000 A 
ENDBRANCH  61  74
ENDBRANCH  35  36
ENDBRANCH  27  30
ENDBRANCH  25  26
ENDBRANCH  24  25
ENDBRANCH  23  24
ENDBRANCH   1  23
TORSDOF 16
ENDMDL
MODEL 2
REMARK VINA RESULT:     -10.8      0.909      6.076
REMARK SMILES CNC(=O)c1ccc(N(CCC(=O)NCCCCNC(=O)c2ccc(-c3c4nc(c(-c5ccccc5)c5ccc([nH]5)c(-c5ccccc5)c5nc(c(-c6ccccc6)c6ccc3[nH]6)C=C5)C=C4)cc2)C2CC2)nn1
REMARK SMILES IDX 15 1 14 2 12 3 13 4 11 6 10 7 9 8 8 9 5 10 6 11 74 12 7 13
REMARK SMILES IDX 73 14 3 15 1 16 2 17 4 19 70 20 71 21 72 22 16 23 17 24
REMARK SMILES IDX 18 25 19 26 20 27 21 29 22 30 23 31 69 32 24 33 68 34 25 35
REMARK SMILES IDX 26 36 27 37 62 38 28 39 67 40 61 41 63 42 29 43 66 44 60 45
REMARK SMILES IDX 59 46 30 48 52 49 37 50 51 51 38 52 41 53 50 54 64 55 39 56
REMARK SMILES IDX 40 57 49 59 65 60 42 61 31 62 32 63 36 64 33 65 35 66 34 67
REMARK SMILES IDX 53 68 54 69 58 70 55 71 57 72 56 73 43 74 44 75 48 76 45 77
REMARK SMILES IDX 47 78 46 79
REMARK H PARENT 14 5 2 18 19 28 63 47 41 58
REMARK Flexibility Score: inf
ROOT
ATOM      1  C   UNL A   1      36.029  22.546  25.851  1.00  0.00     0.116 C 
ENDROOT
BRANCH   1   2
ATOM      2  N   UNL A   1      35.088  22.229  26.915  1.00  0.00    -0.356 N 
ATOM      3  C   UNL A   1      33.798  22.611  27.114  1.00  0.00     0.221 C 
ATOM      4  O   UNL A   1      33.291  22.358  28.209  1.00  0.00    -0.275 OA
ATOM      5  H   UNL A   1      35.448  21.634  27.612  1.00  0.00     0.163 HD
BRANCH   3   6
ATOM      6  C   UNL A   1      33.004  23.298  26.026  1.00  0.00     0.121 C 
BRANCH   6   7
ATOM      7  C   UNL A   1      31.929  22.369  25.457  1.00  0.00     0.128 C 
BRANCH   7   8
ATOM      8  N   UNL A   1      32.422  21.546  24.328  1.00  0.00    -0.352 N 
BRANCH   8   9
ATOM      9  C   UNL A   1      32.443  20.151  24.556  1.00  0.00     0.151 A 
ATOM     10  C   UNL A   1      32.677  17.444  25.000  1.00  0.00     0.150 A 
ATOM     11  C   UNL A   1      32.614  17.886  23.699  1.00  0.00     0.040 A 
ATOM     12  N   UNL A   1      32.593  18.284  26.049  1.00  0.00    -0.143 NA
ATOM     13  C   UNL A   1      32.471  19.253  23.489  1.00  0.00     0.051 A 
ATOM     14  N   UNL A   1      32.472  19.646  25.814  1.00  0.00    -0.132 NA
BRANCH  10  15
ATOM     15  C   UNL A   1      32.851  16.003  25.268  1.00  0.00     0.271 C 
ATOM     16  C   UNL A   1      35.378  16.207  25.314  1.00  0.00     0.143 C 
ATOM     17  N   UNL A   1      34.125  15.487  25.337  1.00  0.00    -0.354 N 
ATOM     18  H   UNL A   1      34.190  14.507  25.412  1.00  0.00     0.163 HD
ATOM     19  O   UNL A   1      31.873  15.266  25.344  1.00  0.00    -0.267 OA
ENDBRANCH  10  15
ENDBRANCH   8   9
BRANCH   8  20
ATOM     20  C   UNL A   1      33.290  22.237  23.352  1.00  0.00     0.084 C 
ATOM     21  C   UNL A   1      32.781  22.623  21.989  1.00  0.00     0.027 C 
ATOM     22  C   UNL A   1      33.267  23.677  22.938  1.00  0.00     0.027 C 
ENDBRANCH   8  20
ENDBRANCH   7   8
ENDBRANCH   6   7
ENDBRANCH   3   6
ENDBRANCH   1   2
BRANCH   1  23
ATOM     23  C   UNL A   1      36.394  21.250  25.120  1.00  0.00     0.023 C 
BRANCH  23  24
ATOM     24  C   UNL A   1      37.863  21.008  24.766  1.00  0.00     0.023 C 
BRANCH  24  25
ATOM     25  C   UNL A   1      38.834  20.931  25.938  1.00  0.00     0.116 C 
BRANCH  25  26
ATOM     26  N   UNL A   1      39.792  19.829  25.845  1.00  0.00    -0.352 N 
ATOM     27  C   UNL A   1      41.162  19.804  26.045  1.00  0.00     0.251 C 
ATOM     28  H   UNL A   1      39.398  18.960  25.600  1.00  0.00     0.163 HD
ATOM     29  O   UNL A   1      41.806  18.801  25.792  1.00  0.00    -0.269 OA
BRANCH  27  30
ATOM     30  C   UNL A   1      41.845  21.026  26.532  1.00  0.00     0.039 A 
ATOM     31  C   UNL A   1      42.322  21.971  25.621  1.00  0.00     0.014 A 
ATOM     32  C   UNL A   1      41.935  21.272  27.898  1.00  0.00     0.014 A 
ATOM     33  C   UNL A   1      42.745  23.222  26.085  1.00  0.00     0.010 A 
ATOM     34  C   UNL A   1      42.199  22.559  28.341  1.00  0.00     0.010 A 
ATOM     35  C   UNL A   1      42.605  23.555  27.442  1.00  0.00    -0.014 A 
BRANCH  35  36
ATOM     36  C   UNL A   1      42.855  24.926  27.966  1.00  0.00     0.031 A 
ATOM     37  C   UNL A   1      44.241  25.314  28.417  1.00  0.00     0.074 A 
ATOM     38  C   UNL A   1      41.825  25.776  28.166  1.00  0.00     0.049 A 
ATOM     39  N   UNL A   1      44.632  26.377  29.073  1.00  0.00    -0.248 NA
ATOM     40  C   UNL A   1      45.320  24.349  28.146  1.00  0.00     0.031 C 
ATOM     41  C   UNL A   1      40.419  25.508  27.846  1.00  0.00     0.029 A 
ATOM     42  N   UNL A   1      41.804  27.040  28.701  1.00  0.00    -0.354 N 
ATOM     43  C   UNL A   1      45.981  26.177  29.341  1.00  0.00     0.074 A 
ATOM     44  C   UNL A   1      46.326  24.869  28.833  1.00  0.00     0.031 C 
ATOM     45  C   UNL A   1      39.683  26.589  28.150  1.00  0.00     0.029 A 
ATOM     46  C   UNL A   1      40.551  27.607  28.732  1.00  0.00     0.049 A 
ATOM     47  H   UNL A   1      42.609  27.498  29.033  1.00  0.00     0.167 HD
ATOM     48  C   UNL A   1      46.867  27.016  29.928  1.00  0.00     0.031 A 
ATOM     49  C   UNL A   1      40.144  28.809  29.182  1.00  0.00     0.031 A 
ATOM     50  C   UNL A   1      46.543  28.344  30.371  1.00  0.00     0.049 A 
ATOM     51  C   UNL A   1      41.156  29.750  29.774  1.00  0.00     0.074 A 
ATOM     52  C   UNL A   1      47.386  29.309  30.894  1.00  0.00     0.029 A 
ATOM     53  N   UNL A   1      45.274  28.899  30.323  1.00  0.00    -0.354 N 
ATOM     54  N   UNL A   1      42.441  29.568  29.962  1.00  0.00    -0.248 NA
ATOM     55  C   UNL A   1      40.662  31.064  30.209  1.00  0.00     0.031 C 
ATOM     56  C   UNL A   1      46.619  30.440  31.192  1.00  0.00     0.029 A 
ATOM     57  C   UNL A   1      45.309  30.192  30.814  1.00  0.00     0.049 A 
ATOM     58  H   UNL A   1      44.468  28.441  29.990  1.00  0.00     0.167 HD
ATOM     59  C   UNL A   1      42.913  30.754  30.509  1.00  0.00     0.074 A 
ATOM     60  C   UNL A   1      41.780  31.651  30.610  1.00  0.00     0.031 C 
ATOM     61  C   UNL A   1      44.172  31.071  30.896  1.00  0.00     0.031 A 
BRANCH  48  62
ATOM     62  C   UNL A   1      48.275  26.520  30.105  1.00  0.00    -0.014 A 
ATOM     63  C   UNL A   1      48.664  25.830  31.265  1.00  0.00     0.009 A 
ATOM     64  C   UNL A   1      49.226  26.736  29.096  1.00  0.00     0.009 A 
ATOM     65  C   UNL A   1      49.986  25.412  31.433  1.00  0.00     0.001 A 
ATOM     66  C   UNL A   1      50.539  26.288  29.251  1.00  0.00     0.001 A 
ATOM     67  C   UNL A   1      50.921  25.639  30.424  1.00  0.00     0.000 A 
ENDBRANCH  48  62
BRANCH  49  68
ATOM     68  C   UNL A   1      38.719  29.212  29.056  1.00  0.00    -0.014 A 
ATOM     69  C   UNL A   1      37.851  29.088  30.153  1.00  0.00     0.009 A 
ATOM     70  C   UNL A   1      38.215  29.716  27.847  1.00  0.00     0.009 A 
ATOM     71  C   UNL A   1      36.504  29.434  30.035  1.00  0.00     0.001 A 
ATOM     72  C   UNL A   1      36.873  30.087  27.741  1.00  0.00     0.001 A 
ATOM     73  C   UNL A   1      36.016  29.937  28.830  1.00  0.00     0.000 A 
ENDBRANCH  49  68
BRANCH  61  74
ATOM     74  C   UNL A   1      44.399  32.458  31.424  1.00  0.00    -0.014 A 
ATOM     75  C   UNL A   1      44.693  33.525  30.562  1.00  0.00     0.009 A 
ATOM     76  C   UNL A   1      44.269  32.704  32.799  1.00  0.00     0.009 A 
ATOM     77  C   UNL A   1      44.879  34.811  31.073  1.00  0.00     0.001 A 
ATOM     78  C   UNL A   1      44.428  33.995  33.303  1.00  0.00     0.001 A 
ATOM     79  C   UNL A   1      44.741  35.045  32.441  1.00  0.00     0.000 A 
ENDBRANCH  61  74
ENDBRANCH  35  36
ENDBRANCH  27  30
ENDBRANCH  25  26
ENDBRANCH  24  25
ENDBRANCH  23  24
ENDBRANCH   1  23
TORSDOF 16
ENDMDL
MODEL 3
REMARK VINA RESULT:     -10.8      2.043      6.890
REMARK SMILES CNC(=O)c1ccc(N(CCC(=O)NCCCCNC(=O)c2ccc(-c3c4nc(c(-c5ccccc5)c5ccc([nH]5)c(-c5ccccc5)c5nc(c(-c6ccccc6)c6ccc3[nH]6)C=C5)C=C4)cc2)C2CC2)nn1
REMARK SMILES IDX 15 1 14 2 12 3 13 4 11 6 10 7 9 8 8 9 5 10 6 11 74 12 7 13
REMARK SMILES IDX 73 14 3 15 1 16 2 17 4 19 70 20 71 21 72 22 16 23 17 24
REMARK SMILES IDX 18 25 19 26 20 27 21 29 22 30 23 31 69 32 24 33 68 34 25 35
REMARK SMILES IDX 26 36 27 37 62 38 28 39 67 40 61 41 63 42 29 43 66 44 60 45
REMARK SMILES IDX 59 46 30 48 52 49 37 50 51 51 38 52 41 53 50 54 64 55 39 56
REMARK SMILES IDX 40 57 49 59 65 60 42 61 31 62 32 63 36 64 33 65 35 66 34 67
REMARK SMILES IDX 53 68 54 69 58 70 55 71 57 72 56 73 43 74 44 75 48 76 45 77
REMARK SMILES IDX 47 78 46 79
REMARK H PARENT 14 5 2 18 19 28 63 47 41 58
REMARK Flexibility Score: inf
ROOT
ATOM      1  C   UNL A   1      31.321  27.037  25.998  1.00  0.00     0.116 C 
ENDROOT
BRANCH   1   2
ATOM      2  N   UNL A   1      30.925  25.826  26.701  1.00  0.00    -0.356 N 
ATOM      3  C   UNL A   1      31.447  24.571  26.687  1.00  0.00     0.221 C 
ATOM      4  O   UNL A   1      30.793  23.675  27.225  1.00  0.00    -0.275 OA
ATOM      5  H   UNL A   1      30.143  25.935  27.289  1.00  0.00     0.163 HD
BRANCH   3   6
ATOM      6  C   UNL A   1      32.791  24.284  26.057  1.00  0.00     0.121 C 
BRANCH   6   7
ATOM      7  C   UNL A   1      33.033  22.777  25.934  1.00  0.00     0.128 C 
BRANCH   7   8
ATOM      8  N   UNL A   1      32.903  22.287  24.543  1.00  0.00    -0.352 N 
BRANCH   8   9
ATOM      9  C   UNL A   1      33.053  20.892  24.372  1.00  0.00     0.151 A 
ATOM     10  C   UNL A   1      33.449  18.212  23.882  1.00  0.00     0.150 A 
ATOM     11  C   UNL A   1      32.334  18.812  23.345  1.00  0.00     0.040 A 
ATOM     12  N   UNL A   1      34.321  18.880  24.661  1.00  0.00    -0.143 NA
ATOM     13  C   UNL A   1      32.133  20.160  23.620  1.00  0.00     0.051 A 
ATOM     14  N   UNL A   1      34.109  20.230  24.904  1.00  0.00    -0.132 NA
BRANCH  10  15
ATOM     15  C   UNL A   1      33.713  16.788  23.597  1.00  0.00     0.271 C 
ATOM     16  C   UNL A   1      32.573  16.036  25.735  1.00  0.00     0.143 C 
ATOM     17  N   UNL A   1      33.339  15.841  24.525  1.00  0.00    -0.354 N 
ATOM     18  H   UNL A   1      33.629  14.918  24.340  1.00  0.00     0.163 HD
ATOM     19  O   UNL A   1      34.330  16.463  22.588  1.00  0.00    -0.267 OA
ENDBRANCH  10  15
ENDBRANCH   8   9
BRANCH   8  20
ATOM     20  C   UNL A   1      33.155  23.281  23.479  1.00  0.00     0.084 C 
ATOM     21  C   UNL A   1      34.503  23.391  22.816  1.00  0.00     0.027 C 
ATOM     22  C   UNL A   1      33.288  23.056  22.003  1.00  0.00     0.027 C 
ENDBRANCH   8  20
ENDBRANCH   7   8
ENDBRANCH   6   7
ENDBRANCH   3   6
ENDBRANCH   1   2
BRANCH   1  23
ATOM     23  C   UNL A   1      32.695  27.474  26.515  1.00  0.00     0.023 C 
BRANCH  23  24
ATOM     24  C   UNL A   1      32.771  28.705  27.421  1.00  0.00     0.023 C 
BRANCH  24  25
ATOM     25  C   UNL A   1      33.546  29.897  26.874  1.00  0.00     0.116 C 
BRANCH  25  26
ATOM     26  N   UNL A   1      33.714  30.989  27.833  1.00  0.00    -0.352 N 
ATOM     27  C   UNL A   1      34.730  31.248  28.737  1.00  0.00     0.251 C 
ATOM     28  H   UNL A   1      32.983  31.650  27.837  1.00  0.00     0.163 HD
ATOM     29  O   UNL A   1      34.621  32.152  29.548  1.00  0.00    -0.269 OA
BRANCH  27  30
ATOM     30  C   UNL A   1      35.936  30.388  28.737  1.00  0.00     0.039 A 
ATOM     31  C   UNL A   1      36.782  30.369  27.625  1.00  0.00     0.014 A 
ATOM     32  C   UNL A   1      36.272  29.664  29.877  1.00  0.00     0.014 A 
ATOM     33  C   UNL A   1      38.032  29.748  27.722  1.00  0.00     0.010 A 
ATOM     34  C   UNL A   1      37.568  29.193  30.026  1.00  0.00     0.010 A 
ATOM     35  C   UNL A   1      38.469  29.230  28.952  1.00  0.00    -0.014 A 
BRANCH  35  36
ATOM     36  C   UNL A   1      39.855  28.731  29.171  1.00  0.00     0.031 A 
ATOM     37  C   UNL A   1      40.904  29.658  29.733  1.00  0.00     0.074 A 
ATOM     38  C   UNL A   1      40.209  27.500  28.746  1.00  0.00     0.049 A 
ATOM     39  N   UNL A   1      42.199  29.487  29.823  1.00  0.00    -0.248 NA
ATOM     40  C   UNL A   1      40.443  30.977  30.199  1.00  0.00     0.031 C 
ATOM     41  C   UNL A   1      39.318  26.522  28.116  1.00  0.00     0.029 A 
ATOM     42  N   UNL A   1      41.427  26.866  28.769  1.00  0.00    -0.354 N 
ATOM     43  C   UNL A   1      42.704  30.691  30.298  1.00  0.00     0.074 A 
ATOM     44  C   UNL A   1      41.589  31.603  30.417  1.00  0.00     0.031 C 
ATOM     45  C   UNL A   1      40.006  25.399  27.855  1.00  0.00     0.029 A 
ATOM     46  C   UNL A   1      41.397  25.592  28.249  1.00  0.00     0.049 A 
ATOM     47  H   UNL A   1      42.245  27.282  29.123  1.00  0.00     0.167 HD
ATOM     48  C   UNL A   1      43.976  31.007  30.636  1.00  0.00     0.031 A 
ATOM     49  C   UNL A   1      42.379  24.683  28.102  1.00  0.00     0.031 A 
ATOM     50  C   UNL A   1      45.075  30.082  30.584  1.00  0.00     0.049 A 
ATOM     51  C   UNL A   1      43.773  25.034  28.542  1.00  0.00     0.074 A 
ATOM     52  C   UNL A   1      46.383  30.273  30.991  1.00  0.00     0.029 A 
ATOM     53  N   UNL A   1      44.984  28.783  30.111  1.00  0.00    -0.354 N 
ATOM     54  N   UNL A   1      44.221  26.157  29.048  1.00  0.00    -0.248 NA
ATOM     55  C   UNL A   1      44.795  23.987  28.397  1.00  0.00     0.031 C 
ATOM     56  C   UNL A   1      47.093  29.096  30.735  1.00  0.00     0.029 A 
ATOM     57  C   UNL A   1      46.216  28.161  30.209  1.00  0.00     0.049 A 
ATOM     58  H   UNL A   1      44.165  28.365  29.757  1.00  0.00     0.167 HD
ATOM     59  C   UNL A   1      45.568  25.944  29.309  1.00  0.00     0.074 A 
ATOM     60  C   UNL A   1      45.861  24.579  28.918  1.00  0.00     0.031 C 
ATOM     61  C   UNL A   1      46.482  26.800  29.824  1.00  0.00     0.031 A 
BRANCH  48  62
ATOM     62  C   UNL A   1      44.237  32.411  31.109  1.00  0.00    -0.014 A 
ATOM     63  C   UNL A   1      44.151  32.748  32.470  1.00  0.00     0.009 A 
ATOM     64  C   UNL A   1      44.582  33.408  30.184  1.00  0.00     0.009 A 
ATOM     65  C   UNL A   1      44.355  34.065  32.888  1.00  0.00     0.001 A 
ATOM     66  C   UNL A   1      44.818  34.717  30.609  1.00  0.00     0.001 A 
ATOM     67  C   UNL A   1      44.692  35.047  31.958  1.00  0.00     0.000 A 
ENDBRANCH  48  62
BRANCH  49  68
ATOM     68  C   UNL A   1      42.077  23.337  27.548  1.00  0.00    -0.014 A 
ATOM     69  C   UNL A   1      42.303  23.066  26.190  1.00  0.00     0.009 A 
ATOM     70  C   UNL A   1      41.558  22.321  28.365  1.00  0.00     0.009 A 
ATOM     71  C   UNL A   1      41.992  21.815  25.654  1.00  0.00     0.001 A 
ATOM     72  C   UNL A   1      41.273  21.061  27.832  1.00  0.00     0.001 A 
ATOM     73  C   UNL A   1      41.481  20.812  26.476  1.00  0.00     0.000 A 
ENDBRANCH  49  68
BRANCH  61  74
ATOM     74  C   UNL A   1      47.873  26.276  30.033  1.00  0.00    -0.014 A 
ATOM     75  C   UNL A   1      48.811  26.268  28.990  1.00  0.00     0.009 A 
ATOM     76  C   UNL A   1      48.261  25.831  31.305  1.00  0.00     0.009 A 
ATOM     77  C   UNL A   1      50.107  25.797  29.213  1.00  0.00     0.001 A 
ATOM     78  C   UNL A   1      49.564  25.386  31.532  1.00  0.00     0.001 A 
ATOM     79  C   UNL A   1      50.482  25.362  30.483  1.00  0.00     0.000 A 
ENDBRANCH  61  74
ENDBRANCH  35  36
ENDBRANCH  27  30
ENDBRANCH  25  26
ENDBRANCH  24  25
ENDBRANCH  23  24
ENDBRANCH   1  23
TORSDOF 16
ENDMDL
