MODEL 1
REMARK VINA RESULT:     -11.9      0.000      0.000
REMARK SMILES O=C(NCCCCNC(=O)c1ccc(-n2cnc3ccccc32)nc1)c1ccc(-c2c3nc(c(-c4ccccc4)c4ccc([nH]4)c(-c4ccccc4)c4nc(c(-c5ccccc5)c5ccc2[nH]5)C=C4)C=C3)cc1
REMARK SMILES IDX 5 1 4 2 3 3 1 4 2 5 26 7 27 8 73 9 28 10 72 11 29 12 30 13
REMARK SMILES IDX 31 14 66 15 32 16 71 17 65 18 67 19 33 20 70 21 64 22 63 23
REMARK SMILES IDX 34 25 56 26 41 27 55 28 42 29 45 30 54 31 68 32 43 33 44 34
REMARK SMILES IDX 53 36 69 37 46 38 35 39 36 40 40 41 37 42 39 43 38 44 57 45
REMARK SMILES IDX 58 46 62 47 59 48 61 49 60 50 47 51 48 52 52 53 49 54 51 55
REMARK SMILES IDX 50 56 6 57 7 58 8 59 9 60 10 62 11 63 12 64 25 65 13 66
REMARK SMILES IDX 24 67 14 68 15 69 16 70 23 71 17 72 18 73 22 74 19 75 21 76
REMARK SMILES IDX 20 77
REMARK H PARENT 3 6 67 24 45 35 8 61
REMARK Flexibility Score: inf
ROOT
ATOM      1  C   UNL A   1      38.196  19.787  24.632  1.00  0.00     0.023 C 
ENDROOT
BRANCH   1   2
ATOM      2  C   UNL A   1      39.119  20.003  25.820  1.00  0.00     0.116 C 
BRANCH   2   3
ATOM      3  N   UNL A   1      40.293  19.121  25.830  1.00  0.00    -0.352 N 
ATOM      4  O   UNL A   1      42.519  18.726  25.519  1.00  0.00    -0.269 OA
ATOM      5  C   UNL A   1      41.627  19.484  25.907  1.00  0.00     0.251 C 
ATOM      6  H   UNL A   1      40.110  18.155  25.775  1.00  0.00     0.163 HD
BRANCH   5   7
ATOM      7  C   UNL A   1      41.968  20.791  26.488  1.00  0.00     0.039 A 
ATOM      8  C   UNL A   1      42.560  21.831  25.770  1.00  0.00     0.014 A 
ATOM      9  C   UNL A   1      41.628  20.966  27.822  1.00  0.00     0.014 A 
ATOM     10  C   UNL A   1      42.759  23.050  26.417  1.00  0.00     0.010 A 
ATOM     11  C   UNL A   1      41.535  22.222  28.337  1.00  0.00     0.010 A 
ATOM     12  C   UNL A   1      42.235  23.230  27.711  1.00  0.00    -0.014 A 
BRANCH  12  13
ATOM     13  C   UNL A   1      42.360  24.476  28.448  1.00  0.00     0.031 A 
ATOM     14  C   UNL A   1      41.282  25.442  28.167  1.00  0.00     0.074 A 
ATOM     15  C   UNL A   1      43.271  24.671  29.430  1.00  0.00     0.049 A 
ATOM     16  N   UNL A   1      41.381  26.519  27.468  1.00  0.00    -0.248 NA
ATOM     17  C   UNL A   1      39.905  25.089  28.545  1.00  0.00     0.031 C 
ATOM     18  C   UNL A   1      44.201  23.703  30.036  1.00  0.00     0.029 A 
ATOM     19  N   UNL A   1      43.490  25.785  30.176  1.00  0.00    -0.354 N 
ATOM     20  C   UNL A   1      40.123  27.102  27.493  1.00  0.00     0.074 A 
ATOM     21  C   UNL A   1      39.222  26.091  27.987  1.00  0.00     0.031 C 
ATOM     22  C   UNL A   1      44.697  24.202  31.190  1.00  0.00     0.029 A 
ATOM     23  C   UNL A   1      44.283  25.586  31.302  1.00  0.00     0.049 A 
ATOM     24  H   UNL A   1      43.117  26.665  29.940  1.00  0.00     0.167 HD
ATOM     25  C   UNL A   1      39.983  28.447  27.350  1.00  0.00     0.031 A 
ATOM     26  C   UNL A   1      44.576  26.503  32.256  1.00  0.00     0.031 A 
ATOM     27  C   UNL A   1      41.203  29.046  26.861  1.00  0.00     0.049 A 
ATOM     28  C   UNL A   1      44.355  27.835  31.651  1.00  0.00     0.074 A 
ATOM     29  C   UNL A   1      41.951  28.916  25.709  1.00  0.00     0.029 A 
ATOM     30  N   UNL A   1      42.042  29.589  27.807  1.00  0.00    -0.354 N 
ATOM     31  N   UNL A   1      45.076  28.311  30.678  1.00  0.00    -0.248 NA
ATOM     32  C   UNL A   1      43.054  28.456  31.832  1.00  0.00     0.031 C 
ATOM     33  C   UNL A   1      43.309  28.971  26.140  1.00  0.00     0.029 A 
ATOM     34  C   UNL A   1      43.330  29.224  27.514  1.00  0.00     0.049 A 
ATOM     35  H   UNL A   1      41.762  30.148  28.568  1.00  0.00     0.167 HD
ATOM     36  C   UNL A   1      44.165  28.953  29.853  1.00  0.00     0.074 A 
ATOM     37  C   UNL A   1      42.964  29.112  30.673  1.00  0.00     0.031 C 
ATOM     38  C   UNL A   1      44.373  29.032  28.506  1.00  0.00     0.031 A 
BRANCH  25  39
ATOM     39  C   UNL A   1      38.914  29.253  28.042  1.00  0.00    -0.014 A 
ATOM     40  C   UNL A   1      37.723  29.675  27.423  1.00  0.00     0.009 A 
ATOM     41  C   UNL A   1      38.975  29.385  29.441  1.00  0.00     0.009 A 
ATOM     42  C   UNL A   1      36.643  30.178  28.151  1.00  0.00     0.001 A 
ATOM     43  C   UNL A   1      37.880  29.850  30.180  1.00  0.00     0.001 A 
ATOM     44  C   UNL A   1      36.712  30.242  29.534  1.00  0.00     0.000 A 
ENDBRANCH  25  39
BRANCH  26  45
ATOM     45  C   UNL A   1      44.682  26.327  33.721  1.00  0.00    -0.014 A 
ATOM     46  C   UNL A   1      43.556  25.928  34.465  1.00  0.00     0.009 A 
ATOM     47  C   UNL A   1      45.770  26.873  34.423  1.00  0.00     0.009 A 
ATOM     48  C   UNL A   1      43.494  26.131  35.849  1.00  0.00     0.001 A 
ATOM     49  C   UNL A   1      45.706  27.077  35.808  1.00  0.00     0.001 A 
ATOM     50  C   UNL A   1      44.559  26.726  36.517  1.00  0.00     0.000 A 
ENDBRANCH  26  45
BRANCH  38  51
ATOM     51  C   UNL A   1      45.741  28.666  27.967  1.00  0.00    -0.014 A 
ATOM     52  C   UNL A   1      46.618  29.715  27.647  1.00  0.00     0.009 A 
ATOM     53  C   UNL A   1      46.118  27.359  27.606  1.00  0.00     0.009 A 
ATOM     54  C   UNL A   1      47.815  29.478  26.967  1.00  0.00     0.001 A 
ATOM     55  C   UNL A   1      47.333  27.117  26.950  1.00  0.00     0.001 A 
ATOM     56  C   UNL A   1      48.173  28.179  26.620  1.00  0.00     0.000 A 
ENDBRANCH  38  51
ENDBRANCH  12  13
ENDBRANCH   5   7
ENDBRANCH   2   3
ENDBRANCH   1   2
BRANCH   1  57
ATOM     57  C   UNL A   1      36.815  19.215  24.980  1.00  0.00     0.023 C 
BRANCH  57  58
ATOM     58  C   UNL A   1      35.630  20.181  24.907  1.00  0.00     0.116 C 
BRANCH  58  59
ATOM     59  N   UNL A   1      34.344  19.509  25.021  1.00  0.00    -0.352 N 
ATOM     60  C   UNL A   1      33.086  20.043  24.911  1.00  0.00     0.252 C 
ATOM     61  H   UNL A   1      34.382  18.542  25.200  1.00  0.00     0.163 HD
ATOM     62  O   UNL A   1      32.089  19.377  25.201  1.00  0.00    -0.269 OA
BRANCH  60  63
ATOM     63  C   UNL A   1      32.918  21.417  24.434  1.00  0.00     0.058 A 
ATOM     64  C   UNL A   1      32.864  21.701  23.071  1.00  0.00     0.019 A 
ATOM     65  C   UNL A   1      32.806  22.459  25.341  1.00  0.00     0.127 A 
ATOM     66  C   UNL A   1      32.715  23.021  22.667  1.00  0.00     0.048 A 
ATOM     67  N   UNL A   1      32.712  23.762  24.974  1.00  0.00    -0.238 NA
ATOM     68  C   UNL A   1      32.625  24.015  23.642  1.00  0.00     0.138 A 
BRANCH  68  69
ATOM     69  N   UNL A   1      32.416  25.351  23.228  1.00  0.00    -0.283 N 
ATOM     70  C   UNL A   1      33.376  26.189  22.714  1.00  0.00     0.206 A 
ATOM     71  C   UNL A   1      31.236  26.072  23.286  1.00  0.00     0.074 A 
ATOM     72  N   UNL A   1      32.867  27.331  22.304  1.00  0.00    -0.236 NA
ATOM     73  C   UNL A   1      31.546  27.286  22.679  1.00  0.00     0.089 A 
ATOM     74  C   UNL A   1      29.981  25.819  23.866  1.00  0.00     0.029 A 
ATOM     75  C   UNL A   1      30.549  28.268  22.564  1.00  0.00     0.030 A 
ATOM     76  C   UNL A   1      29.013  26.820  23.768  1.00  0.00     0.002 A 
ATOM     77  C   UNL A   1      29.286  28.022  23.116  1.00  0.00     0.002 A 
ENDBRANCH  68  69
ENDBRANCH  60  63
ENDBRANCH  58  59
ENDBRANCH  57  58
ENDBRANCH   1  57
TORSDOF 12
ENDMDL
MODEL 2
REMARK VINA RESULT:     -11.9      3.053      6.713
REMARK SMILES O=C(NCCCCNC(=O)c1ccc(-n2cnc3ccccc32)nc1)c1ccc(-c2c3nc(c(-c4ccccc4)c4ccc([nH]4)c(-c4ccccc4)c4nc(c(-c5ccccc5)c5ccc2[nH]5)C=C4)C=C3)cc1
REMARK SMILES IDX 5 1 4 2 3 3 1 4 2 5 26 7 27 8 73 9 28 10 72 11 29 12 30 13
REMARK SMILES IDX 31 14 66 15 32 16 71 17 65 18 67 19 33 20 70 21 64 22 63 23
REMARK SMILES IDX 34 25 56 26 41 27 55 28 42 29 45 30 54 31 68 32 43 33 44 34
REMARK SMILES IDX 53 36 69 37 46 38 35 39 36 40 40 41 37 42 39 43 38 44 57 45
REMARK SMILES IDX 58 46 62 47 59 48 61 49 60 50 47 51 48 52 52 53 49 54 51 55
REMARK SMILES IDX 50 56 6 57 7 58 8 59 9 60 10 62 11 63 12 64 25 65 13 66
REMARK SMILES IDX 24 67 14 68 15 69 16 70 23 71 17 72 18 73 22 74 19 75 21 76
REMARK SMILES IDX 20 77
REMARK H PARENT 3 6 67 24 45 35 8 61
REMARK Flexibility Score: inf
ROOT
ATOM      1  C   UNL A   1      38.866  21.939  25.979  1.00  0.00     0.023 C 
ENDROOT
BRANCH   1   2
ATOM      2  C   UNL A   1      40.026  22.204  26.923  1.00  0.00     0.116 C 
BRANCH   2   3
ATOM      3  N   UNL A   1      41.337  22.236  26.261  1.00  0.00    -0.352 N 
ATOM      4  O   UNL A   1      42.966  23.302  25.069  1.00  0.00    -0.269 OA
ATOM      5  C   UNL A   1      42.103  23.347  25.949  1.00  0.00     0.251 C 
ATOM      6  H   UNL A   1      41.717  21.364  26.008  1.00  0.00     0.163 HD
BRANCH   5   7
ATOM      7  C   UNL A   1      41.885  24.588  26.708  1.00  0.00     0.039 A 
ATOM      8  C   UNL A   1      42.449  24.844  27.959  1.00  0.00     0.014 A 
ATOM      9  C   UNL A   1      41.095  25.545  26.086  1.00  0.00     0.014 A 
ATOM     10  C   UNL A   1      42.230  26.094  28.537  1.00  0.00     0.010 A 
ATOM     11  C   UNL A   1      41.150  26.840  26.500  1.00  0.00     0.010 A 
ATOM     12  C   UNL A   1      41.573  27.088  27.788  1.00  0.00    -0.014 A 
BRANCH  12  13
ATOM     13  C   UNL A   1      41.335  28.429  28.294  1.00  0.00     0.031 A 
ATOM     14  C   UNL A   1      42.399  29.390  27.952  1.00  0.00     0.074 A 
ATOM     15  C   UNL A   1      40.170  28.811  28.868  1.00  0.00     0.049 A 
ATOM     16  N   UNL A   1      43.284  29.872  28.753  1.00  0.00    -0.248 NA
ATOM     17  C   UNL A   1      42.624  29.716  26.535  1.00  0.00     0.031 C 
ATOM     18  C   UNL A   1      38.910  28.058  28.996  1.00  0.00     0.029 A 
ATOM     19  N   UNL A   1      39.833  30.021  29.384  1.00  0.00    -0.354 N 
ATOM     20  C   UNL A   1      44.055  30.735  27.991  1.00  0.00     0.074 A 
ATOM     21  C   UNL A   1      43.739  30.445  26.615  1.00  0.00     0.031 C 
ATOM     22  C   UNL A   1      37.904  28.898  29.327  1.00  0.00     0.029 A 
ATOM     23  C   UNL A   1      38.475  30.195  29.629  1.00  0.00     0.049 A 
ATOM     24  H   UNL A   1      40.499  30.723  29.571  1.00  0.00     0.167 HD
ATOM     25  C   UNL A   1      44.691  31.788  28.571  1.00  0.00     0.031 A 
ATOM     26  C   UNL A   1      37.869  31.330  30.053  1.00  0.00     0.031 A 
ATOM     27  C   UNL A   1      44.713  31.652  30.009  1.00  0.00     0.049 A 
ATOM     28  C   UNL A   1      38.914  32.161  30.687  1.00  0.00     0.074 A 
ATOM     29  C   UNL A   1      45.253  30.733  30.886  1.00  0.00     0.029 A 
ATOM     30  N   UNL A   1      43.729  32.317  30.703  1.00  0.00    -0.354 N 
ATOM     31  N   UNL A   1      39.525  31.832  31.788  1.00  0.00    -0.248 NA
ATOM     32  C   UNL A   1      39.592  33.148  29.864  1.00  0.00     0.031 C 
ATOM     33  C   UNL A   1      44.278  30.586  31.915  1.00  0.00     0.029 A 
ATOM     34  C   UNL A   1      43.235  31.484  31.672  1.00  0.00     0.049 A 
ATOM     35  H   UNL A   1      43.430  33.240  30.532  1.00  0.00     0.167 HD
ATOM     36  C   UNL A   1      40.845  32.204  31.579  1.00  0.00     0.074 A 
ATOM     37  C   UNL A   1      40.799  33.113  30.434  1.00  0.00     0.031 C 
ATOM     38  C   UNL A   1      41.869  31.518  32.165  1.00  0.00     0.031 A 
BRANCH  25  39
ATOM     39  C   UNL A   1      44.905  33.114  27.887  1.00  0.00    -0.014 A 
ATOM     40  C   UNL A   1      43.861  33.973  27.493  1.00  0.00     0.009 A 
ATOM     41  C   UNL A   1      46.203  33.652  27.859  1.00  0.00     0.009 A 
ATOM     42  C   UNL A   1      44.089  35.297  27.114  1.00  0.00     0.001 A 
ATOM     43  C   UNL A   1      46.433  34.991  27.519  1.00  0.00     0.001 A 
ATOM     44  C   UNL A   1      45.374  35.814  27.151  1.00  0.00     0.000 A 
ENDBRANCH  25  39
BRANCH  26  45
ATOM     45  C   UNL A   1      36.567  31.903  29.645  1.00  0.00    -0.014 A 
ATOM     46  C   UNL A   1      36.424  32.496  28.376  1.00  0.00     0.009 A 
ATOM     47  C   UNL A   1      35.580  32.174  30.608  1.00  0.00     0.009 A 
ATOM     48  C   UNL A   1      35.373  33.380  28.105  1.00  0.00     0.001 A 
ATOM     49  C   UNL A   1      34.529  33.060  30.335  1.00  0.00     0.001 A 
ATOM     50  C   UNL A   1      34.439  33.680  29.090  1.00  0.00     0.000 A 
ENDBRANCH  26  45
BRANCH  38  51
ATOM     51  C   UNL A   1      41.536  30.534  33.268  1.00  0.00    -0.014 A 
ATOM     52  C   UNL A   1      41.673  30.972  34.596  1.00  0.00     0.009 A 
ATOM     53  C   UNL A   1      41.272  29.169  33.049  1.00  0.00     0.009 A 
ATOM     54  C   UNL A   1      41.578  30.081  35.666  1.00  0.00     0.001 A 
ATOM     55  C   UNL A   1      41.147  28.280  34.125  1.00  0.00     0.001 A 
ATOM     56  C   UNL A   1      41.313  28.735  35.431  1.00  0.00     0.000 A 
ENDBRANCH  38  51
ENDBRANCH  12  13
ENDBRANCH   5   7
ENDBRANCH   2   3
ENDBRANCH   1   2
BRANCH   1  57
ATOM     57  C   UNL A   1      37.803  23.047  25.932  1.00  0.00     0.023 C 
BRANCH  57  58
ATOM     58  C   UNL A   1      37.104  23.275  24.590  1.00  0.00     0.116 C 
BRANCH  58  59
ATOM     59  N   UNL A   1      36.090  22.271  24.302  1.00  0.00    -0.352 N 
ATOM     60  C   UNL A   1      34.726  22.388  24.367  1.00  0.00     0.252 C 
ATOM     61  H   UNL A   1      36.429  21.389  24.024  1.00  0.00     0.163 HD
ATOM     62  O   UNL A   1      34.000  21.396  24.257  1.00  0.00    -0.269 OA
BRANCH  60  63
ATOM     63  C   UNL A   1      34.117  23.707  24.557  1.00  0.00     0.058 A 
ATOM     64  C   UNL A   1      33.698  24.128  25.817  1.00  0.00     0.019 A 
ATOM     65  C   UNL A   1      33.955  24.559  23.476  1.00  0.00     0.127 A 
ATOM     66  C   UNL A   1      33.117  25.382  25.946  1.00  0.00     0.048 A 
ATOM     67  N   UNL A   1      33.344  25.768  23.565  1.00  0.00    -0.238 NA
ATOM     68  C   UNL A   1      32.975  26.175  24.807  1.00  0.00     0.138 A 
BRANCH  68  69
ATOM     69  N   UNL A   1      32.434  27.474  24.951  1.00  0.00    -0.283 N 
ATOM     70  C   UNL A   1      31.396  27.994  24.219  1.00  0.00     0.206 A 
ATOM     71  C   UNL A   1      32.857  28.465  25.819  1.00  0.00     0.074 A 
ATOM     72  N   UNL A   1      31.029  29.181  24.654  1.00  0.00    -0.236 NA
ATOM     73  C   UNL A   1      31.944  29.500  25.628  1.00  0.00     0.089 A 
ATOM     74  C   UNL A   1      33.965  28.588  26.674  1.00  0.00     0.029 A 
ATOM     75  C   UNL A   1      32.082  30.681  26.373  1.00  0.00     0.030 A 
ATOM     76  C   UNL A   1      34.102  29.783  27.384  1.00  0.00     0.002 A 
ATOM     77  C   UNL A   1      33.169  30.810  27.248  1.00  0.00     0.002 A 
ENDBRANCH  68  69
ENDBRANCH  60  63
ENDBRANCH  58  59
ENDBRANCH  57  58
ENDBRANCH   1  57
TORSDOF 12
ENDMDL
MODEL 3
REMARK VINA RESULT:     -11.9      2.901      7.873
REMARK SMILES O=C(NCCCCNC(=O)c1ccc(-n2cnc3ccccc32)nc1)c1ccc(-c2c3nc(c(-c4ccccc4)c4ccc([nH]4)c(-c4ccccc4)c4nc(c(-c5ccccc5)c5ccc2[nH]5)C=C4)C=C3)cc1
REMARK SMILES IDX 5 1 4 2 3 3 1 4 2 5 26 7 27 8 73 9 28 10 72 11 29 12 30 13
REMARK SMILES IDX 31 14 66 15 32 16 71 17 65 18 67 19 33 20 70 21 64 22 63 23
REMARK SMILES IDX 34 25 56 26 41 27 55 28 42 29 45 30 54 31 68 32 43 33 44 34
REMARK SMILES IDX 53 36 69 37 46 38 35 39 36 40 40 41 37 42 39 43 38 44 57 45
REMARK SMILES IDX 58 46 62 47 59 48 61 49 60 50 47 51 48 52 52 53 49 54 51 55
REMARK SMILES IDX 50 56 6 57 7 58 8 59 9 60 10 62 11 63 12 64 25 65 13 66
REMARK SMILES IDX 24 67 14 68 15 69 16 70 23 71 17 72 18 73 22 74 19 75 21 76
REMARK SMILES IDX 20 77
REMARK H PARENT 3 6 67 24 45 35 8 61
REMARK Flexibility Score: inf
ROOT
ATOM      1  C   UNL A   1      33.620  30.334  27.557  1.00  0.00     0.023 C 
ENDROOT
BRANCH   1   2
ATOM      2  C   UNL A   1      34.557  31.528  27.633  1.00  0.00     0.116 C 
BRANCH   2   3
ATOM      3  N   UNL A   1      34.523  32.230  28.922  1.00  0.00    -0.352 N 
ATOM      4  O   UNL A   1      34.863  32.317  31.178  1.00  0.00    -0.269 OA
ATOM      5  C   UNL A   1      35.243  31.934  30.068  1.00  0.00     0.251 C 
ATOM      6  H   UNL A   1      33.916  33.002  28.980  1.00  0.00     0.163 HD
BRANCH   5   7
ATOM      7  C   UNL A   1      36.492  31.171  29.937  1.00  0.00     0.039 A 
ATOM      8  C   UNL A   1      37.734  31.749  29.666  1.00  0.00     0.014 A 
ATOM      9  C   UNL A   1      36.387  29.801  30.139  1.00  0.00     0.014 A 
ATOM     10  C   UNL A   1      38.856  30.922  29.647  1.00  0.00     0.010 A 
ATOM     11  C   UNL A   1      37.499  29.073  30.427  1.00  0.00     0.010 A 
ATOM     12  C   UNL A   1      38.720  29.576  30.033  1.00  0.00    -0.014 A 
BRANCH  12  13
ATOM     13  C   UNL A   1      39.840  28.651  30.080  1.00  0.00     0.031 A 
ATOM     14  C   UNL A   1      40.389  28.452  31.434  1.00  0.00     0.074 A 
ATOM     15  C   UNL A   1      40.232  27.904  29.022  1.00  0.00     0.049 A 
ATOM     16  N   UNL A   1      41.502  28.915  31.885  1.00  0.00    -0.248 NA
ATOM     17  C   UNL A   1      39.534  27.829  32.455  1.00  0.00     0.031 C 
ATOM     18  C   UNL A   1      39.592  27.759  27.703  1.00  0.00     0.029 A 
ATOM     19  N   UNL A   1      41.260  27.020  28.940  1.00  0.00    -0.354 N 
ATOM     20  C   UNL A   1      41.599  28.462  33.192  1.00  0.00     0.074 A 
ATOM     21  C   UNL A   1      40.286  27.982  33.547  1.00  0.00     0.031 C 
ATOM     22  C   UNL A   1      40.101  26.684  27.060  1.00  0.00     0.029 A 
ATOM     23  C   UNL A   1      41.229  26.190  27.824  1.00  0.00     0.049 A 
ATOM     24  H   UNL A   1      41.973  26.970  29.617  1.00  0.00     0.167 HD
ATOM     25  C   UNL A   1      42.815  28.284  33.773  1.00  0.00     0.031 A 
ATOM     26  C   UNL A   1      42.077  25.169  27.552  1.00  0.00     0.031 A 
ATOM     27  C   UNL A   1      43.856  28.922  33.002  1.00  0.00     0.049 A 
ATOM     28  C   UNL A   1      43.304  25.411  28.342  1.00  0.00     0.074 A 
ATOM     29  C   UNL A   1      44.128  30.224  32.633  1.00  0.00     0.029 A 
ATOM     30  N   UNL A   1      44.550  28.120  32.126  1.00  0.00    -0.354 N 
ATOM     31  N   UNL A   1      44.110  26.410  28.129  1.00  0.00    -0.248 NA
ATOM     32  C   UNL A   1      43.403  24.792  29.653  1.00  0.00     0.031 C 
ATOM     33  C   UNL A   1      44.609  30.138  31.294  1.00  0.00     0.029 A 
ATOM     34  C   UNL A   1      44.697  28.789  30.939  1.00  0.00     0.049 A 
ATOM     35  H   UNL A   1      44.886  27.215  32.320  1.00  0.00     0.167 HD
ATOM     36  C   UNL A   1      44.478  26.836  29.397  1.00  0.00     0.074 A 
ATOM     37  C   UNL A   1      44.111  25.731  30.284  1.00  0.00     0.031 C 
ATOM     38  C   UNL A   1      44.776  28.146  29.639  1.00  0.00     0.031 A 
BRANCH  25  39
ATOM     39  C   UNL A   1      43.110  27.199  34.777  1.00  0.00    -0.014 A 
ATOM     40  C   UNL A   1      43.121  27.398  36.170  1.00  0.00     0.009 A 
ATOM     41  C   UNL A   1      43.130  25.864  34.334  1.00  0.00     0.009 A 
ATOM     42  C   UNL A   1      43.128  26.335  37.074  1.00  0.00     0.001 A 
ATOM     43  C   UNL A   1      43.096  24.794  35.236  1.00  0.00     0.001 A 
ATOM     44  C   UNL A   1      43.089  25.030  36.607  1.00  0.00     0.000 A 
ENDBRANCH  25  39
BRANCH  26  45
ATOM     45  C   UNL A   1      41.787  23.843  26.962  1.00  0.00    -0.014 A 
ATOM     46  C   UNL A   1      40.837  22.997  27.564  1.00  0.00     0.009 A 
ATOM     47  C   UNL A   1      42.670  23.276  26.028  1.00  0.00     0.009 A 
ATOM     48  C   UNL A   1      40.818  21.623  27.294  1.00  0.00     0.001 A 
ATOM     49  C   UNL A   1      42.651  21.900  25.760  1.00  0.00     0.001 A 
ATOM     50  C   UNL A   1      41.738  21.071  26.410  1.00  0.00     0.000 A 
ENDBRANCH  26  45
BRANCH  38  51
ATOM     51  C   UNL A   1      44.978  29.068  28.453  1.00  0.00    -0.014 A 
ATOM     52  C   UNL A   1      46.297  29.328  28.047  1.00  0.00     0.009 A 
ATOM     53  C   UNL A   1      43.944  29.810  27.852  1.00  0.00     0.009 A 
ATOM     54  C   UNL A   1      46.582  30.311  27.097  1.00  0.00     0.001 A 
ATOM     55  C   UNL A   1      44.228  30.776  26.877  1.00  0.00     0.001 A 
ATOM     56  C   UNL A   1      45.547  31.034  26.511  1.00  0.00     0.000 A 
ENDBRANCH  38  51
ENDBRANCH  12  13
ENDBRANCH   5   7
ENDBRANCH   2   3
ENDBRANCH   1   2
BRANCH   1  57
ATOM     57  C   UNL A   1      32.297  30.594  26.823  1.00  0.00     0.023 C 
BRANCH  57  58
ATOM     58  C   UNL A   1      31.933  29.626  25.694  1.00  0.00     0.116 C 
BRANCH  58  59
ATOM     59  N   UNL A   1      32.850  29.701  24.567  1.00  0.00    -0.352 N 
ATOM     60  C   UNL A   1      33.543  28.687  23.957  1.00  0.00     0.252 C 
ATOM     61  H   UNL A   1      32.992  30.600  24.191  1.00  0.00     0.163 HD
ATOM     62  O   UNL A   1      34.414  28.931  23.119  1.00  0.00    -0.269 OA
BRANCH  60  63
ATOM     63  C   UNL A   1      33.239  27.294  24.294  1.00  0.00     0.058 A 
ATOM     64  C   UNL A   1      33.800  26.689  25.416  1.00  0.00     0.019 A 
ATOM     65  C   UNL A   1      32.378  26.558  23.495  1.00  0.00     0.127 A 
ATOM     66  C   UNL A   1      33.491  25.363  25.688  1.00  0.00     0.048 A 
ATOM     67  N   UNL A   1      32.100  25.247  23.708  1.00  0.00    -0.238 NA
ATOM     68  C   UNL A   1      32.628  24.685  24.826  1.00  0.00     0.138 A 
BRANCH  68  69
ATOM     69  N   UNL A   1      32.271  23.353  25.137  1.00  0.00    -0.283 N 
ATOM     70  C   UNL A   1      31.078  22.952  25.686  1.00  0.00     0.206 A 
ATOM     71  C   UNL A   1      33.049  22.219  24.981  1.00  0.00     0.074 A 
ATOM     72  N   UNL A   1      30.980  21.641  25.752  1.00  0.00    -0.236 NA
ATOM     73  C   UNL A   1      32.206  21.172  25.345  1.00  0.00     0.089 A 
ATOM     74  C   UNL A   1      34.397  22.016  24.641  1.00  0.00     0.029 A 
ATOM     75  C   UNL A   1      32.688  19.855  25.295  1.00  0.00     0.030 A 
ATOM     76  C   UNL A   1      34.866  20.701  24.626  1.00  0.00     0.002 A 
ATOM     77  C   UNL A   1      34.024  19.634  24.935  1.00  0.00     0.002 A 
ENDBRANCH  68  69
ENDBRANCH  60  63
ENDBRANCH  58  59
ENDBRANCH  57  58
ENDBRANCH   1  57
TORSDOF 12
ENDMDL
