MODEL 1
REMARK VINA RESULT:      -9.7      0.000      0.000
REMARK SMILES O=C(NCCCCNC(=O)[C@@H](CCOCCO)c1cccc(F)c1)c1ccc(-c2c3nc(c(-c4ccccc4)c4ccc([nH]4)c(-c4ccccc4)c4nc(c(-c5ccccc5)c5ccc2[nH]5)C=C4)C=C3)cc1
REMARK SMILES IDX 8 1 9 2 10 3 7 5 6 6 5 7 4 8 3 9 1 10 2 11 25 13 26 14 72 15
REMARK SMILES IDX 27 16 71 17 28 18 29 19 30 20 65 21 31 22 70 23 64 24 66 25
REMARK SMILES IDX 32 26 69 27 63 28 62 29 33 31 55 32 40 33 54 34 41 35 44 36
REMARK SMILES IDX 53 37 67 38 42 39 43 40 52 42 68 43 45 44 34 45 35 46 39 47
REMARK SMILES IDX 36 48 38 49 37 50 56 51 57 52 61 53 58 54 60 55 59 56 46 57
REMARK SMILES IDX 47 58 51 59 48 60 50 61 49 62 11 63 12 64 13 65 14 66 15 67
REMARK SMILES IDX 16 68 17 69 18 71 19 72 24 73 20 74 22 75 21 76 23 77
REMARK H PARENT 8 4 3 12 66 30 44 41 17 70
REMARK Flexibility Score: inf
ROOT
ATOM      1  N   UNL A   1      33.801  25.682  23.855  1.00  0.00    -0.356 N 
ATOM      2  C   UNL A   1      33.865  24.410  23.363  1.00  0.00     0.227 C 
ATOM      3  O   UNL A   1      33.829  24.311  22.129  1.00  0.00    -0.274 OA
ATOM      4  H   UNL A   1      34.468  26.315  23.504  1.00  0.00     0.163 HD
ENDROOT
BRANCH   1   5
ATOM      5  C   UNL A   1      32.869  26.210  24.834  1.00  0.00     0.116 C 
BRANCH   5   6
ATOM      6  C   UNL A   1      33.521  26.654  26.146  1.00  0.00     0.023 C 
BRANCH   6   7
ATOM      7  C   UNL A   1      32.984  27.992  26.664  1.00  0.00     0.023 C 
BRANCH   7   8
ATOM      8  C   UNL A   1      33.735  29.235  26.198  1.00  0.00     0.116 C 
BRANCH   8   9
ATOM      9  N   UNL A   1      33.561  30.395  27.057  1.00  0.00    -0.352 N 
ATOM     10  O   UNL A   1      34.161  31.857  28.690  1.00  0.00    -0.269 OA
ATOM     11  C   UNL A   1      34.445  30.886  27.996  1.00  0.00     0.251 C 
ATOM     12  H   UNL A   1      32.714  30.887  26.958  1.00  0.00     0.163 HD
BRANCH  11  13
ATOM     13  C   UNL A   1      35.731  30.179  28.192  1.00  0.00     0.039 A 
ATOM     14  C   UNL A   1      36.002  29.547  29.408  1.00  0.00     0.014 A 
ATOM     15  C   UNL A   1      36.714  30.260  27.202  1.00  0.00     0.014 A 
ATOM     16  C   UNL A   1      37.306  29.165  29.701  1.00  0.00     0.010 A 
ATOM     17  C   UNL A   1      38.005  29.792  27.469  1.00  0.00     0.010 A 
ATOM     18  C   UNL A   1      38.326  29.288  28.739  1.00  0.00    -0.014 A 
BRANCH  18  19
ATOM     19  C   UNL A   1      39.708  28.857  29.080  1.00  0.00     0.031 A 
ATOM     20  C   UNL A   1      40.638  29.739  29.871  1.00  0.00     0.074 A 
ATOM     21  C   UNL A   1      40.114  27.631  28.698  1.00  0.00     0.049 A 
ATOM     22  N   UNL A   1      41.869  29.502  30.255  1.00  0.00    -0.248 NA
ATOM     23  C   UNL A   1      40.131  31.057  30.282  1.00  0.00     0.031 C 
ATOM     24  C   UNL A   1      39.309  26.679  27.928  1.00  0.00     0.029 A 
ATOM     25  N   UNL A   1      41.292  26.966  28.921  1.00  0.00    -0.354 N 
ATOM     26  C   UNL A   1      42.292  30.646  30.921  1.00  0.00     0.074 A 
ATOM     27  C   UNL A   1      41.191  31.585  30.881  1.00  0.00     0.031 C 
ATOM     28  C   UNL A   1      39.994  25.536  27.790  1.00  0.00     0.029 A 
ATOM     29  C   UNL A   1      41.309  25.697  28.397  1.00  0.00     0.049 A 
ATOM     30  H   UNL A   1      42.051  27.359  29.410  1.00  0.00     0.167 HD
ATOM     31  C   UNL A   1      43.488  30.893  31.510  1.00  0.00     0.031 A 
ATOM     32  C   UNL A   1      42.280  24.765  28.382  1.00  0.00     0.031 A 
ATOM     33  C   UNL A   1      44.580  29.954  31.562  1.00  0.00     0.049 A 
ATOM     34  C   UNL A   1      43.597  25.070  29.028  1.00  0.00     0.074 A 
ATOM     35  C   UNL A   1      45.817  30.102  32.169  1.00  0.00     0.029 A 
ATOM     36  N   UNL A   1      44.568  28.694  30.986  1.00  0.00    -0.354 N 
ATOM     37  N   UNL A   1      43.971  26.152  29.665  1.00  0.00    -0.248 NA
ATOM     38  C   UNL A   1      44.628  24.027  28.947  1.00  0.00     0.031 C 
ATOM     39  C   UNL A   1      46.570  28.951  31.918  1.00  0.00     0.029 A 
ATOM     40  C   UNL A   1      45.785  28.064  31.200  1.00  0.00     0.049 A 
ATOM     41  H   UNL A   1      43.809  28.304  30.496  1.00  0.00     0.167 HD
ATOM     42  C   UNL A   1      45.277  25.919  30.067  1.00  0.00     0.074 A 
ATOM     43  C   UNL A   1      45.622  24.583  29.624  1.00  0.00     0.031 C 
ATOM     44  C   UNL A   1      46.118  26.742  30.739  1.00  0.00     0.031 A 
BRANCH  31  45
ATOM     45  C   UNL A   1      43.702  32.250  32.125  1.00  0.00    -0.014 A 
ATOM     46  C   UNL A   1      43.413  32.497  33.475  1.00  0.00     0.009 A 
ATOM     47  C   UNL A   1      44.268  33.279  31.353  1.00  0.00     0.009 A 
ATOM     48  C   UNL A   1      43.661  33.755  34.033  1.00  0.00     0.001 A 
ATOM     49  C   UNL A   1      44.538  34.526  31.919  1.00  0.00     0.001 A 
ATOM     50  C   UNL A   1      44.228  34.766  33.256  1.00  0.00     0.000 A 
ENDBRANCH  31  45
BRANCH  32  51
ATOM     51  C   UNL A   1      42.034  23.467  27.706  1.00  0.00    -0.014 A 
ATOM     52  C   UNL A   1      41.423  22.407  28.392  1.00  0.00     0.009 A 
ATOM     53  C   UNL A   1      42.377  23.298  26.355  1.00  0.00     0.009 A 
ATOM     54  C   UNL A   1      41.170  21.199  27.739  1.00  0.00     0.001 A 
ATOM     55  C   UNL A   1      42.094  22.100  25.697  1.00  0.00     0.001 A 
ATOM     56  C   UNL A   1      41.496  21.050  26.391  1.00  0.00     0.000 A 
ENDBRANCH  32  51
BRANCH  44  57
ATOM     57  C   UNL A   1      47.487  26.208  31.047  1.00  0.00    -0.014 A 
ATOM     58  C   UNL A   1      48.520  26.271  30.097  1.00  0.00     0.009 A 
ATOM     59  C   UNL A   1      47.751  25.648  32.305  1.00  0.00     0.009 A 
ATOM     60  C   UNL A   1      49.782  25.752  30.393  1.00  0.00     0.001 A 
ATOM     61  C   UNL A   1      49.021  25.153  32.608  1.00  0.00     0.001 A 
ATOM     62  C   UNL A   1      50.031  25.197  31.648  1.00  0.00     0.000 A 
ENDBRANCH  44  57
ENDBRANCH  18  19
ENDBRANCH  11  13
ENDBRANCH   8   9
ENDBRANCH   7   8
ENDBRANCH   6   7
ENDBRANCH   5   6
ENDBRANCH   1   5
BRANCH   2  63
ATOM     63  C   UNL A   1      34.120  23.164  24.238  1.00  0.00     0.111 C 
BRANCH  63  64
ATOM     64  C   UNL A   1      33.285  21.912  23.866  1.00  0.00     0.047 C 
BRANCH  64  65
ATOM     65  C   UNL A   1      32.436  21.256  24.960  1.00  0.00     0.161 C 
BRANCH  65  66
ATOM     66  O   UNL A   1      33.139  20.195  25.586  1.00  0.00    -0.379 OA
BRANCH  66  67
ATOM     67  C   UNL A   1      33.481  19.131  24.692  1.00  0.00     0.188 C 
BRANCH  67  68
ATOM     68  C   UNL A   1      33.033  17.816  25.327  1.00  0.00     0.184 C 
BRANCH  68  69
ATOM     69  O   UNL A   1      32.516  18.026  26.638  1.00  0.00    -0.394 OA
ATOM     70  H   UNL A   1      33.019  17.494  27.275  1.00  0.00     0.210 HD
ENDBRANCH  68  69
ENDBRANCH  67  68
ENDBRANCH  66  67
ENDBRANCH  65  66
ENDBRANCH  64  65
ENDBRANCH  63  64
BRANCH  63  71
ATOM     71  C   UNL A   1      35.553  22.924  24.726  1.00  0.00    -0.033 A 
ATOM     72  C   UNL A   1      36.247  23.957  25.395  1.00  0.00     0.005 A 
ATOM     73  C   UNL A   1      36.247  21.724  24.511  1.00  0.00     0.043 A 
ATOM     74  C   UNL A   1      37.522  23.758  25.936  1.00  0.00     0.003 A 
ATOM     75  C   UNL A   1      37.528  21.539  25.036  1.00  0.00     0.123 A 
ATOM     76  C   UNL A   1      38.158  22.535  25.769  1.00  0.00     0.039 A 
ATOM     77  F   UNL A   1      38.160  20.374  24.840  1.00  0.00    -0.207 F 
ENDBRANCH  63  71
ENDBRANCH   2  63
TORSDOF 18
ENDMDL
MODEL 2
REMARK VINA RESULT:      -9.5      2.216      7.322
REMARK SMILES O=C(NCCCCNC(=O)[C@@H](CCOCCO)c1cccc(F)c1)c1ccc(-c2c3nc(c(-c4ccccc4)c4ccc([nH]4)c(-c4ccccc4)c4nc(c(-c5ccccc5)c5ccc2[nH]5)C=C4)C=C3)cc1
REMARK SMILES IDX 8 1 9 2 10 3 7 5 6 6 5 7 4 8 3 9 1 10 2 11 25 13 26 14 72 15
REMARK SMILES IDX 27 16 71 17 28 18 29 19 30 20 65 21 31 22 70 23 64 24 66 25
REMARK SMILES IDX 32 26 69 27 63 28 62 29 33 31 55 32 40 33 54 34 41 35 44 36
REMARK SMILES IDX 53 37 67 38 42 39 43 40 52 42 68 43 45 44 34 45 35 46 39 47
REMARK SMILES IDX 36 48 38 49 37 50 56 51 57 52 61 53 58 54 60 55 59 56 46 57
REMARK SMILES IDX 47 58 51 59 48 60 50 61 49 62 11 63 12 64 13 65 14 66 15 67
REMARK SMILES IDX 16 68 17 69 18 71 19 72 24 73 20 74 22 75 21 76 23 77
REMARK H PARENT 8 4 3 12 66 30 44 41 17 70
REMARK Flexibility Score: inf
ROOT
ATOM      1  N   UNL A   1      35.624  23.307  25.384  1.00  0.00    -0.356 N 
ATOM      2  C   UNL A   1      34.480  23.509  26.100  1.00  0.00     0.227 C 
ATOM      3  O   UNL A   1      34.517  23.147  27.283  1.00  0.00    -0.274 OA
ATOM      4  H   UNL A   1      36.447  23.688  25.767  1.00  0.00     0.163 HD
ENDROOT
BRANCH   1   5
ATOM      5  C   UNL A   1      35.773  22.599  24.126  1.00  0.00     0.116 C 
BRANCH   5   6
ATOM      6  C   UNL A   1      37.139  21.934  23.938  1.00  0.00     0.023 C 
BRANCH   6   7
ATOM      7  C   UNL A   1      37.403  20.803  24.937  1.00  0.00     0.023 C 
BRANCH   7   8
ATOM      8  C   UNL A   1      38.685  20.923  25.753  1.00  0.00     0.116 C 
BRANCH   8   9
ATOM      9  N   UNL A   1      39.585  19.788  25.623  1.00  0.00    -0.352 N 
ATOM     10  O   UNL A   1      41.582  18.714  25.779  1.00  0.00    -0.269 OA
ATOM     11  C   UNL A   1      40.917  19.726  25.977  1.00  0.00     0.251 C 
ATOM     12  H   UNL A   1      39.198  18.969  25.238  1.00  0.00     0.163 HD
BRANCH  11  13
ATOM     13  C   UNL A   1      41.550  20.933  26.555  1.00  0.00     0.039 A 
ATOM     14  C   UNL A   1      41.519  21.145  27.935  1.00  0.00     0.014 A 
ATOM     15  C   UNL A   1      42.063  21.912  25.700  1.00  0.00     0.014 A 
ATOM     16  C   UNL A   1      41.825  22.404  28.438  1.00  0.00     0.010 A 
ATOM     17  C   UNL A   1      42.455  23.150  26.222  1.00  0.00     0.010 A 
ATOM     18  C   UNL A   1      42.290  23.425  27.589  1.00  0.00    -0.014 A 
BRANCH  18  19
ATOM     19  C   UNL A   1      42.622  24.757  28.161  1.00  0.00     0.031 A 
ATOM     20  C   UNL A   1      44.036  25.131  28.522  1.00  0.00     0.074 A 
ATOM     21  C   UNL A   1      41.631  25.656  28.321  1.00  0.00     0.049 A 
ATOM     22  N   UNL A   1      44.487  26.257  29.022  1.00  0.00    -0.248 NA
ATOM     23  C   UNL A   1      45.079  24.118  28.303  1.00  0.00     0.031 C 
ATOM     24  C   UNL A   1      40.220  25.418  28.008  1.00  0.00     0.029 A 
ATOM     25  N   UNL A   1      41.660  26.953  28.764  1.00  0.00    -0.354 N 
ATOM     26  C   UNL A   1      45.853  26.076  29.205  1.00  0.00     0.074 A 
ATOM     27  C   UNL A   1      46.158  24.729  28.774  1.00  0.00     0.031 C 
ATOM     28  C   UNL A   1      39.528  26.546  28.217  1.00  0.00     0.029 A 
ATOM     29  C   UNL A   1      40.429  27.562  28.744  1.00  0.00     0.049 A 
ATOM     30  H   UNL A   1      42.481  27.404  29.065  1.00  0.00     0.167 HD
ATOM     31  C   UNL A   1      46.767  26.952  29.690  1.00  0.00     0.031 A 
ATOM     32  C   UNL A   1      40.054  28.797  29.127  1.00  0.00     0.031 A 
ATOM     33  C   UNL A   1      46.466  28.298  30.107  1.00  0.00     0.049 A 
ATOM     34  C   UNL A   1      41.083  29.739  29.672  1.00  0.00     0.074 A 
ATOM     35  C   UNL A   1      47.335  29.270  30.577  1.00  0.00     0.029 A 
ATOM     36  N   UNL A   1      45.201  28.862  30.105  1.00  0.00    -0.354 N 
ATOM     37  N   UNL A   1      42.371  29.554  29.823  1.00  0.00    -0.248 NA
ATOM     38  C   UNL A   1      40.605  31.058  30.106  1.00  0.00     0.031 C 
ATOM     39  C   UNL A   1      46.587  30.405  30.905  1.00  0.00     0.029 A 
ATOM     40  C   UNL A   1      45.261  30.160  30.591  1.00  0.00     0.049 A 
ATOM     41  H   UNL A   1      44.380  28.409  29.805  1.00  0.00     0.167 HD
ATOM     42  C   UNL A   1      42.861  30.734  30.362  1.00  0.00     0.074 A 
ATOM     43  C   UNL A   1      41.734  31.637  30.489  1.00  0.00     0.031 C 
ATOM     44  C   UNL A   1      44.130  31.040  30.725  1.00  0.00     0.031 A 
BRANCH  31  45
ATOM     45  C   UNL A   1      48.189  26.477  29.831  1.00  0.00    -0.014 A 
ATOM     46  C   UNL A   1      49.140  26.702  28.825  1.00  0.00     0.009 A 
ATOM     47  C   UNL A   1      48.596  25.854  31.023  1.00  0.00     0.009 A 
ATOM     48  C   UNL A   1      50.465  26.290  28.999  1.00  0.00     0.001 A 
ATOM     49  C   UNL A   1      49.924  25.465  31.204  1.00  0.00     0.001 A 
ATOM     50  C   UNL A   1      50.857  25.676  30.190  1.00  0.00     0.000 A 
ENDBRANCH  31  45
BRANCH  32  51
ATOM     51  C   UNL A   1      38.626  29.189  29.023  1.00  0.00    -0.014 A 
ATOM     52  C   UNL A   1      37.774  29.090  30.132  1.00  0.00     0.009 A 
ATOM     53  C   UNL A   1      38.120  29.702  27.818  1.00  0.00     0.009 A 
ATOM     54  C   UNL A   1      36.439  29.489  30.032  1.00  0.00     0.001 A 
ATOM     55  C   UNL A   1      36.794  30.129  27.730  1.00  0.00     0.001 A 
ATOM     56  C   UNL A   1      35.954  30.016  28.836  1.00  0.00     0.000 A 
ENDBRANCH  32  51
BRANCH  44  57
ATOM     57  C   UNL A   1      44.363  32.415  31.280  1.00  0.00    -0.014 A 
ATOM     58  C   UNL A   1      44.776  33.470  30.450  1.00  0.00     0.009 A 
ATOM     59  C   UNL A   1      44.154  32.662  32.644  1.00  0.00     0.009 A 
ATOM     60  C   UNL A   1      45.006  34.739  30.986  1.00  0.00     0.001 A 
ATOM     61  C   UNL A   1      44.359  33.938  33.172  1.00  0.00     0.001 A 
ATOM     62  C   UNL A   1      44.795  34.972  32.345  1.00  0.00     0.000 A 
ENDBRANCH  44  57
ENDBRANCH  18  19
ENDBRANCH  11  13
ENDBRANCH   8   9
ENDBRANCH   7   8
ENDBRANCH   6   7
ENDBRANCH   5   6
ENDBRANCH   1   5
BRANCH   2  63
ATOM     63  C   UNL A   1      33.252  24.272  25.556  1.00  0.00     0.111 C 
BRANCH  63  64
ATOM     64  C   UNL A   1      31.900  23.911  26.223  1.00  0.00     0.047 C 
BRANCH  64  65
ATOM     65  C   UNL A   1      31.006  22.876  25.531  1.00  0.00     0.161 C 
BRANCH  65  66
ATOM     66  O   UNL A   1      31.407  21.555  25.858  1.00  0.00    -0.379 OA
BRANCH  66  67
ATOM     67  C   UNL A   1      32.143  20.908  24.816  1.00  0.00     0.188 C 
BRANCH  67  68
ATOM     68  C   UNL A   1      33.147  19.957  25.466  1.00  0.00     0.184 C 
BRANCH  68  69
ATOM     69  O   UNL A   1      33.414  20.332  26.815  1.00  0.00    -0.394 OA
ATOM     70  H   UNL A   1      34.228  19.899  27.117  1.00  0.00     0.210 HD
ENDBRANCH  68  69
ENDBRANCH  67  68
ENDBRANCH  66  67
ENDBRANCH  65  66
ENDBRANCH  64  65
ENDBRANCH  63  64
BRANCH  63  71
ATOM     71  C   UNL A   1      33.455  25.735  25.144  1.00  0.00    -0.033 A 
ATOM     72  C   UNL A   1      33.576  26.066  23.776  1.00  0.00     0.005 A 
ATOM     73  C   UNL A   1      33.569  26.784  26.068  1.00  0.00     0.043 A 
ATOM     74  C   UNL A   1      33.674  27.394  23.345  1.00  0.00     0.003 A 
ATOM     75  C   UNL A   1      33.687  28.106  25.631  1.00  0.00     0.123 A 
ATOM     76  C   UNL A   1      33.713  28.421  24.280  1.00  0.00     0.039 A 
ATOM     77  F   UNL A   1      33.767  29.094  26.533  1.00  0.00    -0.207 F 
ENDBRANCH  63  71
ENDBRANCH   2  63
TORSDOF 18
ENDMDL
MODEL 3
REMARK VINA RESULT:      -9.4      2.325      7.552
REMARK SMILES O=C(NCCCCNC(=O)[C@@H](CCOCCO)c1cccc(F)c1)c1ccc(-c2c3nc(c(-c4ccccc4)c4ccc([nH]4)c(-c4ccccc4)c4nc(c(-c5ccccc5)c5ccc2[nH]5)C=C4)C=C3)cc1
REMARK SMILES IDX 8 1 9 2 10 3 7 5 6 6 5 7 4 8 3 9 1 10 2 11 25 13 26 14 72 15
REMARK SMILES IDX 27 16 71 17 28 18 29 19 30 20 65 21 31 22 70 23 64 24 66 25
REMARK SMILES IDX 32 26 69 27 63 28 62 29 33 31 55 32 40 33 54 34 41 35 44 36
REMARK SMILES IDX 53 37 67 38 42 39 43 40 52 42 68 43 45 44 34 45 35 46 39 47
REMARK SMILES IDX 36 48 38 49 37 50 56 51 57 52 61 53 58 54 60 55 59 56 46 57
REMARK SMILES IDX 47 58 51 59 48 60 50 61 49 62 11 63 12 64 13 65 14 66 15 67
REMARK SMILES IDX 16 68 17 69 18 71 19 72 24 73 20 74 22 75 21 76 23 77
REMARK H PARENT 8 4 3 12 66 30 44 41 17 70
REMARK Flexibility Score: inf
ROOT
ATOM      1  N   UNL A   1      34.688  22.472  26.913  1.00  0.00    -0.356 N 
ATOM      2  C   UNL A   1      33.428  22.994  26.974  1.00  0.00     0.227 C 
ATOM      3  O   UNL A   1      32.857  22.889  28.068  1.00  0.00    -0.274 OA
ATOM      4  H   UNL A   1      35.323  22.795  27.592  1.00  0.00     0.163 HD
ENDROOT
BRANCH   1   5
ATOM      5  C   UNL A   1      35.202  21.499  25.967  1.00  0.00     0.116 C 
BRANCH   5   6
ATOM      6  C   UNL A   1      36.356  22.013  25.103  1.00  0.00     0.023 C 
BRANCH   6   7
ATOM      7  C   UNL A   1      37.431  20.955  24.838  1.00  0.00     0.023 C 
BRANCH   7   8
ATOM      8  C   UNL A   1      38.726  21.110  25.628  1.00  0.00     0.116 C 
BRANCH   8   9
ATOM      9  N   UNL A   1      39.592  19.942  25.592  1.00  0.00    -0.352 N 
ATOM     10  O   UNL A   1      41.537  18.809  25.906  1.00  0.00    -0.269 OA
ATOM     11  C   UNL A   1      40.898  19.849  26.028  1.00  0.00     0.251 C 
ATOM     12  H   UNL A   1      39.200  19.122  25.213  1.00  0.00     0.163 HD
BRANCH  11  13
ATOM     13  C   UNL A   1      41.538  21.056  26.599  1.00  0.00     0.039 A 
ATOM     14  C   UNL A   1      41.583  21.232  27.984  1.00  0.00     0.014 A 
ATOM     15  C   UNL A   1      41.978  22.068  25.742  1.00  0.00     0.014 A 
ATOM     16  C   UNL A   1      41.892  22.485  28.502  1.00  0.00     0.010 A 
ATOM     17  C   UNL A   1      42.373  23.300  26.273  1.00  0.00     0.010 A 
ATOM     18  C   UNL A   1      42.284  23.537  27.654  1.00  0.00    -0.014 A 
BRANCH  18  19
ATOM     19  C   UNL A   1      42.620  24.862  28.241  1.00  0.00     0.031 A 
ATOM     20  C   UNL A   1      44.031  25.217  28.631  1.00  0.00     0.074 A 
ATOM     21  C   UNL A   1      41.637  25.771  28.389  1.00  0.00     0.049 A 
ATOM     22  N   UNL A   1      44.486  26.334  29.146  1.00  0.00    -0.248 NA
ATOM     23  C   UNL A   1      45.066  24.193  28.423  1.00  0.00     0.031 C 
ATOM     24  C   UNL A   1      40.229  25.551  28.049  1.00  0.00     0.029 A 
ATOM     25  N   UNL A   1      41.672  27.065  28.841  1.00  0.00    -0.354 N 
ATOM     26  C   UNL A   1      45.846  26.137  29.352  1.00  0.00     0.074 A 
ATOM     27  C   UNL A   1      46.144  24.789  28.918  1.00  0.00     0.031 C 
ATOM     28  C   UNL A   1      39.546  26.685  28.253  1.00  0.00     0.029 A 
ATOM     29  C   UNL A   1      40.449  27.688  28.802  1.00  0.00     0.049 A 
ATOM     30  H   UNL A   1      42.493  27.504  29.160  1.00  0.00     0.167 HD
ATOM     31  C   UNL A   1      46.761  26.999  29.860  1.00  0.00     0.031 A 
ATOM     32  C   UNL A   1      40.081  28.924  29.186  1.00  0.00     0.031 A 
ATOM     33  C   UNL A   1      46.468  28.346  30.280  1.00  0.00     0.049 A 
ATOM     34  C   UNL A   1      41.110  29.851  29.757  1.00  0.00     0.074 A 
ATOM     35  C   UNL A   1      47.339  29.305  30.772  1.00  0.00     0.029 A 
ATOM     36  N   UNL A   1      45.209  28.925  30.259  1.00  0.00    -0.354 N 
ATOM     37  N   UNL A   1      42.393  29.650  29.930  1.00  0.00    -0.248 NA
ATOM     38  C   UNL A   1      40.639  31.173  30.190  1.00  0.00     0.031 C 
ATOM     39  C   UNL A   1      46.597  30.446  31.095  1.00  0.00     0.029 A 
ATOM     40  C   UNL A   1      45.275  30.218  30.754  1.00  0.00     0.049 A 
ATOM     41  H   UNL A   1      44.389  28.483  29.941  1.00  0.00     0.167 HD
ATOM     42  C   UNL A   1      42.886  30.821  30.486  1.00  0.00     0.074 A 
ATOM     43  C   UNL A   1      41.768  31.736  30.598  1.00  0.00     0.031 C 
ATOM     44  C   UNL A   1      44.151  31.110  30.874  1.00  0.00     0.031 A 
BRANCH  31  45
ATOM     45  C   UNL A   1      48.175  26.507  30.024  1.00  0.00    -0.014 A 
ATOM     46  C   UNL A   1      48.591  25.849  31.191  1.00  0.00     0.009 A 
ATOM     47  C   UNL A   1      49.084  26.645  28.961  1.00  0.00     0.009 A 
ATOM     48  C   UNL A   1      49.897  25.362  31.301  1.00  0.00     0.001 A 
ATOM     49  C   UNL A   1      50.380  26.137  29.064  1.00  0.00     0.001 A 
ATOM     50  C   UNL A   1      50.788  25.502  30.236  1.00  0.00     0.000 A 
ENDBRANCH  31  45
BRANCH  32  51
ATOM     51  C   UNL A   1      38.660  29.334  29.059  1.00  0.00    -0.014 A 
ATOM     52  C   UNL A   1      38.168  29.848  27.851  1.00  0.00     0.009 A 
ATOM     53  C   UNL A   1      37.779  29.174  30.141  1.00  0.00     0.009 A 
ATOM     54  C   UNL A   1      36.823  30.204  27.732  1.00  0.00     0.001 A 
ATOM     55  C   UNL A   1      36.429  29.501  30.009  1.00  0.00     0.001 A 
ATOM     56  C   UNL A   1      35.954  30.021  28.807  1.00  0.00     0.000 A 
ENDBRANCH  32  51
BRANCH  44  57
ATOM     57  C   UNL A   1      44.390  32.479  31.442  1.00  0.00    -0.014 A 
ATOM     58  C   UNL A   1      44.720  33.561  30.609  1.00  0.00     0.009 A 
ATOM     59  C   UNL A   1      44.270  32.693  32.823  1.00  0.00     0.009 A 
ATOM     60  C   UNL A   1      44.957  34.824  31.156  1.00  0.00     0.001 A 
ATOM     61  C   UNL A   1      44.482  33.962  33.363  1.00  0.00     0.001 A 
ATOM     62  C   UNL A   1      44.835  35.023  32.531  1.00  0.00     0.000 A 
ENDBRANCH  44  57
ENDBRANCH  18  19
ENDBRANCH  11  13
ENDBRANCH   8   9
ENDBRANCH   7   8
ENDBRANCH   6   7
ENDBRANCH   5   6
ENDBRANCH   1   5
BRANCH   2  63
ATOM     63  C   UNL A   1      32.779  23.803  25.830  1.00  0.00     0.111 C 
BRANCH  63  64
ATOM     64  C   UNL A   1      31.643  23.076  25.067  1.00  0.00     0.047 C 
BRANCH  64  65
ATOM     65  C   UNL A   1      31.627  23.164  23.537  1.00  0.00     0.161 C 
BRANCH  65  66
ATOM     66  O   UNL A   1      32.593  24.091  23.069  1.00  0.00    -0.379 OA
BRANCH  66  67
ATOM     67  C   UNL A   1      32.027  25.193  22.352  1.00  0.00     0.188 C 
BRANCH  67  68
ATOM     68  C   UNL A   1      33.173  25.999  21.741  1.00  0.00     0.184 C 
BRANCH  68  69
ATOM     69  O   UNL A   1      33.083  26.024  20.318  1.00  0.00    -0.394 OA
ATOM     70  H   UNL A   1      33.334  25.157  19.962  1.00  0.00     0.210 HD
ENDBRANCH  68  69
ENDBRANCH  67  68
ENDBRANCH  66  67
ENDBRANCH  65  66
ENDBRANCH  64  65
ENDBRANCH  63  64
BRANCH  63  71
ATOM     71  C   UNL A   1      32.623  25.314  26.035  1.00  0.00    -0.033 A 
ATOM     72  C   UNL A   1      31.340  25.861  26.258  1.00  0.00     0.005 A 
ATOM     73  C   UNL A   1      33.699  26.212  25.975  1.00  0.00     0.043 A 
ATOM     74  C   UNL A   1      31.157  27.221  26.538  1.00  0.00     0.003 A 
ATOM     75  C   UNL A   1      33.506  27.571  26.235  1.00  0.00     0.123 A 
ATOM     76  C   UNL A   1      32.250  28.077  26.543  1.00  0.00     0.039 A 
ATOM     77  F   UNL A   1      34.554  28.405  26.199  1.00  0.00    -0.207 F 
ENDBRANCH  63  71
ENDBRANCH   2  63
TORSDOF 18
ENDMDL
