MODEL 1
REMARK VINA RESULT:     -11.1      0.000      0.000
REMARK SMILES Cc1cc(=O)oc2cc(O[C@@H](C)C(=O)N[C@H](CC(C)C)C(=O)NCCCCNC(=O)c3ccc(-c4c5nc(c(-c6ccccc6)c6ccc([nH]6)c(-c6ccccc6)c6nc(c(-c7ccccc7)c7ccc4[nH]7)C=C6)C=C5)cc3)ccc12
REMARK SMILES IDX 24 1 23 2 21 3 22 4 16 6 15 7 13 8 14 9 11 11 12 12 10 13
REMARK SMILES IDX 9 14 1 15 2 16 3 17 81 18 4 19 7 20 80 21 5 22 6 23 8 24
REMARK SMILES IDX 79 25 17 26 18 27 19 28 20 29 25 30 26 31 27 32 28 33 29 34
REMARK SMILES IDX 30 36 31 37 32 38 78 39 33 40 77 41 34 42 35 43 36 44 71 45
REMARK SMILES IDX 37 46 76 47 70 48 72 49 38 50 75 51 69 52 68 53 39 55 61 56
REMARK SMILES IDX 46 57 60 58 47 59 50 60 59 61 73 62 48 63 49 64 58 66 74 67
REMARK SMILES IDX 51 68 40 69 41 70 45 71 42 72 44 73 43 74 62 75 63 76 67 77
REMARK SMILES IDX 64 78 66 79 65 80 52 81 53 82 57 83 54 84 56 85 55 86
REMARK H PARENT 23 5 15 10 28 35 72 54 50 65
REMARK Flexibility Score: inf
ROOT
ATOM      1  C   UNL A   1      36.159  22.001  25.692  1.00  0.00     0.116 C 
ENDROOT
BRANCH   1   2
ATOM      2  N   UNL A   1      36.452  22.806  24.524  1.00  0.00    -0.354 N 
ATOM      3  C   UNL A   1      35.621  23.143  23.501  1.00  0.00     0.242 C 
ATOM      4  O   UNL A   1      36.041  23.045  22.350  1.00  0.00    -0.273 OA
ATOM      5  H   UNL A   1      37.371  23.155  24.463  1.00  0.00     0.163 HD
BRANCH   3   6
ATOM      6  C   UNL A   1      34.137  23.326  23.721  1.00  0.00     0.171 C 
BRANCH   6   7
ATOM      7  N   UNL A   1      33.460  22.278  22.968  1.00  0.00    -0.341 N 
ATOM      8  C   UNL A   1      32.679  21.227  23.391  1.00  0.00     0.261 C 
ATOM      9  O   UNL A   1      32.196  20.555  22.464  1.00  0.00    -0.271 OA
ATOM     10  H   UNL A   1      33.580  22.332  21.992  1.00  0.00     0.164 HD
BRANCH   8  11
ATOM     11  C   UNL A   1      32.309  20.806  24.905  1.00  0.00     0.258 C 
ATOM     12  C   UNL A   1      32.652  19.343  25.166  1.00  0.00     0.064 C 
BRANCH  11  13
ATOM     13  O   UNL A   1      31.309  21.392  25.758  1.00  0.00    -0.481 OA
BRANCH  13  14
ATOM     14  C   UNL A   1      31.270  22.679  26.209  1.00  0.00     0.124 A 
ATOM     15  C   UNL A   1      33.686  27.221  25.991  1.00  0.00     0.045 C 
ATOM     16  C   UNL A   1      32.271  26.740  25.851  1.00  0.00    -0.033 A 
ATOM     17  C   UNL A   1      31.418  27.374  25.030  1.00  0.00     0.098 A 
ATOM     18  C   UNL A   1      31.854  25.425  26.386  1.00  0.00     0.021 A 
ATOM     19  C   UNL A   1      30.063  26.878  24.721  1.00  0.00     0.336 A 
ATOM     20  C   UNL A   1      30.570  24.966  26.071  1.00  0.00     0.142 A 
ATOM     21  C   UNL A   1      32.748  24.494  26.919  1.00  0.00     0.016 A 
ATOM     22  O   UNL A   1      29.372  27.422  23.878  1.00  0.00    -0.246 OA
ATOM     23  O   UNL A   1      29.609  25.816  25.488  1.00  0.00    -0.423 OA
ATOM     24  C   UNL A   1      30.258  23.600  26.014  1.00  0.00     0.094 A 
ATOM     25  C   UNL A   1      32.447  23.121  26.837  1.00  0.00     0.047 A 
ENDBRANCH  13  14
ENDBRANCH  11  13
ENDBRANCH   8  11
ENDBRANCH   6   7
BRANCH   6  26
ATOM     26  C   UNL A   1      34.075  24.821  23.288  1.00  0.00     0.038 C 
BRANCH  26  27
ATOM     27  C   UNL A   1      33.294  25.430  22.136  1.00  0.00    -0.015 C 
ATOM     28  C   UNL A   1      31.800  25.175  22.233  1.00  0.00     0.007 C 
ATOM     29  C   UNL A   1      33.558  26.956  22.219  1.00  0.00     0.007 C 
ENDBRANCH  26  27
ENDBRANCH   6  26
ENDBRANCH   3   6
ENDBRANCH   1   2
BRANCH   1  30
ATOM     30  C   UNL A   1      36.153  20.546  25.231  1.00  0.00     0.023 C 
BRANCH  30  31
ATOM     31  C   UNL A   1      37.539  20.081  24.777  1.00  0.00     0.023 C 
BRANCH  31  32
ATOM     32  C   UNL A   1      38.660  20.495  25.723  1.00  0.00     0.116 C 
BRANCH  32  33
ATOM     33  N   UNL A   1      39.717  19.496  25.784  1.00  0.00    -0.352 N 
ATOM     34  C   UNL A   1      41.043  19.665  26.073  1.00  0.00     0.251 C 
ATOM     35  H   UNL A   1      39.440  18.572  25.590  1.00  0.00     0.163 HD
ATOM     36  O   UNL A   1      41.845  18.757  25.878  1.00  0.00    -0.269 OA
BRANCH  34  37
ATOM     37  C   UNL A   1      41.495  20.960  26.606  1.00  0.00     0.039 A 
ATOM     38  C   UNL A   1      42.007  21.911  25.724  1.00  0.00     0.014 A 
ATOM     39  C   UNL A   1      41.387  21.231  27.974  1.00  0.00     0.014 A 
ATOM     40  C   UNL A   1      42.366  23.166  26.210  1.00  0.00     0.010 A 
ATOM     41  C   UNL A   1      41.677  22.504  28.443  1.00  0.00     0.010 A 
ATOM     42  C   UNL A   1      42.176  23.478  27.566  1.00  0.00    -0.014 A 
BRANCH  42  43
ATOM     43  C   UNL A   1      42.499  24.823  28.091  1.00  0.00     0.031 A 
ATOM     44  C   UNL A   1      43.902  25.145  28.515  1.00  0.00     0.074 A 
ATOM     45  C   UNL A   1      41.514  25.728  28.245  1.00  0.00     0.049 A 
ATOM     46  N   UNL A   1      44.370  26.242  29.052  1.00  0.00    -0.248 NA
ATOM     47  C   UNL A   1      44.909  24.085  28.336  1.00  0.00     0.031 C 
ATOM     48  C   UNL A   1      40.105  25.515  27.907  1.00  0.00     0.029 A 
ATOM     49  N   UNL A   1      41.551  27.008  28.732  1.00  0.00    -0.354 N 
ATOM     50  C   UNL A   1      45.716  25.999  29.291  1.00  0.00     0.074 A 
ATOM     51  C   UNL A   1      45.981  24.637  28.886  1.00  0.00     0.031 C 
ATOM     52  C   UNL A   1      39.416  26.638  28.174  1.00  0.00     0.029 A 
ATOM     53  C   UNL A   1      40.327  27.631  28.733  1.00  0.00     0.049 A 
ATOM     54  H   UNL A   1      42.375  27.441  29.053  1.00  0.00     0.167 HD
ATOM     55  C   UNL A   1      46.650  26.842  29.788  1.00  0.00     0.031 A 
ATOM     56  C   UNL A   1      39.979  28.864  29.142  1.00  0.00     0.031 A 
ATOM     57  C   UNL A   1      46.387  28.201  30.177  1.00  0.00     0.049 A 
ATOM     58  C   UNL A   1      41.034  29.779  29.693  1.00  0.00     0.074 A 
ATOM     59  C   UNL A   1      47.280  29.155  30.634  1.00  0.00     0.029 A 
ATOM     60  N   UNL A   1      45.137  28.798  30.153  1.00  0.00    -0.354 N 
ATOM     61  N   UNL A   1      42.317  29.557  29.852  1.00  0.00    -0.248 NA
ATOM     62  C   UNL A   1      40.596  31.116  30.114  1.00  0.00     0.031 C 
ATOM     63  C   UNL A   1      46.559  30.318  30.928  1.00  0.00     0.029 A 
ATOM     64  C   UNL A   1      45.228  30.101  30.609  1.00  0.00     0.049 A 
ATOM     65  H   UNL A   1      44.307  28.360  29.857  1.00  0.00     0.167 HD
ATOM     66  C   UNL A   1      42.843  30.734  30.369  1.00  0.00     0.074 A 
ATOM     67  C   UNL A   1      41.742  31.670  30.481  1.00  0.00     0.031 C 
ATOM     68  C   UNL A   1      44.121  31.015  30.717  1.00  0.00     0.031 A 
BRANCH  55  69
ATOM     69  C   UNL A   1      48.046  26.309  29.941  1.00  0.00    -0.014 A 
ATOM     70  C   UNL A   1      48.962  26.354  28.877  1.00  0.00     0.009 A 
ATOM     71  C   UNL A   1      48.460  25.777  31.172  1.00  0.00     0.009 A 
ATOM     72  C   UNL A   1      50.253  25.845  29.033  1.00  0.00     0.001 A 
ATOM     73  C   UNL A   1      49.760  25.293  31.332  1.00  0.00     0.001 A 
ATOM     74  C   UNL A   1      50.651  25.319  30.262  1.00  0.00     0.000 A 
ENDBRANCH  55  69
BRANCH  56  75
ATOM     75  C   UNL A   1      38.568  29.313  29.028  1.00  0.00    -0.014 A 
ATOM     76  C   UNL A   1      37.703  29.219  30.128  1.00  0.00     0.009 A 
ATOM     77  C   UNL A   1      38.080  29.837  27.821  1.00  0.00     0.009 A 
ATOM     78  C   UNL A   1      36.369  29.618  30.015  1.00  0.00     0.001 A 
ATOM     79  C   UNL A   1      36.753  30.259  27.719  1.00  0.00     0.001 A 
ATOM     80  C   UNL A   1      35.896  30.140  28.813  1.00  0.00     0.000 A 
ENDBRANCH  56  75
BRANCH  68  81
ATOM     81  C   UNL A   1      44.402  32.398  31.228  1.00  0.00    -0.014 A 
ATOM     82  C   UNL A   1      44.351  32.689  32.599  1.00  0.00     0.009 A 
ATOM     83  C   UNL A   1      44.760  33.412  30.326  1.00  0.00     0.009 A 
ATOM     84  C   UNL A   1      44.626  33.980  33.055  1.00  0.00     0.001 A 
ATOM     85  C   UNL A   1      45.059  34.694  30.788  1.00  0.00     0.001 A 
ATOM     86  C   UNL A   1      44.985  34.978  32.150  1.00  0.00     0.000 A 
ENDBRANCH  68  81
ENDBRANCH  42  43
ENDBRANCH  34  37
ENDBRANCH  32  33
ENDBRANCH  31  32
ENDBRANCH  30  31
ENDBRANCH   1  30
TORSDOF 17
ENDMDL
MODEL 2
REMARK VINA RESULT:     -10.8      1.392      3.020
REMARK SMILES Cc1cc(=O)oc2cc(O[C@@H](C)C(=O)N[C@H](CC(C)C)C(=O)NCCCCNC(=O)c3ccc(-c4c5nc(c(-c6ccccc6)c6ccc([nH]6)c(-c6ccccc6)c6nc(c(-c7ccccc7)c7ccc4[nH]7)C=C6)C=C5)cc3)ccc12
REMARK SMILES IDX 24 1 23 2 21 3 22 4 16 6 15 7 13 8 14 9 11 11 12 12 10 13
REMARK SMILES IDX 9 14 1 15 2 16 3 17 81 18 4 19 7 20 80 21 5 22 6 23 8 24
REMARK SMILES IDX 79 25 17 26 18 27 19 28 20 29 25 30 26 31 27 32 28 33 29 34
REMARK SMILES IDX 30 36 31 37 32 38 78 39 33 40 77 41 34 42 35 43 36 44 71 45
REMARK SMILES IDX 37 46 76 47 70 48 72 49 38 50 75 51 69 52 68 53 39 55 61 56
REMARK SMILES IDX 46 57 60 58 47 59 50 60 59 61 73 62 48 63 49 64 58 66 74 67
REMARK SMILES IDX 51 68 40 69 41 70 45 71 42 72 44 73 43 74 62 75 63 76 67 77
REMARK SMILES IDX 64 78 66 79 65 80 52 81 53 82 57 83 54 84 56 85 55 86
REMARK H PARENT 23 5 15 10 28 35 72 54 50 65
REMARK Flexibility Score: inf
ROOT
ATOM      1  C   UNL A   1      36.631  21.949  25.374  1.00  0.00     0.116 C 
ENDROOT
BRANCH   1   2
ATOM      2  N   UNL A   1      35.722  21.244  26.253  1.00  0.00    -0.354 N 
ATOM      3  C   UNL A   1      34.387  21.030  26.091  1.00  0.00     0.242 C 
ATOM      4  O   UNL A   1      33.644  21.217  27.051  1.00  0.00    -0.273 OA
ATOM      5  H   UNL A   1      36.119  20.870  27.072  1.00  0.00     0.163 HD
BRANCH   3   6
ATOM      6  C   UNL A   1      33.776  20.881  24.717  1.00  0.00     0.171 C 
BRANCH   6   7
ATOM      7  N   UNL A   1      32.614  21.758  24.667  1.00  0.00    -0.341 N 
ATOM      8  C   UNL A   1      32.519  23.118  24.478  1.00  0.00     0.261 C 
ATOM      9  O   UNL A   1      31.350  23.537  24.423  1.00  0.00    -0.271 OA
ATOM     10  H   UNL A   1      31.750  21.301  24.789  1.00  0.00     0.164 HD
BRANCH   8  11
ATOM     11  C   UNL A   1      33.717  24.185  24.292  1.00  0.00     0.258 C 
ATOM     12  C   UNL A   1      34.206  24.699  25.642  1.00  0.00     0.064 C 
BRANCH  11  13
ATOM     13  O   UNL A   1      33.970  25.028  23.155  1.00  0.00    -0.481 OA
BRANCH  13  14
ATOM     14  C   UNL A   1      33.373  26.221  22.871  1.00  0.00     0.124 A 
ATOM     15  C   UNL A   1      28.871  28.721  22.938  1.00  0.00     0.045 C 
ATOM     16  C   UNL A   1      30.274  29.005  23.390  1.00  0.00    -0.033 A 
ATOM     17  C   UNL A   1      30.495  29.774  24.469  1.00  0.00     0.098 A 
ATOM     18  C   UNL A   1      31.422  28.249  22.845  1.00  0.00     0.021 A 
ATOM     19  C   UNL A   1      31.829  29.976  25.067  1.00  0.00     0.336 A 
ATOM     20  C   UNL A   1      32.677  28.445  23.433  1.00  0.00     0.142 A 
ATOM     21  C   UNL A   1      31.283  27.146  21.999  1.00  0.00     0.016 A 
ATOM     22  O   UNL A   1      31.963  30.583  26.116  1.00  0.00    -0.246 OA
ATOM     23  O   UNL A   1      32.907  29.502  24.336  1.00  0.00    -0.423 OA
ATOM     24  C   UNL A   1      33.670  27.455  23.422  1.00  0.00     0.094 A 
ATOM     25  C   UNL A   1      32.266  26.139  22.008  1.00  0.00     0.047 A 
ENDBRANCH  13  14
ENDBRANCH  11  13
ENDBRANCH   8  11
ENDBRANCH   6   7
BRANCH   6  26
ATOM     26  C   UNL A   1      33.635  19.330  24.751  1.00  0.00     0.038 C 
BRANCH  26  27
ATOM     27  C   UNL A   1      32.438  18.490  24.340  1.00  0.00    -0.015 C 
ATOM     28  C   UNL A   1      32.478  18.076  22.879  1.00  0.00     0.007 C 
ATOM     29  C   UNL A   1      32.497  17.222  25.231  1.00  0.00     0.007 C 
ENDBRANCH  26  27
ENDBRANCH   6  26
ENDBRANCH   3   6
ENDBRANCH   1   2
BRANCH   1  30
ATOM     30  C   UNL A   1      37.159  20.923  24.375  1.00  0.00     0.023 C 
BRANCH  30  31
ATOM     31  C   UNL A   1      37.945  19.803  25.060  1.00  0.00     0.023 C 
BRANCH  31  32
ATOM     32  C   UNL A   1      39.122  20.304  25.889  1.00  0.00     0.116 C 
BRANCH  32  33
ATOM     33  N   UNL A   1      40.242  19.375  25.859  1.00  0.00    -0.352 N 
ATOM     34  C   UNL A   1      41.571  19.626  26.057  1.00  0.00     0.251 C 
ATOM     35  H   UNL A   1      40.011  18.437  25.671  1.00  0.00     0.163 HD
ATOM     36  O   UNL A   1      42.414  18.774  25.793  1.00  0.00    -0.269 OA
BRANCH  34  37
ATOM     37  C   UNL A   1      41.976  20.941  26.578  1.00  0.00     0.039 A 
ATOM     38  C   UNL A   1      42.458  21.900  25.688  1.00  0.00     0.014 A 
ATOM     39  C   UNL A   1      41.854  21.223  27.942  1.00  0.00     0.014 A 
ATOM     40  C   UNL A   1      42.773  23.172  26.161  1.00  0.00     0.010 A 
ATOM     41  C   UNL A   1      42.099  22.510  28.399  1.00  0.00     0.010 A 
ATOM     42  C   UNL A   1      42.567  23.491  27.513  1.00  0.00    -0.014 A 
BRANCH  42  43
ATOM     43  C   UNL A   1      42.841  24.852  28.025  1.00  0.00     0.031 A 
ATOM     44  C   UNL A   1      44.239  25.239  28.411  1.00  0.00     0.074 A 
ATOM     45  C   UNL A   1      41.821  25.712  28.201  1.00  0.00     0.049 A 
ATOM     46  N   UNL A   1      44.670  26.360  28.932  1.00  0.00    -0.248 NA
ATOM     47  C   UNL A   1      45.289  24.226  28.211  1.00  0.00     0.031 C 
ATOM     48  C   UNL A   1      40.415  25.434  27.900  1.00  0.00     0.029 A 
ATOM     49  N   UNL A   1      41.812  26.995  28.683  1.00  0.00    -0.354 N 
ATOM     50  C   UNL A   1      46.031  26.179  29.137  1.00  0.00     0.074 A 
ATOM     51  C   UNL A   1      46.348  24.828  28.730  1.00  0.00     0.031 C 
ATOM     52  C   UNL A   1      39.683  26.525  28.181  1.00  0.00     0.029 A 
ATOM     53  C   UNL A   1      40.561  27.561  28.713  1.00  0.00     0.049 A 
ATOM     54  H   UNL A   1      42.623  27.466  28.980  1.00  0.00     0.167 HD
ATOM     55  C   UNL A   1      46.939  27.066  29.607  1.00  0.00     0.031 A 
ATOM     56  C   UNL A   1      40.168  28.779  29.126  1.00  0.00     0.031 A 
ATOM     57  C   UNL A   1      46.624  28.413  29.997  1.00  0.00     0.049 A 
ATOM     58  C   UNL A   1      41.194  29.743  29.647  1.00  0.00     0.074 A 
ATOM     59  C   UNL A   1      47.484  29.410  30.427  1.00  0.00     0.029 A 
ATOM     60  N   UNL A   1      45.348  28.953  30.004  1.00  0.00    -0.354 N 
ATOM     61  N   UNL A   1      42.489  29.582  29.773  1.00  0.00    -0.248 NA
ATOM     62  C   UNL A   1      40.707  31.062  30.073  1.00  0.00     0.031 C 
ATOM     63  C   UNL A   1      46.719  30.540  30.736  1.00  0.00     0.029 A 
ATOM     64  C   UNL A   1      45.391  30.261  30.452  1.00  0.00     0.049 A 
ATOM     65  H   UNL A   1      44.531  28.476  29.730  1.00  0.00     0.167 HD
ATOM     66  C   UNL A   1      42.974  30.784  30.271  1.00  0.00     0.074 A 
ATOM     67  C   UNL A   1      41.836  31.669  30.409  1.00  0.00     0.031 C 
ATOM     68  C   UNL A   1      44.247  31.124  30.586  1.00  0.00     0.031 A 
BRANCH  55  69
ATOM     69  C   UNL A   1      48.361  26.598  29.725  1.00  0.00    -0.014 A 
ATOM     70  C   UNL A   1      49.282  26.800  28.684  1.00  0.00     0.009 A 
ATOM     71  C   UNL A   1      48.794  25.969  30.903  1.00  0.00     0.009 A 
ATOM     72  C   UNL A   1      50.598  26.349  28.806  1.00  0.00     0.001 A 
ATOM     73  C   UNL A   1      50.117  25.543  31.032  1.00  0.00     0.001 A 
ATOM     74  C   UNL A   1      51.015  25.725  29.982  1.00  0.00     0.000 A 
ENDBRANCH  55  69
BRANCH  56  75
ATOM     75  C   UNL A   1      38.736  29.163  29.047  1.00  0.00    -0.014 A 
ATOM     76  C   UNL A   1      38.200  29.659  27.848  1.00  0.00     0.009 A 
ATOM     77  C   UNL A   1      37.898  29.036  30.166  1.00  0.00     0.009 A 
ATOM     78  C   UNL A   1      36.859  30.043  27.779  1.00  0.00     0.001 A 
ATOM     79  C   UNL A   1      36.552  29.397  30.086  1.00  0.00     0.001 A 
ATOM     80  C   UNL A   1      36.036  29.909  28.896  1.00  0.00     0.000 A 
ENDBRANCH  56  75
BRANCH  68  81
ATOM     81  C   UNL A   1      44.477  32.521  31.084  1.00  0.00    -0.014 A 
ATOM     82  C   UNL A   1      44.731  33.575  30.195  1.00  0.00     0.009 A 
ATOM     83  C   UNL A   1      44.399  32.789  32.460  1.00  0.00     0.009 A 
ATOM     84  C   UNL A   1      44.932  34.870  30.678  1.00  0.00     0.001 A 
ATOM     85  C   UNL A   1      44.574  34.088  32.937  1.00  0.00     0.001 A 
ATOM     86  C   UNL A   1      44.848  35.126  32.046  1.00  0.00     0.000 A 
ENDBRANCH  68  81
ENDBRANCH  42  43
ENDBRANCH  34  37
ENDBRANCH  32  33
ENDBRANCH  31  32
ENDBRANCH  30  31
ENDBRANCH   1  30
TORSDOF 17
ENDMDL
MODEL 3
REMARK VINA RESULT:     -10.8      1.789      6.502
REMARK SMILES Cc1cc(=O)oc2cc(O[C@@H](C)C(=O)N[C@H](CC(C)C)C(=O)NCCCCNC(=O)c3ccc(-c4c5nc(c(-c6ccccc6)c6ccc([nH]6)c(-c6ccccc6)c6nc(c(-c7ccccc7)c7ccc4[nH]7)C=C6)C=C5)cc3)ccc12
REMARK SMILES IDX 24 1 23 2 21 3 22 4 16 6 15 7 13 8 14 9 11 11 12 12 10 13
REMARK SMILES IDX 9 14 1 15 2 16 3 17 81 18 4 19 7 20 80 21 5 22 6 23 8 24
REMARK SMILES IDX 79 25 17 26 18 27 19 28 20 29 25 30 26 31 27 32 28 33 29 34
REMARK SMILES IDX 30 36 31 37 32 38 78 39 33 40 77 41 34 42 35 43 36 44 71 45
REMARK SMILES IDX 37 46 76 47 70 48 72 49 38 50 75 51 69 52 68 53 39 55 61 56
REMARK SMILES IDX 46 57 60 58 47 59 50 60 59 61 73 62 48 63 49 64 58 66 74 67
REMARK SMILES IDX 51 68 40 69 41 70 45 71 42 72 44 73 43 74 62 75 63 76 67 77
REMARK SMILES IDX 64 78 66 79 65 80 52 81 53 82 57 83 54 84 56 85 55 86
REMARK H PARENT 23 5 15 10 28 35 72 54 50 65
REMARK Flexibility Score: inf
ROOT
ATOM      1  C   UNL A   1      36.721  22.005  25.534  1.00  0.00     0.116 C 
ENDROOT
BRANCH   1   2
ATOM      2  N   UNL A   1      35.781  21.178  26.264  1.00  0.00    -0.354 N 
ATOM      3  C   UNL A   1      34.475  20.930  25.976  1.00  0.00     0.242 C 
ATOM      4  O   UNL A   1      33.653  20.989  26.888  1.00  0.00    -0.273 OA
ATOM      5  H   UNL A   1      36.133  20.740  27.072  1.00  0.00     0.163 HD
BRANCH   3   6
ATOM      6  C   UNL A   1      33.976  20.897  24.550  1.00  0.00     0.171 C 
BRANCH   6   7
ATOM      7  N   UNL A   1      32.816  21.775  24.480  1.00  0.00    -0.341 N 
ATOM      8  C   UNL A   1      32.719  23.118  24.193  1.00  0.00     0.261 C 
ATOM      9  O   UNL A   1      31.550  23.540  24.153  1.00  0.00    -0.271 OA
ATOM     10  H   UNL A   1      31.956  21.334  24.669  1.00  0.00     0.164 HD
BRANCH   8  11
ATOM     11  C   UNL A   1      33.912  24.160  23.882  1.00  0.00     0.258 C 
ATOM     12  C   UNL A   1      34.581  24.627  25.171  1.00  0.00     0.064 C 
BRANCH  11  13
ATOM     13  O   UNL A   1      34.044  25.027  22.741  1.00  0.00    -0.481 OA
BRANCH  13  14
ATOM     14  C   UNL A   1      33.405  26.215  22.539  1.00  0.00     0.124 A 
ATOM     15  C   UNL A   1      28.878  28.622  23.015  1.00  0.00     0.045 C 
ATOM     16  C   UNL A   1      30.306  28.921  23.370  1.00  0.00    -0.033 A 
ATOM     17  C   UNL A   1      30.593  29.663  24.452  1.00  0.00     0.098 A 
ATOM     18  C   UNL A   1      31.423  28.203  22.718  1.00  0.00     0.021 A 
ATOM     19  C   UNL A   1      31.965  29.875  24.954  1.00  0.00     0.336 A 
ATOM     20  C   UNL A   1      32.714  28.407  23.217  1.00  0.00     0.142 A 
ATOM     21  C   UNL A   1      31.240  27.123  21.853  1.00  0.00     0.016 A 
ATOM     22  O   UNL A   1      32.166  30.454  26.008  1.00  0.00    -0.246 OA
ATOM     23  O   UNL A   1      32.993  29.443  24.131  1.00  0.00    -0.423 OA
ATOM     24  C   UNL A   1      33.721  27.438  23.103  1.00  0.00     0.094 A 
ATOM     25  C   UNL A   1      32.239  26.135  21.759  1.00  0.00     0.047 A 
ENDBRANCH  13  14
ENDBRANCH  11  13
ENDBRANCH   8  11
ENDBRANCH   6   7
BRANCH   6  26
ATOM     26  C   UNL A   1      33.844  19.349  24.442  1.00  0.00     0.038 C 
BRANCH  26  27
ATOM     27  C   UNL A   1      32.597  18.535  24.141  1.00  0.00    -0.015 C 
ATOM     28  C   UNL A   1      32.633  17.880  22.771  1.00  0.00     0.007 C 
ATOM     29  C   UNL A   1      32.548  17.433  25.232  1.00  0.00     0.007 C 
ENDBRANCH  26  27
ENDBRANCH   6  26
ENDBRANCH   3   6
ENDBRANCH   1   2
BRANCH   1  30
ATOM     30  C   UNL A   1      37.366  21.107  24.481  1.00  0.00     0.023 C 
BRANCH  30  31
ATOM     31  C   UNL A   1      38.067  19.899  25.106  1.00  0.00     0.023 C 
BRANCH  31  32
ATOM     32  C   UNL A   1      39.266  20.270  25.971  1.00  0.00     0.116 C 
BRANCH  32  33
ATOM     33  N   UNL A   1      40.298  19.244  25.940  1.00  0.00    -0.352 N 
ATOM     34  C   UNL A   1      41.652  19.384  26.062  1.00  0.00     0.251 C 
ATOM     35  H   UNL A   1      39.976  18.322  25.815  1.00  0.00     0.163 HD
ATOM     36  O   UNL A   1      42.402  18.447  25.806  1.00  0.00    -0.269 OA
BRANCH  34  37
ATOM     37  C   UNL A   1      42.198  20.681  26.490  1.00  0.00     0.039 A 
ATOM     38  C   UNL A   1      42.717  21.546  25.527  1.00  0.00     0.014 A 
ATOM     39  C   UNL A   1      42.170  21.043  27.841  1.00  0.00     0.014 A 
ATOM     40  C   UNL A   1      43.165  22.807  25.914  1.00  0.00     0.010 A 
ATOM     41  C   UNL A   1      42.550  22.324  28.214  1.00  0.00     0.010 A 
ATOM     42  C   UNL A   1      43.057  23.213  27.254  1.00  0.00    -0.014 A 
BRANCH  42  43
ATOM     43  C   UNL A   1      43.475  24.568  27.676  1.00  0.00     0.031 A 
ATOM     44  C   UNL A   1      42.440  25.603  28.005  1.00  0.00     0.074 A 
ATOM     45  C   UNL A   1      44.785  24.881  27.696  1.00  0.00     0.049 A 
ATOM     46  N   UNL A   1      42.605  26.858  28.336  1.00  0.00    -0.248 NA
ATOM     47  C   UNL A   1      41.031  25.180  27.930  1.00  0.00     0.031 C 
ATOM     48  C   UNL A   1      45.880  23.970  27.355  1.00  0.00     0.029 A 
ATOM     49  N   UNL A   1      45.413  26.056  28.012  1.00  0.00    -0.354 N 
ATOM     50  C   UNL A   1      41.326  27.377  28.489  1.00  0.00     0.074 A 
ATOM     51  C   UNL A   1      40.395  26.318  28.170  1.00  0.00     0.031 C 
ATOM     52  C   UNL A   1      47.049  24.616  27.506  1.00  0.00     0.029 A 
ATOM     53  C   UNL A   1      46.782  25.990  27.917  1.00  0.00     0.049 A 
ATOM     54  H   UNL A   1      44.931  26.871  28.280  1.00  0.00     0.167 HD
ATOM     55  C   UNL A   1      40.961  28.621  28.878  1.00  0.00     0.031 A 
ATOM     56  C   UNL A   1      47.715  26.933  28.136  1.00  0.00     0.031 A 
ATOM     57  C   UNL A   1      41.889  29.668  29.208  1.00  0.00     0.049 A 
ATOM     58  C   UNL A   1      47.283  28.307  28.562  1.00  0.00     0.074 A 
ATOM     59  C   UNL A   1      41.619  30.944  29.672  1.00  0.00     0.029 A 
ATOM     60  N   UNL A   1      43.266  29.559  29.110  1.00  0.00    -0.354 N 
ATOM     61  N   UNL A   1      46.072  28.764  28.767  1.00  0.00    -0.248 NA
ATOM     62  C   UNL A   1      48.348  29.291  28.796  1.00  0.00     0.031 C 
ATOM     63  C   UNL A   1      42.835  31.622  29.812  1.00  0.00     0.029 A 
ATOM     64  C   UNL A   1      43.862  30.751  29.481  1.00  0.00     0.049 A 
ATOM     65  H   UNL A   1      43.750  28.752  28.818  1.00  0.00     0.167 HD
ATOM     66  C   UNL A   1      46.230  30.082  29.176  1.00  0.00     0.074 A 
ATOM     67  C   UNL A   1      47.654  30.344  29.204  1.00  0.00     0.031 C 
ATOM     68  C   UNL A   1      45.281  30.993  29.499  1.00  0.00     0.031 A 
BRANCH  55  69
ATOM     69  C   UNL A   1      39.490  28.912  28.961  1.00  0.00    -0.014 A 
ATOM     70  C   UNL A   1      38.774  28.704  30.151  1.00  0.00     0.009 A 
ATOM     71  C   UNL A   1      38.815  29.425  27.842  1.00  0.00     0.009 A 
ATOM     72  C   UNL A   1      37.404  28.970  30.208  1.00  0.00     0.001 A 
ATOM     73  C   UNL A   1      37.451  29.715  27.911  1.00  0.00     0.001 A 
ATOM     74  C   UNL A   1      36.745  29.479  29.089  1.00  0.00     0.000 A 
ENDBRANCH  55  69
BRANCH  56  75
ATOM     75  C   UNL A   1      49.154  26.605  27.973  1.00  0.00    -0.014 A 
ATOM     76  C   UNL A   1      49.779  26.755  26.726  1.00  0.00     0.009 A 
ATOM     77  C   UNL A   1      49.909  26.141  29.061  1.00  0.00     0.009 A 
ATOM     78  C   UNL A   1      51.126  26.423  26.565  1.00  0.00     0.001 A 
ATOM     79  C   UNL A   1      51.262  25.834  28.903  1.00  0.00     0.001 A 
ATOM     80  C   UNL A   1      51.867  25.966  27.654  1.00  0.00     0.000 A 
ENDBRANCH  56  75
BRANCH  68  81
ATOM     81  C   UNL A   1      45.755  32.348  29.937  1.00  0.00    -0.014 A 
ATOM     82  C   UNL A   1      45.856  33.410  29.026  1.00  0.00     0.009 A 
ATOM     83  C   UNL A   1      46.067  32.572  31.287  1.00  0.00     0.009 A 
ATOM     84  C   UNL A   1      46.290  34.666  29.456  1.00  0.00     0.001 A 
ATOM     85  C   UNL A   1      46.474  33.835  31.718  1.00  0.00     0.001 A 
ATOM     86  C   UNL A   1      46.593  34.878  30.800  1.00  0.00     0.000 A 
ENDBRANCH  68  81
ENDBRANCH  42  43
ENDBRANCH  34  37
ENDBRANCH  32  33
ENDBRANCH  31  32
ENDBRANCH  30  31
ENDBRANCH   1  30
TORSDOF 17
ENDMDL
