MODEL 1
REMARK VINA RESULT:     -11.7      0.000      0.000
REMARK SMILES CCc1ccc(OCC(=O)Nc2cc(C)c(O)c(C(=O)NCCCCNC(=O)c3ccc(-c4c5nc(c(-c6ccccc6)c6ccc([nH]6)c(-c6ccccc6)c6nc(c(-c7ccccc7)c7ccc4[nH]7)C=C6)C=C5)cc3)c2)cc1
REMARK SMILES IDX 22 1 21 2 19 3 20 4 18 6 12 7 13 8 77 9 14 10 15 11 16 12
REMARK SMILES IDX 11 13 9 14 10 15 8 17 7 18 6 19 3 20 4 21 79 22 5 23 78 24
REMARK SMILES IDX 2 25 1 26 17 27 23 29 24 30 25 31 26 32 27 33 28 35 29 36
REMARK SMILES IDX 30 37 76 38 31 39 75 40 32 41 33 42 34 43 69 44 35 45 74 46
REMARK SMILES IDX 68 47 70 48 36 49 73 50 67 51 66 52 37 54 59 55 44 56 58 57
REMARK SMILES IDX 45 58 48 59 57 60 71 61 46 62 47 63 56 65 72 66 49 67 38 68
REMARK SMILES IDX 39 69 43 70 40 71 42 72 41 73 60 74 61 75 65 76 62 77 64 78
REMARK SMILES IDX 63 79 50 80 51 81 55 82 52 83 54 84 53 85
REMARK H PARENT 21 5 11 16 17 28 26 34 70 53 48 64
REMARK Flexibility Score: inf
ROOT
ATOM      1  C   UNL A   1      33.297  28.960  23.219  1.00  0.00     0.116 C 
ENDROOT
BRANCH   1   2
ATOM      2  N   UNL A   1      32.068  29.093  22.493  1.00  0.00    -0.352 N 
ATOM      3  C   UNL A   1      31.016  28.208  22.427  1.00  0.00     0.255 C 
ATOM      4  O   UNL A   1      30.041  28.533  21.743  1.00  0.00    -0.269 OA
ATOM      5  H   UNL A   1      31.964  29.923  21.974  1.00  0.00     0.163 HD
BRANCH   3   6
ATOM      6  C   UNL A   1      31.024  26.828  23.033  1.00  0.00     0.083 A 
ATOM      7  C   UNL A   1      30.433  25.156  24.720  1.00  0.00     0.042 A 
ATOM      8  C   UNL A   1      31.328  24.267  24.101  1.00  0.00     0.033 A 
ATOM      9  C   UNL A   1      30.244  26.424  24.150  1.00  0.00     0.043 A 
ATOM     10  C   UNL A   1      32.037  24.601  22.941  1.00  0.00    -0.006 A 
ATOM     11  C   UNL A   1      32.909  23.556  22.306  1.00  0.00     0.048 C 
ATOM     12  C   UNL A   1      31.885  25.887  22.422  1.00  0.00     0.131 A 
BRANCH   7  13
ATOM     13  N   UNL A   1      29.884  24.660  25.918  1.00  0.00    -0.323 N 
ATOM     14  C   UNL A   1      30.069  23.605  26.754  1.00  0.00     0.262 C 
ATOM     15  O   UNL A   1      29.244  23.468  27.667  1.00  0.00    -0.271 OA
ATOM     16  H   UNL A   1      29.159  25.242  26.241  1.00  0.00     0.170 HD
BRANCH  14  17
ATOM     17  C   UNL A   1      31.277  22.687  26.690  1.00  0.00     0.329 C 
BRANCH  17  18
ATOM     18  O   UNL A   1      32.400  22.977  27.485  1.00  0.00    -0.484 OA
BRANCH  18  19
ATOM     19  C   UNL A   1      33.609  23.127  26.875  1.00  0.00     0.120 A 
ATOM     20  C   UNL A   1      35.916  22.796  25.295  1.00  0.00    -0.048 A 
ATOM     21  C   UNL A   1      35.480  21.770  26.114  1.00  0.00     0.007 A 
ATOM     22  C   UNL A   1      35.252  24.034  25.363  1.00  0.00     0.007 A 
ATOM     23  C   UNL A   1      34.344  21.958  26.877  1.00  0.00     0.047 A 
ATOM     24  C   UNL A   1      34.089  24.202  26.151  1.00  0.00     0.047 A 
BRANCH  20  25
ATOM     25  C   UNL A   1      37.024  22.490  24.323  1.00  0.00     0.032 C 
ATOM     26  C   UNL A   1      36.714  22.961  22.915  1.00  0.00     0.009 C 
ENDBRANCH  20  25
ENDBRANCH  18  19
ENDBRANCH  17  18
ENDBRANCH  14  17
ENDBRANCH   7  13
BRANCH  12  27
ATOM     27  O   UNL A   1      32.623  26.183  21.300  1.00  0.00    -0.507 OA
ATOM     28  H   UNL A   1      32.227  26.648  20.589  1.00  0.00     0.293 HD
ENDBRANCH  12  27
ENDBRANCH   3   6
ENDBRANCH   1   2
BRANCH   1  29
ATOM     29  C   UNL A   1      33.272  29.315  24.703  1.00  0.00     0.023 C 
BRANCH  29  30
ATOM     30  C   UNL A   1      33.566  28.239  25.759  1.00  0.00     0.023 C 
BRANCH  30  31
ATOM     31  C   UNL A   1      33.426  28.520  27.257  1.00  0.00     0.116 C 
BRANCH  31  32
ATOM     32  N   UNL A   1      33.491  29.918  27.676  1.00  0.00    -0.352 N 
ATOM     33  C   UNL A   1      34.487  30.673  28.260  1.00  0.00     0.251 C 
ATOM     34  H   UNL A   1      32.660  30.420  27.511  1.00  0.00     0.163 HD
ATOM     35  O   UNL A   1      34.266  31.818  28.634  1.00  0.00    -0.269 OA
BRANCH  33  36
ATOM     36  C   UNL A   1      35.843  30.125  28.425  1.00  0.00     0.039 A 
ATOM     37  C   UNL A   1      36.742  30.147  27.353  1.00  0.00     0.014 A 
ATOM     38  C   UNL A   1      36.215  29.551  29.637  1.00  0.00     0.014 A 
ATOM     39  C   UNL A   1      38.041  29.674  27.539  1.00  0.00     0.010 A 
ATOM     40  C   UNL A   1      37.536  29.224  29.866  1.00  0.00     0.010 A 
ATOM     41  C   UNL A   1      38.456  29.256  28.812  1.00  0.00    -0.014 A 
BRANCH  41  42
ATOM     42  C   UNL A   1      39.839  28.804  29.078  1.00  0.00     0.031 A 
ATOM     43  C   UNL A   1      40.808  29.740  29.745  1.00  0.00     0.074 A 
ATOM     44  C   UNL A   1      40.232  27.596  28.635  1.00  0.00     0.049 A 
ATOM     45  N   UNL A   1      42.079  29.568  30.004  1.00  0.00    -0.248 NA
ATOM     46  C   UNL A   1      40.294  31.066  30.135  1.00  0.00     0.031 C 
ATOM     47  C   UNL A   1      39.384  26.635  27.921  1.00  0.00     0.029 A 
ATOM     48  N   UNL A   1      41.444  26.967  28.724  1.00  0.00    -0.354 N 
ATOM     49  C   UNL A   1      42.513  30.765  30.560  1.00  0.00     0.074 A 
ATOM     50  C   UNL A   1      41.398  31.683  30.523  1.00  0.00     0.031 C 
ATOM     51  C   UNL A   1      40.088  25.515  27.691  1.00  0.00     0.029 A 
ATOM     52  C   UNL A   1      41.443  25.699  28.198  1.00  0.00     0.049 A 
ATOM     53  H   UNL A   1      42.240  27.384  29.127  1.00  0.00     0.167 HD
ATOM     54  C   UNL A   1      43.721  31.063  31.091  1.00  0.00     0.031 A 
ATOM     55  C   UNL A   1      42.427  24.785  28.146  1.00  0.00     0.031 A 
ATOM     56  C   UNL A   1      44.818  30.134  31.128  1.00  0.00     0.049 A 
ATOM     57  C   UNL A   1      43.761  25.136  28.740  1.00  0.00     0.074 A 
ATOM     58  C   UNL A   1      46.077  30.302  31.673  1.00  0.00     0.029 A 
ATOM     59  N   UNL A   1      44.774  28.854  30.596  1.00  0.00    -0.354 N 
ATOM     60  N   UNL A   1      44.143  26.250  29.322  1.00  0.00    -0.248 NA
ATOM     61  C   UNL A   1      44.795  24.095  28.692  1.00  0.00     0.031 C 
ATOM     62  C   UNL A   1      46.814  29.138  31.425  1.00  0.00     0.029 A 
ATOM     63  C   UNL A   1      45.991  28.221  30.788  1.00  0.00     0.049 A 
ATOM     64  H   UNL A   1      43.994  28.454  30.148  1.00  0.00     0.167 HD
ATOM     65  C   UNL A   1      45.446  26.029  29.745  1.00  0.00     0.074 A 
ATOM     66  C   UNL A   1      45.780  24.670  29.365  1.00  0.00     0.031 C 
ATOM     67  C   UNL A   1      46.291  26.867  30.395  1.00  0.00     0.031 A 
BRANCH  54  68
ATOM     68  C   UNL A   1      43.900  32.445  31.662  1.00  0.00    -0.014 A 
ATOM     69  C   UNL A   1      44.363  33.509  30.866  1.00  0.00     0.009 A 
ATOM     70  C   UNL A   1      43.620  32.689  33.015  1.00  0.00     0.009 A 
ATOM     71  C   UNL A   1      44.594  34.767  31.426  1.00  0.00     0.001 A 
ATOM     72  C   UNL A   1      43.816  33.958  33.564  1.00  0.00     0.001 A 
ATOM     73  C   UNL A   1      44.317  34.992  32.774  1.00  0.00     0.000 A 
ENDBRANCH  54  68
BRANCH  55  74
ATOM     74  C   UNL A   1      42.169  23.438  27.571  1.00  0.00    -0.014 A 
ATOM     75  C   UNL A   1      42.572  23.141  26.260  1.00  0.00     0.009 A 
ATOM     76  C   UNL A   1      41.532  22.440  28.326  1.00  0.00     0.009 A 
ATOM     77  C   UNL A   1      42.313  21.885  25.705  1.00  0.00     0.001 A 
ATOM     78  C   UNL A   1      41.303  21.176  27.779  1.00  0.00     0.001 A 
ATOM     79  C   UNL A   1      41.683  20.903  26.465  1.00  0.00     0.000 A 
ENDBRANCH  55  74
BRANCH  67  80
ATOM     80  C   UNL A   1      47.632  26.310  30.781  1.00  0.00    -0.014 A 
ATOM     81  C   UNL A   1      48.704  26.275  29.876  1.00  0.00     0.009 A 
ATOM     82  C   UNL A   1      47.825  25.825  32.084  1.00  0.00     0.009 A 
ATOM     83  C   UNL A   1      49.926  25.715  30.253  1.00  0.00     0.001 A 
ATOM     84  C   UNL A   1      49.058  25.299  32.470  1.00  0.00     0.001 A 
ATOM     85  C   UNL A   1      50.103  25.232  31.549  1.00  0.00     0.000 A 
ENDBRANCH  67  80
ENDBRANCH  41  42
ENDBRANCH  33  36
ENDBRANCH  31  32
ENDBRANCH  30  31
ENDBRANCH  29  30
ENDBRANCH   1  29
TORSDOF 17
ENDMDL
MODEL 2
REMARK VINA RESULT:     -11.6      2.670      7.702
REMARK SMILES CCc1ccc(OCC(=O)Nc2cc(C)c(O)c(C(=O)NCCCCNC(=O)c3ccc(-c4c5nc(c(-c6ccccc6)c6ccc([nH]6)c(-c6ccccc6)c6nc(c(-c7ccccc7)c7ccc4[nH]7)C=C6)C=C5)cc3)c2)cc1
REMARK SMILES IDX 22 1 21 2 19 3 20 4 18 6 12 7 13 8 77 9 14 10 15 11 16 12
REMARK SMILES IDX 11 13 9 14 10 15 8 17 7 18 6 19 3 20 4 21 79 22 5 23 78 24
REMARK SMILES IDX 2 25 1 26 17 27 23 29 24 30 25 31 26 32 27 33 28 35 29 36
REMARK SMILES IDX 30 37 76 38 31 39 75 40 32 41 33 42 34 43 69 44 35 45 74 46
REMARK SMILES IDX 68 47 70 48 36 49 73 50 67 51 66 52 37 54 59 55 44 56 58 57
REMARK SMILES IDX 45 58 48 59 57 60 71 61 46 62 47 63 56 65 72 66 49 67 38 68
REMARK SMILES IDX 39 69 43 70 40 71 42 72 41 73 60 74 61 75 65 76 62 77 64 78
REMARK SMILES IDX 63 79 50 80 51 81 55 82 52 83 54 84 53 85
REMARK H PARENT 21 5 11 16 17 28 26 34 70 53 48 64
REMARK Flexibility Score: inf
ROOT
ATOM      1  C   UNL A   1      36.767  21.787  24.228  1.00  0.00     0.116 C 
ENDROOT
BRANCH   1   2
ATOM      2  N   UNL A   1      37.487  22.735  25.026  1.00  0.00    -0.352 N 
ATOM      3  C   UNL A   1      36.981  23.736  25.825  1.00  0.00     0.255 C 
ATOM      4  O   UNL A   1      37.791  24.437  26.439  1.00  0.00    -0.269 OA
ATOM      5  H   UNL A   1      38.468  22.662  24.999  1.00  0.00     0.163 HD
BRANCH   3   6
ATOM      6  C   UNL A   1      35.522  24.106  25.907  1.00  0.00     0.083 A 
ATOM      7  C   UNL A   1      33.596  25.574  25.552  1.00  0.00     0.042 A 
ATOM      8  C   UNL A   1      32.828  24.696  26.336  1.00  0.00     0.033 A 
ATOM      9  C   UNL A   1      34.936  25.247  25.296  1.00  0.00     0.043 A 
ATOM     10  C   UNL A   1      33.351  23.513  26.869  1.00  0.00    -0.006 A 
ATOM     11  C   UNL A   1      32.431  22.597  27.626  1.00  0.00     0.048 C 
ATOM     12  C   UNL A   1      34.701  23.232  26.657  1.00  0.00     0.131 A 
BRANCH   7  13
ATOM     13  N   UNL A   1      32.909  26.746  25.180  1.00  0.00    -0.323 N 
ATOM     14  C   UNL A   1      32.663  27.456  24.048  1.00  0.00     0.262 C 
ATOM     15  O   UNL A   1      32.102  28.550  24.190  1.00  0.00    -0.271 OA
ATOM     16  H   UNL A   1      32.490  27.172  25.961  1.00  0.00     0.170 HD
BRANCH  14  17
ATOM     17  C   UNL A   1      32.932  26.926  22.650  1.00  0.00     0.329 C 
BRANCH  17  18
ATOM     18  O   UNL A   1      31.995  26.063  22.054  1.00  0.00    -0.484 OA
BRANCH  18  19
ATOM     19  C   UNL A   1      31.977  24.756  22.435  1.00  0.00     0.120 A 
ATOM     20  C   UNL A   1      32.605  22.227  23.503  1.00  0.00    -0.048 A 
ATOM     21  C   UNL A   1      33.507  22.879  22.680  1.00  0.00     0.007 A 
ATOM     22  C   UNL A   1      31.336  22.803  23.691  1.00  0.00     0.007 A 
ATOM     23  C   UNL A   1      33.174  24.119  22.171  1.00  0.00     0.047 A 
ATOM     24  C   UNL A   1      31.019  24.075  23.161  1.00  0.00     0.047 A 
BRANCH  20  25
ATOM     25  C   UNL A   1      33.077  20.985  24.209  1.00  0.00     0.032 C 
ATOM     26  C   UNL A   1      32.437  19.723  23.663  1.00  0.00     0.009 C 
ENDBRANCH  20  25
ENDBRANCH  18  19
ENDBRANCH  17  18
ENDBRANCH  14  17
ENDBRANCH   7  13
BRANCH  12  27
ATOM     27  O   UNL A   1      35.181  22.076  27.224  1.00  0.00    -0.507 OA
ATOM     28  H   UNL A   1      35.112  21.264  26.762  1.00  0.00     0.293 HD
ENDBRANCH  12  27
ENDBRANCH   3   6
ENDBRANCH   1   2
BRANCH   1  29
ATOM     29  C   UNL A   1      36.817  20.326  24.668  1.00  0.00     0.023 C 
BRANCH  29  30
ATOM     30  C   UNL A   1      38.163  19.591  24.752  1.00  0.00     0.023 C 
BRANCH  30  31
ATOM     31  C   UNL A   1      39.150  19.844  25.894  1.00  0.00     0.116 C 
BRANCH  31  32
ATOM     32  N   UNL A   1      40.316  18.966  25.967  1.00  0.00    -0.352 N 
ATOM     33  C   UNL A   1      41.661  19.213  26.151  1.00  0.00     0.251 C 
ATOM     34  H   UNL A   1      40.099  18.012  25.866  1.00  0.00     0.163 HD
ATOM     35  O   UNL A   1      42.481  18.308  26.058  1.00  0.00    -0.269 OA
BRANCH  33  36
ATOM     36  C   UNL A   1      42.136  20.566  26.482  1.00  0.00     0.039 A 
ATOM     37  C   UNL A   1      42.528  21.439  25.462  1.00  0.00     0.014 A 
ATOM     38  C   UNL A   1      42.233  20.959  27.814  1.00  0.00     0.014 A 
ATOM     39  C   UNL A   1      42.926  22.737  25.785  1.00  0.00     0.010 A 
ATOM     40  C   UNL A   1      42.479  22.282  28.123  1.00  0.00     0.010 A 
ATOM     41  C   UNL A   1      42.856  23.177  27.116  1.00  0.00    -0.014 A 
BRANCH  41  42
ATOM     42  C   UNL A   1      43.206  24.559  27.505  1.00  0.00     0.031 A 
ATOM     43  C   UNL A   1      44.648  24.986  27.502  1.00  0.00     0.074 A 
ATOM     44  C   UNL A   1      42.238  25.384  27.943  1.00  0.00     0.049 A 
ATOM     45  N   UNL A   1      45.174  26.124  27.875  1.00  0.00    -0.248 NA
ATOM     46  C   UNL A   1      45.639  23.985  27.065  1.00  0.00     0.031 C 
ATOM     47  C   UNL A   1      40.814  25.047  28.043  1.00  0.00     0.029 A 
ATOM     48  N   UNL A   1      42.304  26.678  28.383  1.00  0.00    -0.354 N 
ATOM     49  C   UNL A   1      46.548  25.964  27.738  1.00  0.00     0.074 A 
ATOM     50  C   UNL A   1      46.781  24.597  27.333  1.00  0.00     0.031 C 
ATOM     51  C   UNL A   1      40.135  26.128  28.457  1.00  0.00     0.029 A 
ATOM     52  C   UNL A   1      41.078  27.213  28.696  1.00  0.00     0.049 A 
ATOM     53  H   UNL A   1      43.148  27.178  28.467  1.00  0.00     0.167 HD
ATOM     54  C   UNL A   1      47.527  26.883  27.898  1.00  0.00     0.031 A 
ATOM     55  C   UNL A   1      40.758  28.450  29.115  1.00  0.00     0.031 A 
ATOM     56  C   UNL A   1      47.277  28.243  28.292  1.00  0.00     0.049 A 
ATOM     57  C   UNL A   1      41.861  29.455  29.286  1.00  0.00     0.074 A 
ATOM     58  C   UNL A   1      48.179  29.279  28.449  1.00  0.00     0.029 A 
ATOM     59  N   UNL A   1      46.021  28.751  28.588  1.00  0.00    -0.354 N 
ATOM     60  N   UNL A   1      43.152  29.311  29.092  1.00  0.00    -0.248 NA
ATOM     61  C   UNL A   1      41.460  30.801  29.712  1.00  0.00     0.031 C 
ATOM     62  C   UNL A   1      47.471  30.404  28.890  1.00  0.00     0.029 A 
ATOM     63  C   UNL A   1      46.122  30.086  28.940  1.00  0.00     0.049 A 
ATOM     64  H   UNL A   1      45.181  28.238  28.553  1.00  0.00     0.167 HD
ATOM     65  C   UNL A   1      43.711  30.558  29.332  1.00  0.00     0.074 A 
ATOM     66  C   UNL A   1      42.616  31.446  29.671  1.00  0.00     0.031 C 
ATOM     67  C   UNL A   1      45.012  30.942  29.274  1.00  0.00     0.031 A 
BRANCH  54  68
ATOM     68  C   UNL A   1      48.942  26.432  27.645  1.00  0.00    -0.014 A 
ATOM     69  C   UNL A   1      49.769  26.001  28.698  1.00  0.00     0.009 A 
ATOM     70  C   UNL A   1      49.465  26.452  26.343  1.00  0.00     0.009 A 
ATOM     71  C   UNL A   1      51.101  25.657  28.460  1.00  0.00     0.001 A 
ATOM     72  C   UNL A   1      50.787  26.071  26.103  1.00  0.00     0.001 A 
ATOM     73  C   UNL A   1      51.608  25.688  27.162  1.00  0.00     0.000 A 
ENDBRANCH  54  68
BRANCH  55  74
ATOM     74  C   UNL A   1      39.335  28.820  29.336  1.00  0.00    -0.014 A 
ATOM     75  C   UNL A   1      38.574  29.359  28.287  1.00  0.00     0.009 A 
ATOM     76  C   UNL A   1      38.725  28.632  30.586  1.00  0.00     0.009 A 
ATOM     77  C   UNL A   1      37.243  29.731  28.492  1.00  0.00     0.001 A 
ATOM     78  C   UNL A   1      37.386  28.975  30.780  1.00  0.00     0.001 A 
ATOM     79  C   UNL A   1      36.649  29.535  29.736  1.00  0.00     0.000 A 
ENDBRANCH  55  74
BRANCH  67  80
ATOM     80  C   UNL A   1      45.301  32.394  29.526  1.00  0.00    -0.014 A 
ATOM     81  C   UNL A   1      45.600  32.873  30.811  1.00  0.00     0.009 A 
ATOM     82  C   UNL A   1      45.286  33.295  28.450  1.00  0.00     0.009 A 
ATOM     83  C   UNL A   1      45.825  34.235  31.020  1.00  0.00     0.001 A 
ATOM     84  C   UNL A   1      45.547  34.649  28.655  1.00  0.00     0.001 A 
ATOM     85  C   UNL A   1      45.802  35.120  29.942  1.00  0.00     0.000 A 
ENDBRANCH  67  80
ENDBRANCH  41  42
ENDBRANCH  33  36
ENDBRANCH  31  32
ENDBRANCH  30  31
ENDBRANCH  29  30
ENDBRANCH   1  29
TORSDOF 17
ENDMDL
MODEL 3
REMARK VINA RESULT:     -11.4      2.516      4.245
REMARK SMILES CCc1ccc(OCC(=O)Nc2cc(C)c(O)c(C(=O)NCCCCNC(=O)c3ccc(-c4c5nc(c(-c6ccccc6)c6ccc([nH]6)c(-c6ccccc6)c6nc(c(-c7ccccc7)c7ccc4[nH]7)C=C6)C=C5)cc3)c2)cc1
REMARK SMILES IDX 22 1 21 2 19 3 20 4 18 6 12 7 13 8 77 9 14 10 15 11 16 12
REMARK SMILES IDX 11 13 9 14 10 15 8 17 7 18 6 19 3 20 4 21 79 22 5 23 78 24
REMARK SMILES IDX 2 25 1 26 17 27 23 29 24 30 25 31 26 32 27 33 28 35 29 36
REMARK SMILES IDX 30 37 76 38 31 39 75 40 32 41 33 42 34 43 69 44 35 45 74 46
REMARK SMILES IDX 68 47 70 48 36 49 73 50 67 51 66 52 37 54 59 55 44 56 58 57
REMARK SMILES IDX 45 58 48 59 57 60 71 61 46 62 47 63 56 65 72 66 49 67 38 68
REMARK SMILES IDX 39 69 43 70 40 71 42 72 41 73 60 74 61 75 65 76 62 77 64 78
REMARK SMILES IDX 63 79 50 80 51 81 55 82 52 83 54 84 53 85
REMARK H PARENT 21 5 11 16 17 28 26 34 70 53 48 64
REMARK Flexibility Score: inf
ROOT
ATOM      1  C   UNL A   1      33.247  29.003  26.212  1.00  0.00     0.116 C 
ENDROOT
BRANCH   1   2
ATOM      2  N   UNL A   1      33.741  29.324  24.905  1.00  0.00    -0.352 N 
ATOM      3  C   UNL A   1      33.966  28.474  23.846  1.00  0.00     0.255 C 
ATOM      4  O   UNL A   1      34.389  28.972  22.798  1.00  0.00    -0.269 OA
ATOM      5  H   UNL A   1      33.948  30.273  24.746  1.00  0.00     0.163 HD
BRANCH   3   6
ATOM      6  C   UNL A   1      33.844  26.974  23.916  1.00  0.00     0.083 A 
ATOM      7  C   UNL A   1      33.997  24.798  25.027  1.00  0.00     0.042 A 
ATOM      8  C   UNL A   1      33.754  24.187  23.785  1.00  0.00     0.033 A 
ATOM      9  C   UNL A   1      33.990  26.199  25.098  1.00  0.00     0.043 A 
ATOM     10  C   UNL A   1      33.509  24.923  22.622  1.00  0.00    -0.006 A 
ATOM     11  C   UNL A   1      33.179  24.181  21.357  1.00  0.00     0.048 C 
ATOM     12  C   UNL A   1      33.566  26.315  22.696  1.00  0.00     0.131 A 
BRANCH   7  13
ATOM     13  N   UNL A   1      34.302  23.885  26.056  1.00  0.00    -0.323 N 
ATOM     14  C   UNL A   1      33.633  23.133  26.969  1.00  0.00     0.262 C 
ATOM     15  O   UNL A   1      34.321  22.545  27.814  1.00  0.00    -0.271 OA
ATOM     16  H   UNL A   1      35.274  23.757  26.138  1.00  0.00     0.170 HD
BRANCH  14  17
ATOM     17  C   UNL A   1      32.134  22.894  26.923  1.00  0.00     0.329 C 
BRANCH  17  18
ATOM     18  O   UNL A   1      31.263  23.971  27.166  1.00  0.00    -0.484 OA
BRANCH  18  19
ATOM     19  C   UNL A   1      30.721  24.624  26.100  1.00  0.00     0.120 A 
ATOM     20  C   UNL A   1      30.166  26.438  24.019  1.00  0.00    -0.048 A 
ATOM     21  C   UNL A   1      30.360  26.897  25.309  1.00  0.00     0.007 A 
ATOM     22  C   UNL A   1      30.136  25.048  23.802  1.00  0.00     0.007 A 
ATOM     23  C   UNL A   1      30.633  25.986  26.311  1.00  0.00     0.047 A 
ATOM     24  C   UNL A   1      30.420  24.135  24.843  1.00  0.00     0.047 A 
BRANCH  20  25
ATOM     25  C   UNL A   1      30.082  27.462  22.919  1.00  0.00     0.032 C 
ATOM     26  C   UNL A   1      30.324  28.874  23.416  1.00  0.00     0.009 C 
ENDBRANCH  20  25
ENDBRANCH  18  19
ENDBRANCH  17  18
ENDBRANCH  14  17
ENDBRANCH   7  13
BRANCH  12  27
ATOM     27  O   UNL A   1      33.349  26.999  21.523  1.00  0.00    -0.507 OA
ATOM     28  H   UNL A   1      33.157  26.529  20.735  1.00  0.00     0.293 HD
ENDBRANCH  12  27
ENDBRANCH   3   6
ENDBRANCH   1   2
BRANCH   1  29
ATOM     29  C   UNL A   1      33.255  30.119  27.253  1.00  0.00     0.023 C 
BRANCH  29  30
ATOM     30  C   UNL A   1      32.138  31.174  27.263  1.00  0.00     0.023 C 
BRANCH  30  31
ATOM     31  C   UNL A   1      32.269  32.494  26.499  1.00  0.00     0.116 C 
BRANCH  31  32
ATOM     32  N   UNL A   1      32.190  33.723  27.285  1.00  0.00    -0.352 N 
ATOM     33  C   UNL A   1      32.958  34.223  28.316  1.00  0.00     0.251 C 
ATOM     34  H   UNL A   1      31.443  34.309  27.029  1.00  0.00     0.163 HD
ATOM     35  O   UNL A   1      32.624  35.241  28.908  1.00  0.00    -0.269 OA
BRANCH  33  36
ATOM     36  C   UNL A   1      34.208  33.554  28.713  1.00  0.00     0.039 A 
ATOM     37  C   UNL A   1      35.380  33.771  27.981  1.00  0.00     0.014 A 
ATOM     38  C   UNL A   1      34.211  32.675  29.792  1.00  0.00     0.014 A 
ATOM     39  C   UNL A   1      36.570  33.174  28.399  1.00  0.00     0.010 A 
ATOM     40  C   UNL A   1      35.409  32.207  30.293  1.00  0.00     0.010 A 
ATOM     41  C   UNL A   1      36.596  32.427  29.587  1.00  0.00    -0.014 A 
BRANCH  41  42
ATOM     42  C   UNL A   1      37.841  31.825  30.108  1.00  0.00     0.031 A 
ATOM     43  C   UNL A   1      38.589  32.512  31.217  1.00  0.00     0.074 A 
ATOM     44  C   UNL A   1      38.334  30.720  29.518  1.00  0.00     0.049 A 
ATOM     45  N   UNL A   1      39.732  32.191  31.767  1.00  0.00    -0.248 NA
ATOM     46  C   UNL A   1      37.997  33.752  31.752  1.00  0.00     0.031 C 
ATOM     47  C   UNL A   1      37.717  30.010  28.393  1.00  0.00     0.029 A 
ATOM     48  N   UNL A   1      39.465  29.998  29.786  1.00  0.00    -0.354 N 
ATOM     49  C   UNL A   1      39.999  33.198  32.687  1.00  0.00     0.074 A 
ATOM     50  C   UNL A   1      38.949  34.181  32.563  1.00  0.00     0.031 C 
ATOM     51  C   UNL A   1      38.447  28.921  28.108  1.00  0.00     0.029 A 
ATOM     52  C   UNL A   1      39.602  28.884  28.996  1.00  0.00     0.049 A 
ATOM     53  H   UNL A   1      40.117  30.253  30.479  1.00  0.00     0.167 HD
ATOM     54  C   UNL A   1      41.009  33.277  33.584  1.00  0.00     0.031 A 
ATOM     55  C   UNL A   1      40.553  27.933  29.002  1.00  0.00     0.031 A 
ATOM     56  C   UNL A   1      42.041  32.284  33.701  1.00  0.00     0.049 A 
ATOM     57  C   UNL A   1      41.666  28.041  30.006  1.00  0.00     0.074 A 
ATOM     58  C   UNL A   1      43.094  32.230  34.595  1.00  0.00     0.029 A 
ATOM     59  N   UNL A   1      42.140  31.162  32.892  1.00  0.00    -0.354 N 
ATOM     60  N   UNL A   1      41.875  28.964  30.916  1.00  0.00    -0.248 NA
ATOM     61  C   UNL A   1      42.661  26.962  29.999  1.00  0.00     0.031 C 
ATOM     62  C   UNL A   1      43.861  31.099  34.292  1.00  0.00     0.029 A 
ATOM     63  C   UNL A   1      43.246  30.413  33.255  1.00  0.00     0.049 A 
ATOM     64  H   UNL A   1      41.517  30.932  32.165  1.00  0.00     0.167 HD
ATOM     65  C   UNL A   1      43.001  28.557  31.616  1.00  0.00     0.074 A 
ATOM     66  C   UNL A   1      43.418  27.296  31.034  1.00  0.00     0.031 C 
ATOM     67  C   UNL A   1      43.634  29.162  32.653  1.00  0.00     0.031 A 
BRANCH  54  68
ATOM     68  C   UNL A   1      41.030  34.479  34.491  1.00  0.00    -0.014 A 
ATOM     69  C   UNL A   1      41.806  35.611  34.185  1.00  0.00     0.009 A 
ATOM     70  C   UNL A   1      40.279  34.478  35.677  1.00  0.00     0.009 A 
ATOM     71  C   UNL A   1      41.874  36.688  35.072  1.00  0.00     0.001 A 
ATOM     72  C   UNL A   1      40.319  35.572  36.544  1.00  0.00     0.001 A 
ATOM     73  C   UNL A   1      41.128  36.670  36.249  1.00  0.00     0.000 A 
ENDBRANCH  54  68
BRANCH  55  74
ATOM     74  C   UNL A   1      40.458  26.772  28.078  1.00  0.00    -0.014 A 
ATOM     75  C   UNL A   1      41.079  26.818  26.820  1.00  0.00     0.009 A 
ATOM     76  C   UNL A   1      39.758  25.612  28.445  1.00  0.00     0.009 A 
ATOM     77  C   UNL A   1      40.976  25.740  25.937  1.00  0.00     0.001 A 
ATOM     78  C   UNL A   1      39.683  24.524  27.573  1.00  0.00     0.001 A 
ATOM     79  C   UNL A   1      40.281  24.593  26.315  1.00  0.00     0.000 A 
ENDBRANCH  55  74
BRANCH  67  80
ATOM     80  C   UNL A   1      44.805  28.433  33.249  1.00  0.00    -0.014 A 
ATOM     81  C   UNL A   1      44.649  27.541  34.321  1.00  0.00     0.009 A 
ATOM     82  C   UNL A   1      46.086  28.638  32.715  1.00  0.00     0.009 A 
ATOM     83  C   UNL A   1      45.762  26.909  34.879  1.00  0.00     0.001 A 
ATOM     84  C   UNL A   1      47.192  27.977  33.249  1.00  0.00     0.001 A 
ATOM     85  C   UNL A   1      47.030  27.125  34.341  1.00  0.00     0.000 A 
ENDBRANCH  67  80
ENDBRANCH  41  42
ENDBRANCH  33  36
ENDBRANCH  31  32
ENDBRANCH  30  31
ENDBRANCH  29  30
ENDBRANCH   1  29
TORSDOF 17
ENDMDL
