MODEL 1
REMARK VINA RESULT:     -10.6      0.000      0.000
REMARK SMILES CC[C@H](C(=O)NCCCCNC(=O)c1ccc(-c2c3nc(c(-c4ccccc4)c4ccc([nH]4)c(-c4ccccc4)c4nc(c(-c5ccccc5)c5ccc2[nH]5)C=C4)C=C3)cc1)[N@@H+](C)[C@H]1CC[C@@H]([NH2+]C)CC1
REMARK SMILES IDX 8 1 7 2 6 3 4 4 5 5 3 7 2 8 1 9 62 10 63 11 64 13 71 14
REMARK SMILES IDX 65 15 70 16 66 17 67 18 68 19 69 20 9 23 10 24 11 25 12 26
REMARK SMILES IDX 13 28 14 29 15 30 61 31 16 32 60 33 17 34 18 35 19 36 54 37
REMARK SMILES IDX 20 38 59 39 53 40 55 41 21 42 58 43 52 44 51 45 22 47 44 48
REMARK SMILES IDX 29 49 43 50 30 51 33 52 42 53 56 54 31 55 32 56 41 58 57 59
REMARK SMILES IDX 34 60 23 61 24 62 28 63 25 64 27 65 26 66 45 67 46 68 50 69
REMARK SMILES IDX 47 70 49 71 48 72 35 73 36 74 40 75 37 76 39 77 38 78
REMARK H PARENT 6 6 62 12 68 21 68 22 11 27 55 46 33 57
REMARK Flexibility Score: inf
ROOT
ATOM      1  C   UNL A   1      31.707  30.649  26.185  1.00  0.00     0.023 C 
ENDROOT
BRANCH   1   2
ATOM      2  C   UNL A   1      32.214  29.592  27.164  1.00  0.00     0.116 C 
BRANCH   2   3
ATOM      3  N   UNL A   1      31.449  28.370  27.073  1.00  0.00    -0.351 N 
ATOM      4  C   UNL A   1      31.368  27.389  26.134  1.00  0.00     0.278 C 
ATOM      5  O   UNL A   1      30.669  26.418  26.458  1.00  0.00    -0.268 OA
ATOM      6  H   UNL A   1      30.865  28.214  27.850  1.00  0.00     0.163 HD
BRANCH   4   7
ATOM      7  C   UNL A   1      32.085  27.405  24.749  1.00  0.00     0.273 C 
BRANCH   7   8
ATOM      8  C   UNL A   1      33.282  26.471  24.484  1.00  0.00     0.072 C 
ATOM      9  C   UNL A   1      33.976  25.969  25.747  1.00  0.00     0.011 C 
ENDBRANCH   7   8
BRANCH   7  10
ATOM     10  N   UNL A   1      31.119  27.601  23.622  1.00  0.00    -0.325 N 
ATOM     11  C   UNL A   1      30.838  26.340  22.927  1.00  0.00     0.333 C 
ATOM     12  H   UNL A   1      31.685  28.250  23.076  1.00  0.00     0.348 HD
BRANCH  10  13
ATOM     13  C   UNL A   1      29.916  28.452  23.725  1.00  0.00     0.184 C 
ATOM     14  C   UNL A   1      30.111  29.926  23.321  1.00  0.00     0.071 C 
ATOM     15  C   UNL A   1      28.639  27.828  23.126  1.00  0.00     0.071 C 
ATOM     16  C   UNL A   1      28.829  30.748  23.496  1.00  0.00     0.071 C 
ATOM     17  C   UNL A   1      27.402  28.728  23.255  1.00  0.00     0.071 C 
ATOM     18  C   UNL A   1      27.644  30.153  22.722  1.00  0.00     0.182 C 
BRANCH  18  19
ATOM     19  N   UNL A   1      27.850  30.091  21.265  1.00  0.00    -0.346 N 
ATOM     20  C   UNL A   1      28.031  31.391  20.634  1.00  0.00     0.331 C 
ATOM     21  H   UNL A   1      27.036  29.642  20.845  1.00  0.00     0.346 HD
ATOM     22  H   UNL A   1      28.712  29.569  21.113  1.00  0.00     0.346 HD
ENDBRANCH  18  19
ENDBRANCH  10  13
ENDBRANCH   7  10
ENDBRANCH   4   7
ENDBRANCH   2   3
ENDBRANCH   1   2
BRANCH   1  23
ATOM     23  C   UNL A   1      31.404  31.999  26.839  1.00  0.00     0.023 C 
BRANCH  23  24
ATOM     24  C   UNL A   1      32.629  32.849  27.157  1.00  0.00     0.116 C 
BRANCH  24  25
ATOM     25  N   UNL A   1      32.307  34.174  27.665  1.00  0.00    -0.352 N 
ATOM     26  C   UNL A   1      32.960  34.888  28.642  1.00  0.00     0.251 C 
ATOM     27  H   UNL A   1      31.525  34.613  27.259  1.00  0.00     0.163 HD
ATOM     28  O   UNL A   1      32.528  35.964  29.024  1.00  0.00    -0.269 OA
BRANCH  26  29
ATOM     29  C   UNL A   1      34.173  34.309  29.254  1.00  0.00     0.039 A 
ATOM     30  C   UNL A   1      34.028  33.449  30.344  1.00  0.00     0.014 A 
ATOM     31  C   UNL A   1      35.437  34.585  28.727  1.00  0.00     0.014 A 
ATOM     32  C   UNL A   1      35.156  32.826  30.879  1.00  0.00     0.010 A 
ATOM     33  C   UNL A   1      36.548  33.903  29.210  1.00  0.00     0.010 A 
ATOM     34  C   UNL A   1      36.421  33.032  30.303  1.00  0.00    -0.014 A 
BRANCH  34  35
ATOM     35  C   UNL A   1      37.625  32.376  30.866  1.00  0.00     0.031 A 
ATOM     36  C   UNL A   1      38.222  32.885  32.149  1.00  0.00     0.074 A 
ATOM     37  C   UNL A   1      38.196  31.347  30.212  1.00  0.00     0.049 A 
ATOM     38  N   UNL A   1      39.259  32.438  32.812  1.00  0.00    -0.248 NA
ATOM     39  C   UNL A   1      37.589  34.068  32.754  1.00  0.00     0.031 C 
ATOM     40  C   UNL A   1      37.746  30.797  28.932  1.00  0.00     0.029 A 
ATOM     41  N   UNL A   1      39.281  30.574  30.543  1.00  0.00    -0.354 N 
ATOM     42  C   UNL A   1      39.407  33.292  33.897  1.00  0.00     0.074 A 
ATOM     43  C   UNL A   1      38.397  34.318  33.773  1.00  0.00     0.031 C 
ATOM     44  C   UNL A   1      38.523  29.751  28.606  1.00  0.00     0.029 A 
ATOM     45  C   UNL A   1      39.537  29.573  29.639  1.00  0.00     0.049 A 
ATOM     46  H   UNL A   1      39.824  30.725  31.351  1.00  0.00     0.167 HD
ATOM     47  C   UNL A   1      40.287  33.216  34.923  1.00  0.00     0.031 A 
ATOM     48  C   UNL A   1      40.477  28.609  29.653  1.00  0.00     0.031 A 
ATOM     49  C   UNL A   1      41.279  32.186  35.059  1.00  0.00     0.049 A 
ATOM     50  C   UNL A   1      41.429  28.532  30.815  1.00  0.00     0.074 A 
ATOM     51  C   UNL A   1      42.181  31.983  36.088  1.00  0.00     0.029 A 
ATOM     52  N   UNL A   1      41.497  31.179  34.131  1.00  0.00    -0.354 N 
ATOM     53  N   UNL A   1      41.505  29.299  31.874  1.00  0.00    -0.248 NA
ATOM     54  C   UNL A   1      42.411  27.438  30.789  1.00  0.00     0.031 C 
ATOM     55  C   UNL A   1      42.971  30.876  35.764  1.00  0.00     0.029 A 
ATOM     56  C   UNL A   1      42.529  30.361  34.555  1.00  0.00     0.049 A 
ATOM     57  H   UNL A   1      40.992  31.064  33.293  1.00  0.00     0.167 HD
ATOM     58  C   UNL A   1      42.525  28.769  32.653  1.00  0.00     0.074 A 
ATOM     59  C   UNL A   1      43.022  27.601  31.954  1.00  0.00     0.031 C 
ATOM     60  C   UNL A   1      43.010  29.207  33.841  1.00  0.00     0.031 A 
BRANCH  47  61
ATOM     61  C   UNL A   1      40.203  34.283  35.979  1.00  0.00    -0.014 A 
ATOM     62  C   UNL A   1      39.375  34.128  37.103  1.00  0.00     0.009 A 
ATOM     63  C   UNL A   1      40.964  35.455  35.853  1.00  0.00     0.009 A 
ATOM     64  C   UNL A   1      39.277  35.143  38.056  1.00  0.00     0.001 A 
ATOM     65  C   UNL A   1      40.886  36.456  36.823  1.00  0.00     0.001 A 
ATOM     66  C   UNL A   1      40.035  36.305  37.918  1.00  0.00     0.000 A 
ENDBRANCH  47  61
BRANCH  48  67
ATOM     67  C   UNL A   1      40.540  27.610  28.555  1.00  0.00    -0.014 A 
ATOM     68  C   UNL A   1      41.322  27.856  27.415  1.00  0.00     0.009 A 
ATOM     69  C   UNL A   1      39.810  26.415  28.632  1.00  0.00     0.009 A 
ATOM     70  C   UNL A   1      41.347  26.939  26.362  1.00  0.00     0.001 A 
ATOM     71  C   UNL A   1      39.859  25.486  27.589  1.00  0.00     0.001 A 
ATOM     72  C   UNL A   1      40.619  25.754  26.451  1.00  0.00     0.000 A 
ENDBRANCH  48  67
BRANCH  60  73
ATOM     73  C   UNL A   1      44.114  28.403  34.465  1.00  0.00    -0.014 A 
ATOM     74  C   UNL A   1      45.462  28.722  34.242  1.00  0.00     0.009 A 
ATOM     75  C   UNL A   1      43.798  27.325  35.305  1.00  0.00     0.009 A 
ATOM     76  C   UNL A   1      46.473  27.951  34.818  1.00  0.00     0.001 A 
ATOM     77  C   UNL A   1      44.811  26.574  35.904  1.00  0.00     0.001 A 
ATOM     78  C   UNL A   1      46.148  26.881  35.650  1.00  0.00     0.000 A 
ENDBRANCH  60  73
ENDBRANCH  34  35
ENDBRANCH  26  29
ENDBRANCH  24  25
ENDBRANCH  23  24
ENDBRANCH   1  23
TORSDOF 15
ENDMDL
MODEL 2
REMARK VINA RESULT:     -10.4      0.469      6.086
REMARK SMILES CC[C@H](C(=O)NCCCCNC(=O)c1ccc(-c2c3nc(c(-c4ccccc4)c4ccc([nH]4)c(-c4ccccc4)c4nc(c(-c5ccccc5)c5ccc2[nH]5)C=C4)C=C3)cc1)[N@@H+](C)[C@H]1CC[C@@H]([NH2+]C)CC1
REMARK SMILES IDX 8 1 7 2 6 3 4 4 5 5 3 7 2 8 1 9 62 10 63 11 64 13 71 14
REMARK SMILES IDX 65 15 70 16 66 17 67 18 68 19 69 20 9 23 10 24 11 25 12 26
REMARK SMILES IDX 13 28 14 29 15 30 61 31 16 32 60 33 17 34 18 35 19 36 54 37
REMARK SMILES IDX 20 38 59 39 53 40 55 41 21 42 58 43 52 44 51 45 22 47 44 48
REMARK SMILES IDX 29 49 43 50 30 51 33 52 42 53 56 54 31 55 32 56 41 58 57 59
REMARK SMILES IDX 34 60 23 61 24 62 28 63 25 64 27 65 26 66 45 67 46 68 50 69
REMARK SMILES IDX 47 70 49 71 48 72 35 73 36 74 40 75 37 76 39 77 38 78
REMARK H PARENT 6 6 62 12 68 21 68 22 11 27 55 46 33 57
REMARK Flexibility Score: inf
ROOT
ATOM      1  C   UNL A   1      31.705  30.722  26.130  1.00  0.00     0.023 C 
ENDROOT
BRANCH   1   2
ATOM      2  C   UNL A   1      32.356  29.682  27.039  1.00  0.00     0.116 C 
BRANCH   2   3
ATOM      3  N   UNL A   1      31.597  28.454  27.075  1.00  0.00    -0.351 N 
ATOM      4  C   UNL A   1      31.432  27.435  26.189  1.00  0.00     0.278 C 
ATOM      5  O   UNL A   1      30.778  26.474  26.621  1.00  0.00    -0.268 OA
ATOM      6  H   UNL A   1      31.096  28.327  27.913  1.00  0.00     0.163 HD
BRANCH   4   7
ATOM      7  C   UNL A   1      32.006  27.398  24.739  1.00  0.00     0.273 C 
BRANCH   7   8
ATOM      8  C   UNL A   1      33.244  26.538  24.417  1.00  0.00     0.072 C 
ATOM      9  C   UNL A   1      33.925  25.935  25.644  1.00  0.00     0.011 C 
ENDBRANCH   7   8
BRANCH   7  10
ATOM     10  N   UNL A   1      30.922  27.434  23.708  1.00  0.00    -0.325 N 
ATOM     11  C   UNL A   1      30.519  26.083  23.302  1.00  0.00     0.333 C 
ATOM     12  H   UNL A   1      31.442  27.938  22.990  1.00  0.00     0.348 HD
BRANCH  10  13
ATOM     13  C   UNL A   1      29.769  28.355  23.777  1.00  0.00     0.184 C 
ATOM     14  C   UNL A   1      30.062  29.814  23.376  1.00  0.00     0.071 C 
ATOM     15  C   UNL A   1      28.474  27.806  23.144  1.00  0.00     0.071 C 
ATOM     16  C   UNL A   1      28.826  30.711  23.514  1.00  0.00     0.071 C 
ATOM     17  C   UNL A   1      27.290  28.778  23.237  1.00  0.00     0.071 C 
ATOM     18  C   UNL A   1      27.630  30.184  22.709  1.00  0.00     0.182 C 
BRANCH  18  19
ATOM     19  N   UNL A   1      27.872  30.106  21.259  1.00  0.00    -0.346 N 
ATOM     20  C   UNL A   1      27.982  31.401  20.603  1.00  0.00     0.331 C 
ATOM     21  H   UNL A   1      27.098  29.596  20.832  1.00  0.00     0.346 HD
ATOM     22  H   UNL A   1      28.769  29.638  21.136  1.00  0.00     0.346 HD
ENDBRANCH  18  19
ENDBRANCH  10  13
ENDBRANCH   7  10
ENDBRANCH   4   7
ENDBRANCH   2   3
ENDBRANCH   1   2
BRANCH   1  23
ATOM     23  C   UNL A   1      31.402  32.049  26.829  1.00  0.00     0.023 C 
BRANCH  23  24
ATOM     24  C   UNL A   1      32.629  32.824  27.298  1.00  0.00     0.116 C 
BRANCH  24  25
ATOM     25  N   UNL A   1      32.350  34.208  27.648  1.00  0.00    -0.352 N 
ATOM     26  C   UNL A   1      33.009  35.001  28.558  1.00  0.00     0.251 C 
ATOM     27  H   UNL A   1      31.595  34.628  27.175  1.00  0.00     0.163 HD
ATOM     28  O   UNL A   1      32.612  36.128  28.807  1.00  0.00    -0.269 OA
BRANCH  26  29
ATOM     29  C   UNL A   1      34.183  34.448  29.262  1.00  0.00     0.039 A 
ATOM     30  C   UNL A   1      33.981  33.735  30.444  1.00  0.00     0.014 A 
ATOM     31  C   UNL A   1      35.468  34.601  28.733  1.00  0.00     0.014 A 
ATOM     32  C   UNL A   1      35.070  33.133  31.076  1.00  0.00     0.010 A 
ATOM     33  C   UNL A   1      36.537  33.935  29.320  1.00  0.00     0.010 A 
ATOM     34  C   UNL A   1      36.352  33.210  30.507  1.00  0.00    -0.014 A 
BRANCH  34  35
ATOM     35  C   UNL A   1      37.515  32.576  31.172  1.00  0.00     0.031 A 
ATOM     36  C   UNL A   1      38.170  31.375  30.547  1.00  0.00     0.074 A 
ATOM     37  C   UNL A   1      37.962  33.059  32.347  1.00  0.00     0.049 A 
ATOM     38  N   UNL A   1      39.206  30.691  30.961  1.00  0.00    -0.248 NA
ATOM     39  C   UNL A   1      37.566  30.858  29.308  1.00  0.00     0.031 C 
ATOM     40  C   UNL A   1      37.377  34.183  33.082  1.00  0.00     0.029 A 
ATOM     41  N   UNL A   1      39.020  32.665  33.127  1.00  0.00    -0.354 N 
ATOM     42  C   UNL A   1      39.365  29.659  30.045  1.00  0.00     0.074 A 
ATOM     43  C   UNL A   1      38.286  29.768  29.090  1.00  0.00     0.031 C 
ATOM     44  C   UNL A   1      38.110  34.413  34.185  1.00  0.00     0.029 A 
ATOM     45  C   UNL A   1      39.195  33.442  34.246  1.00  0.00     0.049 A 
ATOM     46  H   UNL A   1      39.597  31.899  32.905  1.00  0.00     0.167 HD
ATOM     47  C   UNL A   1      40.338  28.720  29.985  1.00  0.00     0.031 A 
ATOM     48  C   UNL A   1      40.138  33.382  35.205  1.00  0.00     0.031 A 
ATOM     49  C   UNL A   1      41.422  28.622  30.922  1.00  0.00     0.049 A 
ATOM     50  C   UNL A   1      41.221  32.345  35.104  1.00  0.00     0.074 A 
ATOM     51  C   UNL A   1      42.492  27.744  30.920  1.00  0.00     0.029 A 
ATOM     52  N   UNL A   1      41.574  29.436  32.034  1.00  0.00    -0.354 N 
ATOM     53  N   UNL A   1      41.404  31.426  34.188  1.00  0.00    -0.248 NA
ATOM     54  C   UNL A   1      42.241  32.353  36.163  1.00  0.00     0.031 C 
ATOM     55  C   UNL A   1      43.271  28.003  32.053  1.00  0.00     0.029 A 
ATOM     56  C   UNL A   1      42.712  29.073  32.733  1.00  0.00     0.049 A 
ATOM     57  H   UNL A   1      40.963  30.166  32.289  1.00  0.00     0.167 HD
ATOM     58  C   UNL A   1      42.570  30.762  34.544  1.00  0.00     0.074 A 
ATOM     59  C   UNL A   1      43.063  31.400  35.748  1.00  0.00     0.031 C 
ATOM     60  C   UNL A   1      43.181  29.718  33.932  1.00  0.00     0.031 A 
BRANCH  47  61
ATOM     61  C   UNL A   1      40.264  27.728  28.858  1.00  0.00    -0.014 A 
ATOM     62  C   UNL A   1      40.888  27.983  27.625  1.00  0.00     0.009 A 
ATOM     63  C   UNL A   1      39.568  26.522  29.029  1.00  0.00     0.009 A 
ATOM     64  C   UNL A   1      40.780  27.070  26.574  1.00  0.00     0.001 A 
ATOM     65  C   UNL A   1      39.487  25.598  27.986  1.00  0.00     0.001 A 
ATOM     66  C   UNL A   1      40.083  25.877  26.756  1.00  0.00     0.000 A 
ENDBRANCH  47  61
BRANCH  48  67
ATOM     67  C   UNL A   1      40.130  34.363  36.322  1.00  0.00    -0.014 A 
ATOM     68  C   UNL A   1      40.780  35.600  36.185  1.00  0.00     0.009 A 
ATOM     69  C   UNL A   1      39.487  34.065  37.532  1.00  0.00     0.009 A 
ATOM     70  C   UNL A   1      40.812  36.505  37.248  1.00  0.00     0.001 A 
ATOM     71  C   UNL A   1      39.497  34.983  38.585  1.00  0.00     0.001 A 
ATOM     72  C   UNL A   1      40.168  36.197  38.446  1.00  0.00     0.000 A 
ENDBRANCH  48  67
BRANCH  60  73
ATOM     73  C   UNL A   1      44.460  29.223  34.543  1.00  0.00    -0.014 A 
ATOM     74  C   UNL A   1      45.700  29.765  34.173  1.00  0.00     0.009 A 
ATOM     75  C   UNL A   1      44.420  28.216  35.520  1.00  0.00     0.009 A 
ATOM     76  C   UNL A   1      46.879  29.279  34.741  1.00  0.00     0.001 A 
ATOM     77  C   UNL A   1      45.597  27.753  36.108  1.00  0.00     0.001 A 
ATOM     78  C   UNL A   1      46.827  28.277  35.709  1.00  0.00     0.000 A 
ENDBRANCH  60  73
ENDBRANCH  34  35
ENDBRANCH  26  29
ENDBRANCH  24  25
ENDBRANCH  23  24
ENDBRANCH   1  23
TORSDOF 15
ENDMDL
MODEL 3
REMARK VINA RESULT:     -10.4      5.502     10.350
REMARK SMILES CC[C@H](C(=O)NCCCCNC(=O)c1ccc(-c2c3nc(c(-c4ccccc4)c4ccc([nH]4)c(-c4ccccc4)c4nc(c(-c5ccccc5)c5ccc2[nH]5)C=C4)C=C3)cc1)[N@@H+](C)[C@H]1CC[C@@H]([NH2+]C)CC1
REMARK SMILES IDX 8 1 7 2 6 3 4 4 5 5 3 7 2 8 1 9 62 10 63 11 64 13 71 14
REMARK SMILES IDX 65 15 70 16 66 17 67 18 68 19 69 20 9 23 10 24 11 25 12 26
REMARK SMILES IDX 13 28 14 29 15 30 61 31 16 32 60 33 17 34 18 35 19 36 54 37
REMARK SMILES IDX 20 38 59 39 53 40 55 41 21 42 58 43 52 44 51 45 22 47 44 48
REMARK SMILES IDX 29 49 43 50 30 51 33 52 42 53 56 54 31 55 32 56 41 58 57 59
REMARK SMILES IDX 34 60 23 61 24 62 28 63 25 64 27 65 26 66 45 67 46 68 50 69
REMARK SMILES IDX 47 70 49 71 48 72 35 73 36 74 40 75 37 76 39 77 38 78
REMARK H PARENT 6 6 62 12 68 21 68 22 11 27 55 46 33 57
REMARK Flexibility Score: inf
ROOT
ATOM      1  C   UNL A   1      36.866  20.656  25.008  1.00  0.00     0.023 C 
ENDROOT
BRANCH   1   2
ATOM      2  C   UNL A   1      37.122  22.116  24.640  1.00  0.00     0.116 C 
BRANCH   2   3
ATOM      3  N   UNL A   1      36.265  22.553  23.563  1.00  0.00    -0.351 N 
ATOM      4  C   UNL A   1      34.946  22.878  23.496  1.00  0.00     0.278 C 
ATOM      5  O   UNL A   1      34.578  23.324  22.399  1.00  0.00    -0.268 OA
ATOM      6  H   UNL A   1      36.731  22.632  22.699  1.00  0.00     0.163 HD
BRANCH   4   7
ATOM      7  C   UNL A   1      33.923  22.747  24.666  1.00  0.00     0.273 C 
BRANCH   7   8
ATOM      8  C   UNL A   1      33.439  24.004  25.416  1.00  0.00     0.072 C 
ATOM      9  C   UNL A   1      34.482  25.114  25.517  1.00  0.00     0.011 C 
ENDBRANCH   7   8
BRANCH   7  10
ATOM     10  N   UNL A   1      32.904  21.684  24.402  1.00  0.00    -0.325 N 
ATOM     11  C   UNL A   1      31.715  22.229  23.737  1.00  0.00     0.333 C 
ATOM     12  H   UNL A   1      32.741  21.415  25.372  1.00  0.00     0.348 HD
BRANCH  10  13
ATOM     13  C   UNL A   1      33.249  20.339  23.896  1.00  0.00     0.184 C 
ATOM     14  C   UNL A   1      33.966  19.417  24.901  1.00  0.00     0.071 C 
ATOM     15  C   UNL A   1      32.108  19.630  23.137  1.00  0.00     0.071 C 
ATOM     16  C   UNL A   1      34.324  18.060  24.287  1.00  0.00     0.071 C 
ATOM     17  C   UNL A   1      32.496  18.240  22.614  1.00  0.00     0.071 C 
ATOM     18  C   UNL A   1      33.099  17.339  23.708  1.00  0.00     0.182 C 
BRANCH  18  19
ATOM     19  N   UNL A   1      32.058  17.033  24.704  1.00  0.00    -0.346 N 
ATOM     20  C   UNL A   1      32.428  15.989  25.650  1.00  0.00     0.331 C 
ATOM     21  H   UNL A   1      31.219  16.732  24.209  1.00  0.00     0.346 HD
ATOM     22  H   UNL A   1      31.913  17.883  25.248  1.00  0.00     0.346 HD
ENDBRANCH  18  19
ENDBRANCH  10  13
ENDBRANCH   7  10
ENDBRANCH   4   7
ENDBRANCH   2   3
ENDBRANCH   1   2
BRANCH   1  23
ATOM     23  C   UNL A   1      38.108  19.768  24.904  1.00  0.00     0.023 C 
BRANCH  23  24
ATOM     24  C   UNL A   1      39.262  20.165  25.819  1.00  0.00     0.116 C 
BRANCH  24  25
ATOM     25  N   UNL A   1      40.388  19.245  25.774  1.00  0.00    -0.352 N 
ATOM     26  C   UNL A   1      41.698  19.493  26.113  1.00  0.00     0.251 C 
ATOM     27  H   UNL A   1      40.188  18.334  25.461  1.00  0.00     0.163 HD
ATOM     28  O   UNL A   1      42.558  18.642  25.949  1.00  0.00    -0.269 OA
BRANCH  26  29
ATOM     29  C   UNL A   1      42.054  20.826  26.640  1.00  0.00     0.039 A 
ATOM     30  C   UNL A   1      42.382  21.838  25.737  1.00  0.00     0.014 A 
ATOM     31  C   UNL A   1      42.024  21.080  28.014  1.00  0.00     0.014 A 
ATOM     32  C   UNL A   1      42.638  23.125  26.212  1.00  0.00     0.010 A 
ATOM     33  C   UNL A   1      42.201  22.377  28.478  1.00  0.00     0.010 A 
ATOM     34  C   UNL A   1      42.528  23.408  27.584  1.00  0.00    -0.014 A 
BRANCH  34  35
ATOM     35  C   UNL A   1      42.800  24.771  28.099  1.00  0.00     0.031 A 
ATOM     36  C   UNL A   1      44.210  25.182  28.420  1.00  0.00     0.074 A 
ATOM     37  C   UNL A   1      41.780  25.627  28.304  1.00  0.00     0.049 A 
ATOM     38  N   UNL A   1      44.656  26.331  28.861  1.00  0.00    -0.248 NA
ATOM     39  C   UNL A   1      45.256  24.160  28.250  1.00  0.00     0.031 C 
ATOM     40  C   UNL A   1      40.363  25.329  28.085  1.00  0.00     0.029 A 
ATOM     41  N   UNL A   1      41.784  26.928  28.740  1.00  0.00    -0.354 N 
ATOM     42  C   UNL A   1      46.024  26.162  29.033  1.00  0.00     0.074 A 
ATOM     43  C   UNL A   1      46.327  24.786  28.711  1.00  0.00     0.031 C 
ATOM     44  C   UNL A   1      39.638  26.430  28.348  1.00  0.00     0.029 A 
ATOM     45  C   UNL A   1      40.534  27.498  28.777  1.00  0.00     0.049 A 
ATOM     46  H   UNL A   1      42.603  27.406  29.002  1.00  0.00     0.167 HD
ATOM     47  C   UNL A   1      46.953  27.076  29.400  1.00  0.00     0.031 A 
ATOM     48  C   UNL A   1      40.159  28.748  29.106  1.00  0.00     0.031 A 
ATOM     49  C   UNL A   1      46.656  28.449  29.702  1.00  0.00     0.049 A 
ATOM     50  C   UNL A   1      41.211  29.751  29.488  1.00  0.00     0.074 A 
ATOM     51  C   UNL A   1      47.529  29.472  30.028  1.00  0.00     0.029 A 
ATOM     52  N   UNL A   1      45.381  28.992  29.713  1.00  0.00    -0.354 N 
ATOM     53  N   UNL A   1      42.510  29.598  29.569  1.00  0.00    -0.248 NA
ATOM     54  C   UNL A   1      40.742  31.108  29.804  1.00  0.00     0.031 C 
ATOM     55  C   UNL A   1      46.777  30.625  30.274  1.00  0.00     0.029 A 
ATOM     56  C   UNL A   1      45.440  30.332  30.054  1.00  0.00     0.049 A 
ATOM     57  H   UNL A   1      44.553  28.498  29.508  1.00  0.00     0.167 HD
ATOM     58  C   UNL A   1      43.017  30.842  29.921  1.00  0.00     0.074 A 
ATOM     59  C   UNL A   1      41.886  31.744  30.015  1.00  0.00     0.031 C 
ATOM     60  C   UNL A   1      44.302  31.209  30.147  1.00  0.00     0.031 A 
BRANCH  47  61
ATOM     61  C   UNL A   1      48.378  26.608  29.488  1.00  0.00    -0.014 A 
ATOM     62  C   UNL A   1      48.868  25.990  30.650  1.00  0.00     0.009 A 
ATOM     63  C   UNL A   1      49.242  26.781  28.396  1.00  0.00     0.009 A 
ATOM     64  C   UNL A   1      50.205  25.594  30.732  1.00  0.00     0.001 A 
ATOM     65  C   UNL A   1      50.570  26.357  28.470  1.00  0.00     0.001 A 
ATOM     66  C   UNL A   1      51.054  25.774  29.641  1.00  0.00     0.000 A 
ENDBRANCH  47  61
BRANCH  48  67
ATOM     67  C   UNL A   1      38.726  29.138  29.045  1.00  0.00    -0.014 A 
ATOM     68  C   UNL A   1      37.910  29.022  30.182  1.00  0.00     0.009 A 
ATOM     69  C   UNL A   1      38.164  29.615  27.852  1.00  0.00     0.009 A 
ATOM     70  C   UNL A   1      36.553  29.346  30.115  1.00  0.00     0.001 A 
ATOM     71  C   UNL A   1      36.813  29.964  27.796  1.00  0.00     0.001 A 
ATOM     72  C   UNL A   1      36.007  29.820  28.924  1.00  0.00     0.000 A 
ENDBRANCH  48  67
BRANCH  60  73
ATOM     73  C   UNL A   1      44.549  32.649  30.490  1.00  0.00    -0.014 A 
ATOM     74  C   UNL A   1      44.773  33.608  29.490  1.00  0.00     0.009 A 
ATOM     75  C   UNL A   1      44.536  33.056  31.833  1.00  0.00     0.009 A 
ATOM     76  C   UNL A   1      45.017  34.939  29.831  1.00  0.00     0.001 A 
ATOM     77  C   UNL A   1      44.751  34.393  32.170  1.00  0.00     0.001 A 
ATOM     78  C   UNL A   1      45.003  35.331  31.169  1.00  0.00     0.000 A 
ENDBRANCH  60  73
ENDBRANCH  34  35
ENDBRANCH  26  29
ENDBRANCH  24  25
ENDBRANCH  23  24
ENDBRANCH   1  23
TORSDOF 15
ENDMDL
