MODEL 1
REMARK VINA RESULT:      -8.8      0.000      0.000
REMARK SMILES CCN(CC)C(=O)[C@H](C)SCC(=O)NCCCCNC(=O)c1ccc(-c2c3nc(c(-c4ccccc4)c4ccc([nH]4)c(-c4ccccc4)c4nc(c(-c5ccccc5)c5ccc2[nH]5)C=C4)C=C3)cc1
REMARK SMILES IDX 15 1 14 2 12 3 13 4 11 6 10 7 8 8 9 9 6 10 3 11 7 12 2 13
REMARK SMILES IDX 1 14 4 15 5 16 16 17 17 18 18 19 19 20 20 21 21 23 22 24
REMARK SMILES IDX 23 25 69 26 24 27 68 28 25 29 26 30 27 31 62 32 28 33 67 34
REMARK SMILES IDX 61 35 63 36 29 37 66 38 60 39 59 40 30 42 52 43 37 44 51 45
REMARK SMILES IDX 38 46 41 47 50 48 64 49 39 50 40 51 49 53 65 54 42 55 31 56
REMARK SMILES IDX 32 57 36 58 33 59 35 60 34 61 53 62 54 63 58 64 55 65 57 66
REMARK SMILES IDX 56 67 43 68 44 69 48 70 45 71 47 72 46 73
REMARK H PARENT 14 5 19 22 63 41 41 52
REMARK Flexibility Score: inf
ROOT
ATOM      1  C   UNL A   1      32.866  35.678  29.323  1.00  0.00     0.116 C 
ENDROOT
BRANCH   1   2
ATOM      2  N   UNL A   1      32.675  36.726  30.307  1.00  0.00    -0.355 N 
ATOM      3  C   UNL A   1      32.888  36.766  31.651  1.00  0.00     0.230 C 
ATOM      4  O   UNL A   1      32.907  37.889  32.165  1.00  0.00    -0.274 OA
ATOM      5  H   UNL A   1      32.325  37.567  29.933  1.00  0.00     0.163 HD
BRANCH   3   6
ATOM      6  C   UNL A   1      33.187  35.543  32.482  1.00  0.00     0.170 C 
BRANCH   6   7
ATOM      7  S   UNL A   1      34.857  35.327  33.167  1.00  0.00    -0.139 SA
BRANCH   7   8
ATOM      8  C   UNL A   1      35.221  33.521  33.337  1.00  0.00     0.133 C 
ATOM      9  C   UNL A   1      34.405  32.703  32.336  1.00  0.00     0.030 C 
BRANCH   8  10
ATOM     10  C   UNL A   1      36.690  33.123  33.319  1.00  0.00     0.235 C 
ATOM     11  N   UNL A   1      37.511  33.414  34.414  1.00  0.00    -0.342 N 
ATOM     12  O   UNL A   1      37.135  32.509  32.344  1.00  0.00    -0.274 OA
BRANCH  11  13
ATOM     13  C   UNL A   1      38.935  33.107  34.219  1.00  0.00     0.116 C 
ATOM     14  C   UNL A   1      39.742  34.299  33.728  1.00  0.00     0.027 C 
ENDBRANCH  11  13
BRANCH  11  15
ATOM     15  C   UNL A   1      37.084  33.590  35.813  1.00  0.00     0.116 C 
ATOM     16  C   UNL A   1      37.938  33.030  36.938  1.00  0.00     0.027 C 
ENDBRANCH  11  15
ENDBRANCH   8  10
ENDBRANCH   7   8
ENDBRANCH   6   7
ENDBRANCH   3   6
ENDBRANCH   1   2
BRANCH   1  17
ATOM     17  C   UNL A   1      34.327  35.461  28.922  1.00  0.00     0.023 C 
BRANCH  17  18
ATOM     18  C   UNL A   1      34.921  34.087  29.217  1.00  0.00     0.023 C 
BRANCH  18  19
ATOM     19  C   UNL A   1      35.189  33.263  27.978  1.00  0.00     0.116 C 
BRANCH  19  20
ATOM     20  N   UNL A   1      34.256  32.157  27.838  1.00  0.00    -0.352 N 
ATOM     21  C   UNL A   1      34.490  30.805  27.928  1.00  0.00     0.251 C 
ATOM     22  H   UNL A   1      33.323  32.412  27.654  1.00  0.00     0.163 HD
ATOM     23  O   UNL A   1      33.616  30.007  27.625  1.00  0.00    -0.269 OA
BRANCH  21  24
ATOM     24  C   UNL A   1      35.820  30.328  28.362  1.00  0.00     0.039 A 
ATOM     25  C   UNL A   1      35.966  29.808  29.649  1.00  0.00     0.014 A 
ATOM     26  C   UNL A   1      36.912  30.376  27.494  1.00  0.00     0.014 A 
ATOM     27  C   UNL A   1      37.203  29.304  30.047  1.00  0.00     0.010 A 
ATOM     28  C   UNL A   1      38.099  29.752  27.841  1.00  0.00     0.010 A 
ATOM     29  C   UNL A   1      38.271  29.251  29.137  1.00  0.00    -0.014 A 
BRANCH  29  30
ATOM     30  C   UNL A   1      39.602  28.747  29.541  1.00  0.00     0.031 A 
ATOM     31  C   UNL A   1      40.444  29.558  30.492  1.00  0.00     0.074 A 
ATOM     32  C   UNL A   1      40.062  27.592  29.024  1.00  0.00     0.049 A 
ATOM     33  N   UNL A   1      41.639  29.305  30.958  1.00  0.00    -0.248 NA
ATOM     34  C   UNL A   1      39.886  30.843  30.954  1.00  0.00     0.031 C 
ATOM     35  C   UNL A   1      39.358  26.759  28.045  1.00  0.00     0.029 A 
ATOM     36  N   UNL A   1      41.231  26.917  29.255  1.00  0.00    -0.354 N 
ATOM     37  C   UNL A   1      41.979  30.404  31.737  1.00  0.00     0.074 A 
ATOM     38  C   UNL A   1      40.901  31.358  31.628  1.00  0.00     0.031 C 
ATOM     39  C   UNL A   1      40.089  25.659  27.799  1.00  0.00     0.029 A 
ATOM     40  C   UNL A   1      41.326  25.732  28.568  1.00  0.00     0.049 A 
ATOM     41  H   UNL A   1      41.936  27.249  29.857  1.00  0.00     0.167 HD
ATOM     42  C   UNL A   1      43.077  30.590  32.505  1.00  0.00     0.031 A 
ATOM     43  C   UNL A   1      42.303  24.806  28.565  1.00  0.00     0.031 A 
ATOM     44  C   UNL A   1      44.128  29.620  32.632  1.00  0.00     0.049 A 
ATOM     45  C   UNL A   1      43.500  25.024  29.449  1.00  0.00     0.074 A 
ATOM     46  C   UNL A   1      45.255  29.669  33.432  1.00  0.00     0.029 A 
ATOM     47  N   UNL A   1      44.176  28.420  31.939  1.00  0.00    -0.354 N 
ATOM     48  N   UNL A   1      43.769  26.032  30.246  1.00  0.00    -0.248 NA
ATOM     49  C   UNL A   1      44.517  23.965  29.451  1.00  0.00     0.031 C 
ATOM     50  C   UNL A   1      46.013  28.522  33.180  1.00  0.00     0.029 A 
ATOM     51  C   UNL A   1      45.325  27.728  32.275  1.00  0.00     0.049 A 
ATOM     52  H   UNL A   1      43.493  28.108  31.301  1.00  0.00     0.167 HD
ATOM     53  C   UNL A   1      44.970  25.714  30.866  1.00  0.00     0.074 A 
ATOM     54  C   UNL A   1      45.361  24.410  30.370  1.00  0.00     0.031 C 
ATOM     55  C   UNL A   1      45.688  26.432  31.765  1.00  0.00     0.031 A 
BRANCH  42  56
ATOM     56  C   UNL A   1      43.190  31.887  33.258  1.00  0.00    -0.014 A 
ATOM     57  C   UNL A   1      42.738  32.010  34.582  1.00  0.00     0.009 A 
ATOM     58  C   UNL A   1      43.783  33.001  32.643  1.00  0.00     0.009 A 
ATOM     59  C   UNL A   1      42.842  33.226  35.260  1.00  0.00     0.001 A 
ATOM     60  C   UNL A   1      43.918  34.206  33.332  1.00  0.00     0.001 A 
ATOM     61  C   UNL A   1      43.439  34.322  34.636  1.00  0.00     0.000 A 
ENDBRANCH  42  56
BRANCH  43  62
ATOM     62  C   UNL A   1      42.179  23.585  27.726  1.00  0.00    -0.014 A 
ATOM     63  C   UNL A   1      42.690  23.558  26.418  1.00  0.00     0.009 A 
ATOM     64  C   UNL A   1      41.538  22.441  28.224  1.00  0.00     0.009 A 
ATOM     65  C   UNL A   1      42.526  22.426  25.616  1.00  0.00     0.001 A 
ATOM     66  C   UNL A   1      41.406  21.298  27.432  1.00  0.00     0.001 A 
ATOM     67  C   UNL A   1      41.888  21.296  26.124  1.00  0.00     0.000 A 
ENDBRANCH  43  62
BRANCH  55  68
ATOM     68  C   UNL A   1      46.940  25.797  32.298  1.00  0.00    -0.014 A 
ATOM     69  C   UNL A   1      48.177  25.960  31.655  1.00  0.00     0.009 A 
ATOM     70  C   UNL A   1      46.882  25.043  33.480  1.00  0.00     0.009 A 
ATOM     71  C   UNL A   1      49.320  25.336  32.158  1.00  0.00     0.001 A 
ATOM     72  C   UNL A   1      48.032  24.453  34.002  1.00  0.00     0.001 A 
ATOM     73  C   UNL A   1      49.246  24.588  33.333  1.00  0.00     0.000 A 
ENDBRANCH  55  68
ENDBRANCH  29  30
ENDBRANCH  21  24
ENDBRANCH  19  20
ENDBRANCH  18  19
ENDBRANCH  17  18
ENDBRANCH   1  17
TORSDOF 16
ENDMDL
MODEL 2
REMARK VINA RESULT:      -8.5      4.070      9.591
REMARK SMILES CCN(CC)C(=O)[C@H](C)SCC(=O)NCCCCNC(=O)c1ccc(-c2c3nc(c(-c4ccccc4)c4ccc([nH]4)c(-c4ccccc4)c4nc(c(-c5ccccc5)c5ccc2[nH]5)C=C4)C=C3)cc1
REMARK SMILES IDX 15 1 14 2 12 3 13 4 11 6 10 7 8 8 9 9 6 10 3 11 7 12 2 13
REMARK SMILES IDX 1 14 4 15 5 16 16 17 17 18 18 19 19 20 20 21 21 23 22 24
REMARK SMILES IDX 23 25 69 26 24 27 68 28 25 29 26 30 27 31 62 32 28 33 67 34
REMARK SMILES IDX 61 35 63 36 29 37 66 38 60 39 59 40 30 42 52 43 37 44 51 45
REMARK SMILES IDX 38 46 41 47 50 48 64 49 39 50 40 51 49 53 65 54 42 55 31 56
REMARK SMILES IDX 32 57 36 58 33 59 35 60 34 61 53 62 54 63 58 64 55 65 57 66
REMARK SMILES IDX 56 67 43 68 44 69 48 70 45 71 47 72 46 73
REMARK H PARENT 14 5 19 22 63 41 41 52
REMARK Flexibility Score: inf
ROOT
ATOM      1  C   UNL A   1      32.824  29.830  25.878  1.00  0.00     0.116 C 
ENDROOT
BRANCH   1   2
ATOM      2  N   UNL A   1      33.179  29.721  24.476  1.00  0.00    -0.355 N 
ATOM      3  C   UNL A   1      33.495  28.652  23.695  1.00  0.00     0.230 C 
ATOM      4  O   UNL A   1      33.465  28.842  22.476  1.00  0.00    -0.274 OA
ATOM      5  H   UNL A   1      33.194  30.582  23.999  1.00  0.00     0.163 HD
BRANCH   3   6
ATOM      6  C   UNL A   1      33.773  27.274  24.245  1.00  0.00     0.170 C 
BRANCH   6   7
ATOM      7  S   UNL A   1      32.763  25.875  23.675  1.00  0.00    -0.139 SA
BRANCH   7   8
ATOM      8  C   UNL A   1      32.809  24.528  24.943  1.00  0.00     0.133 C 
ATOM      9  C   UNL A   1      32.197  24.999  26.262  1.00  0.00     0.030 C 
BRANCH   8  10
ATOM     10  C   UNL A   1      32.250  23.178  24.517  1.00  0.00     0.235 C 
ATOM     11  N   UNL A   1      33.101  22.195  24.002  1.00  0.00    -0.342 N 
ATOM     12  O   UNL A   1      31.044  22.953  24.666  1.00  0.00    -0.274 OA
BRANCH  11  13
ATOM     13  C   UNL A   1      32.425  20.992  23.497  1.00  0.00     0.116 C 
ATOM     14  C   UNL A   1      32.745  19.743  24.303  1.00  0.00     0.027 C 
ENDBRANCH  11  13
BRANCH  11  15
ATOM     15  C   UNL A   1      34.542  22.048  24.273  1.00  0.00     0.116 C 
ATOM     16  C   UNL A   1      35.548  22.836  23.451  1.00  0.00     0.027 C 
ENDBRANCH  11  15
ENDBRANCH   8  10
ENDBRANCH   7   8
ENDBRANCH   6   7
ENDBRANCH   3   6
ENDBRANCH   1   2
BRANCH   1  17
ATOM     17  C   UNL A   1      31.446  30.450  26.125  1.00  0.00     0.023 C 
BRANCH  17  18
ATOM     18  C   UNL A   1      31.412  31.946  26.419  1.00  0.00     0.023 C 
BRANCH  18  19
ATOM     19  C   UNL A   1      32.653  32.456  27.116  1.00  0.00     0.116 C 
BRANCH  19  20
ATOM     20  N   UNL A   1      32.474  33.795  27.653  1.00  0.00    -0.352 N 
ATOM     21  C   UNL A   1      33.214  34.456  28.605  1.00  0.00     0.251 C 
ATOM     22  H   UNL A   1      31.716  34.302  27.283  1.00  0.00     0.163 HD
ATOM     23  O   UNL A   1      32.826  35.524  29.055  1.00  0.00    -0.269 OA
BRANCH  21  24
ATOM     24  C   UNL A   1      34.466  33.846  29.101  1.00  0.00     0.039 A 
ATOM     25  C   UNL A   1      35.678  34.211  28.512  1.00  0.00     0.014 A 
ATOM     26  C   UNL A   1      34.444  32.933  30.157  1.00  0.00     0.014 A 
ATOM     27  C   UNL A   1      36.867  33.684  29.012  1.00  0.00     0.010 A 
ATOM     28  C   UNL A   1      35.630  32.518  30.738  1.00  0.00     0.010 A 
ATOM     29  C   UNL A   1      36.852  32.853  30.143  1.00  0.00    -0.014 A 
BRANCH  29  30
ATOM     30  C   UNL A   1      38.097  32.257  30.676  1.00  0.00     0.031 A 
ATOM     31  C   UNL A   1      38.627  30.983  30.072  1.00  0.00     0.074 A 
ATOM     32  C   UNL A   1      38.719  32.837  31.721  1.00  0.00     0.049 A 
ATOM     33  N   UNL A   1      39.688  30.292  30.400  1.00  0.00    -0.248 NA
ATOM     34  C   UNL A   1      37.843  30.383  28.977  1.00  0.00     0.031 C 
ATOM     35  C   UNL A   1      38.258  34.037  32.424  1.00  0.00     0.029 A 
ATOM     36  N   UNL A   1      39.878  32.497  32.368  1.00  0.00    -0.354 N 
ATOM     37  C   UNL A   1      39.677  29.174  29.575  1.00  0.00     0.074 A 
ATOM     38  C   UNL A   1      38.474  29.236  28.781  1.00  0.00     0.031 C 
ATOM     39  C   UNL A   1      39.153  34.360  33.373  1.00  0.00     0.029 A 
ATOM     40  C   UNL A   1      40.223  33.369  33.370  1.00  0.00     0.049 A 
ATOM     41  H   UNL A   1      40.412  31.703  32.135  1.00  0.00     0.167 HD
ATOM     42  C   UNL A   1      40.606  28.196  29.463  1.00  0.00     0.031 A 
ATOM     43  C   UNL A   1      41.289  33.368  34.192  1.00  0.00     0.031 A 
ATOM     44  C   UNL A   1      41.816  28.161  30.235  1.00  0.00     0.049 A 
ATOM     45  C   UNL A   1      42.321  32.287  34.027  1.00  0.00     0.074 A 
ATOM     46  C   UNL A   1      42.861  27.259  30.160  1.00  0.00     0.029 A 
ATOM     47  N   UNL A   1      42.142  29.077  31.224  1.00  0.00    -0.354 N 
ATOM     48  N   UNL A   1      42.339  31.280  33.185  1.00  0.00    -0.248 NA
ATOM     49  C   UNL A   1      43.491  32.354  34.911  1.00  0.00     0.031 C 
ATOM     50  C   UNL A   1      43.795  27.597  31.144  1.00  0.00     0.029 A 
ATOM     51  C   UNL A   1      43.364  28.750  31.784  1.00  0.00     0.049 A 
ATOM     52  H   UNL A   1      41.586  29.845  31.489  1.00  0.00     0.167 HD
ATOM     53  C   UNL A   1      43.534  30.613  33.417  1.00  0.00     0.074 A 
ATOM     54  C   UNL A   1      44.223  31.346  34.461  1.00  0.00     0.031 C 
ATOM     55  C   UNL A   1      44.023  29.497  32.823  1.00  0.00     0.031 A 
BRANCH  42  56
ATOM     56  C   UNL A   1      40.342  27.093  28.475  1.00  0.00    -0.014 A 
ATOM     57  C   UNL A   1      39.578  25.966  28.818  1.00  0.00     0.009 A 
ATOM     58  C   UNL A   1      40.846  27.195  27.168  1.00  0.00     0.009 A 
ATOM     59  C   UNL A   1      39.355  24.948  27.888  1.00  0.00     0.001 A 
ATOM     60  C   UNL A   1      40.593  26.193  26.230  1.00  0.00     0.001 A 
ATOM     61  C   UNL A   1      39.857  25.066  26.593  1.00  0.00     0.000 A 
ENDBRANCH  42  56
BRANCH  43  62
ATOM     62  C   UNL A   1      41.449  34.434  35.216  1.00  0.00    -0.014 A 
ATOM     63  C   UNL A   1      40.914  34.278  36.504  1.00  0.00     0.009 A 
ATOM     64  C   UNL A   1      42.131  35.622  34.908  1.00  0.00     0.009 A 
ATOM     65  C   UNL A   1      41.023  35.303  37.447  1.00  0.00     0.001 A 
ATOM     66  C   UNL A   1      42.269  36.631  35.863  1.00  0.00     0.001 A 
ATOM     67  C   UNL A   1      41.703  36.477  37.128  1.00  0.00     0.000 A 
ENDBRANCH  43  62
BRANCH  55  68
ATOM     68  C   UNL A   1      45.383  29.034  33.261  1.00  0.00    -0.014 A 
ATOM     69  C   UNL A   1      45.541  28.049  34.248  1.00  0.00     0.009 A 
ATOM     70  C   UNL A   1      46.526  29.578  32.653  1.00  0.00     0.009 A 
ATOM     71  C   UNL A   1      46.818  27.657  34.654  1.00  0.00     0.001 A 
ATOM     72  C   UNL A   1      47.799  29.156  33.033  1.00  0.00     0.001 A 
ATOM     73  C   UNL A   1      47.944  28.208  34.043  1.00  0.00     0.000 A 
ENDBRANCH  55  68
ENDBRANCH  29  30
ENDBRANCH  21  24
ENDBRANCH  19  20
ENDBRANCH  18  19
ENDBRANCH  17  18
ENDBRANCH   1  17
TORSDOF 16
ENDMDL
MODEL 3
REMARK VINA RESULT:      -8.4      3.691      6.762
REMARK SMILES CCN(CC)C(=O)[C@H](C)SCC(=O)NCCCCNC(=O)c1ccc(-c2c3nc(c(-c4ccccc4)c4ccc([nH]4)c(-c4ccccc4)c4nc(c(-c5ccccc5)c5ccc2[nH]5)C=C4)C=C3)cc1
REMARK SMILES IDX 15 1 14 2 12 3 13 4 11 6 10 7 8 8 9 9 6 10 3 11 7 12 2 13
REMARK SMILES IDX 1 14 4 15 5 16 16 17 17 18 18 19 19 20 20 21 21 23 22 24
REMARK SMILES IDX 23 25 69 26 24 27 68 28 25 29 26 30 27 31 62 32 28 33 67 34
REMARK SMILES IDX 61 35 63 36 29 37 66 38 60 39 59 40 30 42 52 43 37 44 51 45
REMARK SMILES IDX 38 46 41 47 50 48 64 49 39 50 40 51 49 53 65 54 42 55 31 56
REMARK SMILES IDX 32 57 36 58 33 59 35 60 34 61 53 62 54 63 58 64 55 65 57 66
REMARK SMILES IDX 56 67 43 68 44 69 48 70 45 71 47 72 46 73
REMARK H PARENT 14 5 19 22 63 41 41 52
REMARK Flexibility Score: inf
ROOT
ATOM      1  C   UNL A   1      32.927  30.070  26.209  1.00  0.00     0.116 C 
ENDROOT
BRANCH   1   2
ATOM      2  N   UNL A   1      33.238  29.804  24.817  1.00  0.00    -0.355 N 
ATOM      3  C   UNL A   1      32.831  28.825  23.962  1.00  0.00     0.230 C 
ATOM      4  O   UNL A   1      33.038  29.032  22.763  1.00  0.00    -0.274 OA
ATOM      5  H   UNL A   1      33.859  30.454  24.415  1.00  0.00     0.163 HD
BRANCH   3   6
ATOM      6  C   UNL A   1      32.081  27.593  24.406  1.00  0.00     0.170 C 
BRANCH   6   7
ATOM      7  S   UNL A   1      32.600  26.742  25.924  1.00  0.00    -0.139 SA
BRANCH   7   8
ATOM      8  C   UNL A   1      31.866  25.044  25.957  1.00  0.00     0.133 C 
ATOM      9  C   UNL A   1      30.342  25.106  25.863  1.00  0.00     0.030 C 
BRANCH   8  10
ATOM     10  C   UNL A   1      32.447  24.036  24.976  1.00  0.00     0.235 C 
ATOM     11  N   UNL A   1      33.620  23.343  25.291  1.00  0.00    -0.342 N 
ATOM     12  O   UNL A   1      31.849  23.814  23.917  1.00  0.00    -0.274 OA
BRANCH  11  13
ATOM     13  C   UNL A   1      34.156  22.507  24.208  1.00  0.00     0.116 C 
ATOM     14  C   UNL A   1      35.303  23.164  23.456  1.00  0.00     0.027 C 
ENDBRANCH  11  13
BRANCH  11  15
ATOM     15  C   UNL A   1      34.128  23.038  26.640  1.00  0.00     0.116 C 
ATOM     16  C   UNL A   1      34.240  21.593  27.095  1.00  0.00     0.027 C 
ENDBRANCH  11  15
ENDBRANCH   8  10
ENDBRANCH   7   8
ENDBRANCH   6   7
ENDBRANCH   3   6
ENDBRANCH   1   2
BRANCH   1  17
ATOM     17  C   UNL A   1      31.522  30.633  26.436  1.00  0.00     0.023 C 
BRANCH  17  18
ATOM     18  C   UNL A   1      31.417  32.136  26.676  1.00  0.00     0.023 C 
BRANCH  18  19
ATOM     19  C   UNL A   1      32.716  32.771  27.115  1.00  0.00     0.116 C 
BRANCH  19  20
ATOM     20  N   UNL A   1      32.512  34.061  27.756  1.00  0.00    -0.352 N 
ATOM     21  C   UNL A   1      33.242  34.661  28.754  1.00  0.00     0.251 C 
ATOM     22  H   UNL A   1      31.741  34.578  27.427  1.00  0.00     0.163 HD
ATOM     23  O   UNL A   1      32.833  35.682  29.286  1.00  0.00    -0.269 OA
BRANCH  21  24
ATOM     24  C   UNL A   1      34.508  34.041  29.198  1.00  0.00     0.039 A 
ATOM     25  C   UNL A   1      34.487  33.148  30.271  1.00  0.00     0.014 A 
ATOM     26  C   UNL A   1      35.708  34.327  28.544  1.00  0.00     0.014 A 
ATOM     27  C   UNL A   1      35.667  32.517  30.658  1.00  0.00     0.010 A 
ATOM     28  C   UNL A   1      36.848  33.599  28.841  1.00  0.00     0.010 A 
ATOM     29  C   UNL A   1      36.850  32.721  29.931  1.00  0.00    -0.014 A 
BRANCH  29  30
ATOM     30  C   UNL A   1      38.123  32.086  30.338  1.00  0.00     0.031 A 
ATOM     31  C   UNL A   1      38.982  32.750  31.382  1.00  0.00     0.074 A 
ATOM     32  C   UNL A   1      38.518  30.944  29.743  1.00  0.00     0.049 A 
ATOM     33  N   UNL A   1      40.135  32.370  31.867  1.00  0.00    -0.248 NA
ATOM     34  C   UNL A   1      38.501  34.033  31.930  1.00  0.00     0.031 C 
ATOM     35  C   UNL A   1      37.796  30.249  28.674  1.00  0.00     0.029 A 
ATOM     36  N   UNL A   1      39.624  30.165  29.958  1.00  0.00    -0.354 N 
ATOM     37  C   UNL A   1      40.522  33.373  32.747  1.00  0.00     0.074 A 
ATOM     38  C   UNL A   1      39.523  34.412  32.680  1.00  0.00     0.031 C 
ATOM     39  C   UNL A   1      38.454  29.120  28.362  1.00  0.00     0.029 A 
ATOM     40  C   UNL A   1      39.660  29.036  29.177  1.00  0.00     0.049 A 
ATOM     41  H   UNL A   1      40.325  30.393  30.610  1.00  0.00     0.167 HD
ATOM     42  C   UNL A   1      41.599  33.413  33.565  1.00  0.00     0.031 A 
ATOM     43  C   UNL A   1      40.566  28.041  29.132  1.00  0.00     0.031 A 
ATOM     44  C   UNL A   1      42.569  32.358  33.648  1.00  0.00     0.049 A 
ATOM     45  C   UNL A   1      41.738  28.094  30.073  1.00  0.00     0.074 A 
ATOM     46  C   UNL A   1      43.663  32.256  34.488  1.00  0.00     0.029 A 
ATOM     47  N   UNL A   1      42.558  31.217  32.859  1.00  0.00    -0.354 N 
ATOM     48  N   UNL A   1      42.047  29.011  30.959  1.00  0.00    -0.248 NA
ATOM     49  C   UNL A   1      42.673  26.964  30.022  1.00  0.00     0.031 C 
ATOM     50  C   UNL A   1      44.345  31.078  34.168  1.00  0.00     0.029 A 
ATOM     51  C   UNL A   1      43.638  30.414  33.177  1.00  0.00     0.049 A 
ATOM     52  H   UNL A   1      41.881  31.011  32.174  1.00  0.00     0.167 HD
ATOM     53  C   UNL A   1      43.195  28.554  31.593  1.00  0.00     0.074 A 
ATOM     54  C   UNL A   1      43.509  27.267  31.004  1.00  0.00     0.031 C 
ATOM     55  C   UNL A   1      43.925  29.139  32.573  1.00  0.00     0.031 A 
BRANCH  42  56
ATOM     56  C   UNL A   1      41.776  34.632  34.428  1.00  0.00    -0.014 A 
ATOM     57  C   UNL A   1      41.287  34.678  35.744  1.00  0.00     0.009 A 
ATOM     58  C   UNL A   1      42.465  35.746  33.925  1.00  0.00     0.009 A 
ATOM     59  C   UNL A   1      41.452  35.825  36.524  1.00  0.00     0.001 A 
ATOM     60  C   UNL A   1      42.660  36.879  34.717  1.00  0.00     0.001 A 
ATOM     61  C   UNL A   1      42.145  36.922  36.012  1.00  0.00     0.000 A 
ENDBRANCH  42  56
BRANCH  43  62
ATOM     62  C   UNL A   1      40.387  26.905  28.190  1.00  0.00    -0.014 A 
ATOM     63  C   UNL A   1      39.665  25.763  28.570  1.00  0.00     0.009 A 
ATOM     64  C   UNL A   1      40.950  26.951  26.905  1.00  0.00     0.009 A 
ATOM     65  C   UNL A   1      39.543  24.677  27.699  1.00  0.00     0.001 A 
ATOM     66  C   UNL A   1      40.797  25.879  26.023  1.00  0.00     0.001 A 
ATOM     67  C   UNL A   1      40.106  24.737  26.425  1.00  0.00     0.000 A 
ENDBRANCH  43  62
BRANCH  55  68
ATOM     68  C   UNL A   1      45.105  28.370  33.095  1.00  0.00    -0.014 A 
ATOM     69  C   UNL A   1      46.389  28.538  32.555  1.00  0.00     0.009 A 
ATOM     70  C   UNL A   1      44.928  27.478  34.165  1.00  0.00     0.009 A 
ATOM     71  C   UNL A   1      47.462  27.790  33.041  1.00  0.00     0.001 A 
ATOM     72  C   UNL A   1      46.009  26.761  34.675  1.00  0.00     0.001 A 
ATOM     73  C   UNL A   1      47.271  26.906  34.103  1.00  0.00     0.000 A 
ENDBRANCH  55  68
ENDBRANCH  29  30
ENDBRANCH  21  24
ENDBRANCH  19  20
ENDBRANCH  18  19
ENDBRANCH  17  18
ENDBRANCH   1  17
TORSDOF 16
ENDMDL
