MODEL 1
REMARK VINA RESULT:     -10.0      0.000      0.000
REMARK SMILES COc1ccc(OC)c(C[NH2+][C@@H](C(=O)NCCCCNC(=O)c2ccc(-c3c4nc(c(-c5ccccc5)c5ccc([nH]5)c(-c5ccccc5)c5nc(c(-c6ccccc6)c6ccc3[nH]6)C=C5)C=C4)cc2)C(C)C)c1
REMARK SMILES IDX 16 1 15 2 13 3 14 4 12 6 11 7 10 10 9 11 3 12 4 13 74 14
REMARK SMILES IDX 5 15 6 16 2 17 1 18 7 19 8 20 71 21 72 22 73 23 17 24 18 25
REMARK SMILES IDX 19 26 20 27 21 28 22 30 23 31 24 32 70 33 25 34 69 35 26 36
REMARK SMILES IDX 27 37 28 38 63 39 29 40 68 41 62 42 64 43 30 44 67 45 61 46
REMARK SMILES IDX 60 47 31 49 53 50 38 51 52 52 39 53 42 54 51 55 65 56 40 57
REMARK SMILES IDX 41 58 50 60 66 61 43 62 32 63 33 64 37 65 34 66 36 67 35 68
REMARK SMILES IDX 54 69 55 70 59 71 56 72 58 73 57 74 44 75 45 76 49 77 46 78
REMARK SMILES IDX 48 79 47 80
REMARK H PARENT 15 5 11 8 11 9 20 29 64 48 42 59
REMARK Flexibility Score: inf
ROOT
ATOM      1  C   UNL A   1      32.190  29.828  25.614  1.00  0.00     0.116 C 
ENDROOT
BRANCH   1   2
ATOM      2  N   UNL A   1      31.833  29.041  26.787  1.00  0.00    -0.351 N 
ATOM      3  C   UNL A   1      31.518  27.715  26.941  1.00  0.00     0.278 C 
ATOM      4  O   UNL A   1      31.128  27.369  28.059  1.00  0.00    -0.268 OA
ATOM      5  H   UNL A   1      31.814  29.558  27.625  1.00  0.00     0.163 HD
BRANCH   3   6
ATOM      6  C   UNL A   1      31.601  26.702  25.751  1.00  0.00     0.275 C 
BRANCH   6   7
ATOM      7  N   UNL A   1      30.278  26.035  25.512  1.00  0.00    -0.332 N 
ATOM      8  H   UNL A   1      30.322  25.072  25.844  1.00  0.00     0.347 HD
ATOM      9  H   UNL A   1      29.554  26.548  26.015  1.00  0.00     0.347 HD
BRANCH   7  10
ATOM     10  C   UNL A   1      29.961  26.038  24.099  1.00  0.00     0.302 C 
BRANCH  10  11
ATOM     11  C   UNL A   1      29.877  27.322  23.321  1.00  0.00     0.052 A 
ATOM     12  C   UNL A   1      28.536  29.362  23.022  1.00  0.00     0.119 A 
ATOM     13  C   UNL A   1      29.562  29.922  22.275  1.00  0.00     0.050 A 
ATOM     14  C   UNL A   1      28.682  28.065  23.504  1.00  0.00     0.059 A 
ATOM     15  C   UNL A   1      30.745  29.205  22.067  1.00  0.00     0.051 A 
ATOM     16  C   UNL A   1      30.923  27.925  22.614  1.00  0.00     0.127 A 
BRANCH  12  17
ATOM     17  O   UNL A   1      27.410  30.117  23.204  1.00  0.00    -0.497 OA
ATOM     18  C   UNL A   1      27.653  31.522  23.284  1.00  0.00     0.278 C 
ENDBRANCH  12  17
BRANCH  16  19
ATOM     19  O   UNL A   1      32.132  27.350  22.339  1.00  0.00    -0.496 OA
ATOM     20  C   UNL A   1      33.249  28.230  22.411  1.00  0.00     0.278 C 
ENDBRANCH  16  19
ENDBRANCH  10  11
ENDBRANCH   7  10
ENDBRANCH   6   7
BRANCH   6  21
ATOM     21  C   UNL A   1      32.655  25.600  26.064  1.00  0.00     0.051 C 
ATOM     22  C   UNL A   1      32.005  24.275  26.486  1.00  0.00     0.014 C 
ATOM     23  C   UNL A   1      33.567  25.333  24.859  1.00  0.00     0.014 C 
ENDBRANCH   6  21
ENDBRANCH   3   6
ENDBRANCH   1   2
BRANCH   1  24
ATOM     24  C   UNL A   1      31.153  30.920  25.314  1.00  0.00     0.023 C 
BRANCH  24  25
ATOM     25  C   UNL A   1      30.982  31.982  26.388  1.00  0.00     0.023 C 
BRANCH  25  26
ATOM     26  C   UNL A   1      32.293  32.559  26.877  1.00  0.00     0.116 C 
BRANCH  26  27
ATOM     27  N   UNL A   1      32.153  33.898  27.440  1.00  0.00    -0.352 N 
ATOM     28  C   UNL A   1      32.950  34.541  28.363  1.00  0.00     0.251 C 
ATOM     29  H   UNL A   1      31.380  34.414  27.116  1.00  0.00     0.163 HD
ATOM     30  O   UNL A   1      32.634  35.627  28.812  1.00  0.00    -0.269 OA
BRANCH  28  31
ATOM     31  C   UNL A   1      34.175  33.859  28.832  1.00  0.00     0.039 A 
ATOM     32  C   UNL A   1      35.418  34.334  28.411  1.00  0.00     0.014 A 
ATOM     33  C   UNL A   1      34.088  32.810  29.747  1.00  0.00     0.014 A 
ATOM     34  C   UNL A   1      36.578  33.810  28.980  1.00  0.00     0.010 A 
ATOM     35  C   UNL A   1      35.232  32.372  30.395  1.00  0.00     0.010 A 
ATOM     36  C   UNL A   1      36.491  32.859  30.010  1.00  0.00    -0.014 A 
BRANCH  36  37
ATOM     37  C   UNL A   1      37.697  32.324  30.685  1.00  0.00     0.031 A 
ATOM     38  C   UNL A   1      38.390  31.119  30.108  1.00  0.00     0.074 A 
ATOM     39  C   UNL A   1      38.119  32.861  31.846  1.00  0.00     0.049 A 
ATOM     40  N   UNL A   1      39.383  30.423  30.599  1.00  0.00    -0.248 NA
ATOM     41  C   UNL A   1      37.870  30.603  28.829  1.00  0.00     0.031 C 
ATOM     42  C   UNL A   1      37.503  34.000  32.534  1.00  0.00     0.029 A 
ATOM     43  N   UNL A   1      39.168  32.514  32.658  1.00  0.00    -0.354 N 
ATOM     44  C   UNL A   1      39.582  29.376  29.707  1.00  0.00     0.074 A 
ATOM     45  C   UNL A   1      38.571  29.490  28.680  1.00  0.00     0.031 C 
ATOM     46  C   UNL A   1      38.209  34.277  33.643  1.00  0.00     0.029 A 
ATOM     47  C   UNL A   1      39.299  33.315  33.766  1.00  0.00     0.049 A 
ATOM     48  H   UNL A   1      39.771  31.760  32.464  1.00  0.00     0.167 HD
ATOM     49  C   UNL A   1      40.539  28.421  29.722  1.00  0.00     0.031 A 
ATOM     50  C   UNL A   1      40.196  33.275  34.767  1.00  0.00     0.031 A 
ATOM     51  C   UNL A   1      41.570  28.333  30.717  1.00  0.00     0.049 A 
ATOM     52  C   UNL A   1      41.264  32.215  34.749  1.00  0.00     0.074 A 
ATOM     53  C   UNL A   1      42.623  27.438  30.793  1.00  0.00     0.029 A 
ATOM     54  N   UNL A   1      41.686  29.187  31.803  1.00  0.00    -0.354 N 
ATOM     55  N   UNL A   1      41.468  31.264  33.870  1.00  0.00    -0.248 NA
ATOM     56  C   UNL A   1      42.231  32.234  35.855  1.00  0.00     0.031 C 
ATOM     57  C   UNL A   1      43.360  27.733  31.944  1.00  0.00     0.029 A 
ATOM     58  C   UNL A   1      42.791  28.837  32.558  1.00  0.00     0.049 A 
ATOM     59  H   UNL A   1      41.075  29.931  32.006  1.00  0.00     0.167 HD
ATOM     60  C   UNL A   1      42.604  30.590  34.302  1.00  0.00     0.074 A 
ATOM     61  C   UNL A   1      43.051  31.251  35.510  1.00  0.00     0.031 C 
ATOM     62  C   UNL A   1      43.222  29.520  33.748  1.00  0.00     0.031 A 
BRANCH  49  63
ATOM     63  C   UNL A   1      40.520  27.409  28.612  1.00  0.00    -0.014 A 
ATOM     64  C   UNL A   1      39.778  26.222  28.728  1.00  0.00     0.009 A 
ATOM     65  C   UNL A   1      41.233  27.652  27.429  1.00  0.00     0.009 A 
ATOM     66  C   UNL A   1      39.780  25.283  27.696  1.00  0.00     0.001 A 
ATOM     67  C   UNL A   1      41.210  26.724  26.387  1.00  0.00     0.001 A 
ATOM     68  C   UNL A   1      40.492  25.536  26.525  1.00  0.00     0.000 A 
ENDBRANCH  49  63
BRANCH  50  69
ATOM     69  C   UNL A   1      40.152  34.281  35.860  1.00  0.00    -0.014 A 
ATOM     70  C   UNL A   1      39.396  34.037  37.017  1.00  0.00     0.009 A 
ATOM     71  C   UNL A   1      40.841  35.498  35.744  1.00  0.00     0.009 A 
ATOM     72  C   UNL A   1      39.300  35.006  38.019  1.00  0.00     0.001 A 
ATOM     73  C   UNL A   1      40.765  36.454  36.760  1.00  0.00     0.001 A 
ATOM     74  C   UNL A   1      39.986  36.212  37.890  1.00  0.00     0.000 A 
ENDBRANCH  50  69
BRANCH  62  75
ATOM     75  C   UNL A   1      44.472  29.028  34.418  1.00  0.00    -0.014 A 
ATOM     76  C   UNL A   1      45.729  29.550  34.082  1.00  0.00     0.009 A 
ATOM     77  C   UNL A   1      44.379  28.063  35.433  1.00  0.00     0.009 A 
ATOM     78  C   UNL A   1      46.877  29.091  34.730  1.00  0.00     0.001 A 
ATOM     79  C   UNL A   1      45.525  27.625  36.097  1.00  0.00     0.001 A 
ATOM     80  C   UNL A   1      46.772  28.133  35.740  1.00  0.00     0.000 A 
ENDBRANCH  62  75
ENDBRANCH  36  37
ENDBRANCH  28  31
ENDBRANCH  26  27
ENDBRANCH  25  26
ENDBRANCH  24  25
ENDBRANCH   1  24
TORSDOF 17
ENDMDL
MODEL 2
REMARK VINA RESULT:      -9.8      1.638      6.958
REMARK SMILES COc1ccc(OC)c(C[NH2+][C@@H](C(=O)NCCCCNC(=O)c2ccc(-c3c4nc(c(-c5ccccc5)c5ccc([nH]5)c(-c5ccccc5)c5nc(c(-c6ccccc6)c6ccc3[nH]6)C=C5)C=C4)cc2)C(C)C)c1
REMARK SMILES IDX 16 1 15 2 13 3 14 4 12 6 11 7 10 10 9 11 3 12 4 13 74 14
REMARK SMILES IDX 5 15 6 16 2 17 1 18 7 19 8 20 71 21 72 22 73 23 17 24 18 25
REMARK SMILES IDX 19 26 20 27 21 28 22 30 23 31 24 32 70 33 25 34 69 35 26 36
REMARK SMILES IDX 27 37 28 38 63 39 29 40 68 41 62 42 64 43 30 44 67 45 61 46
REMARK SMILES IDX 60 47 31 49 53 50 38 51 52 52 39 53 42 54 51 55 65 56 40 57
REMARK SMILES IDX 41 58 50 60 66 61 43 62 32 63 33 64 37 65 34 66 36 67 35 68
REMARK SMILES IDX 54 69 55 70 59 71 56 72 58 73 57 74 44 75 45 76 49 77 46 78
REMARK SMILES IDX 48 79 47 80
REMARK H PARENT 15 5 11 8 11 9 20 29 64 48 42 59
REMARK Flexibility Score: inf
ROOT
ATOM      1  C   UNL A   1      32.482  30.184  25.893  1.00  0.00     0.116 C 
ENDROOT
BRANCH   1   2
ATOM      2  N   UNL A   1      32.964  29.802  24.573  1.00  0.00    -0.351 N 
ATOM      3  C   UNL A   1      32.792  28.664  23.827  1.00  0.00     0.278 C 
ATOM      4  O   UNL A   1      33.445  28.587  22.782  1.00  0.00    -0.268 OA
ATOM      5  H   UNL A   1      33.517  30.489  24.135  1.00  0.00     0.163 HD
BRANCH   3   6
ATOM      6  C   UNL A   1      31.856  27.501  24.297  1.00  0.00     0.275 C 
BRANCH   6   7
ATOM      7  N   UNL A   1      32.610  26.208  24.404  1.00  0.00    -0.332 N 
ATOM      8  H   UNL A   1      32.094  25.477  23.914  1.00  0.00     0.347 HD
ATOM      9  H   UNL A   1      33.533  26.326  23.986  1.00  0.00     0.347 HD
BRANCH   7  10
ATOM     10  C   UNL A   1      32.767  25.830  25.794  1.00  0.00     0.302 C 
BRANCH  10  11
ATOM     11  C   UNL A   1      33.181  24.438  26.182  1.00  0.00     0.052 A 
ATOM     12  C   UNL A   1      35.114  22.925  26.331  1.00  0.00     0.119 A 
ATOM     13  C   UNL A   1      34.355  22.037  27.079  1.00  0.00     0.050 A 
ATOM     14  C   UNL A   1      34.518  24.091  25.860  1.00  0.00     0.059 A 
ATOM     15  C   UNL A   1      33.029  22.348  27.397  1.00  0.00     0.051 A 
ATOM     16  C   UNL A   1      32.449  23.556  26.985  1.00  0.00     0.127 A 
BRANCH  12  17
ATOM     17  O   UNL A   1      36.409  22.573  26.065  1.00  0.00    -0.497 OA
ATOM     18  C   UNL A   1      37.048  23.389  25.084  1.00  0.00     0.278 C 
ENDBRANCH  12  17
BRANCH  16  19
ATOM     19  O   UNL A   1      31.151  23.730  27.378  1.00  0.00    -0.496 OA
ATOM     20  C   UNL A   1      30.206  22.884  26.733  1.00  0.00     0.278 C 
ENDBRANCH  16  19
ENDBRANCH  10  11
ENDBRANCH   7  10
ENDBRANCH   6   7
BRANCH   6  21
ATOM     21  C   UNL A   1      30.695  27.309  23.277  1.00  0.00     0.051 C 
ATOM     22  C   UNL A   1      29.545  26.473  23.856  1.00  0.00     0.014 C 
ATOM     23  C   UNL A   1      30.130  28.655  22.806  1.00  0.00     0.014 C 
ENDBRANCH   6  21
ENDBRANCH   3   6
ENDBRANCH   1   2
BRANCH   1  24
ATOM     24  C   UNL A   1      31.168  30.977  25.822  1.00  0.00     0.023 C 
BRANCH  24  25
ATOM     25  C   UNL A   1      31.139  32.277  26.608  1.00  0.00     0.023 C 
BRANCH  25  26
ATOM     26  C   UNL A   1      32.515  32.828  26.911  1.00  0.00     0.116 C 
BRANCH  26  27
ATOM     27  N   UNL A   1      32.478  34.081  27.658  1.00  0.00    -0.352 N 
ATOM     28  C   UNL A   1      33.325  34.529  28.649  1.00  0.00     0.251 C 
ATOM     29  H   UNL A   1      31.743  34.692  27.421  1.00  0.00     0.163 HD
ATOM     30  O   UNL A   1      33.092  35.560  29.250  1.00  0.00    -0.269 OA
BRANCH  28  31
ATOM     31  C   UNL A   1      34.498  33.700  29.000  1.00  0.00     0.039 A 
ATOM     32  C   UNL A   1      35.777  34.198  28.750  1.00  0.00     0.014 A 
ATOM     33  C   UNL A   1      34.326  32.476  29.647  1.00  0.00     0.014 A 
ATOM     34  C   UNL A   1      36.887  33.504  29.231  1.00  0.00     0.010 A 
ATOM     35  C   UNL A   1      35.418  31.849  30.223  1.00  0.00     0.010 A 
ATOM     36  C   UNL A   1      36.712  32.350  30.012  1.00  0.00    -0.014 A 
BRANCH  36  37
ATOM     37  C   UNL A   1      37.861  31.618  30.595  1.00  0.00     0.031 A 
ATOM     38  C   UNL A   1      38.343  31.981  31.975  1.00  0.00     0.074 A 
ATOM     39  C   UNL A   1      38.518  30.695  29.866  1.00  0.00     0.049 A 
ATOM     40  N   UNL A   1      39.396  31.552  32.622  1.00  0.00    -0.248 NA
ATOM     41  C   UNL A   1      37.559  32.992  32.706  1.00  0.00     0.031 C 
ATOM     42  C   UNL A   1      38.180  30.289  28.498  1.00  0.00     0.029 A 
ATOM     43  N   UNL A   1      39.615  29.932  30.175  1.00  0.00    -0.354 N 
ATOM     44  C   UNL A   1      39.414  32.262  33.816  1.00  0.00     0.074 A 
ATOM     45  C   UNL A   1      38.308  33.191  33.780  1.00  0.00     0.031 C 
ATOM     46  C   UNL A   1      39.030  29.326  28.104  1.00  0.00     0.029 A 
ATOM     47  C   UNL A   1      39.994  29.077  29.170  1.00  0.00     0.049 A 
ATOM     48  H   UNL A   1      40.086  29.993  31.038  1.00  0.00     0.167 HD
ATOM     49  C   UNL A   1      40.258  32.132  34.865  1.00  0.00     0.031 A 
ATOM     50  C   UNL A   1      41.007  28.192  29.117  1.00  0.00     0.031 A 
ATOM     51  C   UNL A   1      41.330  31.179  34.921  1.00  0.00     0.049 A 
ATOM     52  C   UNL A   1      41.918  28.053  30.305  1.00  0.00     0.074 A 
ATOM     53  C   UNL A   1      42.208  30.927  35.960  1.00  0.00     0.029 A 
ATOM     54  N   UNL A   1      41.657  30.307  33.894  1.00  0.00    -0.354 N 
ATOM     55  N   UNL A   1      41.890  28.696  31.447  1.00  0.00    -0.248 NA
ATOM     56  C   UNL A   1      42.992  27.055  30.200  1.00  0.00     0.031 C 
ATOM     57  C   UNL A   1      43.087  29.920  35.549  1.00  0.00     0.029 A 
ATOM     58  C   UNL A   1      42.728  29.518  34.273  1.00  0.00     0.049 A 
ATOM     59  H   UNL A   1      41.196  30.257  33.025  1.00  0.00     0.167 HD
ATOM     60  C   UNL A   1      42.923  28.160  32.207  1.00  0.00     0.074 A 
ATOM     61  C   UNL A   1      43.547  27.131  31.402  1.00  0.00     0.031 C 
ATOM     62  C   UNL A   1      43.320  28.491  33.459  1.00  0.00     0.031 A 
BRANCH  49  63
ATOM     63  C   UNL A   1      40.034  33.035  36.045  1.00  0.00    -0.014 A 
ATOM     64  C   UNL A   1      39.266  32.616  37.142  1.00  0.00     0.009 A 
ATOM     65  C   UNL A   1      40.616  34.312  36.070  1.00  0.00     0.009 A 
ATOM     66  C   UNL A   1      39.054  33.470  38.226  1.00  0.00     0.001 A 
ATOM     67  C   UNL A   1      40.426  35.153  37.167  1.00  0.00     0.001 A 
ATOM     68  C   UNL A   1      39.638  34.735  38.240  1.00  0.00     0.000 A 
ENDBRANCH  49  63
BRANCH  50  69
ATOM     69  C   UNL A   1      41.205  27.344  27.913  1.00  0.00    -0.014 A 
ATOM     70  C   UNL A   1      41.982  27.808  26.839  1.00  0.00     0.009 A 
ATOM     71  C   UNL A   1      40.599  26.082  27.815  1.00  0.00     0.009 A 
ATOM     72  C   UNL A   1      42.118  27.042  25.679  1.00  0.00     0.001 A 
ATOM     73  C   UNL A   1      40.761  25.306  26.665  1.00  0.00     0.001 A 
ATOM     74  C   UNL A   1      41.510  25.792  25.594  1.00  0.00     0.000 A 
ENDBRANCH  50  69
BRANCH  62  75
ATOM     75  C   UNL A   1      44.451  27.701  34.049  1.00  0.00    -0.014 A 
ATOM     76  C   UNL A   1      45.787  28.023  33.769  1.00  0.00     0.009 A 
ATOM     77  C   UNL A   1      44.172  26.648  34.934  1.00  0.00     0.009 A 
ATOM     78  C   UNL A   1      46.823  27.286  34.342  1.00  0.00     0.001 A 
ATOM     79  C   UNL A   1      45.210  25.929  35.526  1.00  0.00     0.001 A 
ATOM     80  C   UNL A   1      46.534  26.243  35.223  1.00  0.00     0.000 A 
ENDBRANCH  62  75
ENDBRANCH  36  37
ENDBRANCH  28  31
ENDBRANCH  26  27
ENDBRANCH  25  26
ENDBRANCH  24  25
ENDBRANCH   1  24
TORSDOF 17
ENDMDL
MODEL 3
REMARK VINA RESULT:      -9.7      2.234      6.886
REMARK SMILES COc1ccc(OC)c(C[NH2+][C@@H](C(=O)NCCCCNC(=O)c2ccc(-c3c4nc(c(-c5ccccc5)c5ccc([nH]5)c(-c5ccccc5)c5nc(c(-c6ccccc6)c6ccc3[nH]6)C=C5)C=C4)cc2)C(C)C)c1
REMARK SMILES IDX 16 1 15 2 13 3 14 4 12 6 11 7 10 10 9 11 3 12 4 13 74 14
REMARK SMILES IDX 5 15 6 16 2 17 1 18 7 19 8 20 71 21 72 22 73 23 17 24 18 25
REMARK SMILES IDX 19 26 20 27 21 28 22 30 23 31 24 32 70 33 25 34 69 35 26 36
REMARK SMILES IDX 27 37 28 38 63 39 29 40 68 41 62 42 64 43 30 44 67 45 61 46
REMARK SMILES IDX 60 47 31 49 53 50 38 51 52 52 39 53 42 54 51 55 65 56 40 57
REMARK SMILES IDX 41 58 50 60 66 61 43 62 32 63 33 64 37 65 34 66 36 67 35 68
REMARK SMILES IDX 54 69 55 70 59 71 56 72 58 73 57 74 44 75 45 76 49 77 46 78
REMARK SMILES IDX 48 79 47 80
REMARK H PARENT 15 5 11 8 11 9 20 29 64 48 42 59
REMARK Flexibility Score: inf
ROOT
ATOM      1  C   UNL A   1      34.504  29.409  27.101  1.00  0.00     0.116 C 
ENDROOT
BRANCH   1   2
ATOM      2  N   UNL A   1      34.252  29.481  25.669  1.00  0.00    -0.351 N 
ATOM      3  C   UNL A   1      33.634  28.616  24.802  1.00  0.00     0.278 C 
ATOM      4  O   UNL A   1      33.692  28.904  23.603  1.00  0.00    -0.268 OA
ATOM      5  H   UNL A   1      34.589  30.302  25.244  1.00  0.00     0.163 HD
BRANCH   3   6
ATOM      6  C   UNL A   1      32.932  27.308  25.297  1.00  0.00     0.275 C 
BRANCH   6   7
ATOM      7  N   UNL A   1      32.916  26.260  24.223  1.00  0.00    -0.332 N 
ATOM      8  H   UNL A   1      32.045  25.734  24.281  1.00  0.00     0.347 HD
ATOM      9  H   UNL A   1      32.992  26.716  23.315  1.00  0.00     0.347 HD
BRANCH   7  10
ATOM     10  C   UNL A   1      34.033  25.352  24.389  1.00  0.00     0.302 C 
BRANCH  10  11
ATOM     11  C   UNL A   1      34.030  24.301  25.464  1.00  0.00     0.052 A 
ATOM     12  C   UNL A   1      32.576  23.097  27.040  1.00  0.00     0.119 A 
ATOM     13  C   UNL A   1      33.601  22.197  27.292  1.00  0.00     0.050 A 
ATOM     14  C   UNL A   1      32.806  24.155  26.165  1.00  0.00     0.059 A 
ATOM     15  C   UNL A   1      34.823  22.328  26.624  1.00  0.00     0.051 A 
ATOM     16  C   UNL A   1      35.032  23.350  25.687  1.00  0.00     0.127 A 
BRANCH  12  17
ATOM     17  O   UNL A   1      31.399  22.909  27.711  1.00  0.00    -0.497 OA
ATOM     18  C   UNL A   1      30.235  22.997  26.889  1.00  0.00     0.278 C 
ENDBRANCH  12  17
BRANCH  16  19
ATOM     19  O   UNL A   1      36.269  23.347  25.105  1.00  0.00    -0.496 OA
ATOM     20  C   UNL A   1      37.219  22.477  25.711  1.00  0.00     0.278 C 
ENDBRANCH  16  19
ENDBRANCH  10  11
ENDBRANCH   7  10
ENDBRANCH   6   7
BRANCH   6  21
ATOM     21  C   UNL A   1      31.461  27.615  25.704  1.00  0.00     0.051 C 
ATOM     22  C   UNL A   1      30.471  26.598  25.120  1.00  0.00     0.014 C 
ATOM     23  C   UNL A   1      31.291  27.641  27.229  1.00  0.00     0.014 C 
ENDBRANCH   6  21
ENDBRANCH   3   6
ENDBRANCH   1   2
BRANCH   1  24
ATOM     24  C   UNL A   1      34.485  30.796  27.761  1.00  0.00     0.023 C 
BRANCH  24  25
ATOM     25  C   UNL A   1      33.161  31.540  27.696  1.00  0.00     0.023 C 
BRANCH  25  26
ATOM     26  C   UNL A   1      33.282  32.934  27.122  1.00  0.00     0.116 C 
BRANCH  26  27
ATOM     27  N   UNL A   1      32.722  33.962  27.993  1.00  0.00    -0.352 N 
ATOM     28  C   UNL A   1      33.225  34.474  29.171  1.00  0.00     0.251 C 
ATOM     29  H   UNL A   1      31.863  34.342  27.699  1.00  0.00     0.163 HD
ATOM     30  O   UNL A   1      32.577  35.259  29.837  1.00  0.00    -0.269 OA
BRANCH  28  31
ATOM     31  C   UNL A   1      34.551  34.009  29.631  1.00  0.00     0.039 A 
ATOM     32  C   UNL A   1      34.624  33.148  30.727  1.00  0.00     0.014 A 
ATOM     33  C   UNL A   1      35.702  34.362  28.926  1.00  0.00     0.014 A 
ATOM     34  C   UNL A   1      35.848  32.570  31.060  1.00  0.00     0.010 A 
ATOM     35  C   UNL A   1      36.891  33.699  29.186  1.00  0.00     0.010 A 
ATOM     36  C   UNL A   1      36.980  32.804  30.263  1.00  0.00    -0.014 A 
BRANCH  36  37
ATOM     37  C   UNL A   1      38.284  32.160  30.546  1.00  0.00     0.031 A 
ATOM     38  C   UNL A   1      39.257  32.840  31.471  1.00  0.00     0.074 A 
ATOM     39  C   UNL A   1      38.625  31.018  29.919  1.00  0.00     0.049 A 
ATOM     40  N   UNL A   1      40.489  32.512  31.761  1.00  0.00    -0.248 NA
ATOM     41  C   UNL A   1      38.796  34.079  32.124  1.00  0.00     0.031 C 
ATOM     42  C   UNL A   1      37.790  30.286  28.962  1.00  0.00     0.029 A 
ATOM     43  N   UNL A   1      39.775  30.273  29.990  1.00  0.00    -0.354 N 
ATOM     44  C   UNL A   1      40.955  33.515  32.601  1.00  0.00     0.074 A 
ATOM     45  C   UNL A   1      39.900  34.495  32.725  1.00  0.00     0.031 C 
ATOM     46  C   UNL A   1      38.443  29.180  28.565  1.00  0.00     0.029 A 
ATOM     47  C   UNL A   1      39.752  29.145  29.206  1.00  0.00     0.049 A 
ATOM     48  H   UNL A   1      40.544  30.524  30.551  1.00  0.00     0.167 HD
ATOM     49  C   UNL A   1      42.145  33.602  33.238  1.00  0.00     0.031 A 
ATOM     50  C   UNL A   1      40.686  28.193  29.026  1.00  0.00     0.031 A 
ATOM     51  C   UNL A   1      43.177  32.608  33.151  1.00  0.00     0.049 A 
ATOM     52  C   UNL A   1      41.992  28.302  29.763  1.00  0.00     0.074 A 
ATOM     53  C   UNL A   1      44.397  32.571  33.801  1.00  0.00     0.029 A 
ATOM     54  N   UNL A   1      43.098  31.463  32.373  1.00  0.00    -0.354 N 
ATOM     55  N   UNL A   1      42.397  29.232  30.594  1.00  0.00    -0.248 NA
ATOM     56  C   UNL A   1      42.965  27.221  29.546  1.00  0.00     0.031 C 
ATOM     57  C   UNL A   1      45.071  31.416  33.394  1.00  0.00     0.029 A 
ATOM     58  C   UNL A   1      44.252  30.714  32.524  1.00  0.00     0.049 A 
ATOM     59  H   UNL A   1      42.336  31.219  31.800  1.00  0.00     0.167 HD
ATOM     60  C   UNL A   1      43.657  28.833  31.021  1.00  0.00     0.074 A 
ATOM     61  C   UNL A   1      43.943  27.571  30.370  1.00  0.00     0.031 C 
ATOM     62  C   UNL A   1      44.504  29.456  31.876  1.00  0.00     0.031 A 
BRANCH  49  63
ATOM     63  C   UNL A   1      42.378  34.809  34.102  1.00  0.00    -0.014 A 
ATOM     64  C   UNL A   1      42.079  34.786  35.473  1.00  0.00     0.009 A 
ATOM     65  C   UNL A   1      42.922  35.975  33.544  1.00  0.00     0.009 A 
ATOM     66  C   UNL A   1      42.287  35.918  36.262  1.00  0.00     0.001 A 
ATOM     67  C   UNL A   1      43.156  37.097  34.341  1.00  0.00     0.001 A 
ATOM     68  C   UNL A   1      42.829  37.071  35.697  1.00  0.00     0.000 A 
ENDBRANCH  49  63
BRANCH  50  69
ATOM     69  C   UNL A   1      40.418  27.034  28.135  1.00  0.00    -0.014 A 
ATOM     70  C   UNL A   1      39.709  25.922  28.614  1.00  0.00     0.009 A 
ATOM     71  C   UNL A   1      40.891  27.019  26.814  1.00  0.00     0.009 A 
ATOM     72  C   UNL A   1      39.509  24.804  27.800  1.00  0.00     0.001 A 
ATOM     73  C   UNL A   1      40.666  25.911  25.994  1.00  0.00     0.001 A 
ATOM     74  C   UNL A   1      39.986  24.800  26.491  1.00  0.00     0.000 A 
ENDBRANCH  50  69
BRANCH  62  75
ATOM     75  C   UNL A   1      45.796  28.758  32.189  1.00  0.00    -0.014 A 
ATOM     76  C   UNL A   1      46.955  29.005  31.440  1.00  0.00     0.009 A 
ATOM     77  C   UNL A   1      45.859  27.877  33.279  1.00  0.00     0.009 A 
ATOM     78  C   UNL A   1      48.149  28.358  31.759  1.00  0.00     0.001 A 
ATOM     79  C   UNL A   1      47.060  27.252  33.612  1.00  0.00     0.001 A 
ATOM     80  C   UNL A   1      48.202  27.486  32.848  1.00  0.00     0.000 A 
ENDBRANCH  62  75
ENDBRANCH  36  37
ENDBRANCH  28  31
ENDBRANCH  26  27
ENDBRANCH  25  26
ENDBRANCH  24  25
ENDBRANCH   1  24
TORSDOF 17
ENDMDL
