MODEL 1
REMARK VINA RESULT:     -11.4      0.000      0.000
REMARK SMILES Cc1ccc2c(c1)C=C(C(=O)NCCCCNC(=O)c1ccc(-c3c4nc(c(-c5ccccc5)c5ccc([nH]5)c(-c5ccccc5)c5nc(c(-c6ccccc6)c6ccc3[nH]6)C=C5)C=C4)cc1)[C@@H](C(F)(F)F)O2
REMARK SMILES IDX 15 1 14 2 13 3 12 4 10 5 11 6 9 8 1 9 2 10 3 11 7 12 4 13
REMARK SMILES IDX 6 14 5 15 8 16 73 17 68 18 69 19 70 20 71 21 72 22 16 23
REMARK SMILES IDX 17 24 18 25 19 27 20 28 21 29 67 30 22 31 66 32 23 33 24 34
REMARK SMILES IDX 25 35 60 36 26 37 65 38 59 39 61 40 27 41 64 42 58 43 57 44
REMARK SMILES IDX 28 46 50 47 35 48 49 49 36 50 39 51 48 52 62 53 37 54 38 55
REMARK SMILES IDX 47 57 63 58 40 59 29 60 30 61 34 62 31 63 33 64 32 65 51 66
REMARK SMILES IDX 52 67 56 68 53 69 55 70 54 71 41 72 42 73 46 74 43 75 45 76
REMARK SMILES IDX 44 77
REMARK H PARENT 12 7 17 26 61 45 39 56
REMARK Flexibility Score: inf
ROOT
ATOM      1  C   UNL A   1      32.564  29.620  26.172  1.00  0.00     0.023 C 
ENDROOT
BRANCH   1   2
ATOM      2  C   UNL A   1      33.002  29.231  24.757  1.00  0.00     0.023 C 
BRANCH   2   3
ATOM      3  C   UNL A   1      31.857  28.836  23.829  1.00  0.00     0.116 C 
BRANCH   3   4
ATOM      4  N   UNL A   1      31.004  27.818  24.418  1.00  0.00    -0.352 N 
ATOM      5  C   UNL A   1      31.041  26.474  24.583  1.00  0.00     0.251 C 
ATOM      6  O   UNL A   1      30.059  25.994  25.159  1.00  0.00    -0.270 OA
ATOM      7  H   UNL A   1      30.183  28.206  24.796  1.00  0.00     0.163 HD
BRANCH   5   8
ATOM      8  C   UNL A   1      32.146  25.576  24.132  1.00  0.00     0.067 C 
ATOM      9  C   UNL A   1      37.766  23.643  25.881  1.00  0.00     0.044 C 
ATOM     10  C   UNL A   1      36.505  23.672  25.066  1.00  0.00    -0.050 A 
ATOM     11  C   UNL A   1      36.394  22.880  23.917  1.00  0.00     0.007 A 
ATOM     12  C   UNL A   1      35.447  24.526  25.416  1.00  0.00     0.015 A 
ATOM     13  C   UNL A   1      35.237  22.922  23.141  1.00  0.00     0.047 A 
ATOM     14  C   UNL A   1      34.287  24.574  24.635  1.00  0.00     0.017 A 
ATOM     15  C   UNL A   1      34.194  23.772  23.498  1.00  0.00     0.128 A 
ATOM     16  C   UNL A   1      33.156  25.415  25.008  1.00  0.00     0.025 C 
ATOM     17  O   UNL A   1      33.082  23.745  22.708  1.00  0.00    -0.475 OA
ATOM     18  C   UNL A   1      32.209  24.907  22.787  1.00  0.00     0.314 C 
BRANCH  18  19
ATOM     19  C   UNL A   1      32.569  25.888  21.655  1.00  0.00     0.429 C 
ATOM     20  F   UNL A   1      32.910  25.207  20.532  1.00  0.00    -0.167 F 
ATOM     21  F   UNL A   1      31.532  26.689  21.314  1.00  0.00    -0.167 F 
ATOM     22  F   UNL A   1      33.604  26.697  21.969  1.00  0.00    -0.167 F 
ENDBRANCH  18  19
ENDBRANCH   5   8
ENDBRANCH   3   4
ENDBRANCH   2   3
ENDBRANCH   1   2
BRANCH   1  23
ATOM     23  C   UNL A   1      33.661  29.581  27.235  1.00  0.00     0.116 C 
BRANCH  23  24
ATOM     24  N   UNL A   1      33.747  30.779  28.058  1.00  0.00    -0.352 N 
ATOM     25  C   UNL A   1      34.812  31.195  28.829  1.00  0.00     0.251 C 
ATOM     26  H   UNL A   1      32.953  31.361  28.065  1.00  0.00     0.163 HD
ATOM     27  O   UNL A   1      34.737  32.201  29.525  1.00  0.00    -0.269 OA
BRANCH  25  28
ATOM     28  C   UNL A   1      36.027  30.360  28.845  1.00  0.00     0.039 A 
ATOM     29  C   UNL A   1      36.408  29.706  30.018  1.00  0.00     0.014 A 
ATOM     30  C   UNL A   1      36.852  30.344  27.718  1.00  0.00     0.014 A 
ATOM     31  C   UNL A   1      37.695  29.193  30.122  1.00  0.00     0.010 A 
ATOM     32  C   UNL A   1      38.117  29.763  27.802  1.00  0.00     0.010 A 
ATOM     33  C   UNL A   1      38.571  29.242  29.024  1.00  0.00    -0.014 A 
BRANCH  33  34
ATOM     34  C   UNL A   1      39.974  28.790  29.197  1.00  0.00     0.031 A 
ATOM     35  C   UNL A   1      40.394  27.414  28.756  1.00  0.00     0.074 A 
ATOM     36  C   UNL A   1      40.889  29.654  29.674  1.00  0.00     0.049 A 
ATOM     37  N   UNL A   1      41.586  26.870  28.784  1.00  0.00    -0.248 NA
ATOM     38  C   UNL A   1      39.350  26.533  28.209  1.00  0.00     0.031 C 
ATOM     39  C   UNL A   1      40.607  31.026  30.100  1.00  0.00     0.029 A 
ATOM     40  N   UNL A   1      42.243  29.520  29.841  1.00  0.00    -0.354 N 
ATOM     41  C   UNL A   1      41.430  25.584  28.282  1.00  0.00     0.074 A 
ATOM     42  C   UNL A   1      40.026  25.417  27.973  1.00  0.00     0.031 C 
ATOM     43  C   UNL A   1      41.763  31.630  30.415  1.00  0.00     0.029 A 
ATOM     44  C   UNL A   1      42.855  30.672  30.271  1.00  0.00     0.049 A 
ATOM     45  H   UNL A   1      42.728  28.681  29.668  1.00  0.00     0.167 HD
ATOM     46  C   UNL A   1      42.372  24.630  28.089  1.00  0.00     0.031 A 
ATOM     47  C   UNL A   1      44.150  30.931  30.525  1.00  0.00     0.031 A 
ATOM     48  C   UNL A   1      43.770  24.800  28.382  1.00  0.00     0.049 A 
ATOM     49  C   UNL A   1      45.168  29.846  30.344  1.00  0.00     0.074 A 
ATOM     50  C   UNL A   1      44.799  23.890  28.212  1.00  0.00     0.029 A 
ATOM     51  N   UNL A   1      44.335  25.955  28.897  1.00  0.00    -0.354 N 
ATOM     52  N   UNL A   1      44.998  28.627  29.891  1.00  0.00    -0.248 NA
ATOM     53  C   UNL A   1      46.552  30.165  30.720  1.00  0.00     0.031 C 
ATOM     54  C   UNL A   1      45.982  24.482  28.664  1.00  0.00     0.029 A 
ATOM     55  C   UNL A   1      45.696  25.775  29.070  1.00  0.00     0.049 A 
ATOM     56  H   UNL A   1      43.842  26.781  29.107  1.00  0.00     0.167 HD
ATOM     57  C   UNL A   1      46.252  28.033  29.929  1.00  0.00     0.074 A 
ATOM     58  C   UNL A   1      47.176  29.031  30.426  1.00  0.00     0.031 C 
ATOM     59  C   UNL A   1      46.600  26.770  29.583  1.00  0.00     0.031 A 
BRANCH  46  60
ATOM     60  C   UNL A   1      41.922  23.302  27.552  1.00  0.00    -0.014 A 
ATOM     61  C   UNL A   1      41.522  22.292  28.442  1.00  0.00     0.009 A 
ATOM     62  C   UNL A   1      41.961  23.022  26.178  1.00  0.00     0.009 A 
ATOM     63  C   UNL A   1      41.173  21.027  27.967  1.00  0.00     0.001 A 
ATOM     64  C   UNL A   1      41.590  21.762  25.704  1.00  0.00     0.001 A 
ATOM     65  C   UNL A   1      41.203  20.764  26.599  1.00  0.00     0.000 A 
ENDBRANCH  46  60
BRANCH  47  66
ATOM     66  C   UNL A   1      44.540  32.291  30.971  1.00  0.00    -0.014 A 
ATOM     67  C   UNL A   1      44.528  32.623  32.336  1.00  0.00     0.009 A 
ATOM     68  C   UNL A   1      44.856  33.283  30.031  1.00  0.00     0.009 A 
ATOM     69  C   UNL A   1      44.797  33.929  32.749  1.00  0.00     0.001 A 
ATOM     70  C   UNL A   1      45.149  34.583  30.449  1.00  0.00     0.001 A 
ATOM     71  C   UNL A   1      45.109  34.906  31.806  1.00  0.00     0.000 A 
ENDBRANCH  47  66
BRANCH  59  72
ATOM     72  C   UNL A   1      48.042  26.384  29.736  1.00  0.00    -0.014 A 
ATOM     73  C   UNL A   1      48.910  26.475  28.637  1.00  0.00     0.009 A 
ATOM     74  C   UNL A   1      48.518  25.854  30.943  1.00  0.00     0.009 A 
ATOM     75  C   UNL A   1      50.230  26.033  28.742  1.00  0.00     0.001 A 
ATOM     76  C   UNL A   1      49.845  25.432  31.052  1.00  0.00     0.001 A 
ATOM     77  C   UNL A   1      50.696  25.515  29.950  1.00  0.00     0.000 A 
ENDBRANCH  59  72
ENDBRANCH  33  34
ENDBRANCH  25  28
ENDBRANCH  23  24
ENDBRANCH   1  23
TORSDOF 12
ENDMDL
MODEL 2
REMARK VINA RESULT:     -11.3      2.358      7.595
REMARK SMILES Cc1ccc2c(c1)C=C(C(=O)NCCCCNC(=O)c1ccc(-c3c4nc(c(-c5ccccc5)c5ccc([nH]5)c(-c5ccccc5)c5nc(c(-c6ccccc6)c6ccc3[nH]6)C=C5)C=C4)cc1)[C@@H](C(F)(F)F)O2
REMARK SMILES IDX 15 1 14 2 13 3 12 4 10 5 11 6 9 8 1 9 2 10 3 11 7 12 4 13
REMARK SMILES IDX 6 14 5 15 8 16 73 17 68 18 69 19 70 20 71 21 72 22 16 23
REMARK SMILES IDX 17 24 18 25 19 27 20 28 21 29 67 30 22 31 66 32 23 33 24 34
REMARK SMILES IDX 25 35 60 36 26 37 65 38 59 39 61 40 27 41 64 42 58 43 57 44
REMARK SMILES IDX 28 46 50 47 35 48 49 49 36 50 39 51 48 52 62 53 37 54 38 55
REMARK SMILES IDX 47 57 63 58 40 59 29 60 30 61 34 62 31 63 33 64 32 65 51 66
REMARK SMILES IDX 52 67 56 68 53 69 55 70 54 71 41 72 42 73 46 74 43 75 45 76
REMARK SMILES IDX 44 77
REMARK H PARENT 12 7 17 26 61 45 39 56
REMARK Flexibility Score: inf
ROOT
ATOM      1  C   UNL A   1      37.717  21.069  25.005  1.00  0.00     0.023 C 
ENDROOT
BRANCH   1   2
ATOM      2  C   UNL A   1      36.596  21.996  25.482  1.00  0.00     0.023 C 
BRANCH   2   3
ATOM      3  C   UNL A   1      36.602  23.377  24.834  1.00  0.00     0.116 C 
BRANCH   3   4
ATOM      4  N   UNL A   1      35.690  23.456  23.707  1.00  0.00    -0.352 N 
ATOM      5  C   UNL A   1      34.471  23.992  23.459  1.00  0.00     0.251 C 
ATOM      6  O   UNL A   1      34.046  23.809  22.313  1.00  0.00    -0.270 OA
ATOM      7  H   UNL A   1      36.053  23.001  22.913  1.00  0.00     0.163 HD
BRANCH   5   8
ATOM      8  C   UNL A   1      33.644  24.754  24.441  1.00  0.00     0.067 C 
ATOM      9  C   UNL A   1      33.401  30.279  27.233  1.00  0.00     0.044 C 
ATOM     10  C   UNL A   1      32.925  28.918  26.818  1.00  0.00    -0.050 A 
ATOM     11  C   UNL A   1      31.742  28.395  27.355  1.00  0.00     0.007 A 
ATOM     12  C   UNL A   1      33.679  28.136  25.929  1.00  0.00     0.015 A 
ATOM     13  C   UNL A   1      31.307  27.121  26.994  1.00  0.00     0.047 A 
ATOM     14  C   UNL A   1      33.247  26.854  25.570  1.00  0.00     0.017 A 
ATOM     15  C   UNL A   1      32.063  26.355  26.112  1.00  0.00     0.128 A 
ATOM     16  C   UNL A   1      33.988  26.046  24.609  1.00  0.00     0.025 C 
ATOM     17  O   UNL A   1      31.566  25.127  25.783  1.00  0.00    -0.475 OA
ATOM     18  C   UNL A   1      32.524  24.167  25.254  1.00  0.00     0.314 C 
BRANCH  18  19
ATOM     19  C   UNL A   1      33.031  23.273  26.402  1.00  0.00     0.429 C 
ATOM     20  F   UNL A   1      34.156  23.801  26.949  1.00  0.00    -0.167 F 
ATOM     21  F   UNL A   1      32.133  23.164  27.410  1.00  0.00    -0.167 F 
ATOM     22  F   UNL A   1      33.325  22.018  26.000  1.00  0.00    -0.167 F 
ENDBRANCH  18  19
ENDBRANCH   5   8
ENDBRANCH   3   4
ENDBRANCH   2   3
ENDBRANCH   1   2
BRANCH   1  23
ATOM     23  C   UNL A   1      38.967  21.041  25.883  1.00  0.00     0.116 C 
BRANCH  23  24
ATOM     24  N   UNL A   1      39.792  19.852  25.721  1.00  0.00    -0.352 N 
ATOM     25  C   UNL A   1      41.135  19.716  25.999  1.00  0.00     0.251 C 
ATOM     26  H   UNL A   1      39.339  19.051  25.370  1.00  0.00     0.163 HD
ATOM     27  O   UNL A   1      41.731  18.672  25.763  1.00  0.00    -0.269 OA
BRANCH  25  28
ATOM     28  C   UNL A   1      41.858  20.886  26.532  1.00  0.00     0.039 A 
ATOM     29  C   UNL A   1      41.960  21.074  27.912  1.00  0.00     0.014 A 
ATOM     30  C   UNL A   1      42.316  21.861  25.642  1.00  0.00     0.014 A 
ATOM     31  C   UNL A   1      42.351  22.314  28.401  1.00  0.00     0.010 A 
ATOM     32  C   UNL A   1      42.778  23.080  26.140  1.00  0.00     0.010 A 
ATOM     33  C   UNL A   1      42.737  23.337  27.519  1.00  0.00    -0.014 A 
BRANCH  33  34
ATOM     34  C   UNL A   1      43.041  24.684  28.062  1.00  0.00     0.031 A 
ATOM     35  C   UNL A   1      44.466  25.141  28.221  1.00  0.00     0.074 A 
ATOM     36  C   UNL A   1      42.028  25.529  28.331  1.00  0.00     0.049 A 
ATOM     37  N   UNL A   1      44.917  26.302  28.630  1.00  0.00    -0.248 NA
ATOM     38  C   UNL A   1      45.525  24.180  27.873  1.00  0.00     0.031 C 
ATOM     39  C   UNL A   1      40.607  25.211  28.182  1.00  0.00     0.029 A 
ATOM     40  N   UNL A   1      42.040  26.835  28.746  1.00  0.00    -0.354 N 
ATOM     41  C   UNL A   1      46.302  26.201  28.611  1.00  0.00     0.074 A 
ATOM     42  C   UNL A   1      46.623  24.862  28.167  1.00  0.00     0.031 C 
ATOM     43  C   UNL A   1      39.886  26.314  28.434  1.00  0.00     0.029 A 
ATOM     44  C   UNL A   1      40.788  27.394  28.820  1.00  0.00     0.049 A 
ATOM     45  H   UNL A   1      42.865  27.324  28.967  1.00  0.00     0.167 HD
ATOM     46  C   UNL A   1      47.223  27.142  28.927  1.00  0.00     0.031 A 
ATOM     47  C   UNL A   1      40.404  28.637  29.162  1.00  0.00     0.031 A 
ATOM     48  C   UNL A   1      46.906  28.478  29.354  1.00  0.00     0.049 A 
ATOM     49  C   UNL A   1      41.441  29.648  29.550  1.00  0.00     0.074 A 
ATOM     50  C   UNL A   1      47.775  29.502  29.689  1.00  0.00     0.029 A 
ATOM     51  N   UNL A   1      45.622  28.977  29.498  1.00  0.00    -0.354 N 
ATOM     52  N   UNL A   1      42.747  29.528  29.548  1.00  0.00    -0.248 NA
ATOM     53  C   UNL A   1      40.955  30.961  29.997  1.00  0.00     0.031 C 
ATOM     54  C   UNL A   1      47.014  30.609  30.077  1.00  0.00     0.029 A 
ATOM     55  C   UNL A   1      45.674  30.289  29.936  1.00  0.00     0.049 A 
ATOM     56  H   UNL A   1      44.795  28.474  29.314  1.00  0.00     0.167 HD
ATOM     57  C   UNL A   1      43.238  30.746  29.994  1.00  0.00     0.074 A 
ATOM     58  C   UNL A   1      42.093  31.600  30.236  1.00  0.00     0.031 C 
ATOM     59  C   UNL A   1      44.526  31.119  30.189  1.00  0.00     0.031 A 
BRANCH  46  60
ATOM     60  C   UNL A   1      48.673  26.757  28.844  1.00  0.00    -0.014 A 
ATOM     61  C   UNL A   1      49.362  26.906  27.629  1.00  0.00     0.009 A 
ATOM     62  C   UNL A   1      49.337  26.182  29.937  1.00  0.00     0.009 A 
ATOM     63  C   UNL A   1      50.688  26.485  27.511  1.00  0.00     0.001 A 
ATOM     64  C   UNL A   1      50.670  25.782  29.822  1.00  0.00     0.001 A 
ATOM     65  C   UNL A   1      51.341  25.927  28.608  1.00  0.00     0.000 A 
ENDBRANCH  46  60
BRANCH  47  66
ATOM     66  C   UNL A   1      38.961  28.978  29.141  1.00  0.00    -0.014 A 
ATOM     67  C   UNL A   1      38.360  29.457  27.965  1.00  0.00     0.009 A 
ATOM     68  C   UNL A   1      38.195  28.895  30.313  1.00  0.00     0.009 A 
ATOM     69  C   UNL A   1      37.028  29.873  27.970  1.00  0.00     0.001 A 
ATOM     70  C   UNL A   1      36.855  29.289  30.308  1.00  0.00     0.001 A 
ATOM     71  C   UNL A   1      36.276  29.786  29.141  1.00  0.00     0.000 A 
ENDBRANCH  47  66
BRANCH  59  72
ATOM     72  C   UNL A   1      44.774  32.509  30.696  1.00  0.00    -0.014 A 
ATOM     73  C   UNL A   1      44.814  32.753  32.077  1.00  0.00     0.009 A 
ATOM     74  C   UNL A   1      44.887  33.587  29.806  1.00  0.00     0.009 A 
ATOM     75  C   UNL A   1      44.953  34.056  32.560  1.00  0.00     0.001 A 
ATOM     76  C   UNL A   1      45.047  34.887  30.292  1.00  0.00     0.001 A 
ATOM     77  C   UNL A   1      45.073  35.120  31.666  1.00  0.00     0.000 A 
ENDBRANCH  59  72
ENDBRANCH  33  34
ENDBRANCH  25  28
ENDBRANCH  23  24
ENDBRANCH   1  23
TORSDOF 12
ENDMDL
MODEL 3
REMARK VINA RESULT:     -11.3      1.718      3.509
REMARK SMILES Cc1ccc2c(c1)C=C(C(=O)NCCCCNC(=O)c1ccc(-c3c4nc(c(-c5ccccc5)c5ccc([nH]5)c(-c5ccccc5)c5nc(c(-c6ccccc6)c6ccc3[nH]6)C=C5)C=C4)cc1)[C@@H](C(F)(F)F)O2
REMARK SMILES IDX 15 1 14 2 13 3 12 4 10 5 11 6 9 8 1 9 2 10 3 11 7 12 4 13
REMARK SMILES IDX 6 14 5 15 8 16 73 17 68 18 69 19 70 20 71 21 72 22 16 23
REMARK SMILES IDX 17 24 18 25 19 27 20 28 21 29 67 30 22 31 66 32 23 33 24 34
REMARK SMILES IDX 25 35 60 36 26 37 65 38 59 39 61 40 27 41 64 42 58 43 57 44
REMARK SMILES IDX 28 46 50 47 35 48 49 49 36 50 39 51 48 52 62 53 37 54 38 55
REMARK SMILES IDX 47 57 63 58 40 59 29 60 30 61 34 62 31 63 33 64 32 65 51 66
REMARK SMILES IDX 52 67 56 68 53 69 55 70 54 71 41 72 42 73 46 74 43 75 45 76
REMARK SMILES IDX 44 77
REMARK H PARENT 12 7 17 26 61 45 39 56
REMARK Flexibility Score: inf
ROOT
ATOM      1  C   UNL A   1      33.175  29.216  25.770  1.00  0.00     0.023 C 
ENDROOT
BRANCH   1   2
ATOM      2  C   UNL A   1      34.029  28.308  24.879  1.00  0.00     0.023 C 
BRANCH   2   3
ATOM      3  C   UNL A   1      33.875  26.818  25.167  1.00  0.00     0.116 C 
BRANCH   3   4
ATOM      4  N   UNL A   1      33.607  26.053  23.962  1.00  0.00    -0.352 N 
ATOM      5  C   UNL A   1      32.559  25.865  23.125  1.00  0.00     0.251 C 
ATOM      6  O   UNL A   1      32.775  25.092  22.186  1.00  0.00    -0.270 OA
ATOM      7  H   UNL A   1      34.394  25.534  23.679  1.00  0.00     0.163 HD
BRANCH   5   8
ATOM      8  C   UNL A   1      31.216  26.506  23.260  1.00  0.00     0.067 C 
ATOM      9  C   UNL A   1      28.339  31.879  22.155  1.00  0.00     0.044 C 
ATOM     10  C   UNL A   1      28.467  30.429  22.520  1.00  0.00    -0.050 A 
ATOM     11  C   UNL A   1      27.350  29.720  22.979  1.00  0.00     0.007 A 
ATOM     12  C   UNL A   1      29.710  29.782  22.452  1.00  0.00     0.015 A 
ATOM     13  C   UNL A   1      27.467  28.380  23.344  1.00  0.00     0.047 A 
ATOM     14  C   UNL A   1      29.831  28.438  22.824  1.00  0.00     0.017 A 
ATOM     15  C   UNL A   1      28.705  27.749  23.273  1.00  0.00     0.128 A 
ATOM     16  C   UNL A   1      31.101  27.732  22.714  1.00  0.00     0.025 C 
ATOM     17  O   UNL A   1      28.743  26.430  23.623  1.00  0.00    -0.475 OA
ATOM     18  C   UNL A   1      30.048  25.899  23.986  1.00  0.00     0.314 C 
BRANCH  18  19
ATOM     19  C   UNL A   1      30.210  25.955  25.517  1.00  0.00     0.429 C 
ATOM     20  F   UNL A   1      30.607  27.193  25.905  1.00  0.00    -0.167 F 
ATOM     21  F   UNL A   1      29.050  25.706  26.170  1.00  0.00    -0.167 F 
ATOM     22  F   UNL A   1      31.120  25.072  25.983  1.00  0.00    -0.167 F 
ENDBRANCH  18  19
ENDBRANCH   5   8
ENDBRANCH   3   4
ENDBRANCH   2   3
ENDBRANCH   1   2
BRANCH   1  23
ATOM     23  C   UNL A   1      33.524  29.196  27.257  1.00  0.00     0.116 C 
BRANCH  23  24
ATOM     24  N   UNL A   1      33.642  30.513  27.867  1.00  0.00    -0.352 N 
ATOM     25  C   UNL A   1      34.744  31.053  28.495  1.00  0.00     0.251 C 
ATOM     26  H   UNL A   1      32.842  31.085  27.827  1.00  0.00     0.163 HD
ATOM     27  O   UNL A   1      34.696  32.159  29.021  1.00  0.00    -0.269 OA
BRANCH  25  28
ATOM     28  C   UNL A   1      35.970  30.237  28.575  1.00  0.00     0.039 A 
ATOM     29  C   UNL A   1      36.304  29.594  29.768  1.00  0.00     0.014 A 
ATOM     30  C   UNL A   1      36.848  30.228  27.488  1.00  0.00     0.014 A 
ATOM     31  C   UNL A   1      37.592  29.101  29.936  1.00  0.00     0.010 A 
ATOM     32  C   UNL A   1      38.116  29.666  27.636  1.00  0.00     0.010 A 
ATOM     33  C   UNL A   1      38.518  29.159  28.882  1.00  0.00    -0.014 A 
BRANCH  33  34
ATOM     34  C   UNL A   1      39.918  28.728  29.124  1.00  0.00     0.031 A 
ATOM     35  C   UNL A   1      40.388  27.369  28.683  1.00  0.00     0.074 A 
ATOM     36  C   UNL A   1      40.788  29.600  29.666  1.00  0.00     0.049 A 
ATOM     37  N   UNL A   1      41.587  26.846  28.767  1.00  0.00    -0.248 NA
ATOM     38  C   UNL A   1      39.392  26.479  28.063  1.00  0.00     0.031 C 
ATOM     39  C   UNL A   1      40.458  30.959  30.100  1.00  0.00     0.029 A 
ATOM     40  N   UNL A   1      42.133  29.487  29.905  1.00  0.00    -0.354 N 
ATOM     41  C   UNL A   1      41.483  25.567  28.235  1.00  0.00     0.074 A 
ATOM     42  C   UNL A   1      40.102  25.381  27.846  1.00  0.00     0.031 C 
ATOM     43  C   UNL A   1      41.583  31.577  30.489  1.00  0.00     0.029 A 
ATOM     44  C   UNL A   1      42.699  30.642  30.388  1.00  0.00     0.049 A 
ATOM     45  H   UNL A   1      42.643  28.661  29.745  1.00  0.00     0.167 HD
ATOM     46  C   UNL A   1      42.452  24.634  28.078  1.00  0.00     0.031 A 
ATOM     47  C   UNL A   1      43.973  30.920  30.718  1.00  0.00     0.031 A 
ATOM     48  C   UNL A   1      43.828  24.823  28.451  1.00  0.00     0.049 A 
ATOM     49  C   UNL A   1      45.020  29.856  30.575  1.00  0.00     0.074 A 
ATOM     50  C   UNL A   1      44.882  23.935  28.322  1.00  0.00     0.029 A 
ATOM     51  N   UNL A   1      44.342  25.978  29.016  1.00  0.00    -0.354 N 
ATOM     52  N   UNL A   1      44.899  28.644  30.092  1.00  0.00    -0.248 NA
ATOM     53  C   UNL A   1      46.375  30.193  31.033  1.00  0.00     0.031 C 
ATOM     54  C   UNL A   1      46.027  24.540  28.850  1.00  0.00     0.029 A 
ATOM     55  C   UNL A   1      45.695  25.820  29.261  1.00  0.00     0.049 A 
ATOM     56  H   UNL A   1      43.823  26.792  29.213  1.00  0.00     0.167 HD
ATOM     57  C   UNL A   1      46.159  28.072  30.189  1.00  0.00     0.074 A 
ATOM     58  C   UNL A   1      47.036  29.076  30.754  1.00  0.00     0.031 C 
ATOM     59  C   UNL A   1      46.550  26.822  29.842  1.00  0.00     0.031 A 
BRANCH  46  60
ATOM     60  C   UNL A   1      42.058  23.308  27.494  1.00  0.00    -0.014 A 
ATOM     61  C   UNL A   1      41.512  22.316  28.326  1.00  0.00     0.009 A 
ATOM     62  C   UNL A   1      42.290  23.010  26.142  1.00  0.00     0.009 A 
ATOM     63  C   UNL A   1      41.210  21.052  27.816  1.00  0.00     0.001 A 
ATOM     64  C   UNL A   1      41.965  21.752  25.631  1.00  0.00     0.001 A 
ATOM     65  C   UNL A   1      41.433  20.773  26.469  1.00  0.00     0.000 A 
ENDBRANCH  46  60
BRANCH  47  66
ATOM     66  C   UNL A   1      44.312  32.278  31.209  1.00  0.00    -0.014 A 
ATOM     67  C   UNL A   1      44.215  32.585  32.576  1.00  0.00     0.009 A 
ATOM     68  C   UNL A   1      44.664  33.291  30.306  1.00  0.00     0.009 A 
ATOM     69  C   UNL A   1      44.436  33.888  33.026  1.00  0.00     0.001 A 
ATOM     70  C   UNL A   1      44.908  34.588  30.762  1.00  0.00     0.001 A 
ATOM     71  C   UNL A   1      44.784  34.887  32.119  1.00  0.00     0.000 A 
ENDBRANCH  47  66
BRANCH  59  72
ATOM     72  C   UNL A   1      47.988  26.459  30.067  1.00  0.00    -0.014 A 
ATOM     73  C   UNL A   1      48.381  25.884  31.285  1.00  0.00     0.009 A 
ATOM     74  C   UNL A   1      48.963  26.763  29.106  1.00  0.00     0.009 A 
ATOM     75  C   UNL A   1      49.729  25.626  31.541  1.00  0.00     0.001 A 
ATOM     76  C   UNL A   1      50.309  26.485  29.357  1.00  0.00     0.001 A 
ATOM     77  C   UNL A   1      50.690  25.925  30.576  1.00  0.00     0.000 A 
ENDBRANCH  59  72
ENDBRANCH  33  34
ENDBRANCH  25  28
ENDBRANCH  23  24
ENDBRANCH   1  23
TORSDOF 12
ENDMDL
