MODEL 1
REMARK VINA RESULT:     -10.5      0.000      0.000
REMARK SMILES COC(=O)C[C@H](NC(=O)N1CC[N@@H+]2CCC[C@@H]2C1)C(=O)NCCCCNC(=O)c1ccc(-c2c3nc(c(-c4ccccc4)c4ccc([nH]4)c(-c4ccccc4)c4nc(c(-c5ccccc5)c5ccc2[nH]5)C=C4)C=C3)cc1
REMARK SMILES IDX 23 1 22 2 21 3 19 4 20 5 6 7 5 8 3 9 4 10 2 11 1 12 7 13
REMARK SMILES IDX 8 14 9 16 10 17 11 18 18 19 12 20 17 21 13 22 16 23 14 24
REMARK SMILES IDX 15 26 24 27 25 28 26 29 27 30 28 32 29 33 30 34 76 35 31 36
REMARK SMILES IDX 75 37 32 38 33 39 34 40 69 41 35 42 74 43 68 44 70 45 36 46
REMARK SMILES IDX 73 47 67 48 66 49 37 51 59 52 44 53 58 54 45 55 48 56 57 57
REMARK SMILES IDX 71 58 46 59 47 60 56 62 72 63 49 64 38 65 39 66 43 67 40 68
REMARK SMILES IDX 42 69 41 70 60 71 61 72 65 73 62 74 64 75 63 76 50 77 51 78
REMARK SMILES IDX 55 79 52 80 54 81 53 82
REMARK H PARENT 21 6 7 15 13 25 26 31 70 50 48 61
REMARK Flexibility Score: inf
ROOT
ATOM      1  C   UNL A   1      36.880  22.269  24.330  1.00  0.00     0.023 C 
ENDROOT
BRANCH   1   2
ATOM      2  C   UNL A   1      35.625  22.608  25.128  1.00  0.00     0.116 C 
BRANCH   2   3
ATOM      3  N   UNL A   1      34.463  21.797  24.839  1.00  0.00    -0.354 N 
ATOM      4  C   UNL A   1      33.258  22.139  24.316  1.00  0.00     0.243 C 
ATOM      5  O   UNL A   1      32.516  21.211  23.971  1.00  0.00    -0.273 OA
ATOM      6  H   UNL A   1      34.563  20.843  25.058  1.00  0.00     0.163 HD
BRANCH   4   7
ATOM      7  C   UNL A   1      32.844  23.596  24.040  1.00  0.00     0.184 C 
BRANCH   7   8
ATOM      8  C   UNL A   1      31.328  23.701  24.289  1.00  0.00     0.157 C 
BRANCH   8   9
ATOM      9  C   UNL A   1      30.898  23.781  25.729  1.00  0.00     0.308 C 
ATOM     10  O   UNL A   1      31.052  24.760  26.445  1.00  0.00    -0.252 OA
BRANCH   9  11
ATOM     11  O   UNL A   1      30.317  22.610  26.111  1.00  0.00    -0.469 OA
ATOM     12  C   UNL A   1      29.422  22.700  27.225  1.00  0.00     0.282 C 
ENDBRANCH   9  11
ENDBRANCH   8   9
ENDBRANCH   7   8
BRANCH   7  13
ATOM     13  N   UNL A   1      33.320  24.248  22.816  1.00  0.00    -0.326 N 
ATOM     14  C   UNL A   1      33.062  25.457  22.260  1.00  0.00     0.318 C 
ATOM     15  H   UNL A   1      33.954  23.702  22.296  1.00  0.00     0.166 HD
ATOM     16  O   UNL A   1      33.197  25.509  21.034  1.00  0.00    -0.249 OA
BRANCH  14  17
ATOM     17  N   UNL A   1      32.693  26.548  22.995  1.00  0.00    -0.313 N 
ATOM     18  C   UNL A   1      31.330  27.026  23.206  1.00  0.00     0.183 C 
ATOM     19  C   UNL A   1      33.688  27.199  23.859  1.00  0.00     0.186 C 
ATOM     20  C   UNL A   1      31.128  27.932  24.436  1.00  0.00     0.284 C 
ATOM     21  C   UNL A   1      33.263  27.190  25.350  1.00  0.00     0.204 C 
ATOM     22  N   UNL A   1      31.817  27.406  25.620  1.00  0.00    -0.330 N 
ATOM     23  C   UNL A   1      33.975  28.265  26.168  1.00  0.00     0.073 C 
ATOM     24  C   UNL A   1      31.679  28.297  26.780  1.00  0.00     0.262 C 
ATOM     25  H   UNL A   1      31.373  26.514  25.835  1.00  0.00     0.348 HD
ATOM     26  C   UNL A   1      33.072  28.429  27.372  1.00  0.00     0.068 C 
ENDBRANCH  14  17
ENDBRANCH   7  13
ENDBRANCH   4   7
ENDBRANCH   2   3
ENDBRANCH   1   2
BRANCH   1  27
ATOM     27  C   UNL A   1      37.537  20.921  24.610  1.00  0.00     0.023 C 
BRANCH  27  28
ATOM     28  C   UNL A   1      38.518  20.885  25.769  1.00  0.00     0.116 C 
BRANCH  28  29
ATOM     29  N   UNL A   1      39.500  19.819  25.664  1.00  0.00    -0.352 N 
ATOM     30  C   UNL A   1      40.836  19.838  25.985  1.00  0.00     0.251 C 
ATOM     31  H   UNL A   1      39.160  18.964  25.314  1.00  0.00     0.163 HD
ATOM     32  O   UNL A   1      41.545  18.870  25.750  1.00  0.00    -0.269 OA
BRANCH  30  33
ATOM     33  C   UNL A   1      41.422  21.058  26.579  1.00  0.00     0.039 A 
ATOM     34  C   UNL A   1      41.991  22.007  25.727  1.00  0.00     0.014 A 
ATOM     35  C   UNL A   1      41.374  21.284  27.957  1.00  0.00     0.014 A 
ATOM     36  C   UNL A   1      42.447  23.218  26.250  1.00  0.00     0.010 A 
ATOM     37  C   UNL A   1      41.755  22.521  28.465  1.00  0.00     0.010 A 
ATOM     38  C   UNL A   1      42.296  23.500  27.617  1.00  0.00    -0.014 A 
BRANCH  38  39
ATOM     39  C   UNL A   1      42.696  24.812  28.183  1.00  0.00     0.031 A 
ATOM     40  C   UNL A   1      41.663  25.879  28.410  1.00  0.00     0.074 A 
ATOM     41  C   UNL A   1      43.997  25.067  28.423  1.00  0.00     0.049 A 
ATOM     42  N   UNL A   1      41.825  27.111  28.819  1.00  0.00    -0.248 NA
ATOM     43  C   UNL A   1      40.266  25.522  28.112  1.00  0.00     0.031 C 
ATOM     44  C   UNL A   1      45.102  24.129  28.208  1.00  0.00     0.029 A 
ATOM     45  N   UNL A   1      44.611  26.199  28.896  1.00  0.00    -0.354 N 
ATOM     46  C   UNL A   1      40.559  27.680  28.807  1.00  0.00     0.074 A 
ATOM     47  C   UNL A   1      39.646  26.678  28.304  1.00  0.00     0.031 C 
ATOM     48  C   UNL A   1      46.253  24.717  28.571  1.00  0.00     0.029 A 
ATOM     49  C   UNL A   1      45.976  26.083  29.001  1.00  0.00     0.049 A 
ATOM     50  H   UNL A   1      44.120  27.018  29.135  1.00  0.00     0.167 HD
ATOM     51  C   UNL A   1      40.184  28.922  29.195  1.00  0.00     0.031 A 
ATOM     52  C   UNL A   1      46.901  26.979  29.392  1.00  0.00     0.031 A 
ATOM     53  C   UNL A   1      41.089  29.914  29.710  1.00  0.00     0.049 A 
ATOM     54  C   UNL A   1      46.462  28.356  29.806  1.00  0.00     0.074 A 
ATOM     55  C   UNL A   1      40.797  31.179  30.190  1.00  0.00     0.029 A 
ATOM     56  N   UNL A   1      42.462  29.753  29.809  1.00  0.00    -0.354 N 
ATOM     57  N   UNL A   1      45.252  28.857  29.853  1.00  0.00    -0.248 NA
ATOM     58  C   UNL A   1      47.518  29.289  30.226  1.00  0.00     0.031 C 
ATOM     59  C   UNL A   1      42.002  31.803  30.532  1.00  0.00     0.029 A 
ATOM     60  C   UNL A   1      43.036  30.906  30.317  1.00  0.00     0.049 A 
ATOM     61  H   UNL A   1      42.955  28.941  29.555  1.00  0.00     0.167 HD
ATOM     62  C   UNL A   1      45.397  30.152  30.332  1.00  0.00     0.074 A 
ATOM     63  C   UNL A   1      46.811  30.355  30.575  1.00  0.00     0.031 C 
ATOM     64  C   UNL A   1      44.443  31.090  30.551  1.00  0.00     0.031 A 
BRANCH  51  65
ATOM     65  C   UNL A   1      38.729  29.277  29.071  1.00  0.00    -0.014 A 
ATOM     66  C   UNL A   1      37.850  29.138  30.157  1.00  0.00     0.009 A 
ATOM     67  C   UNL A   1      38.237  29.788  27.860  1.00  0.00     0.009 A 
ATOM     68  C   UNL A   1      36.500  29.467  30.021  1.00  0.00     0.001 A 
ATOM     69  C   UNL A   1      36.893  30.144  27.736  1.00  0.00     0.001 A 
ATOM     70  C   UNL A   1      36.024  29.974  28.812  1.00  0.00     0.000 A 
ENDBRANCH  51  65
BRANCH  52  71
ATOM     71  C   UNL A   1      48.339  26.602  29.421  1.00  0.00    -0.014 A 
ATOM     72  C   UNL A   1      49.171  26.883  28.327  1.00  0.00     0.009 A 
ATOM     73  C   UNL A   1      48.885  25.954  30.540  1.00  0.00     0.009 A 
ATOM     74  C   UNL A   1      50.514  26.499  28.341  1.00  0.00     0.001 A 
ATOM     75  C   UNL A   1      50.235  25.597  30.562  1.00  0.00     0.001 A 
ATOM     76  C   UNL A   1      51.046  25.860  29.460  1.00  0.00     0.000 A 
ENDBRANCH  52  71
BRANCH  64  77
ATOM     77  C   UNL A   1      44.893  32.411  31.110  1.00  0.00    -0.014 A 
ATOM     78  C   UNL A   1      44.982  32.622  32.495  1.00  0.00     0.009 A 
ATOM     79  C   UNL A   1      45.280  33.438  30.237  1.00  0.00     0.009 A 
ATOM     80  C   UNL A   1      45.424  33.849  32.992  1.00  0.00     0.001 A 
ATOM     81  C   UNL A   1      45.749  34.654  30.737  1.00  0.00     0.001 A 
ATOM     82  C   UNL A   1      45.813  34.861  32.114  1.00  0.00     0.000 A 
ENDBRANCH  64  77
ENDBRANCH  38  39
ENDBRANCH  30  33
ENDBRANCH  28  29
ENDBRANCH  27  28
ENDBRANCH   1  27
TORSDOF 16
ENDMDL
MODEL 2
REMARK VINA RESULT:     -10.5      1.164      2.457
REMARK SMILES COC(=O)C[C@H](NC(=O)N1CC[N@@H+]2CCC[C@@H]2C1)C(=O)NCCCCNC(=O)c1ccc(-c2c3nc(c(-c4ccccc4)c4ccc([nH]4)c(-c4ccccc4)c4nc(c(-c5ccccc5)c5ccc2[nH]5)C=C4)C=C3)cc1
REMARK SMILES IDX 23 1 22 2 21 3 19 4 20 5 6 7 5 8 3 9 4 10 2 11 1 12 7 13
REMARK SMILES IDX 8 14 9 16 10 17 11 18 18 19 12 20 17 21 13 22 16 23 14 24
REMARK SMILES IDX 15 26 24 27 25 28 26 29 27 30 28 32 29 33 30 34 76 35 31 36
REMARK SMILES IDX 75 37 32 38 33 39 34 40 69 41 35 42 74 43 68 44 70 45 36 46
REMARK SMILES IDX 73 47 67 48 66 49 37 51 59 52 44 53 58 54 45 55 48 56 57 57
REMARK SMILES IDX 71 58 46 59 47 60 56 62 72 63 49 64 38 65 39 66 43 67 40 68
REMARK SMILES IDX 42 69 41 70 60 71 61 72 65 73 62 74 64 75 63 76 50 77 51 78
REMARK SMILES IDX 55 79 52 80 54 81 53 82
REMARK H PARENT 21 6 7 15 13 25 26 31 70 50 48 61
REMARK Flexibility Score: inf
ROOT
ATOM      1  C   UNL A   1      36.945  22.148  23.939  1.00  0.00     0.023 C 
ENDROOT
BRANCH   1   2
ATOM      2  C   UNL A   1      35.585  22.743  24.290  1.00  0.00     0.116 C 
BRANCH   2   3
ATOM      3  N   UNL A   1      34.469  22.255  23.511  1.00  0.00    -0.354 N 
ATOM      4  C   UNL A   1      33.245  21.820  23.902  1.00  0.00     0.243 C 
ATOM      5  O   UNL A   1      32.398  21.661  23.014  1.00  0.00    -0.273 OA
ATOM      6  H   UNL A   1      34.623  22.236  22.539  1.00  0.00     0.163 HD
BRANCH   4   7
ATOM      7  C   UNL A   1      32.851  21.633  25.378  1.00  0.00     0.184 C 
BRANCH   7   8
ATOM      8  C   UNL A   1      33.491  20.320  25.866  1.00  0.00     0.157 C 
BRANCH   8   9
ATOM      9  C   UNL A   1      33.144  19.083  25.080  1.00  0.00     0.308 C 
ATOM     10  O   UNL A   1      32.029  18.583  25.031  1.00  0.00    -0.252 OA
BRANCH   9  11
ATOM     11  O   UNL A   1      34.247  18.611  24.438  1.00  0.00    -0.469 OA
ATOM     12  C   UNL A   1      34.125  17.294  23.890  1.00  0.00     0.282 C 
ENDBRANCH   9  11
ENDBRANCH   8   9
ENDBRANCH   7   8
BRANCH   7  13
ATOM     13  N   UNL A   1      31.450  21.824  25.768  1.00  0.00    -0.326 N 
ATOM     14  C   UNL A   1      30.745  22.916  26.156  1.00  0.00     0.318 C 
ATOM     15  H   UNL A   1      30.915  20.998  25.742  1.00  0.00     0.166 HD
ATOM     16  O   UNL A   1      29.774  22.682  26.880  1.00  0.00    -0.249 OA
BRANCH  14  17
ATOM     17  N   UNL A   1      31.071  24.185  25.766  1.00  0.00    -0.313 N 
ATOM     18  C   UNL A   1      31.981  25.093  26.457  1.00  0.00     0.183 C 
ATOM     19  C   UNL A   1      30.682  24.643  24.426  1.00  0.00     0.186 C 
ATOM     20  C   UNL A   1      32.563  26.230  25.595  1.00  0.00     0.284 C 
ATOM     21  C   UNL A   1      31.908  25.046  23.567  1.00  0.00     0.204 C 
ATOM     22  N   UNL A   1      33.007  25.747  24.283  1.00  0.00    -0.330 N 
ATOM     23  C   UNL A   1      31.537  25.979  22.417  1.00  0.00     0.073 C 
ATOM     24  C   UNL A   1      33.506  26.837  23.433  1.00  0.00     0.262 C 
ATOM     25  H   UNL A   1      33.769  25.094  24.462  1.00  0.00     0.348 HD
ATOM     26  C   UNL A   1      32.857  26.638  22.075  1.00  0.00     0.068 C 
ENDBRANCH  14  17
ENDBRANCH   7  13
ENDBRANCH   4   7
ENDBRANCH   2   3
ENDBRANCH   1   2
BRANCH   1  27
ATOM     27  C   UNL A   1      37.331  20.843  24.630  1.00  0.00     0.023 C 
BRANCH  27  28
ATOM     28  C   UNL A   1      38.428  20.942  25.676  1.00  0.00     0.116 C 
BRANCH  28  29
ATOM     29  N   UNL A   1      39.394  19.860  25.607  1.00  0.00    -0.352 N 
ATOM     30  C   UNL A   1      40.720  19.858  25.967  1.00  0.00     0.251 C 
ATOM     31  H   UNL A   1      39.051  19.008  25.251  1.00  0.00     0.163 HD
ATOM     32  O   UNL A   1      41.419  18.877  25.758  1.00  0.00    -0.269 OA
BRANCH  30  33
ATOM     33  C   UNL A   1      41.308  21.072  26.571  1.00  0.00     0.039 A 
ATOM     34  C   UNL A   1      41.872  22.031  25.726  1.00  0.00     0.014 A 
ATOM     35  C   UNL A   1      41.268  21.282  27.951  1.00  0.00     0.014 A 
ATOM     36  C   UNL A   1      42.331  23.236  26.260  1.00  0.00     0.010 A 
ATOM     37  C   UNL A   1      41.652  22.515  28.472  1.00  0.00     0.010 A 
ATOM     38  C   UNL A   1      42.187  23.503  27.631  1.00  0.00    -0.014 A 
BRANCH  38  39
ATOM     39  C   UNL A   1      42.590  24.808  28.209  1.00  0.00     0.031 A 
ATOM     40  C   UNL A   1      41.562  25.883  28.427  1.00  0.00     0.074 A 
ATOM     41  C   UNL A   1      43.889  25.052  28.469  1.00  0.00     0.049 A 
ATOM     42  N   UNL A   1      41.728  27.112  28.845  1.00  0.00    -0.248 NA
ATOM     43  C   UNL A   1      40.166  25.538  28.109  1.00  0.00     0.031 C 
ATOM     44  C   UNL A   1      44.990  24.107  28.264  1.00  0.00     0.029 A 
ATOM     45  N   UNL A   1      44.506  26.177  28.956  1.00  0.00    -0.354 N 
ATOM     46  C   UNL A   1      40.467  27.691  28.819  1.00  0.00     0.074 A 
ATOM     47  C   UNL A   1      39.553  26.698  28.299  1.00  0.00     0.031 C 
ATOM     48  C   UNL A   1      46.140  24.684  28.645  1.00  0.00     0.029 A 
ATOM     49  C   UNL A   1      45.868  26.050  29.079  1.00  0.00     0.049 A 
ATOM     50  H   UNL A   1      44.018  26.999  29.193  1.00  0.00     0.167 HD
ATOM     51  C   UNL A   1      40.096  28.933  29.209  1.00  0.00     0.031 A 
ATOM     52  C   UNL A   1      46.795  26.937  29.487  1.00  0.00     0.031 A 
ATOM     53  C   UNL A   1      41.002  29.916  29.741  1.00  0.00     0.049 A 
ATOM     54  C   UNL A   1      46.361  28.314  29.902  1.00  0.00     0.074 A 
ATOM     55  C   UNL A   1      40.713  31.180  30.223  1.00  0.00     0.029 A 
ATOM     56  N   UNL A   1      42.372  29.743  29.858  1.00  0.00    -0.354 N 
ATOM     57  N   UNL A   1      45.154  28.825  29.935  1.00  0.00    -0.248 NA
ATOM     58  C   UNL A   1      47.418  29.238  30.342  1.00  0.00     0.031 C 
ATOM     59  C   UNL A   1      41.918  31.792  30.585  1.00  0.00     0.029 A 
ATOM     60  C   UNL A   1      42.947  30.889  30.379  1.00  0.00     0.049 A 
ATOM     61  H   UNL A   1      42.862  28.928  29.607  1.00  0.00     0.167 HD
ATOM     62  C   UNL A   1      45.302  30.117  30.423  1.00  0.00     0.074 A 
ATOM     63  C   UNL A   1      46.714  30.306  30.686  1.00  0.00     0.031 C 
ATOM     64  C   UNL A   1      44.353  31.061  30.634  1.00  0.00     0.031 A 
BRANCH  51  65
ATOM     65  C   UNL A   1      38.645  29.300  29.066  1.00  0.00    -0.014 A 
ATOM     66  C   UNL A   1      37.750  29.159  30.138  1.00  0.00     0.009 A 
ATOM     67  C   UNL A   1      38.175  29.824  27.853  1.00  0.00     0.009 A 
ATOM     68  C   UNL A   1      36.405  29.499  29.986  1.00  0.00     0.001 A 
ATOM     69  C   UNL A   1      36.835  30.192  27.712  1.00  0.00     0.001 A 
ATOM     70  C   UNL A   1      35.950  30.020  28.774  1.00  0.00     0.000 A 
ENDBRANCH  51  65
BRANCH  52  71
ATOM     71  C   UNL A   1      48.229  26.548  29.534  1.00  0.00    -0.014 A 
ATOM     72  C   UNL A   1      49.068  26.789  28.435  1.00  0.00     0.009 A 
ATOM     73  C   UNL A   1      48.765  25.929  30.674  1.00  0.00     0.009 A 
ATOM     74  C   UNL A   1      50.407  26.393  28.467  1.00  0.00     0.001 A 
ATOM     75  C   UNL A   1      50.111  25.561  30.713  1.00  0.00     0.001 A 
ATOM     76  C   UNL A   1      50.929  25.784  29.607  1.00  0.00     0.000 A 
ENDBRANCH  52  71
BRANCH  64  77
ATOM     77  C   UNL A   1      44.806  32.375  31.206  1.00  0.00    -0.014 A 
ATOM     78  C   UNL A   1      45.200  33.434  30.374  1.00  0.00     0.009 A 
ATOM     79  C   UNL A   1      44.789  32.570  32.595  1.00  0.00     0.009 A 
ATOM     80  C   UNL A   1      45.595  34.653  30.926  1.00  0.00     0.001 A 
ATOM     81  C   UNL A   1      45.157  33.799  33.143  1.00  0.00     0.001 A 
ATOM     82  C   UNL A   1      45.567  34.837  32.309  1.00  0.00     0.000 A 
ENDBRANCH  64  77
ENDBRANCH  38  39
ENDBRANCH  30  33
ENDBRANCH  28  29
ENDBRANCH  27  28
ENDBRANCH   1  27
TORSDOF 16
ENDMDL
MODEL 3
REMARK VINA RESULT:     -10.4      3.824      8.799
REMARK SMILES COC(=O)C[C@H](NC(=O)N1CC[N@@H+]2CCC[C@@H]2C1)C(=O)NCCCCNC(=O)c1ccc(-c2c3nc(c(-c4ccccc4)c4ccc([nH]4)c(-c4ccccc4)c4nc(c(-c5ccccc5)c5ccc2[nH]5)C=C4)C=C3)cc1
REMARK SMILES IDX 23 1 22 2 21 3 19 4 20 5 6 7 5 8 3 9 4 10 2 11 1 12 7 13
REMARK SMILES IDX 8 14 9 16 10 17 11 18 18 19 12 20 17 21 13 22 16 23 14 24
REMARK SMILES IDX 15 26 24 27 25 28 26 29 27 30 28 32 29 33 30 34 76 35 31 36
REMARK SMILES IDX 75 37 32 38 33 39 34 40 69 41 35 42 74 43 68 44 70 45 36 46
REMARK SMILES IDX 73 47 67 48 66 49 37 51 59 52 44 53 58 54 45 55 48 56 57 57
REMARK SMILES IDX 71 58 46 59 47 60 56 62 72 63 49 64 38 65 39 66 43 67 40 68
REMARK SMILES IDX 42 69 41 70 60 71 61 72 65 73 62 74 64 75 63 76 50 77 51 78
REMARK SMILES IDX 55 79 52 80 54 81 53 82
REMARK H PARENT 21 6 7 15 13 25 26 31 70 50 48 61
REMARK Flexibility Score: inf
ROOT
ATOM      1  C   UNL A   1      32.109  30.503  26.552  1.00  0.00     0.023 C 
ENDROOT
BRANCH   1   2
ATOM      2  C   UNL A   1      31.460  29.944  25.290  1.00  0.00     0.116 C 
BRANCH   2   3
ATOM      3  N   UNL A   1      32.350  29.255  24.383  1.00  0.00    -0.354 N 
ATOM      4  C   UNL A   1      32.099  28.644  23.197  1.00  0.00     0.243 C 
ATOM      5  O   UNL A   1      33.080  28.318  22.518  1.00  0.00    -0.273 OA
ATOM      6  H   UNL A   1      33.290  29.223  24.673  1.00  0.00     0.163 HD
BRANCH   4   7
ATOM      7  C   UNL A   1      30.679  28.452  22.634  1.00  0.00     0.184 C 
BRANCH   7   8
ATOM      8  C   UNL A   1      30.275  29.765  21.938  1.00  0.00     0.157 C 
BRANCH   8   9
ATOM      9  C   UNL A   1      28.816  30.129  22.009  1.00  0.00     0.308 C 
ATOM     10  O   UNL A   1      28.056  30.134  21.051  1.00  0.00    -0.252 OA
BRANCH   9  11
ATOM     11  O   UNL A   1      28.474  30.449  23.287  1.00  0.00    -0.469 OA
ATOM     12  C   UNL A   1      27.619  31.588  23.429  1.00  0.00     0.282 C 
ENDBRANCH   9  11
ENDBRANCH   8   9
ENDBRANCH   7   8
BRANCH   7  13
ATOM     13  N   UNL A   1      29.649  27.861  23.495  1.00  0.00    -0.326 N 
ATOM     14  C   UNL A   1      29.385  26.585  23.869  1.00  0.00     0.318 C 
ATOM     15  H   UNL A   1      29.027  28.522  23.878  1.00  0.00     0.166 HD
ATOM     16  O   UNL A   1      28.208  26.358  24.161  1.00  0.00    -0.249 OA
BRANCH  14  17
ATOM     17  N   UNL A   1      30.349  25.618  23.936  1.00  0.00    -0.313 N 
ATOM     18  C   UNL A   1      30.894  24.864  22.812  1.00  0.00     0.183 C 
ATOM     19  C   UNL A   1      31.101  25.443  25.186  1.00  0.00     0.186 C 
ATOM     20  C   UNL A   1      32.272  24.219  23.052  1.00  0.00     0.284 C 
ATOM     21  C   UNL A   1      32.623  25.659  24.988  1.00  0.00     0.204 C 
ATOM     22  N   UNL A   1      33.198  25.143  23.717  1.00  0.00    -0.330 N 
ATOM     23  C   UNL A   1      33.456  25.002  26.085  1.00  0.00     0.073 C 
ATOM     24  C   UNL A   1      34.494  24.514  24.005  1.00  0.00     0.262 C 
ATOM     25  H   UNL A   1      33.343  25.917  23.069  1.00  0.00     0.348 HD
ATOM     26  C   UNL A   1      34.822  24.872  25.444  1.00  0.00     0.068 C 
ENDBRANCH  14  17
ENDBRANCH   7  13
ENDBRANCH   4   7
ENDBRANCH   2   3
ENDBRANCH   1   2
BRANCH   1  27
ATOM     27  C   UNL A   1      31.761  31.939  26.933  1.00  0.00     0.023 C 
BRANCH  27  28
ATOM     28  C   UNL A   1      32.938  32.876  27.146  1.00  0.00     0.116 C 
BRANCH  28  29
ATOM     29  N   UNL A   1      32.569  34.139  27.762  1.00  0.00    -0.352 N 
ATOM     30  C   UNL A   1      33.180  34.810  28.794  1.00  0.00     0.251 C 
ATOM     31  H   UNL A   1      31.768  34.574  27.389  1.00  0.00     0.163 HD
ATOM     32  O   UNL A   1      32.682  35.828  29.253  1.00  0.00    -0.269 OA
BRANCH  30  33
ATOM     33  C   UNL A   1      34.425  34.266  29.376  1.00  0.00     0.039 A 
ATOM     34  C   UNL A   1      34.336  33.494  30.536  1.00  0.00     0.014 A 
ATOM     35  C   UNL A   1      35.661  34.481  28.763  1.00  0.00     0.014 A 
ATOM     36  C   UNL A   1      35.480  32.874  31.041  1.00  0.00     0.010 A 
ATOM     37  C   UNL A   1      36.785  33.799  29.220  1.00  0.00     0.010 A 
ATOM     38  C   UNL A   1      36.705  32.990  30.363  1.00  0.00    -0.014 A 
BRANCH  38  39
ATOM     39  C   UNL A   1      37.917  32.274  30.833  1.00  0.00     0.031 A 
ATOM     40  C   UNL A   1      38.745  32.849  31.947  1.00  0.00     0.074 A 
ATOM     41  C   UNL A   1      38.311  31.147  30.209  1.00  0.00     0.049 A 
ATOM     42  N   UNL A   1      39.876  32.416  32.443  1.00  0.00    -0.248 NA
ATOM     43  C   UNL A   1      38.250  34.088  32.569  1.00  0.00     0.031 C 
ATOM     44  C   UNL A   1      37.616  30.507  29.088  1.00  0.00     0.029 A 
ATOM     45  N   UNL A   1      39.401  30.342  30.425  1.00  0.00    -0.354 N 
ATOM     46  C   UNL A   1      40.237  33.339  33.415  1.00  0.00     0.074 A 
ATOM     47  C   UNL A   1      39.233  34.380  33.408  1.00  0.00     0.031 C 
ATOM     48  C   UNL A   1      38.284  29.398  28.734  1.00  0.00     0.029 A 
ATOM     49  C   UNL A   1      39.473  29.270  29.569  1.00  0.00     0.049 A 
ATOM     50  H   UNL A   1      40.069  30.517  31.127  1.00  0.00     0.167 HD
ATOM     51  C   UNL A   1      41.300  33.315  34.254  1.00  0.00     0.031 A 
ATOM     52  C   UNL A   1      40.399  28.299  29.462  1.00  0.00     0.031 A 
ATOM     53  C   UNL A   1      42.290  32.272  34.272  1.00  0.00     0.049 A 
ATOM     54  C   UNL A   1      41.578  28.301  30.394  1.00  0.00     0.074 A 
ATOM     55  C   UNL A   1      43.369  32.124  35.126  1.00  0.00     0.029 A 
ATOM     56  N   UNL A   1      42.322  31.200  33.394  1.00  0.00    -0.354 N 
ATOM     57  N   UNL A   1      41.869  29.144  31.355  1.00  0.00    -0.248 NA
ATOM     58  C   UNL A   1      42.553  27.213  30.232  1.00  0.00     0.031 C 
ATOM     59  C   UNL A   1      44.083  30.988  34.731  1.00  0.00     0.029 A 
ATOM     60  C   UNL A   1      43.418  30.400  33.667  1.00  0.00     0.049 A 
ATOM     61  H   UNL A   1      41.663  31.033  32.682  1.00  0.00     0.167 HD
ATOM     62  C   UNL A   1      43.044  28.675  31.927  1.00  0.00     0.074 A 
ATOM     63  C   UNL A   1      43.404  27.466  31.216  1.00  0.00     0.031 C 
ATOM     64  C   UNL A   1      43.761  29.201  32.950  1.00  0.00     0.031 A 
BRANCH  51  65
ATOM     65  C   UNL A   1      41.448  34.459  35.217  1.00  0.00    -0.014 A 
ATOM     66  C   UNL A   1      42.147  35.623  34.863  1.00  0.00     0.009 A 
ATOM     67  C   UNL A   1      40.852  34.384  36.485  1.00  0.00     0.009 A 
ATOM     68  C   UNL A   1      42.280  36.673  35.774  1.00  0.00     0.001 A 
ATOM     69  C   UNL A   1      40.960  35.447  37.383  1.00  0.00     0.001 A 
ATOM     70  C   UNL A   1      41.682  36.586  37.031  1.00  0.00     0.000 A 
ENDBRANCH  51  65
BRANCH  52  71
ATOM     71  C   UNL A   1      40.247  27.233  28.437  1.00  0.00    -0.014 A 
ATOM     72  C   UNL A   1      39.511  26.072  28.720  1.00  0.00     0.009 A 
ATOM     73  C   UNL A   1      40.841  27.367  27.172  1.00  0.00     0.009 A 
ATOM     74  C   UNL A   1      39.396  25.056  27.768  1.00  0.00     0.001 A 
ATOM     75  C   UNL A   1      40.699  26.363  26.213  1.00  0.00     0.001 A 
ATOM     76  C   UNL A   1      39.986  25.204  26.515  1.00  0.00     0.000 A 
ENDBRANCH  52  71
BRANCH  64  77
ATOM     77  C   UNL A   1      44.990  28.452  33.384  1.00  0.00    -0.014 A 
ATOM     78  C   UNL A   1      46.252  28.752  32.848  1.00  0.00     0.009 A 
ATOM     79  C   UNL A   1      44.888  27.469  34.380  1.00  0.00     0.009 A 
ATOM     80  C   UNL A   1      47.383  28.060  33.282  1.00  0.00     0.001 A 
ATOM     81  C   UNL A   1      46.025  26.799  34.832  1.00  0.00     0.001 A 
ATOM     82  C   UNL A   1      47.270  27.090  34.278  1.00  0.00     0.000 A 
ENDBRANCH  64  77
ENDBRANCH  38  39
ENDBRANCH  30  33
ENDBRANCH  28  29
ENDBRANCH  27  28
ENDBRANCH   1  27
TORSDOF 16
ENDMDL
