MODEL 1
REMARK VINA RESULT:     -11.6      0.000      0.000
REMARK SMILES COc1ccc(-c2cc(C[C@H]3CCCC3=O)ccc2[C@@H](C)C(=O)NCCCCNC(=O)c2ccc(-c3c4nc(c(-c5ccccc5)c5ccc([nH]5)c(-c5ccccc5)c5nc(c(-c6ccccc6)c6ccc3[nH]6)C=C5)C=C4)cc2)cc1
REMARK SMILES IDX 26 1 25 2 24 3 22 4 23 5 20 7 21 8 19 9 7 10 8 11 9 12 18 13
REMARK SMILES IDX 17 14 6 15 3 16 4 17 81 18 5 19 80 20 2 21 1 22 10 23 11 24
REMARK SMILES IDX 12 25 15 26 13 27 14 28 16 29 27 30 28 31 29 32 30 33 31 35
REMARK SMILES IDX 32 36 33 37 79 38 34 39 78 40 35 41 36 42 37 43 72 44 38 45
REMARK SMILES IDX 77 46 71 47 73 48 39 49 76 50 70 51 69 52 40 54 62 55 47 56
REMARK SMILES IDX 61 57 48 58 51 59 60 60 74 61 49 62 50 63 59 65 75 66 52 67
REMARK SMILES IDX 41 68 42 69 46 70 43 71 45 72 44 73 63 74 64 75 68 76 65 77
REMARK SMILES IDX 67 78 66 79 53 80 54 81 58 82 55 83 57 84 56 85
REMARK H PARENT 24 6 29 34 73 53 51 64
REMARK Flexibility Score: inf
ROOT
ATOM      1  C   UNL A   1      34.544  30.719  27.626  1.00  0.00     0.023 C 
ENDROOT
BRANCH   1   2
ATOM      2  C   UNL A   1      34.308  29.231  27.349  1.00  0.00     0.116 C 
BRANCH   2   3
ATOM      3  N   UNL A   1      33.040  28.778  27.877  1.00  0.00    -0.356 N 
ATOM      4  C   UNL A   1      32.114  27.898  27.403  1.00  0.00     0.227 C 
ATOM      5  O   UNL A   1      31.075  27.808  28.070  1.00  0.00    -0.274 OA
ATOM      6  H   UNL A   1      32.801  29.180  28.743  1.00  0.00     0.163 HD
BRANCH   4   7
ATOM      7  C   UNL A   1      32.291  27.044  26.132  1.00  0.00     0.106 C 
ATOM      8  C   UNL A   1      33.702  26.493  25.923  1.00  0.00     0.023 C 
BRANCH   7   9
ATOM      9  C   UNL A   1      31.637  27.665  24.898  1.00  0.00    -0.028 A 
ATOM     10  C   UNL A   1      31.024  26.878  23.893  1.00  0.00    -0.014 A 
ATOM     11  C   UNL A   1      30.313  27.517  22.854  1.00  0.00     0.012 A 
ATOM     12  C   UNL A   1      30.265  28.912  22.746  1.00  0.00    -0.047 A 
ATOM     13  C   UNL A   1      31.622  29.059  24.737  1.00  0.00     0.005 A 
ATOM     14  C   UNL A   1      30.920  29.676  23.705  1.00  0.00     0.004 A 
BRANCH  10  15
ATOM     15  C   UNL A   1      31.290  25.438  23.748  1.00  0.00    -0.018 A 
ATOM     16  C   UNL A   1      31.945  22.716  23.414  1.00  0.00     0.118 A 
ATOM     17  C   UNL A   1      32.625  23.692  22.693  1.00  0.00     0.047 A 
ATOM     18  C   UNL A   1      30.946  23.096  24.313  1.00  0.00     0.047 A 
ATOM     19  C   UNL A   1      32.298  25.036  22.855  1.00  0.00     0.012 A 
ATOM     20  C   UNL A   1      30.616  24.451  24.475  1.00  0.00     0.012 A 
BRANCH  16  21
ATOM     21  O   UNL A   1      32.372  21.438  23.181  1.00  0.00    -0.497 OA
ATOM     22  C   UNL A   1      33.370  20.947  24.066  1.00  0.00     0.278 C 
ENDBRANCH  16  21
ENDBRANCH  10  15
BRANCH  12  23
ATOM     23  C   UNL A   1      29.662  29.580  21.536  1.00  0.00     0.047 C 
BRANCH  23  24
ATOM     24  C   UNL A   1      28.239  30.120  21.745  1.00  0.00     0.060 C 
ATOM     25  C   UNL A   1      27.642  30.003  23.155  1.00  0.00     0.012 C 
ATOM     26  C   UNL A   1      28.166  31.611  21.504  1.00  0.00     0.136 C 
ATOM     27  C   UNL A   1      27.893  31.347  23.835  1.00  0.00     0.009 C 
ATOM     28  C   UNL A   1      27.744  32.379  22.729  1.00  0.00     0.076 C 
ATOM     29  O   UNL A   1      28.399  32.137  20.422  1.00  0.00    -0.299 OA
ENDBRANCH  23  24
ENDBRANCH  12  23
ENDBRANCH   7   9
ENDBRANCH   4   7
ENDBRANCH   2   3
ENDBRANCH   1   2
BRANCH   1  30
ATOM     30  C   UNL A   1      33.289  31.580  27.703  1.00  0.00     0.023 C 
BRANCH  30  31
ATOM     31  C   UNL A   1      33.446  32.996  27.166  1.00  0.00     0.116 C 
BRANCH  31  32
ATOM     32  N   UNL A   1      32.822  34.024  27.987  1.00  0.00    -0.352 N 
ATOM     33  C   UNL A   1      33.301  34.574  29.155  1.00  0.00     0.251 C 
ATOM     34  H   UNL A   1      31.955  34.366  27.669  1.00  0.00     0.163 HD
ATOM     35  O   UNL A   1      32.642  35.389  29.785  1.00  0.00    -0.269 OA
BRANCH  33  36
ATOM     36  C   UNL A   1      34.610  34.114  29.664  1.00  0.00     0.039 A 
ATOM     37  C   UNL A   1      34.642  33.267  30.774  1.00  0.00     0.014 A 
ATOM     38  C   UNL A   1      35.785  34.443  28.984  1.00  0.00     0.014 A 
ATOM     39  C   UNL A   1      35.850  32.678  31.151  1.00  0.00     0.010 A 
ATOM     40  C   UNL A   1      36.968  33.793  29.311  1.00  0.00     0.010 A 
ATOM     41  C   UNL A   1      37.011  32.901  30.393  1.00  0.00    -0.014 A 
BRANCH  41  42
ATOM     42  C   UNL A   1      38.285  32.212  30.711  1.00  0.00     0.031 A 
ATOM     43  C   UNL A   1      39.265  32.848  31.656  1.00  0.00     0.074 A 
ATOM     44  C   UNL A   1      38.595  31.057  30.088  1.00  0.00     0.049 A 
ATOM     45  N   UNL A   1      40.464  32.448  31.994  1.00  0.00    -0.248 NA
ATOM     46  C   UNL A   1      38.856  34.119  32.277  1.00  0.00     0.031 C 
ATOM     47  C   UNL A   1      37.753  30.363  29.111  1.00  0.00     0.029 A 
ATOM     48  N   UNL A   1      39.713  30.267  30.182  1.00  0.00    -0.354 N 
ATOM     49  C   UNL A   1      40.958  33.426  32.847  1.00  0.00     0.074 A 
ATOM     50  C   UNL A   1      39.953  34.462  32.936  1.00  0.00     0.031 C 
ATOM     51  C   UNL A   1      38.372  29.237  28.718  1.00  0.00     0.029 A 
ATOM     52  C   UNL A   1      39.666  29.148  29.385  1.00  0.00     0.049 A 
ATOM     53  H   UNL A   1      40.477  30.481  30.765  1.00  0.00     0.167 HD
ATOM     54  C   UNL A   1      42.135  33.451  33.515  1.00  0.00     0.031 A 
ATOM     55  C   UNL A   1      40.567  28.163  29.212  1.00  0.00     0.031 A 
ATOM     56  C   UNL A   1      43.124  32.410  33.450  1.00  0.00     0.049 A 
ATOM     57  C   UNL A   1      41.861  28.208  29.977  1.00  0.00     0.074 A 
ATOM     58  C   UNL A   1      44.322  32.315  34.135  1.00  0.00     0.029 A 
ATOM     59  N   UNL A   1      43.025  31.280  32.654  1.00  0.00    -0.354 N 
ATOM     60  N   UNL A   1      42.285  29.108  30.829  1.00  0.00    -0.248 NA
ATOM     61  C   UNL A   1      42.793  27.091  29.763  1.00  0.00     0.031 C 
ATOM     62  C   UNL A   1      44.965  31.141  33.728  1.00  0.00     0.029 A 
ATOM     63  C   UNL A   1      44.146  30.487  32.821  1.00  0.00     0.049 A 
ATOM     64  H   UNL A   1      42.269  31.073  32.058  1.00  0.00     0.167 HD
ATOM     65  C   UNL A   1      43.519  28.655  31.275  1.00  0.00     0.074 A 
ATOM     66  C   UNL A   1      43.769  27.393  30.609  1.00  0.00     0.031 C 
ATOM     67  C   UNL A   1      44.372  29.232  32.156  1.00  0.00     0.031 A 
BRANCH  54  68
ATOM     68  C   UNL A   1      42.409  34.646  34.382  1.00  0.00    -0.014 A 
ATOM     69  C   UNL A   1      42.051  34.653  35.740  1.00  0.00     0.009 A 
ATOM     70  C   UNL A   1      43.058  35.768  33.844  1.00  0.00     0.009 A 
ATOM     71  C   UNL A   1      42.304  35.774  36.533  1.00  0.00     0.001 A 
ATOM     72  C   UNL A   1      43.334  36.877  34.646  1.00  0.00     0.001 A 
ATOM     73  C   UNL A   1      42.950  36.882  35.986  1.00  0.00     0.000 A 
ENDBRANCH  54  68
BRANCH  55  74
ATOM     74  C   UNL A   1      40.274  27.034  28.292  1.00  0.00    -0.014 A 
ATOM     75  C   UNL A   1      39.531  25.931  28.740  1.00  0.00     0.009 A 
ATOM     76  C   UNL A   1      40.749  27.042  26.972  1.00  0.00     0.009 A 
ATOM     77  C   UNL A   1      39.294  24.845  27.893  1.00  0.00     0.001 A 
ATOM     78  C   UNL A   1      40.489  25.967  26.119  1.00  0.00     0.001 A 
ATOM     79  C   UNL A   1      39.771  24.865  26.583  1.00  0.00     0.000 A 
ENDBRANCH  55  74
BRANCH  67  80
ATOM     80  C   UNL A   1      45.631  28.484  32.480  1.00  0.00    -0.014 A 
ATOM     81  C   UNL A   1      45.681  27.571  33.544  1.00  0.00     0.009 A 
ATOM     82  C   UNL A   1      46.771  28.666  31.681  1.00  0.00     0.009 A 
ATOM     83  C   UNL A   1      46.860  26.876  33.819  1.00  0.00     0.001 A 
ATOM     84  C   UNL A   1      47.939  27.949  31.943  1.00  0.00     0.001 A 
ATOM     85  C   UNL A   1      47.985  27.062  33.017  1.00  0.00     0.000 A 
ENDBRANCH  67  80
ENDBRANCH  41  42
ENDBRANCH  33  36
ENDBRANCH  31  32
ENDBRANCH  30  31
ENDBRANCH   1  30
TORSDOF 16
ENDMDL
MODEL 2
REMARK VINA RESULT:     -11.5      1.912      7.195
REMARK SMILES COc1ccc(-c2cc(C[C@H]3CCCC3=O)ccc2[C@@H](C)C(=O)NCCCCNC(=O)c2ccc(-c3c4nc(c(-c5ccccc5)c5ccc([nH]5)c(-c5ccccc5)c5nc(c(-c6ccccc6)c6ccc3[nH]6)C=C5)C=C4)cc2)cc1
REMARK SMILES IDX 26 1 25 2 24 3 22 4 23 5 20 7 21 8 19 9 7 10 8 11 9 12 18 13
REMARK SMILES IDX 17 14 6 15 3 16 4 17 81 18 5 19 80 20 2 21 1 22 10 23 11 24
REMARK SMILES IDX 12 25 15 26 13 27 14 28 16 29 27 30 28 31 29 32 30 33 31 35
REMARK SMILES IDX 32 36 33 37 79 38 34 39 78 40 35 41 36 42 37 43 72 44 38 45
REMARK SMILES IDX 77 46 71 47 73 48 39 49 76 50 70 51 69 52 40 54 62 55 47 56
REMARK SMILES IDX 61 57 48 58 51 59 60 60 74 61 49 62 50 63 59 65 75 66 52 67
REMARK SMILES IDX 41 68 42 69 46 70 43 71 45 72 44 73 63 74 64 75 68 76 65 77
REMARK SMILES IDX 67 78 66 79 53 80 54 81 58 82 55 83 57 84 56 85
REMARK H PARENT 24 6 29 34 73 53 51 64
REMARK Flexibility Score: inf
ROOT
ATOM      1  C   UNL A   1      31.019  31.922  26.231  1.00  0.00     0.023 C 
ENDROOT
BRANCH   1   2
ATOM      2  C   UNL A   1      30.994  30.905  25.086  1.00  0.00     0.116 C 
BRANCH   2   3
ATOM      3  N   UNL A   1      32.181  30.078  25.072  1.00  0.00    -0.356 N 
ATOM      4  C   UNL A   1      32.422  28.815  25.524  1.00  0.00     0.227 C 
ATOM      5  O   UNL A   1      33.597  28.434  25.439  1.00  0.00    -0.274 OA
ATOM      6  H   UNL A   1      32.962  30.508  24.655  1.00  0.00     0.163 HD
BRANCH   4   7
ATOM      7  C   UNL A   1      31.348  27.878  26.110  1.00  0.00     0.106 C 
ATOM      8  C   UNL A   1      31.324  27.808  27.637  1.00  0.00     0.023 C 
BRANCH   7   9
ATOM      9  C   UNL A   1      31.267  26.534  25.388  1.00  0.00    -0.028 A 
ATOM     10  C   UNL A   1      30.829  26.424  24.046  1.00  0.00    -0.014 A 
ATOM     11  C   UNL A   1      30.915  25.176  23.393  1.00  0.00     0.012 A 
ATOM     12  C   UNL A   1      31.347  24.024  24.061  1.00  0.00    -0.047 A 
ATOM     13  C   UNL A   1      31.643  25.356  26.052  1.00  0.00     0.005 A 
ATOM     14  C   UNL A   1      31.719  24.130  25.396  1.00  0.00     0.004 A 
BRANCH  10  15
ATOM     15  C   UNL A   1      30.070  27.492  23.375  1.00  0.00    -0.018 A 
ATOM     16  C   UNL A   1      28.506  29.524  22.204  1.00  0.00     0.118 A 
ATOM     17  C   UNL A   1      27.925  28.608  23.075  1.00  0.00     0.047 A 
ATOM     18  C   UNL A   1      29.872  29.436  21.927  1.00  0.00     0.047 A 
ATOM     19  C   UNL A   1      28.696  27.601  23.649  1.00  0.00     0.012 A 
ATOM     20  C   UNL A   1      30.650  28.421  22.505  1.00  0.00     0.012 A 
BRANCH  16  21
ATOM     21  O   UNL A   1      27.648  30.474  21.724  1.00  0.00    -0.497 OA
ATOM     22  C   UNL A   1      28.233  31.488  20.918  1.00  0.00     0.278 C 
ENDBRANCH  16  21
ENDBRANCH  10  15
BRANCH  12  23
ATOM     23  C   UNL A   1      31.260  22.666  23.411  1.00  0.00     0.047 C 
BRANCH  23  24
ATOM     24  C   UNL A   1      32.592  22.131  22.865  1.00  0.00     0.060 C 
ATOM     25  C   UNL A   1      33.593  23.160  22.319  1.00  0.00     0.012 C 
ATOM     26  C   UNL A   1      33.407  21.453  23.944  1.00  0.00     0.136 C 
ATOM     27  C   UNL A   1      34.563  23.456  23.460  1.00  0.00     0.009 C 
ATOM     28  C   UNL A   1      34.731  22.129  24.185  1.00  0.00     0.076 C 
ATOM     29  O   UNL A   1      33.042  20.447  24.540  1.00  0.00    -0.299 OA
ENDBRANCH  23  24
ENDBRANCH  12  23
ENDBRANCH   7   9
ENDBRANCH   4   7
ENDBRANCH   2   3
ENDBRANCH   1   2
BRANCH   1  30
ATOM     30  C   UNL A   1      32.106  31.707  27.277  1.00  0.00     0.023 C 
BRANCH  30  31
ATOM     31  C   UNL A   1      33.150  32.812  27.357  1.00  0.00     0.116 C 
BRANCH  31  32
ATOM     32  N   UNL A   1      32.615  34.124  27.690  1.00  0.00    -0.352 N 
ATOM     33  C   UNL A   1      33.064  34.997  28.656  1.00  0.00     0.251 C 
ATOM     34  H   UNL A   1      31.839  34.422  27.163  1.00  0.00     0.163 HD
ATOM     35  O   UNL A   1      32.480  36.047  28.879  1.00  0.00    -0.269 OA
BRANCH  33  36
ATOM     36  C   UNL A   1      34.242  34.609  29.460  1.00  0.00     0.039 A 
ATOM     37  C   UNL A   1      34.041  34.039  30.719  1.00  0.00     0.014 A 
ATOM     38  C   UNL A   1      35.528  34.722  28.926  1.00  0.00     0.014 A 
ATOM     39  C   UNL A   1      35.129  33.501  31.408  1.00  0.00     0.010 A 
ATOM     40  C   UNL A   1      36.594  34.114  29.575  1.00  0.00     0.010 A 
ATOM     41  C   UNL A   1      36.404  33.493  30.820  1.00  0.00    -0.014 A 
BRANCH  41  42
ATOM     42  C   UNL A   1      37.558  32.840  31.485  1.00  0.00     0.031 A 
ATOM     43  C   UNL A   1      38.222  31.657  30.839  1.00  0.00     0.074 A 
ATOM     44  C   UNL A   1      37.955  33.259  32.703  1.00  0.00     0.049 A 
ATOM     45  N   UNL A   1      39.186  30.899  31.297  1.00  0.00    -0.248 NA
ATOM     46  C   UNL A   1      37.715  31.252  29.517  1.00  0.00     0.031 C 
ATOM     47  C   UNL A   1      37.359  34.363  33.460  1.00  0.00     0.029 A 
ATOM     48  N   UNL A   1      38.952  32.795  33.523  1.00  0.00    -0.354 N 
ATOM     49  C   UNL A   1      39.382  29.919  30.333  1.00  0.00     0.074 A 
ATOM     50  C   UNL A   1      38.408  30.147  29.289  1.00  0.00     0.031 C 
ATOM     51  C   UNL A   1      38.022  34.509  34.619  1.00  0.00     0.029 A 
ATOM     52  C   UNL A   1      39.062  33.489  34.705  1.00  0.00     0.049 A 
ATOM     53  H   UNL A   1      39.535  32.038  33.288  1.00  0.00     0.167 HD
ATOM     54  C   UNL A   1      40.306  28.930  30.307  1.00  0.00     0.031 A 
ATOM     55  C   UNL A   1      39.905  33.319  35.740  1.00  0.00     0.031 A 
ATOM     56  C   UNL A   1      41.293  28.719  31.330  1.00  0.00     0.049 A 
ATOM     57  C   UNL A   1      40.931  32.222  35.680  1.00  0.00     0.074 A 
ATOM     58  C   UNL A   1      42.310  27.782  31.366  1.00  0.00     0.029 A 
ATOM     59  N   UNL A   1      41.388  29.461  32.496  1.00  0.00    -0.354 N 
ATOM     60  N   UNL A   1      41.146  31.344  34.730  1.00  0.00    -0.248 NA
ATOM     61  C   UNL A   1      41.839  32.102  36.830  1.00  0.00     0.031 C 
ATOM     62  C   UNL A   1      43.001  27.935  32.573  1.00  0.00     0.029 A 
ATOM     63  C   UNL A   1      42.440  28.996  33.266  1.00  0.00     0.049 A 
ATOM     64  H   UNL A   1      40.796  30.209  32.741  1.00  0.00     0.167 HD
ATOM     65  C   UNL A   1      42.228  30.586  35.155  1.00  0.00     0.074 A 
ATOM     66  C   UNL A   1      42.635  31.116  36.440  1.00  0.00     0.031 C 
ATOM     67  C   UNL A   1      42.833  29.542  34.537  1.00  0.00     0.031 A 
BRANCH  54  68
ATOM     68  C   UNL A   1      40.291  28.006  29.123  1.00  0.00    -0.014 A 
ATOM     69  C   UNL A   1      40.991  28.323  27.949  1.00  0.00     0.009 A 
ATOM     70  C   UNL A   1      39.593  26.791  29.192  1.00  0.00     0.009 A 
ATOM     71  C   UNL A   1      40.963  27.458  26.853  1.00  0.00     0.001 A 
ATOM     72  C   UNL A   1      39.588  25.916  28.105  1.00  0.00     0.001 A 
ATOM     73  C   UNL A   1      40.265  26.254  26.934  1.00  0.00     0.000 A 
ENDBRANCH  54  68
BRANCH  55  74
ATOM     74  C   UNL A   1      39.836  34.222  36.917  1.00  0.00    -0.014 A 
ATOM     75  C   UNL A   1      39.096  33.853  38.051  1.00  0.00     0.009 A 
ATOM     76  C   UNL A   1      40.492  35.463  36.909  1.00  0.00     0.009 A 
ATOM     77  C   UNL A   1      38.989  34.720  39.141  1.00  0.00     0.001 A 
ATOM     78  C   UNL A   1      40.406  36.317  38.011  1.00  0.00     0.001 A 
ATOM     79  C   UNL A   1      39.645  35.950  39.121  1.00  0.00     0.000 A 
ENDBRANCH  55  74
BRANCH  67  80
ATOM     80  C   UNL A   1      44.020  28.934  35.223  1.00  0.00    -0.014 A 
ATOM     81  C   UNL A   1      43.868  27.896  36.154  1.00  0.00     0.009 A 
ATOM     82  C   UNL A   1      45.311  29.380  34.900  1.00  0.00     0.009 A 
ATOM     83  C   UNL A   1      44.988  27.335  36.771  1.00  0.00     0.001 A 
ATOM     84  C   UNL A   1      46.429  28.798  35.499  1.00  0.00     0.001 A 
ATOM     85  C   UNL A   1      46.266  27.783  36.440  1.00  0.00     0.000 A 
ENDBRANCH  67  80
ENDBRANCH  41  42
ENDBRANCH  33  36
ENDBRANCH  31  32
ENDBRANCH  30  31
ENDBRANCH   1  30
TORSDOF 16
ENDMDL
MODEL 3
REMARK VINA RESULT:     -11.4      1.527      4.443
REMARK SMILES COc1ccc(-c2cc(C[C@H]3CCCC3=O)ccc2[C@@H](C)C(=O)NCCCCNC(=O)c2ccc(-c3c4nc(c(-c5ccccc5)c5ccc([nH]5)c(-c5ccccc5)c5nc(c(-c6ccccc6)c6ccc3[nH]6)C=C5)C=C4)cc2)cc1
REMARK SMILES IDX 26 1 25 2 24 3 22 4 23 5 20 7 21 8 19 9 7 10 8 11 9 12 18 13
REMARK SMILES IDX 17 14 6 15 3 16 4 17 81 18 5 19 80 20 2 21 1 22 10 23 11 24
REMARK SMILES IDX 12 25 15 26 13 27 14 28 16 29 27 30 28 31 29 32 30 33 31 35
REMARK SMILES IDX 32 36 33 37 79 38 34 39 78 40 35 41 36 42 37 43 72 44 38 45
REMARK SMILES IDX 77 46 71 47 73 48 39 49 76 50 70 51 69 52 40 54 62 55 47 56
REMARK SMILES IDX 61 57 48 58 51 59 60 60 74 61 49 62 50 63 59 65 75 66 52 67
REMARK SMILES IDX 41 68 42 69 46 70 43 71 45 72 44 73 63 74 64 75 68 76 65 77
REMARK SMILES IDX 67 78 66 79 53 80 54 81 58 82 55 83 57 84 56 85
REMARK H PARENT 24 6 29 34 73 53 51 64
REMARK Flexibility Score: inf
ROOT
ATOM      1  C   UNL A   1      30.987  32.032  26.134  1.00  0.00     0.023 C 
ENDROOT
BRANCH   1   2
ATOM      2  C   UNL A   1      30.905  30.911  25.094  1.00  0.00     0.116 C 
BRANCH   2   3
ATOM      3  N   UNL A   1      32.107  30.107  25.068  1.00  0.00    -0.356 N 
ATOM      4  C   UNL A   1      32.378  28.851  25.521  1.00  0.00     0.227 C 
ATOM      5  O   UNL A   1      33.558  28.493  25.423  1.00  0.00    -0.274 OA
ATOM      6  H   UNL A   1      32.875  30.552  24.641  1.00  0.00     0.163 HD
BRANCH   4   7
ATOM      7  C   UNL A   1      31.328  27.895  26.122  1.00  0.00     0.106 C 
ATOM      8  C   UNL A   1      31.327  27.825  27.650  1.00  0.00     0.023 C 
BRANCH   7   9
ATOM      9  C   UNL A   1      31.261  26.550  25.401  1.00  0.00    -0.028 A 
ATOM     10  C   UNL A   1      30.827  26.436  24.058  1.00  0.00    -0.014 A 
ATOM     11  C   UNL A   1      30.925  25.188  23.405  1.00  0.00     0.012 A 
ATOM     12  C   UNL A   1      31.365  24.040  24.075  1.00  0.00    -0.047 A 
ATOM     13  C   UNL A   1      31.645  25.376  26.067  1.00  0.00     0.005 A 
ATOM     14  C   UNL A   1      31.733  24.150  25.412  1.00  0.00     0.004 A 
BRANCH  10  15
ATOM     15  C   UNL A   1      30.061  27.497  23.384  1.00  0.00    -0.018 A 
ATOM     16  C   UNL A   1      28.484  29.515  22.207  1.00  0.00     0.118 A 
ATOM     17  C   UNL A   1      27.907  28.593  23.075  1.00  0.00     0.047 A 
ATOM     18  C   UNL A   1      29.851  29.440  21.935  1.00  0.00     0.047 A 
ATOM     19  C   UNL A   1      28.685  27.593  23.652  1.00  0.00     0.012 A 
ATOM     20  C   UNL A   1      30.636  28.431  22.516  1.00  0.00     0.012 A 
BRANCH  16  21
ATOM     21  O   UNL A   1      27.619  30.458  21.724  1.00  0.00    -0.497 OA
ATOM     22  C   UNL A   1      28.176  31.410  20.828  1.00  0.00     0.278 C 
ENDBRANCH  16  21
ENDBRANCH  10  15
BRANCH  12  23
ATOM     23  C   UNL A   1      31.291  22.681  23.426  1.00  0.00     0.047 C 
BRANCH  23  24
ATOM     24  C   UNL A   1      32.624  22.166  22.863  1.00  0.00     0.060 C 
ATOM     25  C   UNL A   1      33.566  23.201  22.229  1.00  0.00     0.012 C 
ATOM     26  C   UNL A   1      33.500  21.580  23.948  1.00  0.00     0.136 C 
ATOM     27  C   UNL A   1      34.561  23.594  23.318  1.00  0.00     0.009 C 
ATOM     28  C   UNL A   1      34.804  22.317  24.106  1.00  0.00     0.076 C 
ATOM     29  O   UNL A   1      33.194  20.595  24.610  1.00  0.00    -0.299 OA
ENDBRANCH  23  24
ENDBRANCH  12  23
ENDBRANCH   7   9
ENDBRANCH   4   7
ENDBRANCH   2   3
ENDBRANCH   1   2
BRANCH   1  30
ATOM     30  C   UNL A   1      32.034  31.839  27.226  1.00  0.00     0.023 C 
BRANCH  30  31
ATOM     31  C   UNL A   1      33.092  32.931  27.303  1.00  0.00     0.116 C 
BRANCH  31  32
ATOM     32  N   UNL A   1      32.597  34.217  27.774  1.00  0.00    -0.352 N 
ATOM     33  C   UNL A   1      33.115  35.002  28.780  1.00  0.00     0.251 C 
ATOM     34  H   UNL A   1      31.796  34.566  27.319  1.00  0.00     0.163 HD
ATOM     35  O   UNL A   1      32.560  36.036  29.122  1.00  0.00    -0.269 OA
BRANCH  33  36
ATOM     36  C   UNL A   1      34.331  34.536  29.478  1.00  0.00     0.039 A 
ATOM     37  C   UNL A   1      34.198  33.904  30.716  1.00  0.00     0.014 A 
ATOM     38  C   UNL A   1      35.581  34.640  28.862  1.00  0.00     0.014 A 
ATOM     39  C   UNL A   1      35.311  33.297  31.298  1.00  0.00     0.010 A 
ATOM     40  C   UNL A   1      36.668  33.966  29.403  1.00  0.00     0.010 A 
ATOM     41  C   UNL A   1      36.542  33.284  30.624  1.00  0.00    -0.014 A 
BRANCH  41  42
ATOM     42  C   UNL A   1      37.717  32.562  31.171  1.00  0.00     0.031 A 
ATOM     43  C   UNL A   1      38.392  33.066  32.416  1.00  0.00     0.074 A 
ATOM     44  C   UNL A   1      38.223  31.505  30.506  1.00  0.00     0.049 A 
ATOM     45  N   UNL A   1      39.476  32.627  33.002  1.00  0.00    -0.248 NA
ATOM     46  C   UNL A   1      37.785  34.238  33.069  1.00  0.00     0.031 C 
ATOM     47  C   UNL A   1      37.692  30.949  29.259  1.00  0.00     0.029 A 
ATOM     48  N   UNL A   1      39.308  30.714  30.785  1.00  0.00    -0.354 N 
ATOM     49  C   UNL A   1      39.692  33.480  34.076  1.00  0.00     0.074 A 
ATOM     50  C   UNL A   1      38.658  34.490  34.033  1.00  0.00     0.031 C 
ATOM     51  C   UNL A   1      38.435  29.890  28.897  1.00  0.00     0.029 A 
ATOM     52  C   UNL A   1      39.515  29.715  29.864  1.00  0.00     0.049 A 
ATOM     53  H   UNL A   1      39.885  30.848  31.571  1.00  0.00     0.167 HD
ATOM     54  C   UNL A   1      40.653  33.417  35.027  1.00  0.00     0.031 A 
ATOM     55  C   UNL A   1      40.468  28.766  29.805  1.00  0.00     0.031 A 
ATOM     56  C   UNL A   1      41.666  32.399  35.087  1.00  0.00     0.049 A 
ATOM     57  C   UNL A   1      41.515  28.709  30.882  1.00  0.00     0.074 A 
ATOM     58  C   UNL A   1      42.647  32.214  36.045  1.00  0.00     0.029 A 
ATOM     59  N   UNL A   1      41.821  31.389  34.152  1.00  0.00    -0.354 N 
ATOM     60  N   UNL A   1      41.667  29.485  31.927  1.00  0.00    -0.248 NA
ATOM     61  C   UNL A   1      42.514  27.636  30.776  1.00  0.00     0.031 C 
ATOM     62  C   UNL A   1      43.419  31.110  35.670  1.00  0.00     0.029 A 
ATOM     63  C   UNL A   1      42.891  30.583  34.502  1.00  0.00     0.049 A 
ATOM     64  H   UNL A   1      41.255  31.262  33.356  1.00  0.00     0.167 HD
ATOM     65  C   UNL A   1      42.760  28.979  32.617  1.00  0.00     0.074 A 
ATOM     66  C   UNL A   1      43.224  27.822  31.880  1.00  0.00     0.031 C 
ATOM     67  C   UNL A   1      43.331  29.433  33.760  1.00  0.00     0.031 A 
BRANCH  54  68
ATOM     68  C   UNL A   1      40.645  34.482  36.085  1.00  0.00    -0.014 A 
ATOM     69  C   UNL A   1      39.906  34.322  37.268  1.00  0.00     0.009 A 
ATOM     70  C   UNL A   1      41.407  35.649  35.911  1.00  0.00     0.009 A 
ATOM     71  C   UNL A   1      39.901  35.325  38.241  1.00  0.00     0.001 A 
ATOM     72  C   UNL A   1      41.421  36.637  36.897  1.00  0.00     0.001 A 
ATOM     73  C   UNL A   1      40.662  36.478  38.055  1.00  0.00     0.000 A 
ENDBRANCH  54  68
BRANCH  55  74
ATOM     74  C   UNL A   1      40.468  27.773  28.700  1.00  0.00    -0.014 A 
ATOM     75  C   UNL A   1      41.186  28.026  27.521  1.00  0.00     0.009 A 
ATOM     76  C   UNL A   1      39.740  26.578  28.809  1.00  0.00     0.009 A 
ATOM     77  C   UNL A   1      41.150  27.116  26.461  1.00  0.00     0.001 A 
ATOM     78  C   UNL A   1      39.727  25.658  27.758  1.00  0.00     0.001 A 
ATOM     79  C   UNL A   1      40.423  25.933  26.581  1.00  0.00     0.000 A 
ENDBRANCH  55  74
BRANCH  67  80
ATOM     80  C   UNL A   1      44.491  28.652  34.302  1.00  0.00    -0.014 A 
ATOM     81  C   UNL A   1      45.804  28.918  33.883  1.00  0.00     0.009 A 
ATOM     82  C   UNL A   1      44.270  27.667  35.277  1.00  0.00     0.009 A 
ATOM     83  C   UNL A   1      46.871  28.188  34.411  1.00  0.00     0.001 A 
ATOM     84  C   UNL A   1      45.342  26.959  35.821  1.00  0.00     0.001 A 
ATOM     85  C   UNL A   1      46.640  27.214  35.381  1.00  0.00     0.000 A 
ENDBRANCH  67  80
ENDBRANCH  41  42
ENDBRANCH  33  36
ENDBRANCH  31  32
ENDBRANCH  30  31
ENDBRANCH   1  30
TORSDOF 16
ENDMDL
