MODEL 1
REMARK VINA RESULT:     -12.2      0.000      0.000
REMARK SMILES Cc1cccc(C(=O)NCCCCNC(=O)c2ccc(-c3c4nc(c(-c5ccccc5)c5ccc([nH]5)c(-c5ccccc5)c5nc(c(-c6ccccc6)c6ccc3[nH]6)C=C5)C=C4)cc2)c1NC(=O)Cc1ccccc1
REMARK SMILES IDX 11 1 10 2 9 3 7 4 8 5 6 7 1 8 2 9 3 10 65 11 4 12 5 13 66 14
REMARK SMILES IDX 67 15 68 17 69 18 70 19 71 20 75 21 72 22 74 23 73 24 12 25
REMARK SMILES IDX 13 26 14 27 15 28 16 30 17 31 18 32 64 33 19 34 63 35 20 36
REMARK SMILES IDX 21 37 22 38 57 39 23 40 62 41 56 42 58 43 24 44 61 45 55 46
REMARK SMILES IDX 54 47 25 49 47 50 32 51 46 52 33 53 36 54 45 55 59 56 34 57
REMARK SMILES IDX 35 58 44 60 60 61 37 62 26 63 27 64 31 65 28 66 30 67 29 68
REMARK SMILES IDX 48 69 49 70 53 71 50 72 52 73 51 74 38 75 39 76 43 77 40 78
REMARK SMILES IDX 42 79 41 80
REMARK H PARENT 9 6 66 16 14 29 58 48 36 59
REMARK Flexibility Score: inf
ROOT
ATOM      1  C   UNL A   1      31.778  30.299  26.425  1.00  0.00     0.023 C 
ENDROOT
BRANCH   1   2
ATOM      2  C   UNL A   1      32.292  29.693  25.100  1.00  0.00     0.116 C 
BRANCH   2   3
ATOM      3  N   UNL A   1      31.359  29.256  24.066  1.00  0.00    -0.352 N 
ATOM      4  C   UNL A   1      30.550  28.131  24.009  1.00  0.00     0.253 C 
ATOM      5  O   UNL A   1      29.453  28.199  23.458  1.00  0.00    -0.269 OA
ATOM      6  H   UNL A   1      31.292  29.853  23.286  1.00  0.00     0.163 HD
BRANCH   4   7
ATOM      7  C   UNL A   1      30.971  26.835  24.590  1.00  0.00     0.063 A 
ATOM      8  C   UNL A   1      34.278  25.557  25.670  1.00  0.00     0.046 C 
ATOM      9  C   UNL A   1      32.805  25.543  25.368  1.00  0.00    -0.027 A 
ATOM     10  C   UNL A   1      31.960  24.874  26.267  1.00  0.00     0.005 A 
ATOM     11  C   UNL A   1      32.225  26.302  24.339  1.00  0.00     0.056 A 
ATOM     12  C   UNL A   1      30.589  25.110  26.244  1.00  0.00     0.001 A 
ATOM     13  C   UNL A   1      30.108  26.164  25.471  1.00  0.00     0.016 A 
BRANCH  11  14
ATOM     14  N   UNL A   1      32.886  26.377  23.091  1.00  0.00    -0.325 N 
ATOM     15  C   UNL A   1      33.112  25.458  22.093  1.00  0.00     0.228 C 
ATOM     16  H   UNL A   1      33.261  27.267  22.899  1.00  0.00     0.169 HD
ATOM     17  O   UNL A   1      33.740  25.880  21.111  1.00  0.00    -0.274 OA
BRANCH  15  18
ATOM     18  C   UNL A   1      32.762  23.972  22.183  1.00  0.00     0.135 C 
BRANCH  18  19
ATOM     19  C   UNL A   1      33.696  23.093  23.005  1.00  0.00    -0.039 A 
ATOM     20  C   UNL A   1      35.075  23.360  23.008  1.00  0.00     0.004 A 
ATOM     21  C   UNL A   1      33.242  22.064  23.836  1.00  0.00     0.004 A 
ATOM     22  C   UNL A   1      35.958  22.605  23.791  1.00  0.00     0.000 A 
ATOM     23  C   UNL A   1      34.118  21.311  24.622  1.00  0.00     0.000 A 
ATOM     24  C   UNL A   1      35.480  21.578  24.599  1.00  0.00     0.000 A 
ENDBRANCH  18  19
ENDBRANCH  15  18
ENDBRANCH  11  14
ENDBRANCH   4   7
ENDBRANCH   2   3
ENDBRANCH   1   2
BRANCH   1  25
ATOM     25  C   UNL A   1      32.646  31.232  27.272  1.00  0.00     0.023 C 
BRANCH  25  26
ATOM     26  C   UNL A   1      34.001  30.700  27.709  1.00  0.00     0.116 C 
BRANCH  26  27
ATOM     27  N   UNL A   1      34.709  31.547  28.672  1.00  0.00    -0.352 N 
ATOM     28  C   UNL A   1      35.902  31.284  29.326  1.00  0.00     0.251 C 
ATOM     29  H   UNL A   1      34.284  32.410  28.883  1.00  0.00     0.163 HD
ATOM     30  O   UNL A   1      36.398  32.092  30.104  1.00  0.00    -0.269 OA
BRANCH  28  31
ATOM     31  C   UNL A   1      36.645  30.061  28.949  1.00  0.00     0.039 A 
ATOM     32  C   UNL A   1      36.934  29.159  29.975  1.00  0.00     0.014 A 
ATOM     33  C   UNL A   1      37.325  30.012  27.735  1.00  0.00     0.014 A 
ATOM     34  C   UNL A   1      38.109  28.424  29.903  1.00  0.00     0.010 A 
ATOM     35  C   UNL A   1      38.535  29.347  27.698  1.00  0.00     0.010 A 
ATOM     36  C   UNL A   1      38.968  28.643  28.825  1.00  0.00    -0.014 A 
BRANCH  36  37
ATOM     37  C   UNL A   1      40.384  28.303  28.880  1.00  0.00     0.031 A 
ATOM     38  C   UNL A   1      40.842  26.995  28.379  1.00  0.00     0.074 A 
ATOM     39  C   UNL A   1      41.268  29.168  29.433  1.00  0.00     0.049 A 
ATOM     40  N   UNL A   1      41.875  26.369  28.832  1.00  0.00    -0.248 NA
ATOM     41  C   UNL A   1      40.092  26.234  27.385  1.00  0.00     0.031 C 
ATOM     42  C   UNL A   1      42.725  29.056  29.439  1.00  0.00     0.029 A 
ATOM     43  N   UNL A   1      41.008  30.207  30.333  1.00  0.00    -0.354 N 
ATOM     44  C   UNL A   1      42.094  25.292  28.006  1.00  0.00     0.074 A 
ATOM     45  C   UNL A   1      40.888  25.173  27.225  1.00  0.00     0.031 C 
ATOM     46  C   UNL A   1      43.201  29.729  30.498  1.00  0.00     0.029 A 
ATOM     47  C   UNL A   1      42.055  30.187  31.267  1.00  0.00     0.049 A 
ATOM     48  H   UNL A   1      40.245  30.828  30.313  1.00  0.00     0.167 HD
ATOM     49  C   UNL A   1      43.328  24.716  27.977  1.00  0.00     0.031 A 
ATOM     50  C   UNL A   1      41.876  29.995  32.606  1.00  0.00     0.031 A 
ATOM     51  C   UNL A   1      44.181  25.217  29.054  1.00  0.00     0.049 A 
ATOM     52  C   UNL A   1      42.644  28.807  33.146  1.00  0.00     0.074 A 
ATOM     53  C   UNL A   1      45.235  26.115  29.089  1.00  0.00     0.029 A 
ATOM     54  N   UNL A   1      43.808  24.992  30.375  1.00  0.00    -0.354 N 
ATOM     55  N   UNL A   1      43.152  27.868  32.396  1.00  0.00    -0.248 NA
ATOM     56  C   UNL A   1      42.838  28.548  34.570  1.00  0.00     0.031 C 
ATOM     57  C   UNL A   1      45.428  26.502  30.442  1.00  0.00     0.029 A 
ATOM     58  C   UNL A   1      44.526  25.807  31.228  1.00  0.00     0.049 A 
ATOM     59  H   UNL A   1      43.127  24.341  30.663  1.00  0.00     0.167 HD
ATOM     60  C   UNL A   1      43.708  26.898  33.190  1.00  0.00     0.074 A 
ATOM     61  C   UNL A   1      43.498  27.376  34.544  1.00  0.00     0.031 C 
ATOM     62  C   UNL A   1      44.273  25.773  32.663  1.00  0.00     0.031 A 
BRANCH  49  63
ATOM     63  C   UNL A   1      43.855  23.870  26.835  1.00  0.00    -0.014 A 
ATOM     64  C   UNL A   1      44.627  24.477  25.824  1.00  0.00     0.009 A 
ATOM     65  C   UNL A   1      43.550  22.512  26.625  1.00  0.00     0.009 A 
ATOM     66  C   UNL A   1      45.028  23.785  24.671  1.00  0.00     0.001 A 
ATOM     67  C   UNL A   1      43.959  21.809  25.484  1.00  0.00     0.001 A 
ATOM     68  C   UNL A   1      44.690  22.449  24.498  1.00  0.00     0.000 A 
ENDBRANCH  49  63
BRANCH  50  69
ATOM     69  C   UNL A   1      40.555  30.435  33.127  1.00  0.00    -0.014 A 
ATOM     70  C   UNL A   1      40.245  31.808  33.103  1.00  0.00     0.009 A 
ATOM     71  C   UNL A   1      39.511  29.516  33.306  1.00  0.00     0.009 A 
ATOM     72  C   UNL A   1      38.918  32.244  33.149  1.00  0.00     0.001 A 
ATOM     73  C   UNL A   1      38.183  29.958  33.359  1.00  0.00     0.001 A 
ATOM     74  C   UNL A   1      37.886  31.315  33.245  1.00  0.00     0.000 A 
ENDBRANCH  50  69
BRANCH  62  75
ATOM     75  C   UNL A   1      44.696  24.549  33.439  1.00  0.00    -0.014 A 
ATOM     76  C   UNL A   1      43.886  23.424  33.647  1.00  0.00     0.009 A 
ATOM     77  C   UNL A   1      46.037  24.450  33.877  1.00  0.00     0.009 A 
ATOM     78  C   UNL A   1      44.374  22.283  34.299  1.00  0.00     0.001 A 
ATOM     79  C   UNL A   1      46.540  23.298  34.486  1.00  0.00     0.001 A 
ATOM     80  C   UNL A   1      45.702  22.215  34.709  1.00  0.00     0.000 A 
ENDBRANCH  62  75
ENDBRANCH  36  37
ENDBRANCH  28  31
ENDBRANCH  26  27
ENDBRANCH  25  26
ENDBRANCH   1  25
TORSDOF 14
ENDMDL
MODEL 2
REMARK VINA RESULT:     -12.1      1.031      1.944
REMARK SMILES Cc1cccc(C(=O)NCCCCNC(=O)c2ccc(-c3c4nc(c(-c5ccccc5)c5ccc([nH]5)c(-c5ccccc5)c5nc(c(-c6ccccc6)c6ccc3[nH]6)C=C5)C=C4)cc2)c1NC(=O)Cc1ccccc1
REMARK SMILES IDX 11 1 10 2 9 3 7 4 8 5 6 7 1 8 2 9 3 10 65 11 4 12 5 13 66 14
REMARK SMILES IDX 67 15 68 17 69 18 70 19 71 20 75 21 72 22 74 23 73 24 12 25
REMARK SMILES IDX 13 26 14 27 15 28 16 30 17 31 18 32 64 33 19 34 63 35 20 36
REMARK SMILES IDX 21 37 22 38 57 39 23 40 62 41 56 42 58 43 24 44 61 45 55 46
REMARK SMILES IDX 54 47 25 49 47 50 32 51 46 52 33 53 36 54 45 55 59 56 34 57
REMARK SMILES IDX 35 58 44 60 60 61 37 62 26 63 27 64 31 65 28 66 30 67 29 68
REMARK SMILES IDX 48 69 49 70 53 71 50 72 52 73 51 74 38 75 39 76 43 77 40 78
REMARK SMILES IDX 42 79 41 80
REMARK H PARENT 9 6 66 16 14 29 58 48 36 59
REMARK Flexibility Score: inf
ROOT
ATOM      1  C   UNL A   1      31.789  30.017  25.966  1.00  0.00     0.023 C 
ENDROOT
BRANCH   1   2
ATOM      2  C   UNL A   1      32.579  29.513  24.737  1.00  0.00     0.116 C 
BRANCH   2   3
ATOM      3  N   UNL A   1      31.963  29.482  23.413  1.00  0.00    -0.352 N 
ATOM      4  C   UNL A   1      31.447  28.416  22.692  1.00  0.00     0.253 C 
ATOM      5  O   UNL A   1      30.478  28.593  21.957  1.00  0.00    -0.269 OA
ATOM      6  H   UNL A   1      31.904  30.354  22.961  1.00  0.00     0.163 HD
BRANCH   4   7
ATOM      7  C   UNL A   1      32.037  27.059  22.772  1.00  0.00     0.063 A 
ATOM      8  C   UNL A   1      30.513  23.717  23.265  1.00  0.00     0.046 C 
ATOM      9  C   UNL A   1      31.593  24.749  23.097  1.00  0.00    -0.027 A 
ATOM     10  C   UNL A   1      32.693  24.418  22.291  1.00  0.00     0.005 A 
ATOM     11  C   UNL A   1      31.472  26.069  23.560  1.00  0.00     0.056 A 
ATOM     12  C   UNL A   1      33.537  25.417  21.817  1.00  0.00     0.001 A 
ATOM     13  C   UNL A   1      33.151  26.746  21.977  1.00  0.00     0.016 A 
BRANCH  11  14
ATOM     14  N   UNL A   1      30.900  26.295  24.833  1.00  0.00    -0.325 N 
ATOM     15  C   UNL A   1      31.439  26.458  26.089  1.00  0.00     0.228 C 
ATOM     16  H   UNL A   1      29.916  26.347  24.818  1.00  0.00     0.169 HD
ATOM     17  O   UNL A   1      30.620  26.647  27.000  1.00  0.00    -0.274 OA
BRANCH  15  18
ATOM     18  C   UNL A   1      32.921  26.293  26.426  1.00  0.00     0.135 C 
BRANCH  18  19
ATOM     19  C   UNL A   1      33.586  24.994  25.988  1.00  0.00    -0.039 A 
ATOM     20  C   UNL A   1      34.788  25.041  25.262  1.00  0.00     0.004 A 
ATOM     21  C   UNL A   1      33.102  23.731  26.343  1.00  0.00     0.004 A 
ATOM     22  C   UNL A   1      35.455  23.868  24.886  1.00  0.00     0.000 A 
ATOM     23  C   UNL A   1      33.766  22.557  25.974  1.00  0.00     0.000 A 
ATOM     24  C   UNL A   1      34.943  22.623  25.241  1.00  0.00     0.000 A 
ENDBRANCH  18  19
ENDBRANCH  15  18
ENDBRANCH  11  14
ENDBRANCH   4   7
ENDBRANCH   2   3
ENDBRANCH   1   2
BRANCH   1  25
ATOM     25  C   UNL A   1      32.491  30.402  27.270  1.00  0.00     0.023 C 
BRANCH  25  26
ATOM     26  C   UNL A   1      34.011  30.432  27.248  1.00  0.00     0.116 C 
BRANCH  26  27
ATOM     27  N   UNL A   1      34.620  31.296  28.262  1.00  0.00    -0.352 N 
ATOM     28  C   UNL A   1      35.808  31.101  28.948  1.00  0.00     0.251 C 
ATOM     29  H   UNL A   1      34.124  32.117  28.484  1.00  0.00     0.163 HD
ATOM     30  O   UNL A   1      36.215  31.917  29.768  1.00  0.00    -0.269 OA
BRANCH  28  31
ATOM     31  C   UNL A   1      36.654  29.951  28.559  1.00  0.00     0.039 A 
ATOM     32  C   UNL A   1      36.933  29.011  29.553  1.00  0.00     0.014 A 
ATOM     33  C   UNL A   1      37.416  30.015  27.395  1.00  0.00     0.014 A 
ATOM     34  C   UNL A   1      38.156  28.355  29.525  1.00  0.00     0.010 A 
ATOM     35  C   UNL A   1      38.667  29.430  27.409  1.00  0.00     0.010 A 
ATOM     36  C   UNL A   1      39.068  28.690  28.523  1.00  0.00    -0.014 A 
BRANCH  36  37
ATOM     37  C   UNL A   1      40.498  28.436  28.660  1.00  0.00     0.031 A 
ATOM     38  C   UNL A   1      41.077  27.201  28.102  1.00  0.00     0.074 A 
ATOM     39  C   UNL A   1      41.279  29.310  29.338  1.00  0.00     0.049 A 
ATOM     40  N   UNL A   1      42.116  26.608  28.586  1.00  0.00    -0.248 NA
ATOM     41  C   UNL A   1      40.453  26.473  27.003  1.00  0.00     0.031 C 
ATOM     42  C   UNL A   1      42.737  29.289  29.445  1.00  0.00     0.029 A 
ATOM     43  N   UNL A   1      40.887  30.259  30.288  1.00  0.00    -0.354 N 
ATOM     44  C   UNL A   1      42.466  25.614  27.704  1.00  0.00     0.074 A 
ATOM     45  C   UNL A   1      41.328  25.479  26.828  1.00  0.00     0.031 C 
ATOM     46  C   UNL A   1      43.090  29.908  30.583  1.00  0.00     0.029 A 
ATOM     47  C   UNL A   1      41.864  30.233  31.295  1.00  0.00     0.049 A 
ATOM     48  H   UNL A   1      40.086  30.831  30.255  1.00  0.00     0.167 HD
ATOM     49  C   UNL A   1      43.734  25.120  27.726  1.00  0.00     0.031 A 
ATOM     50  C   UNL A   1      41.605  29.929  32.599  1.00  0.00     0.031 A 
ATOM     51  C   UNL A   1      44.474  25.590  28.897  1.00  0.00     0.049 A 
ATOM     52  C   UNL A   1      42.413  28.753  33.109  1.00  0.00     0.074 A 
ATOM     53  C   UNL A   1      45.459  26.546  29.076  1.00  0.00     0.029 A 
ATOM     54  N   UNL A   1      44.025  25.241  30.167  1.00  0.00    -0.354 N 
ATOM     55  N   UNL A   1      43.035  27.908  32.334  1.00  0.00    -0.248 NA
ATOM     56  C   UNL A   1      42.523  28.399  34.521  1.00  0.00     0.031 C 
ATOM     57  C   UNL A   1      45.530  26.841  30.464  1.00  0.00     0.029 A 
ATOM     58  C   UNL A   1      44.624  26.032  31.128  1.00  0.00     0.049 A 
ATOM     59  H   UNL A   1      43.371  24.530  30.355  1.00  0.00     0.167 HD
ATOM     60  C   UNL A   1      43.598  26.917  33.096  1.00  0.00     0.074 A 
ATOM     61  C   UNL A   1      43.261  27.276  34.461  1.00  0.00     0.031 C 
ATOM     62  C   UNL A   1      44.274  25.873  32.534  1.00  0.00     0.031 A 
BRANCH  49  63
ATOM     63  C   UNL A   1      44.397  24.398  26.569  1.00  0.00    -0.014 A 
ATOM     64  C   UNL A   1      45.681  24.798  26.151  1.00  0.00     0.009 A 
ATOM     65  C   UNL A   1      43.789  23.405  25.780  1.00  0.00     0.009 A 
ATOM     66  C   UNL A   1      46.293  24.269  25.003  1.00  0.00     0.001 A 
ATOM     67  C   UNL A   1      44.398  22.860  24.641  1.00  0.00     0.001 A 
ATOM     68  C   UNL A   1      45.649  23.301  24.244  1.00  0.00     0.000 A 
ENDBRANCH  49  63
BRANCH  50  69
ATOM     69  C   UNL A   1      40.224  30.244  33.050  1.00  0.00    -0.014 A 
ATOM     70  C   UNL A   1      39.844  31.595  33.159  1.00  0.00     0.009 A 
ATOM     71  C   UNL A   1      39.220  29.265  33.027  1.00  0.00     0.009 A 
ATOM     72  C   UNL A   1      38.495  31.964  33.138  1.00  0.00     0.001 A 
ATOM     73  C   UNL A   1      37.871  29.639  33.015  1.00  0.00     0.001 A 
ATOM     74  C   UNL A   1      37.510  30.986  33.034  1.00  0.00     0.000 A 
ENDBRANCH  50  69
BRANCH  62  75
ATOM     75  C   UNL A   1      44.723  24.622  33.249  1.00  0.00    -0.014 A 
ATOM     76  C   UNL A   1      46.015  24.417  33.754  1.00  0.00     0.009 A 
ATOM     77  C   UNL A   1      43.760  23.636  33.564  1.00  0.00     0.009 A 
ATOM     78  C   UNL A   1      46.338  23.269  34.490  1.00  0.00     0.001 A 
ATOM     79  C   UNL A   1      44.066  22.512  34.336  1.00  0.00     0.001 A 
ATOM     80  C   UNL A   1      45.363  22.322  34.790  1.00  0.00     0.000 A 
ENDBRANCH  62  75
ENDBRANCH  36  37
ENDBRANCH  28  31
ENDBRANCH  26  27
ENDBRANCH  25  26
ENDBRANCH   1  25
TORSDOF 14
ENDMDL
MODEL 3
REMARK VINA RESULT:     -12.0      3.449      8.525
REMARK SMILES Cc1cccc(C(=O)NCCCCNC(=O)c2ccc(-c3c4nc(c(-c5ccccc5)c5ccc([nH]5)c(-c5ccccc5)c5nc(c(-c6ccccc6)c6ccc3[nH]6)C=C5)C=C4)cc2)c1NC(=O)Cc1ccccc1
REMARK SMILES IDX 11 1 10 2 9 3 7 4 8 5 6 7 1 8 2 9 3 10 65 11 4 12 5 13 66 14
REMARK SMILES IDX 67 15 68 17 69 18 70 19 71 20 75 21 72 22 74 23 73 24 12 25
REMARK SMILES IDX 13 26 14 27 15 28 16 30 17 31 18 32 64 33 19 34 63 35 20 36
REMARK SMILES IDX 21 37 22 38 57 39 23 40 62 41 56 42 58 43 24 44 61 45 55 46
REMARK SMILES IDX 54 47 25 49 47 50 32 51 46 52 33 53 36 54 45 55 59 56 34 57
REMARK SMILES IDX 35 58 44 60 60 61 37 62 26 63 27 64 31 65 28 66 30 67 29 68
REMARK SMILES IDX 48 69 49 70 53 71 50 72 52 73 51 74 38 75 39 76 43 77 40 78
REMARK SMILES IDX 42 79 41 80
REMARK H PARENT 9 6 66 16 14 29 58 48 36 59
REMARK Flexibility Score: inf
ROOT
ATOM      1  C   UNL A   1      36.556  20.678  25.103  1.00  0.00     0.023 C 
ENDROOT
BRANCH   1   2
ATOM      2  C   UNL A   1      35.381  21.180  25.971  1.00  0.00     0.116 C 
BRANCH   2   3
ATOM      3  N   UNL A   1      34.151  20.401  26.088  1.00  0.00    -0.352 N 
ATOM      4  C   UNL A   1      32.863  20.695  25.669  1.00  0.00     0.253 C 
ATOM      5  O   UNL A   1      32.129  19.789  25.282  1.00  0.00    -0.269 OA
ATOM      6  H   UNL A   1      34.252  19.529  26.534  1.00  0.00     0.163 HD
BRANCH   4   7
ATOM      7  C   UNL A   1      32.334  22.079  25.680  1.00  0.00     0.063 A 
ATOM      8  C   UNL A   1      30.529  24.066  23.124  1.00  0.00     0.046 C 
ATOM      9  C   UNL A   1      31.225  23.760  24.421  1.00  0.00    -0.027 A 
ATOM     10  C   UNL A   1      30.672  24.286  25.599  1.00  0.00     0.005 A 
ATOM     11  C   UNL A   1      32.285  22.845  24.527  1.00  0.00     0.056 A 
ATOM     12  C   UNL A   1      31.046  23.771  26.836  1.00  0.00     0.001 A 
ATOM     13  C   UNL A   1      31.803  22.602  26.869  1.00  0.00     0.016 A 
BRANCH  11  14
ATOM     14  N   UNL A   1      33.286  22.844  23.528  1.00  0.00    -0.325 N 
ATOM     15  C   UNL A   1      34.500  23.481  23.415  1.00  0.00     0.228 C 
ATOM     16  H   UNL A   1      33.070  22.271  22.756  1.00  0.00     0.169 HD
ATOM     17  O   UNL A   1      35.135  23.240  22.378  1.00  0.00    -0.274 OA
BRANCH  15  18
ATOM     18  C   UNL A   1      35.027  24.528  24.397  1.00  0.00     0.135 C 
BRANCH  18  19
ATOM     19  C   UNL A   1      34.122  25.722  24.681  1.00  0.00    -0.039 A 
ATOM     20  C   UNL A   1      33.848  26.083  26.011  1.00  0.00     0.004 A 
ATOM     21  C   UNL A   1      33.605  26.543  23.675  1.00  0.00     0.004 A 
ATOM     22  C   UNL A   1      33.062  27.203  26.310  1.00  0.00     0.000 A 
ATOM     23  C   UNL A   1      32.824  27.664  23.968  1.00  0.00     0.000 A 
ATOM     24  C   UNL A   1      32.548  27.996  25.288  1.00  0.00     0.000 A 
ENDBRANCH  18  19
ENDBRANCH  15  18
ENDBRANCH  11  14
ENDBRANCH   4   7
ENDBRANCH   2   3
ENDBRANCH   1   2
BRANCH   1  25
ATOM     25  C   UNL A   1      37.784  21.550  24.831  1.00  0.00     0.023 C 
BRANCH  25  26
ATOM     26  C   UNL A   1      38.220  22.487  25.945  1.00  0.00     0.116 C 
BRANCH  26  27
ATOM     27  N   UNL A   1      39.659  22.479  26.223  1.00  0.00    -0.352 N 
ATOM     28  C   UNL A   1      40.447  23.524  26.675  1.00  0.00     0.251 C 
ATOM     29  H   UNL A   1      40.123  21.624  26.068  1.00  0.00     0.163 HD
ATOM     30  O   UNL A   1      41.647  23.378  26.883  1.00  0.00    -0.269 OA
BRANCH  28  31
ATOM     31  C   UNL A   1      39.776  24.790  27.045  1.00  0.00     0.039 A 
ATOM     32  C   UNL A   1      40.231  25.950  26.415  1.00  0.00     0.014 A 
ATOM     33  C   UNL A   1      39.015  24.855  28.210  1.00  0.00     0.014 A 
ATOM     34  C   UNL A   1      40.194  27.147  27.116  1.00  0.00     0.010 A 
ATOM     35  C   UNL A   1      39.055  26.025  28.943  1.00  0.00     0.010 A 
ATOM     36  C   UNL A   1      39.737  27.133  28.435  1.00  0.00    -0.014 A 
BRANCH  36  37
ATOM     37  C   UNL A   1      40.083  28.181  29.387  1.00  0.00     0.031 A 
ATOM     38  C   UNL A   1      39.147  29.297  29.618  1.00  0.00     0.074 A 
ATOM     39  C   UNL A   1      41.279  28.154  30.020  1.00  0.00     0.049 A 
ATOM     40  N   UNL A   1      39.511  30.485  29.964  1.00  0.00    -0.248 NA
ATOM     41  C   UNL A   1      37.715  29.179  29.367  1.00  0.00     0.031 C 
ATOM     42  C   UNL A   1      41.725  29.031  31.101  1.00  0.00     0.029 A 
ATOM     43  N   UNL A   1      42.443  27.480  29.634  1.00  0.00    -0.354 N 
ATOM     44  C   UNL A   1      38.370  31.190  30.265  1.00  0.00     0.074 A 
ATOM     45  C   UNL A   1      37.291  30.389  29.742  1.00  0.00     0.031 C 
ATOM     46  C   UNL A   1      43.066  29.090  31.078  1.00  0.00     0.029 A 
ATOM     47  C   UNL A   1      43.509  28.351  29.906  1.00  0.00     0.049 A 
ATOM     48  H   UNL A   1      42.501  26.575  29.250  1.00  0.00     0.167 HD
ATOM     49  C   UNL A   1      38.460  32.298  31.052  1.00  0.00     0.031 A 
ATOM     50  C   UNL A   1      44.370  28.819  28.957  1.00  0.00     0.031 A 
ATOM     51  C   UNL A   1      39.851  32.701  31.255  1.00  0.00     0.049 A 
ATOM     52  C   UNL A   1      44.404  30.332  28.879  1.00  0.00     0.074 A 
ATOM     53  C   UNL A   1      40.727  32.579  32.320  1.00  0.00     0.029 A 
ATOM     54  N   UNL A   1      40.613  33.085  30.157  1.00  0.00    -0.354 N 
ATOM     55  N   UNL A   1      43.496  31.108  29.401  1.00  0.00    -0.248 NA
ATOM     56  C   UNL A   1      45.422  31.081  28.146  1.00  0.00     0.031 C 
ATOM     57  C   UNL A   1      42.041  32.800  31.828  1.00  0.00     0.029 A 
ATOM     58  C   UNL A   1      41.956  33.101  30.479  1.00  0.00     0.049 A 
ATOM     59  H   UNL A   1      40.247  33.315  29.272  1.00  0.00     0.167 HD
ATOM     60  C   UNL A   1      43.770  32.413  29.083  1.00  0.00     0.074 A 
ATOM     61  C   UNL A   1      44.995  32.346  28.308  1.00  0.00     0.031 C 
ATOM     62  C   UNL A   1      42.951  33.435  29.468  1.00  0.00     0.031 A 
BRANCH  49  63
ATOM     63  C   UNL A   1      37.307  32.890  31.839  1.00  0.00    -0.014 A 
ATOM     64  C   UNL A   1      37.283  34.276  32.091  1.00  0.00     0.009 A 
ATOM     65  C   UNL A   1      36.280  32.148  32.451  1.00  0.00     0.009 A 
ATOM     66  C   UNL A   1      36.324  34.868  32.928  1.00  0.00     0.001 A 
ATOM     67  C   UNL A   1      35.309  32.733  33.276  1.00  0.00     0.001 A 
ATOM     68  C   UNL A   1      35.337  34.094  33.525  1.00  0.00     0.000 A 
ENDBRANCH  49  63
BRANCH  50  69
ATOM     69  C   UNL A   1      44.553  27.924  27.785  1.00  0.00    -0.014 A 
ATOM     70  C   UNL A   1      43.729  28.113  26.659  1.00  0.00     0.009 A 
ATOM     71  C   UNL A   1      45.719  27.159  27.641  1.00  0.00     0.009 A 
ATOM     72  C   UNL A   1      44.115  27.639  25.402  1.00  0.00     0.001 A 
ATOM     73  C   UNL A   1      46.097  26.680  26.380  1.00  0.00     0.001 A 
ATOM     74  C   UNL A   1      45.316  26.951  25.258  1.00  0.00     0.000 A 
ENDBRANCH  50  69
BRANCH  62  75
ATOM     75  C   UNL A   1      43.028  34.862  28.979  1.00  0.00    -0.014 A 
ATOM     76  C   UNL A   1      42.346  35.354  27.858  1.00  0.00     0.009 A 
ATOM     77  C   UNL A   1      43.717  35.814  29.766  1.00  0.00     0.009 A 
ATOM     78  C   UNL A   1      42.389  36.712  27.514  1.00  0.00     0.001 A 
ATOM     79  C   UNL A   1      43.725  37.176  29.453  1.00  0.00     0.001 A 
ATOM     80  C   UNL A   1      43.068  37.624  28.316  1.00  0.00     0.000 A 
ENDBRANCH  62  75
ENDBRANCH  36  37
ENDBRANCH  28  31
ENDBRANCH  26  27
ENDBRANCH  25  26
ENDBRANCH   1  25
TORSDOF 14
ENDMDL
