MODEL 1
REMARK VINA RESULT:     -10.4      0.000      0.000
REMARK SMILES CC[C@H](C)[C@@H](NC(=O)[C@@H]1CCCN1C(=O)C1CC1)C(=O)NCCCCNC(=O)c1ccc(-c2c3nc(c(-c4ccccc4)c4ccc([nH]4)c(-c4ccccc4)c4nc(c(-c5ccccc5)c5ccc2[nH]5)C=C4)C=C3)cc1
REMARK SMILES IDX 22 1 21 2 19 3 20 4 5 6 3 7 4 8 2 9 1 10 6 11 7 12 8 14 9 15
REMARK SMILES IDX 10 16 13 17 11 18 12 19 14 20 15 21 16 22 17 23 18 24 23 25
REMARK SMILES IDX 24 26 25 27 26 28 27 29 28 31 29 32 30 33 76 34 31 35 75 36
REMARK SMILES IDX 32 37 33 38 34 39 69 40 35 41 74 42 68 43 70 44 36 45 73 46
REMARK SMILES IDX 67 47 66 48 37 50 59 51 44 52 58 53 45 54 48 55 57 56 71 57
REMARK SMILES IDX 46 58 47 59 56 61 72 62 49 63 38 64 39 65 43 66 40 67 42 68
REMARK SMILES IDX 41 69 60 70 61 71 65 72 62 73 64 74 63 75 50 76 51 77 55 78
REMARK SMILES IDX 52 79 54 80 53 81
REMARK H PARENT 21 5 6 13 26 30 70 49 48 60
REMARK Flexibility Score: inf
ROOT
ATOM      1  C   UNL A   1      36.034  22.019  25.773  1.00  0.00     0.116 C 
ENDROOT
BRANCH   1   2
ATOM      2  N   UNL A   1      35.145  21.877  26.907  1.00  0.00    -0.354 N 
ATOM      3  C   UNL A   1      33.851  22.273  27.052  1.00  0.00     0.242 C 
ATOM      4  O   UNL A   1      33.335  22.139  28.163  1.00  0.00    -0.273 OA
ATOM      5  H   UNL A   1      35.534  21.426  27.691  1.00  0.00     0.163 HD
BRANCH   3   6
ATOM      6  C   UNL A   1      33.105  22.978  25.903  1.00  0.00     0.174 C 
BRANCH   6   7
ATOM      7  C   UNL A   1      32.938  21.996  24.695  1.00  0.00     0.018 C 
ATOM      8  C   UNL A   1      32.224  20.702  25.115  1.00  0.00     0.010 C 
BRANCH   7   9
ATOM      9  C   UNL A   1      32.196  22.646  23.503  1.00  0.00     0.002 C 
ATOM     10  C   UNL A   1      33.056  22.747  22.250  1.00  0.00     0.004 C 
ENDBRANCH   7   9
ENDBRANCH   6   7
BRANCH   6  11
ATOM     11  N   UNL A   1      31.795  23.507  26.337  1.00  0.00    -0.342 N 
ATOM     12  C   UNL A   1      31.315  24.786  26.370  1.00  0.00     0.243 C 
ATOM     13  H   UNL A   1      31.163  22.823  26.657  1.00  0.00     0.164 HD
ATOM     14  O   UNL A   1      30.105  24.920  26.579  1.00  0.00    -0.273 OA
BRANCH  12  15
ATOM     15  C   UNL A   1      32.262  25.989  26.394  1.00  0.00     0.174 C 
ATOM     16  C   UNL A   1      31.623  27.345  26.686  1.00  0.00     0.037 C 
ATOM     17  N   UNL A   1      33.372  26.362  25.525  1.00  0.00    -0.330 N 
ATOM     18  C   UNL A   1      32.871  28.183  26.989  1.00  0.00     0.024 C 
ATOM     19  C   UNL A   1      33.950  27.594  26.072  1.00  0.00     0.120 C 
BRANCH  17  20
ATOM     20  C   UNL A   1      33.642  26.117  24.187  1.00  0.00     0.226 C 
ATOM     21  O   UNL A   1      34.548  25.349  23.863  1.00  0.00    -0.275 OA
BRANCH  20  22
ATOM     22  C   UNL A   1      32.858  26.659  23.049  1.00  0.00     0.079 C 
ATOM     23  C   UNL A   1      31.897  27.795  22.857  1.00  0.00     0.014 C 
ATOM     24  C   UNL A   1      33.334  28.016  22.540  1.00  0.00     0.014 C 
ENDBRANCH  20  22
ENDBRANCH  17  20
ENDBRANCH  12  15
ENDBRANCH   6  11
ENDBRANCH   3   6
ENDBRANCH   1   2
BRANCH   1  25
ATOM     25  C   UNL A   1      36.229  20.679  25.080  1.00  0.00     0.023 C 
BRANCH  25  26
ATOM     26  C   UNL A   1      37.672  20.418  24.650  1.00  0.00     0.023 C 
BRANCH  26  27
ATOM     27  C   UNL A   1      38.694  20.603  25.764  1.00  0.00     0.116 C 
BRANCH  27  28
ATOM     28  N   UNL A   1      39.686  19.536  25.781  1.00  0.00    -0.352 N 
ATOM     29  C   UNL A   1      41.024  19.633  26.062  1.00  0.00     0.251 C 
ATOM     30  H   UNL A   1      39.354  18.635  25.564  1.00  0.00     0.163 HD
ATOM     31  O   UNL A   1      41.789  18.696  25.865  1.00  0.00    -0.269 OA
BRANCH  29  32
ATOM     32  C   UNL A   1      41.519  20.911  26.593  1.00  0.00     0.039 A 
ATOM     33  C   UNL A   1      41.998  21.876  25.709  1.00  0.00     0.014 A 
ATOM     34  C   UNL A   1      41.400  21.172  27.962  1.00  0.00     0.014 A 
ATOM     35  C   UNL A   1      42.319  23.140  26.197  1.00  0.00     0.010 A 
ATOM     36  C   UNL A   1      41.648  22.453  28.432  1.00  0.00     0.010 A 
ATOM     37  C   UNL A   1      42.119  23.443  27.555  1.00  0.00    -0.014 A 
BRANCH  37  38
ATOM     38  C   UNL A   1      42.421  24.789  28.089  1.00  0.00     0.031 A 
ATOM     39  C   UNL A   1      43.823  25.117  28.517  1.00  0.00     0.074 A 
ATOM     40  C   UNL A   1      41.430  25.686  28.247  1.00  0.00     0.049 A 
ATOM     41  N   UNL A   1      44.286  26.215  29.055  1.00  0.00    -0.248 NA
ATOM     42  C   UNL A   1      44.832  24.057  28.348  1.00  0.00     0.031 C 
ATOM     43  C   UNL A   1      40.022  25.464  27.911  1.00  0.00     0.029 A 
ATOM     44  N   UNL A   1      41.459  26.966  28.735  1.00  0.00    -0.354 N 
ATOM     45  C   UNL A   1      45.630  25.970  29.305  1.00  0.00     0.074 A 
ATOM     46  C   UNL A   1      45.895  24.604  28.913  1.00  0.00     0.031 C 
ATOM     47  C   UNL A   1      39.328  26.584  28.175  1.00  0.00     0.029 A 
ATOM     48  C   UNL A   1      40.233  27.585  28.728  1.00  0.00     0.049 A 
ATOM     49  H   UNL A   1      42.281  27.401  29.061  1.00  0.00     0.167 HD
ATOM     50  C   UNL A   1      46.566  26.816  29.795  1.00  0.00     0.031 A 
ATOM     51  C   UNL A   1      39.883  28.824  29.120  1.00  0.00     0.031 A 
ATOM     52  C   UNL A   1      46.303  28.179  30.165  1.00  0.00     0.049 A 
ATOM     53  C   UNL A   1      40.941  29.746  29.657  1.00  0.00     0.074 A 
ATOM     54  C   UNL A   1      47.192  29.139  30.612  1.00  0.00     0.029 A 
ATOM     55  N   UNL A   1      45.050  28.773  30.131  1.00  0.00    -0.354 N 
ATOM     56  N   UNL A   1      42.224  29.526  29.820  1.00  0.00    -0.248 NA
ATOM     57  C   UNL A   1      40.505  31.092  30.054  1.00  0.00     0.031 C 
ATOM     58  C   UNL A   1      46.469  30.305  30.888  1.00  0.00     0.029 A 
ATOM     59  C   UNL A   1      45.139  30.083  30.568  1.00  0.00     0.049 A 
ATOM     60  H   UNL A   1      44.222  28.330  29.839  1.00  0.00     0.167 HD
ATOM     61  C   UNL A   1      42.752  30.711  30.314  1.00  0.00     0.074 A 
ATOM     62  C   UNL A   1      41.653  31.651  30.410  1.00  0.00     0.031 C 
ATOM     63  C   UNL A   1      44.031  30.998  30.657  1.00  0.00     0.031 A 
BRANCH  50  64
ATOM     64  C   UNL A   1      47.958  26.276  29.958  1.00  0.00    -0.014 A 
ATOM     65  C   UNL A   1      48.862  26.256  28.882  1.00  0.00     0.009 A 
ATOM     66  C   UNL A   1      48.377  25.787  31.205  1.00  0.00     0.009 A 
ATOM     67  C   UNL A   1      50.139  25.718  29.042  1.00  0.00     0.001 A 
ATOM     68  C   UNL A   1      49.665  25.276  31.368  1.00  0.00     0.001 A 
ATOM     69  C   UNL A   1      50.542  25.232  30.285  1.00  0.00     0.000 A 
ENDBRANCH  50  64
BRANCH  51  70
ATOM     70  C   UNL A   1      38.474  29.274  28.991  1.00  0.00    -0.014 A 
ATOM     71  C   UNL A   1      37.993  29.754  27.763  1.00  0.00     0.009 A 
ATOM     72  C   UNL A   1      37.602  29.223  30.090  1.00  0.00     0.009 A 
ATOM     73  C   UNL A   1      36.673  30.196  27.644  1.00  0.00     0.001 A 
ATOM     74  C   UNL A   1      36.275  29.642  29.960  1.00  0.00     0.001 A 
ATOM     75  C   UNL A   1      35.815  30.136  28.740  1.00  0.00     0.000 A 
ENDBRANCH  51  70
BRANCH  63  76
ATOM     76  C   UNL A   1      44.314  32.391  31.140  1.00  0.00    -0.014 A 
ATOM     77  C   UNL A   1      44.274  32.709  32.506  1.00  0.00     0.009 A 
ATOM     78  C   UNL A   1      44.669  33.387  30.216  1.00  0.00     0.009 A 
ATOM     79  C   UNL A   1      44.556  34.007  32.934  1.00  0.00     0.001 A 
ATOM     80  C   UNL A   1      44.975  34.676  30.651  1.00  0.00     0.001 A 
ATOM     81  C   UNL A   1      44.911  34.987  32.008  1.00  0.00     0.000 A 
ENDBRANCH  63  76
ENDBRANCH  37  38
ENDBRANCH  29  32
ENDBRANCH  27  28
ENDBRANCH  26  27
ENDBRANCH  25  26
ENDBRANCH   1  25
TORSDOF 17
ENDMDL
MODEL 2
REMARK VINA RESULT:     -10.3      3.849      9.074
REMARK SMILES CC[C@H](C)[C@@H](NC(=O)[C@@H]1CCCN1C(=O)C1CC1)C(=O)NCCCCNC(=O)c1ccc(-c2c3nc(c(-c4ccccc4)c4ccc([nH]4)c(-c4ccccc4)c4nc(c(-c5ccccc5)c5ccc2[nH]5)C=C4)C=C3)cc1
REMARK SMILES IDX 22 1 21 2 19 3 20 4 5 6 3 7 4 8 2 9 1 10 6 11 7 12 8 14 9 15
REMARK SMILES IDX 10 16 13 17 11 18 12 19 14 20 15 21 16 22 17 23 18 24 23 25
REMARK SMILES IDX 24 26 25 27 26 28 27 29 28 31 29 32 30 33 76 34 31 35 75 36
REMARK SMILES IDX 32 37 33 38 34 39 69 40 35 41 74 42 68 43 70 44 36 45 73 46
REMARK SMILES IDX 67 47 66 48 37 50 59 51 44 52 58 53 45 54 48 55 57 56 71 57
REMARK SMILES IDX 46 58 47 59 56 61 72 62 49 63 38 64 39 65 43 66 40 67 42 68
REMARK SMILES IDX 41 69 60 70 61 71 65 72 62 73 64 74 63 75 50 76 51 77 55 78
REMARK SMILES IDX 52 79 54 80 53 81
REMARK H PARENT 21 5 6 13 26 30 70 49 48 60
REMARK Flexibility Score: inf
ROOT
ATOM      1  C   UNL A   1      32.176  29.624  27.128  1.00  0.00     0.116 C 
ENDROOT
BRANCH   1   2
ATOM      2  N   UNL A   1      33.071  28.642  26.552  1.00  0.00    -0.354 N 
ATOM      3  C   UNL A   1      32.796  27.416  26.030  1.00  0.00     0.242 C 
ATOM      4  O   UNL A   1      33.751  26.710  25.699  1.00  0.00    -0.273 OA
ATOM      5  H   UNL A   1      34.021  28.900  26.535  1.00  0.00     0.163 HD
BRANCH   3   6
ATOM      6  C   UNL A   1      31.351  26.884  25.975  1.00  0.00     0.174 C 
BRANCH   6   7
ATOM      7  C   UNL A   1      30.934  26.630  24.488  1.00  0.00     0.018 C 
ATOM      8  C   UNL A   1      29.433  26.320  24.368  1.00  0.00     0.010 C 
BRANCH   7   9
ATOM      9  C   UNL A   1      31.304  27.810  23.559  1.00  0.00     0.002 C 
ATOM     10  C   UNL A   1      30.086  28.521  22.983  1.00  0.00     0.004 C 
ENDBRANCH   7   9
ENDBRANCH   6   7
BRANCH   6  11
ATOM     11  N   UNL A   1      31.182  25.660  26.786  1.00  0.00    -0.342 N 
ATOM     12  C   UNL A   1      31.677  24.398  26.612  1.00  0.00     0.243 C 
ATOM     13  H   UNL A   1      30.616  25.772  27.584  1.00  0.00     0.164 HD
ATOM     14  O   UNL A   1      31.551  23.616  27.560  1.00  0.00    -0.273 OA
BRANCH  12  15
ATOM     15  C   UNL A   1      32.138  23.909  25.236  1.00  0.00     0.174 C 
ATOM     16  C   UNL A   1      31.242  22.878  24.551  1.00  0.00     0.037 C 
ATOM     17  N   UNL A   1      33.456  23.541  24.734  1.00  0.00    -0.330 N 
ATOM     18  C   UNL A   1      31.799  22.927  23.124  1.00  0.00     0.024 C 
ATOM     19  C   UNL A   1      33.296  23.204  23.315  1.00  0.00     0.120 C 
BRANCH  17  20
ATOM     20  C   UNL A   1      34.585  23.020  25.348  1.00  0.00     0.226 C 
ATOM     21  O   UNL A   1      34.572  21.882  25.818  1.00  0.00    -0.275 OA
BRANCH  20  22
ATOM     22  C   UNL A   1      35.899  23.706  25.433  1.00  0.00     0.079 C 
ATOM     23  C   UNL A   1      37.304  23.290  25.755  1.00  0.00     0.014 C 
ATOM     24  C   UNL A   1      36.881  23.333  24.329  1.00  0.00     0.014 C 
ENDBRANCH  20  22
ENDBRANCH  17  20
ENDBRANCH  12  15
ENDBRANCH   6  11
ENDBRANCH   3   6
ENDBRANCH   1   2
BRANCH   1  25
ATOM     25  C   UNL A   1      31.776  30.655  26.083  1.00  0.00     0.023 C 
BRANCH  25  26
ATOM     26  C   UNL A   1      31.463  32.030  26.672  1.00  0.00     0.023 C 
BRANCH  26  27
ATOM     27  C   UNL A   1      32.660  32.719  27.313  1.00  0.00     0.116 C 
BRANCH  27  28
ATOM     28  N   UNL A   1      32.388  34.116  27.622  1.00  0.00    -0.352 N 
ATOM     29  C   UNL A   1      32.976  34.897  28.584  1.00  0.00     0.251 C 
ATOM     30  H   UNL A   1      31.698  34.554  27.073  1.00  0.00     0.163 HD
ATOM     31  O   UNL A   1      32.533  36.004  28.868  1.00  0.00    -0.269 OA
BRANCH  29  32
ATOM     32  C   UNL A   1      34.150  34.353  29.280  1.00  0.00     0.039 A 
ATOM     33  C   UNL A   1      33.965  33.576  30.422  1.00  0.00     0.014 A 
ATOM     34  C   UNL A   1      35.419  34.539  28.722  1.00  0.00     0.014 A 
ATOM     35  C   UNL A   1      35.064  32.934  30.987  1.00  0.00     0.010 A 
ATOM     36  C   UNL A   1      36.497  33.839  29.244  1.00  0.00     0.010 A 
ATOM     37  C   UNL A   1      36.329  33.040  30.386  1.00  0.00    -0.014 A 
BRANCH  37  38
ATOM     38  C   UNL A   1      37.504  32.340  30.950  1.00  0.00     0.031 A 
ATOM     39  C   UNL A   1      38.129  32.849  32.217  1.00  0.00     0.074 A 
ATOM     40  C   UNL A   1      38.041  31.295  30.294  1.00  0.00     0.049 A 
ATOM     41  N   UNL A   1      39.188  32.413  32.848  1.00  0.00    -0.248 NA
ATOM     42  C   UNL A   1      37.499  34.026  32.840  1.00  0.00     0.031 C 
ATOM     43  C   UNL A   1      37.549  30.741  29.030  1.00  0.00     0.029 A 
ATOM     44  N   UNL A   1      39.125  30.515  30.601  1.00  0.00    -0.354 N 
ATOM     45  C   UNL A   1      39.360  33.271  33.926  1.00  0.00     0.074 A 
ATOM     46  C   UNL A   1      38.334  34.284  33.833  1.00  0.00     0.031 C 
ATOM     47  C   UNL A   1      38.312  29.689  28.687  1.00  0.00     0.029 A 
ATOM     48  C   UNL A   1      39.362  29.518  29.685  1.00  0.00     0.049 A 
ATOM     49  H   UNL A   1      39.681  30.654  31.401  1.00  0.00     0.167 HD
ATOM     50  C   UNL A   1      40.278  33.208  34.919  1.00  0.00     0.031 A 
ATOM     51  C   UNL A   1      40.318  28.571  29.660  1.00  0.00     0.031 A 
ATOM     52  C   UNL A   1      41.286  32.188  35.017  1.00  0.00     0.049 A 
ATOM     53  C   UNL A   1      41.324  28.518  30.775  1.00  0.00     0.074 A 
ATOM     54  C   UNL A   1      42.223  31.995  36.015  1.00  0.00     0.029 A 
ATOM     55  N   UNL A   1      41.485  31.189  34.077  1.00  0.00    -0.354 N 
ATOM     56  N   UNL A   1      41.430  29.293  31.829  1.00  0.00    -0.248 NA
ATOM     57  C   UNL A   1      42.334  27.453  30.704  1.00  0.00     0.031 C 
ATOM     58  C   UNL A   1      43.018  30.901  35.658  1.00  0.00     0.029 A 
ATOM     59  C   UNL A   1      42.545  30.386  34.461  1.00  0.00     0.049 A 
ATOM     60  H   UNL A   1      40.952  31.067  33.259  1.00  0.00     0.167 HD
ATOM     61  C   UNL A   1      42.501  28.794  32.558  1.00  0.00     0.074 A 
ATOM     62  C   UNL A   1      43.001  27.643  31.834  1.00  0.00     0.031 C 
ATOM     63  C   UNL A   1      43.025  29.247  33.723  1.00  0.00     0.031 A 
BRANCH  50  64
ATOM     64  C   UNL A   1      40.226  34.280  35.969  1.00  0.00    -0.014 A 
ATOM     65  C   UNL A   1      39.426  34.138  37.115  1.00  0.00     0.009 A 
ATOM     66  C   UNL A   1      40.992  35.446  35.817  1.00  0.00     0.009 A 
ATOM     67  C   UNL A   1      39.361  35.159  38.064  1.00  0.00     0.001 A 
ATOM     68  C   UNL A   1      40.947  36.452  36.782  1.00  0.00     0.001 A 
ATOM     69  C   UNL A   1      40.124  36.314  37.899  1.00  0.00     0.000 A 
ENDBRANCH  50  64
BRANCH  51  70
ATOM     70  C   UNL A   1      40.352  27.579  28.555  1.00  0.00    -0.014 A 
ATOM     71  C   UNL A   1      41.093  27.839  27.393  1.00  0.00     0.009 A 
ATOM     72  C   UNL A   1      39.648  26.369  28.656  1.00  0.00     0.009 A 
ATOM     73  C   UNL A   1      41.111  26.917  26.343  1.00  0.00     0.001 A 
ATOM     74  C   UNL A   1      39.689  25.438  27.616  1.00  0.00     0.001 A 
ATOM     75  C   UNL A   1      40.413  25.716  26.458  1.00  0.00     0.000 A 
ENDBRANCH  51  70
BRANCH  63  76
ATOM     76  C   UNL A   1      44.179  28.479  34.298  1.00  0.00    -0.014 A 
ATOM     77  C   UNL A   1      45.504  28.797  33.962  1.00  0.00     0.009 A 
ATOM     78  C   UNL A   1      43.937  27.453  35.224  1.00  0.00     0.009 A 
ATOM     79  C   UNL A   1      46.563  28.080  34.521  1.00  0.00     0.001 A 
ATOM     80  C   UNL A   1      44.998  26.756  35.801  1.00  0.00     0.001 A 
ATOM     81  C   UNL A   1      46.310  27.064  35.442  1.00  0.00     0.000 A 
ENDBRANCH  63  76
ENDBRANCH  37  38
ENDBRANCH  29  32
ENDBRANCH  27  28
ENDBRANCH  26  27
ENDBRANCH  25  26
ENDBRANCH   1  25
TORSDOF 17
ENDMDL
MODEL 3
REMARK VINA RESULT:     -10.2      0.886      6.071
REMARK SMILES CC[C@H](C)[C@@H](NC(=O)[C@@H]1CCCN1C(=O)C1CC1)C(=O)NCCCCNC(=O)c1ccc(-c2c3nc(c(-c4ccccc4)c4ccc([nH]4)c(-c4ccccc4)c4nc(c(-c5ccccc5)c5ccc2[nH]5)C=C4)C=C3)cc1
REMARK SMILES IDX 22 1 21 2 19 3 20 4 5 6 3 7 4 8 2 9 1 10 6 11 7 12 8 14 9 15
REMARK SMILES IDX 10 16 13 17 11 18 12 19 14 20 15 21 16 22 17 23 18 24 23 25
REMARK SMILES IDX 24 26 25 27 26 28 27 29 28 31 29 32 30 33 76 34 31 35 75 36
REMARK SMILES IDX 32 37 33 38 34 39 69 40 35 41 74 42 68 43 70 44 36 45 73 46
REMARK SMILES IDX 67 47 66 48 37 50 59 51 44 52 58 53 45 54 48 55 57 56 71 57
REMARK SMILES IDX 46 58 47 59 56 61 72 62 49 63 38 64 39 65 43 66 40 67 42 68
REMARK SMILES IDX 41 69 60 70 61 71 65 72 62 73 64 74 63 75 50 76 51 77 55 78
REMARK SMILES IDX 52 79 54 80 53 81
REMARK H PARENT 21 5 6 13 26 30 70 49 48 60
REMARK Flexibility Score: inf
ROOT
ATOM      1  C   UNL A   1      36.355  22.813  25.485  1.00  0.00     0.116 C 
ENDROOT
BRANCH   1   2
ATOM      2  N   UNL A   1      35.585  22.104  26.487  1.00  0.00    -0.354 N 
ATOM      3  C   UNL A   1      34.238  22.049  26.669  1.00  0.00     0.242 C 
ATOM      4  O   UNL A   1      33.822  21.463  27.670  1.00  0.00    -0.273 OA
ATOM      5  H   UNL A   1      36.116  21.584  27.132  1.00  0.00     0.163 HD
BRANCH   3   6
ATOM      6  C   UNL A   1      33.280  22.801  25.726  1.00  0.00     0.174 C 
BRANCH   6   7
ATOM      7  C   UNL A   1      32.453  21.776  24.879  1.00  0.00     0.018 C 
ATOM      8  C   UNL A   1      31.814  22.444  23.651  1.00  0.00     0.010 C 
BRANCH   7   9
ATOM      9  C   UNL A   1      33.297  20.557  24.437  1.00  0.00     0.002 C 
ATOM     10  C   UNL A   1      32.761  19.235  24.973  1.00  0.00     0.004 C 
ENDBRANCH   7   9
ENDBRANCH   6   7
BRANCH   6  11
ATOM     11  N   UNL A   1      32.385  23.717  26.462  1.00  0.00    -0.342 N 
ATOM     12  C   UNL A   1      31.775  24.876  26.071  1.00  0.00     0.243 C 
ATOM     13  H   UNL A   1      32.198  23.449  27.391  1.00  0.00     0.164 HD
ATOM     14  O   UNL A   1      30.907  25.329  26.824  1.00  0.00    -0.273 OA
BRANCH  12  15
ATOM     15  C   UNL A   1      32.311  25.696  24.894  1.00  0.00     0.174 C 
ATOM     16  C   UNL A   1      33.827  25.691  24.702  1.00  0.00     0.037 C 
ATOM     17  N   UNL A   1      31.951  27.017  24.395  1.00  0.00    -0.330 N 
ATOM     18  C   UNL A   1      33.932  26.268  23.287  1.00  0.00     0.024 C 
ATOM     19  C   UNL A   1      32.765  27.261  23.199  1.00  0.00     0.120 C 
BRANCH  17  20
ATOM     20  C   UNL A   1      31.442  28.150  25.012  1.00  0.00     0.226 C 
ATOM     21  O   UNL A   1      30.605  28.850  24.440  1.00  0.00    -0.275 OA
BRANCH  20  22
ATOM     22  C   UNL A   1      31.767  28.583  26.394  1.00  0.00     0.079 C 
ATOM     23  C   UNL A   1      32.901  28.352  27.348  1.00  0.00     0.014 C 
ATOM     24  C   UNL A   1      32.924  29.570  26.494  1.00  0.00     0.014 C 
ENDBRANCH  20  22
ENDBRANCH  17  20
ENDBRANCH  12  15
ENDBRANCH   6  11
ENDBRANCH   3   6
ENDBRANCH   1   2
BRANCH   1  25
ATOM     25  C   UNL A   1      36.808  21.857  24.391  1.00  0.00     0.023 C 
BRANCH  25  26
ATOM     26  C   UNL A   1      37.519  20.613  24.923  1.00  0.00     0.023 C 
BRANCH  26  27
ATOM     27  C   UNL A   1      38.789  20.912  25.709  1.00  0.00     0.116 C 
BRANCH  27  28
ATOM     28  N   UNL A   1      39.696  19.773  25.739  1.00  0.00    -0.352 N 
ATOM     29  C   UNL A   1      41.033  19.768  26.041  1.00  0.00     0.251 C 
ATOM     30  H   UNL A   1      39.300  18.900  25.514  1.00  0.00     0.163 HD
ATOM     31  O   UNL A   1      41.728  18.776  25.853  1.00  0.00    -0.269 OA
BRANCH  29  32
ATOM     32  C   UNL A   1      41.615  21.004  26.584  1.00  0.00     0.039 A 
ATOM     33  C   UNL A   1      42.144  21.949  25.707  1.00  0.00     0.014 A 
ATOM     34  C   UNL A   1      41.529  21.251  27.958  1.00  0.00     0.014 A 
ATOM     35  C   UNL A   1      42.551  23.183  26.209  1.00  0.00     0.010 A 
ATOM     36  C   UNL A   1      41.864  22.506  28.442  1.00  0.00     0.010 A 
ATOM     37  C   UNL A   1      42.387  23.477  27.573  1.00  0.00    -0.014 A 
BRANCH  37  38
ATOM     38  C   UNL A   1      42.781  24.793  28.122  1.00  0.00     0.031 A 
ATOM     39  C   UNL A   1      41.732  25.846  28.341  1.00  0.00     0.074 A 
ATOM     40  C   UNL A   1      44.078  25.059  28.363  1.00  0.00     0.049 A 
ATOM     41  N   UNL A   1      41.873  27.075  28.764  1.00  0.00    -0.248 NA
ATOM     42  C   UNL A   1      40.345  25.479  28.007  1.00  0.00     0.031 C 
ATOM     43  C   UNL A   1      45.191  24.131  28.145  1.00  0.00     0.029 A 
ATOM     44  N   UNL A   1      44.679  26.194  28.841  1.00  0.00    -0.354 N 
ATOM     45  C   UNL A   1      40.601  27.630  28.729  1.00  0.00     0.074 A 
ATOM     46  C   UNL A   1      39.712  26.626  28.191  1.00  0.00     0.031 C 
ATOM     47  C   UNL A   1      46.336  24.725  28.519  1.00  0.00     0.029 A 
ATOM     48  C   UNL A   1      46.043  26.082  28.970  1.00  0.00     0.049 A 
ATOM     49  H   UNL A   1      44.182  27.012  29.072  1.00  0.00     0.167 HD
ATOM     50  C   UNL A   1      40.203  28.860  29.131  1.00  0.00     0.031 A 
ATOM     51  C   UNL A   1      46.950  26.974  29.405  1.00  0.00     0.031 A 
ATOM     52  C   UNL A   1      41.087  29.849  29.682  1.00  0.00     0.049 A 
ATOM     53  C   UNL A   1      46.484  28.332  29.850  1.00  0.00     0.074 A 
ATOM     54  C   UNL A   1      40.778  31.102  30.179  1.00  0.00     0.029 A 
ATOM     55  N   UNL A   1      42.460  29.693  29.808  1.00  0.00    -0.354 N 
ATOM     56  N   UNL A   1      45.267  28.819  29.880  1.00  0.00    -0.248 NA
ATOM     57  C   UNL A   1      47.517  29.259  30.333  1.00  0.00     0.031 C 
ATOM     58  C   UNL A   1      41.970  31.722  30.568  1.00  0.00     0.029 A 
ATOM     59  C   UNL A   1      43.015  30.836  30.356  1.00  0.00     0.049 A 
ATOM     60  H   UNL A   1      42.963  28.890  29.546  1.00  0.00     0.167 HD
ATOM     61  C   UNL A   1      45.383  30.098  30.407  1.00  0.00     0.074 A 
ATOM     62  C   UNL A   1      46.788  30.306  30.695  1.00  0.00     0.031 C 
ATOM     63  C   UNL A   1      44.416  31.019  30.632  1.00  0.00     0.031 A 
BRANCH  50  64
ATOM     64  C   UNL A   1      38.747  29.193  28.978  1.00  0.00    -0.014 A 
ATOM     65  C   UNL A   1      38.236  29.685  27.766  1.00  0.00     0.009 A 
ATOM     66  C   UNL A   1      37.870  29.005  30.058  1.00  0.00     0.009 A 
ATOM     67  C   UNL A   1      36.887  30.024  27.652  1.00  0.00     0.001 A 
ATOM     68  C   UNL A   1      36.516  29.316  29.931  1.00  0.00     0.001 A 
ATOM     69  C   UNL A   1      36.027  29.836  28.733  1.00  0.00     0.000 A 
ENDBRANCH  50  64
BRANCH  51  70
ATOM     70  C   UNL A   1      48.386  26.602  29.470  1.00  0.00    -0.014 A 
ATOM     71  C   UNL A   1      48.907  25.985  30.619  1.00  0.00     0.009 A 
ATOM     72  C   UNL A   1      49.243  26.856  28.388  1.00  0.00     0.009 A 
ATOM     73  C   UNL A   1      50.261  25.651  30.691  1.00  0.00     0.001 A 
ATOM     74  C   UNL A   1      50.592  26.498  28.454  1.00  0.00     0.001 A 
ATOM     75  C   UNL A   1      51.101  25.904  29.607  1.00  0.00     0.000 A 
ENDBRANCH  51  70
BRANCH  63  76
ATOM     76  C   UNL A   1      44.841  32.322  31.246  1.00  0.00    -0.014 A 
ATOM     77  C   UNL A   1      44.972  32.463  32.636  1.00  0.00     0.009 A 
ATOM     78  C   UNL A   1      45.157  33.409  30.416  1.00  0.00     0.009 A 
ATOM     79  C   UNL A   1      45.384  33.678  33.184  1.00  0.00     0.001 A 
ATOM     80  C   UNL A   1      45.593  34.614  30.966  1.00  0.00     0.001 A 
ATOM     81  C   UNL A   1      45.698  34.751  32.350  1.00  0.00     0.000 A 
ENDBRANCH  63  76
ENDBRANCH  37  38
ENDBRANCH  29  32
ENDBRANCH  27  28
ENDBRANCH  26  27
ENDBRANCH  25  26
ENDBRANCH   1  25
TORSDOF 17
ENDMDL
