MODEL 1
REMARK VINA RESULT:     -12.1      0.000      0.000
REMARK SMILES C[NH+]1CCC(NC(=O)N[C@H]2C=C[C@H](C(=O)NCCCCNC(=O)c3ccc(-c4c5nc(c(-c6ccccc6)c6ccc([nH]6)c(-c6ccccc6)c6nc(c(-c7ccccc7)c7ccc4[nH]7)C=C6)C=C5)cc3)C2)CC1
REMARK SMILES IDX 18 1 17 2 16 3 14 4 15 5 13 7 10 8 11 9 72 10 12 11 9 12
REMARK SMILES IDX 6 13 7 14 8 16 5 18 1 19 2 20 3 21 74 22 4 24 73 25 19 26
REMARK SMILES IDX 20 27 21 28 22 29 23 31 24 32 25 33 71 34 26 35 70 36 27 37
REMARK SMILES IDX 28 38 29 39 64 40 30 41 69 42 63 43 65 44 31 45 68 46 62 47
REMARK SMILES IDX 61 48 32 50 54 51 39 52 53 53 40 54 43 55 52 56 66 57 41 58
REMARK SMILES IDX 42 59 51 61 67 62 44 63 33 64 34 65 38 66 35 67 37 68 36 69
REMARK SMILES IDX 55 70 56 71 60 72 57 73 59 74 58 75 45 76 46 77 50 78 47 79
REMARK SMILES IDX 49 80 48 81
REMARK H PARENT 16 6 6 15 9 17 2 23 21 30 65 49 43 60
REMARK Flexibility Score: inf
ROOT
ATOM      1  C   UNL A   1      31.865  30.621  26.283  1.00  0.00     0.023 C 
ENDROOT
BRANCH   1   2
ATOM      2  C   UNL A   1      33.308  30.203  26.594  1.00  0.00     0.116 C 
BRANCH   2   3
ATOM      3  N   UNL A   1      33.882  29.330  25.581  1.00  0.00    -0.356 N 
ATOM      4  C   UNL A   1      33.394  28.147  25.079  1.00  0.00     0.227 C 
ATOM      5  O   UNL A   1      33.956  27.639  24.110  1.00  0.00    -0.274 OA
ATOM      6  H   UNL A   1      34.739  29.629  25.200  1.00  0.00     0.163 HD
BRANCH   4   7
ATOM      7  C   UNL A   1      32.166  27.524  25.743  1.00  0.00     0.103 C 
ATOM      8  C   UNL A   1      31.254  25.246  25.588  1.00  0.00     0.107 C 
ATOM      9  C   UNL A   1      30.454  26.207  24.785  1.00  0.00    -0.006 C 
ATOM     10  C   UNL A   1      32.376  26.074  26.222  1.00  0.00     0.047 C 
ATOM     11  C   UNL A   1      30.987  27.435  24.812  1.00  0.00    -0.016 C 
BRANCH   8  12
ATOM     12  N   UNL A   1      30.449  24.404  26.460  1.00  0.00    -0.332 N 
ATOM     13  N   UNL A   1      31.289  22.210  26.855  1.00  0.00    -0.335 N 
ATOM     14  C   UNL A   1      30.384  23.180  26.980  1.00  0.00     0.315 C 
ATOM     15  H   UNL A   1      30.992  21.355  27.243  1.00  0.00     0.165 HD
ATOM     16  O   UNL A   1      29.376  22.917  27.644  1.00  0.00    -0.249 OA
ATOM     17  H   UNL A   1      29.676  24.925  26.778  1.00  0.00     0.165 HD
BRANCH  13  18
ATOM     18  C   UNL A   1      32.610  22.137  26.276  1.00  0.00     0.095 C 
ATOM     19  C   UNL A   1      36.616  21.300  25.167  1.00  0.00     0.332 C 
ATOM     20  N   UNL A   1      35.344  21.213  25.890  1.00  0.00    -0.337 N 
ATOM     21  C   UNL A   1      34.267  20.770  24.997  1.00  0.00     0.264 C 
ATOM     22  C   UNL A   1      35.059  22.491  26.560  1.00  0.00     0.264 C 
ATOM     23  H   UNL A   1      35.413  20.505  26.620  1.00  0.00     0.347 HD
ATOM     24  C   UNL A   1      32.895  20.766  25.670  1.00  0.00     0.086 C 
ATOM     25  C   UNL A   1      33.707  22.485  27.275  1.00  0.00     0.086 C 
ENDBRANCH  13  18
ENDBRANCH   8  12
ENDBRANCH   4   7
ENDBRANCH   2   3
ENDBRANCH   1   2
BRANCH   1  26
ATOM     26  C   UNL A   1      31.488  32.021  26.777  1.00  0.00     0.023 C 
BRANCH  26  27
ATOM     27  C   UNL A   1      32.657  32.857  27.300  1.00  0.00     0.116 C 
BRANCH  27  28
ATOM     28  N   UNL A   1      32.309  34.225  27.653  1.00  0.00    -0.352 N 
ATOM     29  C   UNL A   1      32.945  35.058  28.549  1.00  0.00     0.251 C 
ATOM     30  H   UNL A   1      31.523  34.602  27.195  1.00  0.00     0.163 HD
ATOM     31  O   UNL A   1      32.485  36.168  28.796  1.00  0.00    -0.269 OA
BRANCH  29  32
ATOM     32  C   UNL A   1      34.158  34.585  29.260  1.00  0.00     0.039 A 
ATOM     33  C   UNL A   1      34.010  33.954  30.499  1.00  0.00     0.014 A 
ATOM     34  C   UNL A   1      35.427  34.718  28.694  1.00  0.00     0.014 A 
ATOM     35  C   UNL A   1      35.122  33.378  31.122  1.00  0.00     0.010 A 
ATOM     36  C   UNL A   1      36.520  34.080  29.278  1.00  0.00     0.010 A 
ATOM     37  C   UNL A   1      36.378  33.395  30.494  1.00  0.00    -0.014 A 
BRANCH  37  38
ATOM     38  C   UNL A   1      37.540  32.675  31.079  1.00  0.00     0.031 A 
ATOM     39  C   UNL A   1      38.141  33.116  32.384  1.00  0.00     0.074 A 
ATOM     40  C   UNL A   1      38.106  31.660  30.395  1.00  0.00     0.049 A 
ATOM     41  N   UNL A   1      39.166  32.618  33.032  1.00  0.00    -0.248 NA
ATOM     42  C   UNL A   1      37.533  34.288  33.034  1.00  0.00     0.031 C 
ATOM     43  C   UNL A   1      37.673  31.172  29.083  1.00  0.00     0.029 A 
ATOM     44  N   UNL A   1      39.176  30.858  30.709  1.00  0.00    -0.354 N 
ATOM     45  C   UNL A   1      39.335  33.425  34.150  1.00  0.00     0.074 A 
ATOM     46  C   UNL A   1      38.341  34.472  34.068  1.00  0.00     0.031 C 
ATOM     47  C   UNL A   1      38.449  30.138  28.720  1.00  0.00     0.029 A 
ATOM     48  C   UNL A   1      39.448  29.906  29.756  1.00  0.00     0.049 A 
ATOM     49  H   UNL A   1      39.698  30.955  31.537  1.00  0.00     0.167 HD
ATOM     50  C   UNL A   1      40.224  33.297  35.165  1.00  0.00     0.031 A 
ATOM     51  C   UNL A   1      40.393  28.946  29.721  1.00  0.00     0.031 A 
ATOM     52  C   UNL A   1      41.203  32.247  35.263  1.00  0.00     0.049 A 
ATOM     53  C   UNL A   1      41.342  28.799  30.877  1.00  0.00     0.074 A 
ATOM     54  C   UNL A   1      42.094  31.992  36.291  1.00  0.00     0.029 A 
ATOM     55  N   UNL A   1      41.420  31.278  34.296  1.00  0.00    -0.354 N 
ATOM     56  N   UNL A   1      41.427  29.515  31.972  1.00  0.00    -0.248 NA
ATOM     57  C   UNL A   1      42.312  27.697  30.799  1.00  0.00     0.031 C 
ATOM     58  C   UNL A   1      42.879  30.892  35.927  1.00  0.00     0.029 A 
ATOM     59  C   UNL A   1      42.444  30.435  34.694  1.00  0.00     0.049 A 
ATOM     60  H   UNL A   1      40.920  31.202  33.451  1.00  0.00     0.167 HD
ATOM     61  C   UNL A   1      42.442  28.936  32.723  1.00  0.00     0.074 A 
ATOM     62  C   UNL A   1      42.929  27.800  31.968  1.00  0.00     0.031 C 
ATOM     63  C   UNL A   1      42.924  29.312  33.933  1.00  0.00     0.031 A 
BRANCH  50  64
ATOM     64  C   UNL A   1      40.172  34.328  36.257  1.00  0.00    -0.014 A 
ATOM     65  C   UNL A   1      39.332  34.166  37.370  1.00  0.00     0.009 A 
ATOM     66  C   UNL A   1      40.990  35.465  36.184  1.00  0.00     0.009 A 
ATOM     67  C   UNL A   1      39.281  35.142  38.368  1.00  0.00     0.001 A 
ATOM     68  C   UNL A   1      40.959  36.427  37.196  1.00  0.00     0.001 A 
ATOM     69  C   UNL A   1      40.098  36.269  38.281  1.00  0.00     0.000 A 
ENDBRANCH  50  64
BRANCH  51  70
ATOM     70  C   UNL A   1      40.464  28.020  28.563  1.00  0.00    -0.014 A 
ATOM     71  C   UNL A   1      41.222  28.356  27.430  1.00  0.00     0.009 A 
ATOM     72  C   UNL A   1      39.776  26.797  28.582  1.00  0.00     0.009 A 
ATOM     73  C   UNL A   1      41.267  27.498  26.329  1.00  0.00     0.001 A 
ATOM     74  C   UNL A   1      39.845  25.930  27.490  1.00  0.00     0.001 A 
ATOM     75  C   UNL A   1      40.582  26.285  26.361  1.00  0.00     0.000 A 
ENDBRANCH  51  70
BRANCH  63  76
ATOM     76  C   UNL A   1      44.016  28.468  34.525  1.00  0.00    -0.014 A 
ATOM     77  C   UNL A   1      45.370  28.767  34.303  1.00  0.00     0.009 A 
ATOM     78  C   UNL A   1      43.685  27.373  35.338  1.00  0.00     0.009 A 
ATOM     79  C   UNL A   1      46.369  27.965  34.856  1.00  0.00     0.001 A 
ATOM     80  C   UNL A   1      44.687  26.588  35.911  1.00  0.00     0.001 A 
ATOM     81  C   UNL A   1      46.026  26.878  35.661  1.00  0.00     0.000 A 
ENDBRANCH  63  76
ENDBRANCH  37  38
ENDBRANCH  29  32
ENDBRANCH  27  28
ENDBRANCH  26  27
ENDBRANCH   1  26
TORSDOF 13
ENDMDL
MODEL 2
REMARK VINA RESULT:     -12.0      0.545      5.926
REMARK SMILES C[NH+]1CCC(NC(=O)N[C@H]2C=C[C@H](C(=O)NCCCCNC(=O)c3ccc(-c4c5nc(c(-c6ccccc6)c6ccc([nH]6)c(-c6ccccc6)c6nc(c(-c7ccccc7)c7ccc4[nH]7)C=C6)C=C5)cc3)C2)CC1
REMARK SMILES IDX 18 1 17 2 16 3 14 4 15 5 13 7 10 8 11 9 72 10 12 11 9 12
REMARK SMILES IDX 6 13 7 14 8 16 5 18 1 19 2 20 3 21 74 22 4 24 73 25 19 26
REMARK SMILES IDX 20 27 21 28 22 29 23 31 24 32 25 33 71 34 26 35 70 36 27 37
REMARK SMILES IDX 28 38 29 39 64 40 30 41 69 42 63 43 65 44 31 45 68 46 62 47
REMARK SMILES IDX 61 48 32 50 54 51 39 52 53 53 40 54 43 55 52 56 66 57 41 58
REMARK SMILES IDX 42 59 51 61 67 62 44 63 33 64 34 65 38 66 35 67 37 68 36 69
REMARK SMILES IDX 55 70 56 71 60 72 57 73 59 74 58 75 45 76 46 77 50 78 47 79
REMARK SMILES IDX 49 80 48 81
REMARK H PARENT 16 6 6 15 9 17 2 23 21 30 65 49 43 60
REMARK Flexibility Score: inf
ROOT
ATOM      1  C   UNL A   1      31.948  30.738  26.092  1.00  0.00     0.023 C 
ENDROOT
BRANCH   1   2
ATOM      2  C   UNL A   1      33.295  30.111  26.476  1.00  0.00     0.116 C 
BRANCH   2   3
ATOM      3  N   UNL A   1      33.824  29.222  25.452  1.00  0.00    -0.356 N 
ATOM      4  C   UNL A   1      33.301  28.046  24.971  1.00  0.00     0.227 C 
ATOM      5  O   UNL A   1      33.827  27.522  23.989  1.00  0.00    -0.274 OA
ATOM      6  H   UNL A   1      34.677  29.504  25.047  1.00  0.00     0.163 HD
BRANCH   4   7
ATOM      7  C   UNL A   1      32.081  27.450  25.671  1.00  0.00     0.103 C 
ATOM      8  C   UNL A   1      31.098  25.201  25.522  1.00  0.00     0.107 C 
ATOM      9  C   UNL A   1      30.297  26.195  24.761  1.00  0.00    -0.006 C 
ATOM     10  C   UNL A   1      32.266  25.988  26.125  1.00  0.00     0.047 C 
ATOM     11  C   UNL A   1      30.866  27.407  24.783  1.00  0.00    -0.016 C 
BRANCH   8  12
ATOM     12  N   UNL A   1      30.300  24.371  26.412  1.00  0.00    -0.332 N 
ATOM     13  N   UNL A   1      31.155  22.189  26.844  1.00  0.00    -0.335 N 
ATOM     14  C   UNL A   1      30.245  23.156  26.955  1.00  0.00     0.315 C 
ATOM     15  H   UNL A   1      30.864  21.340  27.249  1.00  0.00     0.165 HD
ATOM     16  O   UNL A   1      29.240  22.899  27.626  1.00  0.00    -0.249 OA
ATOM     17  H   UNL A   1      29.525  24.893  26.722  1.00  0.00     0.165 HD
BRANCH  13  18
ATOM     18  C   UNL A   1      32.474  22.113  26.262  1.00  0.00     0.095 C 
ATOM     19  C   UNL A   1      36.436  21.193  25.063  1.00  0.00     0.332 C 
ATOM     20  N   UNL A   1      35.155  21.090  25.768  1.00  0.00    -0.337 N 
ATOM     21  C   UNL A   1      34.062  20.822  24.827  1.00  0.00     0.264 C 
ATOM     22  C   UNL A   1      34.937  22.290  26.590  1.00  0.00     0.264 C 
ATOM     23  H   UNL A   1      35.179  20.295  26.405  1.00  0.00     0.347 HD
ATOM     24  C   UNL A   1      32.686  20.814  25.492  1.00  0.00     0.086 C 
ATOM     25  C   UNL A   1      33.581  22.273  27.297  1.00  0.00     0.086 C 
ENDBRANCH  13  18
ENDBRANCH   8  12
ENDBRANCH   4   7
ENDBRANCH   2   3
ENDBRANCH   1   2
BRANCH   1  26
ATOM     26  C   UNL A   1      31.552  31.958  26.930  1.00  0.00     0.023 C 
BRANCH  26  27
ATOM     27  C   UNL A   1      32.721  32.827  27.394  1.00  0.00     0.116 C 
BRANCH  27  28
ATOM     28  N   UNL A   1      32.371  34.214  27.660  1.00  0.00    -0.352 N 
ATOM     29  C   UNL A   1      32.978  35.090  28.536  1.00  0.00     0.251 C 
ATOM     30  H   UNL A   1      31.607  34.572  27.152  1.00  0.00     0.163 HD
ATOM     31  O   UNL A   1      32.518  36.215  28.706  1.00  0.00    -0.269 OA
BRANCH  29  32
ATOM     32  C   UNL A   1      34.157  34.647  29.320  1.00  0.00     0.039 A 
ATOM     33  C   UNL A   1      33.961  34.154  30.613  1.00  0.00     0.014 A 
ATOM     34  C   UNL A   1      35.442  34.672  28.772  1.00  0.00     0.014 A 
ATOM     35  C   UNL A   1      35.037  33.604  31.317  1.00  0.00     0.010 A 
ATOM     36  C   UNL A   1      36.496  34.057  29.443  1.00  0.00     0.010 A 
ATOM     37  C   UNL A   1      36.305  33.508  30.720  1.00  0.00    -0.014 A 
BRANCH  37  38
ATOM     38  C   UNL A   1      37.426  32.808  31.402  1.00  0.00     0.031 A 
ATOM     39  C   UNL A   1      38.099  31.627  30.761  1.00  0.00     0.074 A 
ATOM     40  C   UNL A   1      37.793  33.192  32.641  1.00  0.00     0.049 A 
ATOM     41  N   UNL A   1      39.078  30.886  31.219  1.00  0.00    -0.248 NA
ATOM     42  C   UNL A   1      37.589  31.202  29.448  1.00  0.00     0.031 C 
ATOM     43  C   UNL A   1      37.179  34.275  33.413  1.00  0.00     0.029 A 
ATOM     44  N   UNL A   1      38.773  32.708  33.472  1.00  0.00    -0.354 N 
ATOM     45  C   UNL A   1      39.286  29.900  30.263  1.00  0.00     0.074 A 
ATOM     46  C   UNL A   1      38.301  30.107  29.223  1.00  0.00     0.031 C 
ATOM     47  C   UNL A   1      37.815  34.392  34.589  1.00  0.00     0.029 A 
ATOM     48  C   UNL A   1      38.861  33.380  34.668  1.00  0.00     0.049 A 
ATOM     49  H   UNL A   1      39.357  31.952  33.235  1.00  0.00     0.167 HD
ATOM     50  C   UNL A   1      40.223  28.922  30.238  1.00  0.00     0.031 A 
ATOM     51  C   UNL A   1      39.696  33.206  35.711  1.00  0.00     0.031 A 
ATOM     52  C   UNL A   1      41.218  28.722  31.258  1.00  0.00     0.049 A 
ATOM     53  C   UNL A   1      40.752  32.140  35.644  1.00  0.00     0.074 A 
ATOM     54  C   UNL A   1      42.256  27.806  31.283  1.00  0.00     0.029 A 
ATOM     55  N   UNL A   1      41.299  29.449  32.435  1.00  0.00    -0.354 N 
ATOM     56  N   UNL A   1      40.994  31.276  34.689  1.00  0.00    -0.248 NA
ATOM     57  C   UNL A   1      41.665  32.041  36.793  1.00  0.00     0.031 C 
ATOM     58  C   UNL A   1      42.940  27.952  32.495  1.00  0.00     0.029 A 
ATOM     59  C   UNL A   1      42.357  28.990  33.201  1.00  0.00     0.049 A 
ATOM     60  H   UNL A   1      40.693  30.183  32.688  1.00  0.00     0.167 HD
ATOM     61  C   UNL A   1      42.100  30.548  35.110  1.00  0.00     0.074 A 
ATOM     62  C   UNL A   1      42.491  31.084  36.397  1.00  0.00     0.031 C 
ATOM     63  C   UNL A   1      42.734  29.527  34.483  1.00  0.00     0.031 A 
BRANCH  50  64
ATOM     64  C   UNL A   1      40.213  27.989  29.059  1.00  0.00    -0.014 A 
ATOM     65  C   UNL A   1      39.523  26.767  29.107  1.00  0.00     0.009 A 
ATOM     66  C   UNL A   1      40.881  28.346  27.879  1.00  0.00     0.009 A 
ATOM     67  C   UNL A   1      39.539  25.902  28.010  1.00  0.00     0.001 A 
ATOM     68  C   UNL A   1      40.872  27.493  26.774  1.00  0.00     0.001 A 
ATOM     69  C   UNL A   1      40.210  26.269  26.844  1.00  0.00     0.000 A 
ENDBRANCH  50  64
BRANCH  51  70
ATOM     70  C   UNL A   1      39.590  34.092  36.898  1.00  0.00    -0.014 A 
ATOM     71  C   UNL A   1      40.234  35.339  36.913  1.00  0.00     0.009 A 
ATOM     72  C   UNL A   1      38.850  33.696  38.023  1.00  0.00     0.009 A 
ATOM     73  C   UNL A   1      40.159  36.161  38.041  1.00  0.00     0.001 A 
ATOM     74  C   UNL A   1      38.756  34.531  39.138  1.00  0.00     0.001 A 
ATOM     75  C   UNL A   1      39.417  35.758  39.149  1.00  0.00     0.000 A 
ENDBRANCH  51  70
BRANCH  63  76
ATOM     76  C   UNL A   1      43.936  28.945  35.170  1.00  0.00    -0.014 A 
ATOM     77  C   UNL A   1      45.214  29.500  34.998  1.00  0.00     0.009 A 
ATOM     78  C   UNL A   1      43.781  27.840  36.022  1.00  0.00     0.009 A 
ATOM     79  C   UNL A   1      46.319  28.937  35.639  1.00  0.00     0.001 A 
ATOM     80  C   UNL A   1      44.885  27.296  36.682  1.00  0.00     0.001 A 
ATOM     81  C   UNL A   1      46.153  27.838  36.482  1.00  0.00     0.000 A 
ENDBRANCH  63  76
ENDBRANCH  37  38
ENDBRANCH  29  32
ENDBRANCH  27  28
ENDBRANCH  26  27
ENDBRANCH   1  26
TORSDOF 13
ENDMDL
MODEL 3
REMARK VINA RESULT:     -11.9      5.057     10.456
REMARK SMILES C[NH+]1CCC(NC(=O)N[C@H]2C=C[C@H](C(=O)NCCCCNC(=O)c3ccc(-c4c5nc(c(-c6ccccc6)c6ccc([nH]6)c(-c6ccccc6)c6nc(c(-c7ccccc7)c7ccc4[nH]7)C=C6)C=C5)cc3)C2)CC1
REMARK SMILES IDX 18 1 17 2 16 3 14 4 15 5 13 7 10 8 11 9 72 10 12 11 9 12
REMARK SMILES IDX 6 13 7 14 8 16 5 18 1 19 2 20 3 21 74 22 4 24 73 25 19 26
REMARK SMILES IDX 20 27 21 28 22 29 23 31 24 32 25 33 71 34 26 35 70 36 27 37
REMARK SMILES IDX 28 38 29 39 64 40 30 41 69 42 63 43 65 44 31 45 68 46 62 47
REMARK SMILES IDX 61 48 32 50 54 51 39 52 53 53 40 54 43 55 52 56 66 57 41 58
REMARK SMILES IDX 42 59 51 61 67 62 44 63 33 64 34 65 38 66 35 67 37 68 36 69
REMARK SMILES IDX 55 70 56 71 60 72 57 73 59 74 58 75 45 76 46 77 50 78 47 79
REMARK SMILES IDX 49 80 48 81
REMARK H PARENT 16 6 6 15 9 17 2 23 21 30 65 49 43 60
REMARK Flexibility Score: inf
ROOT
ATOM      1  C   UNL A   1      36.720  20.550  25.046  1.00  0.00     0.023 C 
ENDROOT
BRANCH   1   2
ATOM      2  C   UNL A   1      36.707  21.912  25.751  1.00  0.00     0.116 C 
BRANCH   2   3
ATOM      3  N   UNL A   1      35.460  22.182  26.451  1.00  0.00    -0.356 N 
ATOM      4  C   UNL A   1      34.192  22.323  25.940  1.00  0.00     0.227 C 
ATOM      5  O   UNL A   1      33.243  22.394  26.720  1.00  0.00    -0.274 OA
ATOM      6  H   UNL A   1      35.535  22.275  27.429  1.00  0.00     0.163 HD
BRANCH   4   7
ATOM      7  C   UNL A   1      34.019  22.373  24.422  1.00  0.00     0.103 C 
ATOM      8  C   UNL A   1      32.780  23.960  23.010  1.00  0.00     0.107 C 
ATOM      9  C   UNL A   1      32.051  22.672  23.149  1.00  0.00    -0.006 C 
ATOM     10  C   UNL A   1      34.064  23.796  23.829  1.00  0.00     0.047 C 
ATOM     11  C   UNL A   1      32.689  21.831  23.972  1.00  0.00    -0.016 C 
BRANCH   8  12
ATOM     12  N   UNL A   1      32.899  24.414  21.633  1.00  0.00    -0.332 N 
ATOM     13  N   UNL A   1      32.410  26.715  21.251  1.00  0.00    -0.335 N 
ATOM     14  C   UNL A   1      32.738  25.485  20.858  1.00  0.00     0.315 C 
ATOM     15  H   UNL A   1      32.252  27.329  20.499  1.00  0.00     0.165 HD
ATOM     16  O   UNL A   1      32.903  25.315  19.645  1.00  0.00    -0.249 OA
ATOM     17  H   UNL A   1      33.209  23.663  21.077  1.00  0.00     0.165 HD
BRANCH  13  18
ATOM     18  C   UNL A   1      32.239  27.345  22.539  1.00  0.00     0.095 C 
ATOM     19  C   UNL A   1      31.890  29.929  25.884  1.00  0.00     0.332 C 
ATOM     20  N   UNL A   1      32.099  29.494  24.500  1.00  0.00    -0.337 N 
ATOM     21  C   UNL A   1      30.877  28.896  23.951  1.00  0.00     0.264 C 
ATOM     22  C   UNL A   1      33.269  28.605  24.424  1.00  0.00     0.264 C 
ATOM     23  H   UNL A   1      32.304  30.302  23.914  1.00  0.00     0.347 HD
ATOM     24  C   UNL A   1      31.068  28.323  22.547  1.00  0.00     0.086 C 
ATOM     25  C   UNL A   1      33.498  28.061  23.014  1.00  0.00     0.086 C 
ENDBRANCH  13  18
ENDBRANCH   8  12
ENDBRANCH   4   7
ENDBRANCH   2   3
ENDBRANCH   1   2
BRANCH   1  26
ATOM     26  C   UNL A   1      38.113  20.052  24.649  1.00  0.00     0.023 C 
BRANCH  26  27
ATOM     27  C   UNL A   1      39.169  20.146  25.751  1.00  0.00     0.116 C 
BRANCH  27  28
ATOM     28  N   UNL A   1      40.125  19.050  25.764  1.00  0.00    -0.352 N 
ATOM     29  C   UNL A   1      41.476  19.104  26.038  1.00  0.00     0.251 C 
ATOM     30  H   UNL A   1      39.763  18.159  25.553  1.00  0.00     0.163 HD
ATOM     31  O   UNL A   1      42.170  18.098  25.937  1.00  0.00    -0.269 OA
BRANCH  29  32
ATOM     32  C   UNL A   1      42.101  20.400  26.399  1.00  0.00     0.039 A 
ATOM     33  C   UNL A   1      42.508  21.262  25.376  1.00  0.00     0.014 A 
ATOM     34  C   UNL A   1      42.245  20.788  27.733  1.00  0.00     0.014 A 
ATOM     35  C   UNL A   1      42.972  22.543  25.690  1.00  0.00     0.010 A 
ATOM     36  C   UNL A   1      42.636  22.089  28.041  1.00  0.00     0.010 A 
ATOM     37  C   UNL A   1      42.995  22.985  27.023  1.00  0.00    -0.014 A 
BRANCH  37  38
ATOM     38  C   UNL A   1      43.360  24.386  27.362  1.00  0.00     0.031 A 
ATOM     39  C   UNL A   1      44.789  24.847  27.295  1.00  0.00     0.074 A 
ATOM     40  C   UNL A   1      42.408  25.232  27.805  1.00  0.00     0.049 A 
ATOM     41  N   UNL A   1      45.291  26.025  27.574  1.00  0.00    -0.248 NA
ATOM     42  C   UNL A   1      45.792  23.848  26.893  1.00  0.00     0.031 C 
ATOM     43  C   UNL A   1      40.993  24.900  27.989  1.00  0.00     0.029 A 
ATOM     44  N   UNL A   1      42.490  26.549  28.186  1.00  0.00    -0.354 N 
ATOM     45  C   UNL A   1      46.663  25.903  27.399  1.00  0.00     0.074 A 
ATOM     46  C   UNL A   1      46.921  24.526  27.039  1.00  0.00     0.031 C 
ATOM     47  C   UNL A   1      40.337  25.990  28.418  1.00  0.00     0.029 A 
ATOM     48  C   UNL A   1      41.284  27.088  28.565  1.00  0.00     0.049 A 
ATOM     49  H   UNL A   1      43.332  27.058  28.189  1.00  0.00     0.167 HD
ATOM     50  C   UNL A   1      47.623  26.853  27.508  1.00  0.00     0.031 A 
ATOM     51  C   UNL A   1      40.972  28.332  28.978  1.00  0.00     0.031 A 
ATOM     52  C   UNL A   1      47.372  28.229  27.847  1.00  0.00     0.049 A 
ATOM     53  C   UNL A   1      42.046  29.379  29.053  1.00  0.00     0.074 A 
ATOM     54  C   UNL A   1      48.271  29.280  27.906  1.00  0.00     0.029 A 
ATOM     55  N   UNL A   1      46.131  28.745  28.184  1.00  0.00    -0.354 N 
ATOM     56  N   UNL A   1      43.326  29.269  28.794  1.00  0.00    -0.248 NA
ATOM     57  C   UNL A   1      41.627  30.729  29.459  1.00  0.00     0.031 C 
ATOM     58  C   UNL A   1      47.580  30.424  28.320  1.00  0.00     0.029 A 
ATOM     59  C   UNL A   1      46.243  30.095  28.471  1.00  0.00     0.049 A 
ATOM     60  H   UNL A   1      45.294  28.227  28.215  1.00  0.00     0.167 HD
ATOM     61  C   UNL A   1      43.860  30.537  28.981  1.00  0.00     0.074 A 
ATOM     62  C   UNL A   1      42.763  31.404  29.357  1.00  0.00     0.031 C 
ATOM     63  C   UNL A   1      45.146  30.946  28.850  1.00  0.00     0.031 A 
BRANCH  50  64
ATOM     64  C   UNL A   1      49.042  26.429  27.255  1.00  0.00    -0.014 A 
ATOM     65  C   UNL A   1      49.889  26.059  28.312  1.00  0.00     0.009 A 
ATOM     66  C   UNL A   1      49.533  26.375  25.942  1.00  0.00     0.009 A 
ATOM     67  C   UNL A   1      51.212  25.685  28.063  1.00  0.00     0.001 A 
ATOM     68  C   UNL A   1      50.847  25.974  25.692  1.00  0.00     0.001 A 
ATOM     69  C   UNL A   1      51.687  25.639  26.753  1.00  0.00     0.000 A 
ENDBRANCH  50  64
BRANCH  51  70
ATOM     70  C   UNL A   1      39.566  28.667  29.318  1.00  0.00    -0.014 A 
ATOM     71  C   UNL A   1      38.685  29.125  28.325  1.00  0.00     0.009 A 
ATOM     72  C   UNL A   1      39.097  28.535  30.634  1.00  0.00     0.009 A 
ATOM     73  C   UNL A   1      37.370  29.467  28.649  1.00  0.00     0.001 A 
ATOM     74  C   UNL A   1      37.775  28.854  30.949  1.00  0.00     0.001 A 
ATOM     75  C   UNL A   1      36.915  29.328  29.959  1.00  0.00     0.000 A 
ENDBRANCH  51  70
BRANCH  63  76
ATOM     76  C   UNL A   1      45.427  32.402  29.088  1.00  0.00    -0.014 A 
ATOM     77  C   UNL A   1      45.796  32.875  30.357  1.00  0.00     0.009 A 
ATOM     78  C   UNL A   1      45.347  33.309  28.019  1.00  0.00     0.009 A 
ATOM     79  C   UNL A   1      46.044  34.234  30.558  1.00  0.00     0.001 A 
ATOM     80  C   UNL A   1      45.622  34.663  28.219  1.00  0.00     0.001 A 
ATOM     81  C   UNL A   1      45.960  35.125  29.489  1.00  0.00     0.000 A 
ENDBRANCH  63  76
ENDBRANCH  37  38
ENDBRANCH  29  32
ENDBRANCH  27  28
ENDBRANCH  26  27
ENDBRANCH   1  26
TORSDOF 13
ENDMDL
