MODEL 1
REMARK VINA RESULT:     -11.0      0.000      0.000
REMARK SMILES [NH3+][C@@H](CC1=C[C@H](S)c2ccccc2C1)C(=O)NCCCCNC(=O)c1ccc(-c2c3nc(c(-c4ccccc4)c4ccc([nH]4)c(-c4ccccc4)c4nc(c(-c5ccccc5)c5ccc2[nH]5)C=C4)C=C3)cc1
REMARK SMILES IDX 19 1 18 2 17 3 15 4 16 5 2 7 1 8 3 12 4 13 5 14 14 15 6 16
REMARK SMILES IDX 13 17 8 18 12 19 9 20 11 21 10 22 7 23 20 25 21 26 22 27
REMARK SMILES IDX 23 28 24 30 25 31 26 32 72 33 27 34 71 35 28 36 29 37 30 38
REMARK SMILES IDX 65 39 31 40 70 41 64 42 66 43 32 44 69 45 63 46 62 47 33 49
REMARK SMILES IDX 55 50 40 51 54 52 41 53 44 54 53 55 67 56 42 57 43 58 52 60
REMARK SMILES IDX 68 61 45 62 34 63 35 64 39 65 36 66 38 67 37 68 56 69 57 70
REMARK SMILES IDX 61 71 58 72 60 73 59 74 46 75 47 76 51 77 48 78 50 79 49 80
REMARK H PARENT 17 6 1 9 1 10 1 11 7 24 22 29 66 48 44 59
REMARK Flexibility Score: inf
ROOT
ATOM      1  C   UNL A   1      35.921  21.750  25.327  1.00  0.00     0.023 C 
ENDROOT
BRANCH   1   2
ATOM      2  C   UNL A   1      35.339  23.041  25.878  1.00  0.00     0.116 C 
BRANCH   2   3
ATOM      3  N   UNL A   1      34.626  22.902  27.124  1.00  0.00    -0.351 N 
ATOM      4  C   UNL A   1      33.297  22.654  27.338  1.00  0.00     0.278 C 
ATOM      5  O   UNL A   1      32.975  22.308  28.480  1.00  0.00    -0.268 OA
ATOM      6  H   UNL A   1      35.172  23.000  27.937  1.00  0.00     0.163 HD
BRANCH   4   7
ATOM      7  C   UNL A   1      32.223  22.792  26.229  1.00  0.00     0.275 C 
BRANCH   7   8
ATOM      8  N   UNL A   1      31.725  21.479  25.770  1.00  0.00    -0.347 N 
ATOM      9  H   UNL A   1      31.529  20.889  26.579  1.00  0.00     0.345 HD
ATOM     10  H   UNL A   1      32.430  21.033  25.186  1.00  0.00     0.345 HD
ATOM     11  H   UNL A   1      30.869  21.611  25.230  1.00  0.00     0.345 HD
ENDBRANCH   7   8
BRANCH   7  12
ATOM     12  C   UNL A   1      31.167  23.910  26.442  1.00  0.00     0.106 C 
BRANCH  12  13
ATOM     13  C   UNL A   1      31.338  25.275  25.805  1.00  0.00    -0.062 C 
ATOM     14  C   UNL A   1      32.114  26.222  26.371  1.00  0.00    -0.009 C 
ATOM     15  C   UNL A   1      30.692  25.537  24.463  1.00  0.00     0.066 C 
ATOM     16  C   UNL A   1      32.303  27.615  25.804  1.00  0.00     0.096 C 
ATOM     17  C   UNL A   1      30.423  27.006  24.200  1.00  0.00    -0.039 A 
ATOM     18  C   UNL A   1      31.215  28.004  24.808  1.00  0.00    -0.028 A 
ATOM     19  C   UNL A   1      29.391  27.367  23.316  1.00  0.00     0.004 A 
ATOM     20  C   UNL A   1      30.995  29.343  24.441  1.00  0.00     0.005 A 
ATOM     21  C   UNL A   1      29.152  28.705  23.015  1.00  0.00     0.000 A 
ATOM     22  C   UNL A   1      29.967  29.689  23.562  1.00  0.00     0.000 A 
BRANCH  16  23
ATOM     23  S   UNL A   1      32.378  28.751  27.250  1.00  0.00    -0.167 SA
ATOM     24  H   UNL A   1      33.625  29.283  27.345  1.00  0.00     0.103 HD
ENDBRANCH  16  23
ENDBRANCH  12  13
ENDBRANCH   7  12
ENDBRANCH   4   7
ENDBRANCH   2   3
ENDBRANCH   1   2
BRANCH   1  25
ATOM     25  C   UNL A   1      37.339  21.850  24.782  1.00  0.00     0.023 C 
BRANCH  25  26
ATOM     26  C   UNL A   1      38.463  21.587  25.779  1.00  0.00     0.116 C 
BRANCH  26  27
ATOM     27  N   UNL A   1      39.182  20.331  25.596  1.00  0.00    -0.352 N 
ATOM     28  C   UNL A   1      40.485  20.033  25.953  1.00  0.00     0.251 C 
ATOM     29  H   UNL A   1      38.678  19.605  25.164  1.00  0.00     0.163 HD
ATOM     30  O   UNL A   1      40.990  18.950  25.697  1.00  0.00    -0.269 OA
BRANCH  28  31
ATOM     31  C   UNL A   1      41.305  21.086  26.584  1.00  0.00     0.039 A 
ATOM     32  C   UNL A   1      41.352  21.212  27.972  1.00  0.00     0.014 A 
ATOM     33  C   UNL A   1      41.914  22.036  25.758  1.00  0.00     0.014 A 
ATOM     34  C   UNL A   1      41.792  22.407  28.523  1.00  0.00     0.010 A 
ATOM     35  C   UNL A   1      42.440  23.197  26.324  1.00  0.00     0.010 A 
ATOM     36  C   UNL A   1      42.299  23.427  27.699  1.00  0.00    -0.014 A 
BRANCH  36  37
ATOM     37  C   UNL A   1      42.593  24.756  28.289  1.00  0.00     0.031 A 
ATOM     38  C   UNL A   1      44.016  25.163  28.573  1.00  0.00     0.074 A 
ATOM     39  C   UNL A   1      41.589  25.630  28.476  1.00  0.00     0.049 A 
ATOM     40  N   UNL A   1      44.468  26.297  29.050  1.00  0.00    -0.248 NA
ATOM     41  C   UNL A   1      45.070  24.176  28.283  1.00  0.00     0.031 C 
ATOM     42  C   UNL A   1      40.178  25.361  28.194  1.00  0.00     0.029 A 
ATOM     43  N   UNL A   1      41.607  26.932  28.901  1.00  0.00    -0.354 N 
ATOM     44  C   UNL A   1      45.847  26.149  29.138  1.00  0.00     0.074 A 
ATOM     45  C   UNL A   1      46.160  24.811  28.688  1.00  0.00     0.031 C 
ATOM     46  C   UNL A   1      39.475  26.486  28.385  1.00  0.00     0.029 A 
ATOM     47  C   UNL A   1      40.373  27.534  28.861  1.00  0.00     0.049 A 
ATOM     48  H   UNL A   1      42.422  27.391  29.204  1.00  0.00     0.167 HD
ATOM     49  C   UNL A   1      46.770  27.050  29.550  1.00  0.00     0.031 A 
ATOM     50  C   UNL A   1      40.003  28.789  29.174  1.00  0.00     0.031 A 
ATOM     51  C   UNL A   1      46.458  28.385  29.987  1.00  0.00     0.049 A 
ATOM     52  C   UNL A   1      41.035  29.758  29.660  1.00  0.00     0.074 A 
ATOM     53  C   UNL A   1      47.320  29.366  30.444  1.00  0.00     0.029 A 
ATOM     54  N   UNL A   1      45.183  28.928  30.006  1.00  0.00    -0.354 N 
ATOM     55  N   UNL A   1      42.328  29.585  29.788  1.00  0.00    -0.248 NA
ATOM     56  C   UNL A   1      40.560  31.090  30.058  1.00  0.00     0.031 C 
ATOM     57  C   UNL A   1      46.561  30.493  30.774  1.00  0.00     0.029 A 
ATOM     58  C   UNL A   1      45.233  30.228  30.478  1.00  0.00     0.049 A 
ATOM     59  H   UNL A   1      44.363  28.460  29.726  1.00  0.00     0.167 HD
ATOM     60  C   UNL A   1      42.823  30.782  30.286  1.00  0.00     0.074 A 
ATOM     61  C   UNL A   1      41.694  31.682  30.413  1.00  0.00     0.031 C 
ATOM     62  C   UNL A   1      44.097  31.101  30.615  1.00  0.00     0.031 A 
BRANCH  49  63
ATOM     63  C   UNL A   1      48.208  26.618  29.569  1.00  0.00    -0.014 A 
ATOM     64  C   UNL A   1      49.019  26.841  28.445  1.00  0.00     0.009 A 
ATOM     65  C   UNL A   1      48.748  25.939  30.673  1.00  0.00     0.009 A 
ATOM     66  C   UNL A   1      50.341  26.391  28.424  1.00  0.00     0.001 A 
ATOM     67  C   UNL A   1      50.078  25.512  30.658  1.00  0.00     0.001 A 
ATOM     68  C   UNL A   1      50.871  25.733  29.532  1.00  0.00     0.000 A 
ENDBRANCH  49  63
BRANCH  50  69
ATOM     69  C   UNL A   1      38.578  29.175  29.020  1.00  0.00    -0.014 A 
ATOM     70  C   UNL A   1      38.107  29.678  27.796  1.00  0.00     0.009 A 
ATOM     71  C   UNL A   1      37.710  29.131  30.119  1.00  0.00     0.009 A 
ATOM     72  C   UNL A   1      36.802  30.159  27.686  1.00  0.00     0.001 A 
ATOM     73  C   UNL A   1      36.397  29.592  29.998  1.00  0.00     0.001 A 
ATOM     74  C   UNL A   1      35.948  30.115  28.786  1.00  0.00     0.000 A 
ENDBRANCH  50  69
BRANCH  62  75
ATOM     75  C   UNL A   1      44.346  32.477  31.157  1.00  0.00    -0.014 A 
ATOM     76  C   UNL A   1      44.236  32.716  32.536  1.00  0.00     0.009 A 
ATOM     77  C   UNL A   1      44.605  33.552  30.294  1.00  0.00     0.009 A 
ATOM     78  C   UNL A   1      44.376  34.009  33.040  1.00  0.00     0.001 A 
ATOM     79  C   UNL A   1      44.764  34.841  30.804  1.00  0.00     0.001 A 
ATOM     80  C   UNL A   1      44.643  35.069  32.175  1.00  0.00     0.000 A 
ENDBRANCH  62  75
ENDBRANCH  36  37
ENDBRANCH  28  31
ENDBRANCH  26  27
ENDBRANCH  25  26
ENDBRANCH   1  25
TORSDOF 15
ENDMDL
MODEL 2
REMARK VINA RESULT:     -11.0      2.456      7.020
REMARK SMILES [NH3+][C@@H](CC1=C[C@H](S)c2ccccc2C1)C(=O)NCCCCNC(=O)c1ccc(-c2c3nc(c(-c4ccccc4)c4ccc([nH]4)c(-c4ccccc4)c4nc(c(-c5ccccc5)c5ccc2[nH]5)C=C4)C=C3)cc1
REMARK SMILES IDX 19 1 18 2 17 3 15 4 16 5 2 7 1 8 3 12 4 13 5 14 14 15 6 16
REMARK SMILES IDX 13 17 8 18 12 19 9 20 11 21 10 22 7 23 20 25 21 26 22 27
REMARK SMILES IDX 23 28 24 30 25 31 26 32 72 33 27 34 71 35 28 36 29 37 30 38
REMARK SMILES IDX 65 39 31 40 70 41 64 42 66 43 32 44 69 45 63 46 62 47 33 49
REMARK SMILES IDX 55 50 40 51 54 52 41 53 44 54 53 55 67 56 42 57 43 58 52 60
REMARK SMILES IDX 68 61 45 62 34 63 35 64 39 65 36 66 38 67 37 68 56 69 57 70
REMARK SMILES IDX 61 71 58 72 60 73 59 74 46 75 47 76 51 77 48 78 50 79 49 80
REMARK H PARENT 17 6 1 9 1 10 1 11 7 24 22 29 66 48 44 59
REMARK Flexibility Score: inf
ROOT
ATOM      1  C   UNL A   1      35.677  21.064  25.253  1.00  0.00     0.023 C 
ENDROOT
BRANCH   1   2
ATOM      2  C   UNL A   1      34.176  20.931  25.454  1.00  0.00     0.116 C 
BRANCH   2   3
ATOM      3  N   UNL A   1      33.637  21.714  26.539  1.00  0.00    -0.351 N 
ATOM      4  C   UNL A   1      32.607  22.616  26.530  1.00  0.00     0.278 C 
ATOM      5  O   UNL A   1      32.155  22.953  27.629  1.00  0.00    -0.268 OA
ATOM      6  H   UNL A   1      34.074  21.583  27.412  1.00  0.00     0.163 HD
BRANCH   4   7
ATOM      7  C   UNL A   1      32.015  23.206  25.224  1.00  0.00     0.275 C 
BRANCH   7   8
ATOM      8  N   UNL A   1      30.538  23.249  25.252  1.00  0.00    -0.347 N 
ATOM      9  H   UNL A   1      30.231  23.866  26.005  1.00  0.00     0.345 HD
ATOM     10  H   UNL A   1      30.175  22.310  25.413  1.00  0.00     0.345 HD
ATOM     11  H   UNL A   1      30.192  23.600  24.360  1.00  0.00     0.345 HD
ENDBRANCH   7   8
BRANCH   7  12
ATOM     12  C   UNL A   1      32.744  24.450  24.651  1.00  0.00     0.106 C 
BRANCH  12  13
ATOM     13  C   UNL A   1      32.331  25.851  25.058  1.00  0.00    -0.062 C 
ATOM     14  C   UNL A   1      31.448  26.564  24.327  1.00  0.00    -0.009 C 
ATOM     15  C   UNL A   1      32.860  26.417  26.357  1.00  0.00     0.066 C 
ATOM     16  C   UNL A   1      31.017  27.978  24.661  1.00  0.00     0.096 C 
ATOM     17  C   UNL A   1      32.885  27.932  26.389  1.00  0.00    -0.039 A 
ATOM     18  C   UNL A   1      31.979  28.685  25.610  1.00  0.00    -0.028 A 
ATOM     19  C   UNL A   1      33.802  28.586  27.230  1.00  0.00     0.004 A 
ATOM     20  C   UNL A   1      31.970  30.083  25.764  1.00  0.00     0.005 A 
ATOM     21  C   UNL A   1      33.815  29.976  27.320  1.00  0.00     0.000 A 
ATOM     22  C   UNL A   1      32.887  30.720  26.603  1.00  0.00     0.000 A 
BRANCH  16  23
ATOM     23  S   UNL A   1      30.840  28.852  23.050  1.00  0.00    -0.167 SA
ATOM     24  H   UNL A   1      29.993  29.905  23.196  1.00  0.00     0.103 HD
ENDBRANCH  16  23
ENDBRANCH  12  13
ENDBRANCH   7  12
ENDBRANCH   4   7
ENDBRANCH   2   3
ENDBRANCH   1   2
BRANCH   1  25
ATOM     25  C   UNL A   1      36.330  22.247  25.955  1.00  0.00     0.023 C 
BRANCH  25  26
ATOM     26  C   UNL A   1      37.561  22.837  25.273  1.00  0.00     0.116 C 
BRANCH  26  27
ATOM     27  N   UNL A   1      38.837  22.247  25.664  1.00  0.00    -0.352 N 
ATOM     28  C   UNL A   1      39.849  22.820  26.411  1.00  0.00     0.251 C 
ATOM     29  H   UNL A   1      38.996  21.326  25.357  1.00  0.00     0.163 HD
ATOM     30  O   UNL A   1      40.899  22.233  26.628  1.00  0.00    -0.269 OA
BRANCH  28  31
ATOM     31  C   UNL A   1      39.684  24.209  26.882  1.00  0.00     0.039 A 
ATOM     32  C   UNL A   1      40.286  25.266  26.199  1.00  0.00     0.014 A 
ATOM     33  C   UNL A   1      39.034  24.424  28.101  1.00  0.00     0.014 A 
ATOM     34  C   UNL A   1      40.450  26.480  26.850  1.00  0.00     0.010 A 
ATOM     35  C   UNL A   1      39.121  25.674  28.712  1.00  0.00     0.010 A 
ATOM     36  C   UNL A   1      39.906  26.680  28.131  1.00  0.00    -0.014 A 
BRANCH  36  37
ATOM     37  C   UNL A   1      40.245  27.915  28.878  1.00  0.00     0.031 A 
ATOM     38  C   UNL A   1      39.249  29.042  28.974  1.00  0.00     0.074 A 
ATOM     39  C   UNL A   1      41.408  27.980  29.549  1.00  0.00     0.049 A 
ATOM     40  N   UNL A   1      39.355  30.180  29.615  1.00  0.00    -0.248 NA
ATOM     41  C   UNL A   1      37.969  28.874  28.265  1.00  0.00     0.031 C 
ATOM     42  C   UNL A   1      42.429  26.931  29.564  1.00  0.00     0.029 A 
ATOM     43  N   UNL A   1      41.905  28.948  30.382  1.00  0.00    -0.354 N 
ATOM     44  C   UNL A   1      38.172  30.867  29.367  1.00  0.00     0.074 A 
ATOM     45  C   UNL A   1      37.371  30.032  28.501  1.00  0.00     0.031 C 
ATOM     46  C   UNL A   1      43.397  27.280  30.424  1.00  0.00     0.029 A 
ATOM     47  C   UNL A   1      43.097  28.600  30.969  1.00  0.00     0.049 A 
ATOM     48  H   UNL A   1      41.453  29.806  30.544  1.00  0.00     0.167 HD
ATOM     49  C   UNL A   1      37.786  32.081  29.827  1.00  0.00     0.031 A 
ATOM     50  C   UNL A   1      43.865  29.268  31.848  1.00  0.00     0.031 A 
ATOM     51  C   UNL A   1      38.579  32.905  30.698  1.00  0.00     0.049 A 
ATOM     52  C   UNL A   1      43.435  30.624  32.316  1.00  0.00     0.074 A 
ATOM     53  C   UNL A   1      38.286  34.160  31.201  1.00  0.00     0.029 A 
ATOM     54  N   UNL A   1      39.819  32.548  31.206  1.00  0.00    -0.354 N 
ATOM     55  N   UNL A   1      42.337  31.281  32.029  1.00  0.00    -0.248 NA
ATOM     56  C   UNL A   1      44.351  31.337  33.216  1.00  0.00     0.031 C 
ATOM     57  C   UNL A   1      39.363  34.578  31.987  1.00  0.00     0.029 A 
ATOM     58  C   UNL A   1      40.307  33.564  32.009  1.00  0.00     0.049 A 
ATOM     59  H   UNL A   1      40.282  31.699  31.023  1.00  0.00     0.167 HD
ATOM     60  C   UNL A   1      42.431  32.488  32.708  1.00  0.00     0.074 A 
ATOM     61  C   UNL A   1      43.681  32.462  33.441  1.00  0.00     0.031 C 
ATOM     62  C   UNL A   1      41.561  33.526  32.715  1.00  0.00     0.031 A 
BRANCH  49  63
ATOM     63  C   UNL A   1      36.451  32.604  29.379  1.00  0.00    -0.014 A 
ATOM     64  C   UNL A   1      36.366  33.417  28.238  1.00  0.00     0.009 A 
ATOM     65  C   UNL A   1      35.284  32.343  30.115  1.00  0.00     0.009 A 
ATOM     66  C   UNL A   1      35.142  33.960  27.843  1.00  0.00     0.001 A 
ATOM     67  C   UNL A   1      34.057  32.868  29.704  1.00  0.00     0.001 A 
ATOM     68  C   UNL A   1      33.988  33.680  28.572  1.00  0.00     0.000 A 
ENDBRANCH  49  63
BRANCH  50  69
ATOM     69  C   UNL A   1      45.116  28.635  32.332  1.00  0.00    -0.014 A 
ATOM     70  C   UNL A   1      46.319  28.809  31.628  1.00  0.00     0.009 A 
ATOM     71  C   UNL A   1      45.093  27.781  33.444  1.00  0.00     0.009 A 
ATOM     72  C   UNL A   1      47.468  28.114  32.010  1.00  0.00     0.001 A 
ATOM     73  C   UNL A   1      46.252  27.106  33.836  1.00  0.00     0.001 A 
ATOM     74  C   UNL A   1      47.434  27.263  33.113  1.00  0.00     0.000 A 
ENDBRANCH  50  69
BRANCH  62  75
ATOM     75  C   UNL A   1      41.930  34.730  33.530  1.00  0.00    -0.014 A 
ATOM     76  C   UNL A   1      41.385  34.901  34.812  1.00  0.00     0.009 A 
ATOM     77  C   UNL A   1      42.750  35.735  32.994  1.00  0.00     0.009 A 
ATOM     78  C   UNL A   1      41.651  36.060  35.541  1.00  0.00     0.001 A 
ATOM     79  C   UNL A   1      43.029  36.884  33.735  1.00  0.00     0.001 A 
ATOM     80  C   UNL A   1      42.474  37.049  35.003  1.00  0.00     0.000 A 
ENDBRANCH  62  75
ENDBRANCH  36  37
ENDBRANCH  28  31
ENDBRANCH  26  27
ENDBRANCH  25  26
ENDBRANCH   1  25
TORSDOF 15
ENDMDL
MODEL 3
REMARK VINA RESULT:     -10.9      2.524      7.824
REMARK SMILES [NH3+][C@@H](CC1=C[C@H](S)c2ccccc2C1)C(=O)NCCCCNC(=O)c1ccc(-c2c3nc(c(-c4ccccc4)c4ccc([nH]4)c(-c4ccccc4)c4nc(c(-c5ccccc5)c5ccc2[nH]5)C=C4)C=C3)cc1
REMARK SMILES IDX 19 1 18 2 17 3 15 4 16 5 2 7 1 8 3 12 4 13 5 14 14 15 6 16
REMARK SMILES IDX 13 17 8 18 12 19 9 20 11 21 10 22 7 23 20 25 21 26 22 27
REMARK SMILES IDX 23 28 24 30 25 31 26 32 72 33 27 34 71 35 28 36 29 37 30 38
REMARK SMILES IDX 65 39 31 40 70 41 64 42 66 43 32 44 69 45 63 46 62 47 33 49
REMARK SMILES IDX 55 50 40 51 54 52 41 53 44 54 53 55 67 56 42 57 43 58 52 60
REMARK SMILES IDX 68 61 45 62 34 63 35 64 39 65 36 66 38 67 37 68 56 69 57 70
REMARK SMILES IDX 61 71 58 72 60 73 59 74 46 75 47 76 51 77 48 78 50 79 49 80
REMARK H PARENT 17 6 1 9 1 10 1 11 7 24 22 29 66 48 44 59
REMARK Flexibility Score: inf
ROOT
ATOM      1  C   UNL A   1      31.536  28.876  27.607  1.00  0.00     0.023 C 
ENDROOT
BRANCH   1   2
ATOM      2  C   UNL A   1      31.505  27.433  27.130  1.00  0.00     0.116 C 
BRANCH   2   3
ATOM      3  N   UNL A   1      31.966  27.231  25.778  1.00  0.00    -0.351 N 
ATOM      4  C   UNL A   1      31.727  26.185  24.928  1.00  0.00     0.278 C 
ATOM      5  O   UNL A   1      32.001  26.366  23.736  1.00  0.00    -0.268 OA
ATOM      6  H   UNL A   1      32.535  27.947  25.415  1.00  0.00     0.163 HD
BRANCH   4   7
ATOM      7  C   UNL A   1      31.144  24.829  25.401  1.00  0.00     0.275 C 
BRANCH   7   8
ATOM      8  N   UNL A   1      30.387  24.145  24.333  1.00  0.00    -0.347 N 
ATOM      9  H   UNL A   1      30.806  23.233  24.150  1.00  0.00     0.345 HD
ATOM     10  H   UNL A   1      30.413  24.708  23.484  1.00  0.00     0.345 HD
ATOM     11  H   UNL A   1      29.418  24.022  24.629  1.00  0.00     0.345 HD
ENDBRANCH   7   8
BRANCH   7  12
ATOM     12  C   UNL A   1      32.086  23.952  26.268  1.00  0.00     0.106 C 
BRANCH  12  13
ATOM     13  C   UNL A   1      33.317  23.301  25.667  1.00  0.00    -0.062 C 
ATOM     14  C   UNL A   1      33.251  22.095  25.067  1.00  0.00    -0.009 C 
ATOM     15  C   UNL A   1      34.620  24.069  25.670  1.00  0.00     0.066 C 
ATOM     16  C   UNL A   1      34.447  21.376  24.474  1.00  0.00     0.096 C 
ATOM     17  C   UNL A   1      35.844  23.177  25.605  1.00  0.00    -0.039 A 
ATOM     18  C   UNL A   1      35.778  21.904  24.999  1.00  0.00    -0.028 A 
ATOM     19  C   UNL A   1      37.062  23.645  26.128  1.00  0.00     0.004 A 
ATOM     20  C   UNL A   1      36.968  21.168  24.864  1.00  0.00     0.005 A 
ATOM     21  C   UNL A   1      38.216  22.871  26.038  1.00  0.00     0.000 A 
ATOM     22  C   UNL A   1      38.172  21.644  25.389  1.00  0.00     0.000 A 
BRANCH  16  23
ATOM     23  S   UNL A   1      34.201  19.588  24.837  1.00  0.00    -0.167 SA
ATOM     24  H   UNL A   1      34.809  19.276  26.012  1.00  0.00     0.103 HD
ENDBRANCH  16  23
ENDBRANCH  12  13
ENDBRANCH   7  12
ENDBRANCH   4   7
ENDBRANCH   2   3
ENDBRANCH   1   2
BRANCH   1  25
ATOM     25  C   UNL A   1      32.203  29.865  26.662  1.00  0.00     0.023 C 
BRANCH  25  26
ATOM     26  C   UNL A   1      33.639  30.255  27.000  1.00  0.00     0.116 C 
BRANCH  26  27
ATOM     27  N   UNL A   1      33.785  31.255  28.053  1.00  0.00    -0.352 N 
ATOM     28  C   UNL A   1      34.846  31.430  28.923  1.00  0.00     0.251 C 
ATOM     29  H   UNL A   1      33.035  31.883  28.157  1.00  0.00     0.163 HD
ATOM     30  O   UNL A   1      34.823  32.280  29.801  1.00  0.00    -0.269 OA
BRANCH  28  31
ATOM     31  C   UNL A   1      35.993  30.506  28.836  1.00  0.00     0.039 A 
ATOM     32  C   UNL A   1      36.334  29.695  29.919  1.00  0.00     0.014 A 
ATOM     33  C   UNL A   1      36.811  30.567  27.704  1.00  0.00     0.014 A 
ATOM     34  C   UNL A   1      37.605  29.142  29.971  1.00  0.00     0.010 A 
ATOM     35  C   UNL A   1      38.052  29.931  27.722  1.00  0.00     0.010 A 
ATOM     36  C   UNL A   1      38.491  29.292  28.889  1.00  0.00    -0.014 A 
BRANCH  36  37
ATOM     37  C   UNL A   1      39.898  28.850  29.039  1.00  0.00     0.031 A 
ATOM     38  C   UNL A   1      40.889  29.707  29.783  1.00  0.00     0.074 A 
ATOM     39  C   UNL A   1      40.257  27.634  28.592  1.00  0.00     0.049 A 
ATOM     40  N   UNL A   1      42.150  29.467  30.048  1.00  0.00    -0.248 NA
ATOM     41  C   UNL A   1      40.408  30.999  30.301  1.00  0.00     0.031 C 
ATOM     42  C   UNL A   1      39.371  26.699  27.896  1.00  0.00     0.029 A 
ATOM     43  N   UNL A   1      41.445  26.959  28.696  1.00  0.00    -0.354 N 
ATOM     44  C   UNL A   1      42.613  30.581  30.737  1.00  0.00     0.074 A 
ATOM     45  C   UNL A   1      41.509  31.510  30.833  1.00  0.00     0.031 C 
ATOM     46  C   UNL A   1      40.024  25.545  27.700  1.00  0.00     0.029 A 
ATOM     47  C   UNL A   1      41.390  25.681  28.198  1.00  0.00     0.049 A 
ATOM     48  H   UNL A   1      42.258  27.352  29.088  1.00  0.00     0.167 HD
ATOM     49  C   UNL A   1      43.845  30.807  31.251  1.00  0.00     0.031 A 
ATOM     50  C   UNL A   1      42.332  24.722  28.145  1.00  0.00     0.031 A 
ATOM     51  C   UNL A   1      44.940  29.878  31.164  1.00  0.00     0.049 A 
ATOM     52  C   UNL A   1      43.698  25.007  28.689  1.00  0.00     0.074 A 
ATOM     53  C   UNL A   1      46.233  30.023  31.634  1.00  0.00     0.029 A 
ATOM     54  N   UNL A   1      44.862  28.623  30.580  1.00  0.00    -0.354 N 
ATOM     55  N   UNL A   1      44.134  26.087  29.290  1.00  0.00    -0.248 NA
ATOM     56  C   UNL A   1      44.706  23.949  28.536  1.00  0.00     0.031 C 
ATOM     57  C   UNL A   1      46.949  28.869  31.302  1.00  0.00     0.029 A 
ATOM     58  C   UNL A   1      46.088  27.988  30.667  1.00  0.00     0.049 A 
ATOM     59  H   UNL A   1      44.055  28.241  30.165  1.00  0.00     0.167 HD
ATOM     60  C   UNL A   1      45.468  25.844  29.583  1.00  0.00     0.074 A 
ATOM     61  C   UNL A   1      45.764  24.504  29.116  1.00  0.00     0.031 C 
ATOM     62  C   UNL A   1      46.367  26.662  30.180  1.00  0.00     0.031 A 
BRANCH  49  63
ATOM     63  C   UNL A   1      44.086  32.121  31.936  1.00  0.00    -0.014 A 
ATOM     64  C   UNL A   1      43.808  32.256  33.306  1.00  0.00     0.009 A 
ATOM     65  C   UNL A   1      44.532  33.244  31.220  1.00  0.00     0.009 A 
ATOM     66  C   UNL A   1      43.969  33.486  33.945  1.00  0.00     0.001 A 
ATOM     67  C   UNL A   1      44.715  34.468  31.868  1.00  0.00     0.001 A 
ATOM     68  C   UNL A   1      44.428  34.590  33.227  1.00  0.00     0.000 A 
ENDBRANCH  49  63
BRANCH  50  69
ATOM     69  C   UNL A   1      41.984  23.407  27.554  1.00  0.00    -0.014 A 
ATOM     70  C   UNL A   1      41.428  22.394  28.353  1.00  0.00     0.009 A 
ATOM     71  C   UNL A   1      42.292  23.128  26.216  1.00  0.00     0.009 A 
ATOM     72  C   UNL A   1      41.217  21.118  27.830  1.00  0.00     0.001 A 
ATOM     73  C   UNL A   1      42.057  21.856  25.689  1.00  0.00     0.001 A 
ATOM     74  C   UNL A   1      41.531  20.849  26.499  1.00  0.00     0.000 A 
ENDBRANCH  50  69
BRANCH  62  75
ATOM     75  C   UNL A   1      47.764  26.143  30.354  1.00  0.00    -0.014 A 
ATOM     76  C   UNL A   1      48.199  25.715  31.618  1.00  0.00     0.009 A 
ATOM     77  C   UNL A   1      48.672  26.158  29.285  1.00  0.00     0.009 A 
ATOM     78  C   UNL A   1      49.521  25.316  31.809  1.00  0.00     0.001 A 
ATOM     79  C   UNL A   1      49.989  25.739  29.476  1.00  0.00     0.001 A 
ATOM     80  C   UNL A   1      50.415  25.326  30.739  1.00  0.00     0.000 A 
ENDBRANCH  62  75
ENDBRANCH  36  37
ENDBRANCH  28  31
ENDBRANCH  26  27
ENDBRANCH  25  26
ENDBRANCH   1  25
TORSDOF 15
ENDMDL
