MODEL 1
REMARK VINA RESULT:     -12.6      0.000      0.000
REMARK SMILES C[NH+]1CCN(C(=O)c2ccc3c(c2)N(CC(=O)NCCCCNC(=O)c2ccc(-c4c5nc(c(-c6ccccc6)c6ccc([nH]6)c(-c6ccccc6)c6nc(c(-c7ccccc7)c7ccc4[nH]7)C=C6)C=C5)cc2)C(=O)CO3)CC1
REMARK SMILES IDX 20 1 19 2 18 3 16 4 17 5 15 7 14 8 8 9 9 10 13 11 10 12
REMARK SMILES IDX 12 13 11 14 77 15 74 16 76 17 75 18 6 19 1 20 2 21 3 22
REMARK SMILES IDX 79 23 4 25 78 26 5 27 7 28 21 29 22 30 23 31 24 32 25 34
REMARK SMILES IDX 26 35 27 36 73 37 28 38 72 39 29 40 30 41 31 42 66 43 32 44
REMARK SMILES IDX 71 45 65 46 67 47 33 48 70 49 64 50 63 51 34 53 56 54 41 55
REMARK SMILES IDX 55 56 42 57 45 58 54 59 68 60 43 61 44 62 53 64 69 65 46 66
REMARK SMILES IDX 35 67 36 68 40 69 37 70 39 71 38 72 57 73 58 74 62 75 59 76
REMARK SMILES IDX 61 77 60 78 47 79 48 80 52 81 49 82 51 83 50 84
REMARK H PARENT 18 6 2 24 23 33 67 52 45 63
REMARK Flexibility Score: inf
ROOT
ATOM      1  C   UNL A   1      33.665  27.007  25.205  1.00  0.00     0.023 C 
ENDROOT
BRANCH   1   2
ATOM      2  C   UNL A   1      33.274  26.915  23.732  1.00  0.00     0.116 C 
BRANCH   2   3
ATOM      3  N   UNL A   1      33.904  25.794  23.069  1.00  0.00    -0.355 N 
ATOM      4  C   UNL A   1      33.362  24.601  22.693  1.00  0.00     0.240 C 
ATOM      5  O   UNL A   1      34.070  23.840  22.029  1.00  0.00    -0.273 OA
ATOM      6  H   UNL A   1      34.860  25.908  22.860  1.00  0.00     0.163 HD
BRANCH   4   7
ATOM      7  C   UNL A   1      31.903  24.242  23.007  1.00  0.00     0.225 C 
BRANCH   7   8
ATOM      8  N   UNL A   1      31.592  24.130  24.433  1.00  0.00    -0.296 N 
ATOM      9  C   UNL A   1      33.766  21.305  25.598  1.00  0.00     0.042 A 
ATOM     10  C   UNL A   1      33.638  21.424  26.983  1.00  0.00     0.018 A 
ATOM     11  C   UNL A   1      33.057  22.155  24.738  1.00  0.00     0.044 A 
ATOM     12  C   UNL A   1      32.826  22.424  27.510  1.00  0.00     0.049 A 
ATOM     13  C   UNL A   1      32.253  23.177  25.261  1.00  0.00     0.087 A 
ATOM     14  C   UNL A   1      32.135  23.286  26.656  1.00  0.00     0.143 A 
ATOM     15  O   UNL A   1      31.413  24.268  27.278  1.00  0.00    -0.482 OA
ATOM     16  C   UNL A   1      30.650  24.987  24.985  1.00  0.00     0.265 C 
ATOM     17  C   UNL A   1      30.377  24.790  26.470  1.00  0.00     0.330 C 
ATOM     18  O   UNL A   1      30.024  25.824  24.333  1.00  0.00    -0.270 OA
BRANCH   9  19
ATOM     19  C   UNL A   1      34.618  20.220  25.064  1.00  0.00     0.254 C 
ATOM     20  C   UNL A   1      32.893  14.905  25.390  1.00  0.00     0.332 C 
ATOM     21  N   UNL A   1      33.153  16.202  24.767  1.00  0.00    -0.334 N 
ATOM     22  C   UNL A   1      34.593  16.535  24.844  1.00  0.00     0.283 C 
ATOM     23  C   UNL A   1      32.374  17.260  25.444  1.00  0.00     0.283 C 
ATOM     24  H   UNL A   1      32.873  16.145  23.788  1.00  0.00     0.347 HD
ATOM     25  C   UNL A   1      34.912  17.921  24.252  1.00  0.00     0.181 C 
ATOM     26  C   UNL A   1      32.629  18.642  24.817  1.00  0.00     0.181 C 
ATOM     27  N   UNL A   1      34.060  18.974  24.812  1.00  0.00    -0.327 N 
ATOM     28  O   UNL A   1      35.796  20.495  24.850  1.00  0.00    -0.269 OA
ENDBRANCH   9  19
ENDBRANCH   7   8
ENDBRANCH   4   7
ENDBRANCH   2   3
ENDBRANCH   1   2
BRANCH   1  29
ATOM     29  C   UNL A   1      33.843  28.434  25.733  1.00  0.00     0.023 C 
BRANCH  29  30
ATOM     30  C   UNL A   1      33.544  28.626  27.216  1.00  0.00     0.116 C 
BRANCH  30  31
ATOM     31  N   UNL A   1      33.545  30.020  27.629  1.00  0.00    -0.352 N 
ATOM     32  C   UNL A   1      34.554  30.745  28.216  1.00  0.00     0.251 C 
ATOM     33  H   UNL A   1      32.708  30.512  27.466  1.00  0.00     0.163 HD
ATOM     34  O   UNL A   1      34.348  31.891  28.604  1.00  0.00    -0.269 OA
BRANCH  32  35
ATOM     35  C   UNL A   1      35.880  30.125  28.416  1.00  0.00     0.039 A 
ATOM     36  C   UNL A   1      36.802  30.155  27.367  1.00  0.00     0.014 A 
ATOM     37  C   UNL A   1      36.222  29.535  29.636  1.00  0.00     0.014 A 
ATOM     38  C   UNL A   1      38.093  29.659  27.565  1.00  0.00     0.010 A 
ATOM     39  C   UNL A   1      37.528  29.108  29.855  1.00  0.00     0.010 A 
ATOM     40  C   UNL A   1      38.477  29.169  28.823  1.00  0.00    -0.014 A 
BRANCH  40  41
ATOM     41  C   UNL A   1      39.870  28.724  29.083  1.00  0.00     0.031 A 
ATOM     42  C   UNL A   1      40.854  29.658  29.731  1.00  0.00     0.074 A 
ATOM     43  C   UNL A   1      40.266  27.502  28.678  1.00  0.00     0.049 A 
ATOM     44  N   UNL A   1      42.125  29.471  29.984  1.00  0.00    -0.248 NA
ATOM     45  C   UNL A   1      40.351  30.984  30.122  1.00  0.00     0.031 C 
ATOM     46  C   UNL A   1      39.420  26.512  28.011  1.00  0.00     0.029 A 
ATOM     47  N   UNL A   1      41.490  26.886  28.768  1.00  0.00    -0.354 N 
ATOM     48  C   UNL A   1      42.574  30.657  30.551  1.00  0.00     0.074 A 
ATOM     49  C   UNL A   1      41.455  31.574  30.555  1.00  0.00     0.031 C 
ATOM     50  C   UNL A   1      40.139  25.403  27.782  1.00  0.00     0.029 A 
ATOM     51  C   UNL A   1      41.506  25.617  28.245  1.00  0.00     0.049 A 
ATOM     52  H   UNL A   1      42.280  27.315  29.168  1.00  0.00     0.167 HD
ATOM     53  C   UNL A   1      43.801  30.952  31.045  1.00  0.00     0.031 A 
ATOM     54  C   UNL A   1      42.509  24.725  28.147  1.00  0.00     0.031 A 
ATOM     55  C   UNL A   1      44.915  30.040  31.045  1.00  0.00     0.049 A 
ATOM     56  C   UNL A   1      43.871  25.087  28.670  1.00  0.00     0.074 A 
ATOM     57  C   UNL A   1      46.184  30.230  31.562  1.00  0.00     0.029 A 
ATOM     58  N   UNL A   1      44.892  28.768  30.496  1.00  0.00    -0.354 N 
ATOM     59  N   UNL A   1      44.263  26.192  29.257  1.00  0.00    -0.248 NA
ATOM     60  C   UNL A   1      44.925  24.073  28.524  1.00  0.00     0.031 C 
ATOM     61  C   UNL A   1      46.946  29.090  31.281  1.00  0.00     0.029 A 
ATOM     62  C   UNL A   1      46.133  28.169  30.640  1.00  0.00     0.049 A 
ATOM     63  H   UNL A   1      44.110  28.351  30.067  1.00  0.00     0.167 HD
ATOM     64  C   UNL A   1      45.601  25.995  29.577  1.00  0.00     0.074 A 
ATOM     65  C   UNL A   1      45.948  24.661  29.130  1.00  0.00     0.031 C 
ATOM     66  C   UNL A   1      46.463  26.843  30.189  1.00  0.00     0.031 A 
BRANCH  53  67
ATOM     67  C   UNL A   1      43.997  32.327  31.620  1.00  0.00    -0.014 A 
ATOM     68  C   UNL A   1      44.426  33.397  30.816  1.00  0.00     0.009 A 
ATOM     69  C   UNL A   1      43.735  32.563  32.979  1.00  0.00     0.009 A 
ATOM     70  C   UNL A   1      44.632  34.661  31.371  1.00  0.00     0.001 A 
ATOM     71  C   UNL A   1      43.911  33.837  33.523  1.00  0.00     0.001 A 
ATOM     72  C   UNL A   1      44.371  34.881  32.722  1.00  0.00     0.000 A 
ENDBRANCH  53  67
BRANCH  54  73
ATOM     73  C   UNL A   1      42.261  23.387  27.550  1.00  0.00    -0.014 A 
ATOM     74  C   UNL A   1      42.651  23.117  26.230  1.00  0.00     0.009 A 
ATOM     75  C   UNL A   1      41.631  22.374  28.291  1.00  0.00     0.009 A 
ATOM     76  C   UNL A   1      42.395  21.871  25.655  1.00  0.00     0.001 A 
ATOM     77  C   UNL A   1      41.402  21.119  27.724  1.00  0.00     0.001 A 
ATOM     78  C   UNL A   1      41.776  20.872  26.404  1.00  0.00     0.000 A 
ENDBRANCH  54  73
BRANCH  66  79
ATOM     79  C   UNL A   1      47.856  26.338  30.446  1.00  0.00    -0.014 A 
ATOM     80  C   UNL A   1      48.217  25.785  31.684  1.00  0.00     0.009 A 
ATOM     81  C   UNL A   1      48.810  26.384  29.417  1.00  0.00     0.009 A 
ATOM     82  C   UNL A   1      49.515  25.318  31.896  1.00  0.00     0.001 A 
ATOM     83  C   UNL A   1      50.099  25.889  29.622  1.00  0.00     0.001 A 
ATOM     84  C   UNL A   1      50.452  25.365  30.865  1.00  0.00     0.000 A 
ENDBRANCH  66  79
ENDBRANCH  40  41
ENDBRANCH  32  35
ENDBRANCH  30  31
ENDBRANCH  29  30
ENDBRANCH   1  29
TORSDOF 13
ENDMDL
MODEL 2
REMARK VINA RESULT:     -12.5      2.294      6.712
REMARK SMILES C[NH+]1CCN(C(=O)c2ccc3c(c2)N(CC(=O)NCCCCNC(=O)c2ccc(-c4c5nc(c(-c6ccccc6)c6ccc([nH]6)c(-c6ccccc6)c6nc(c(-c7ccccc7)c7ccc4[nH]7)C=C6)C=C5)cc2)C(=O)CO3)CC1
REMARK SMILES IDX 20 1 19 2 18 3 16 4 17 5 15 7 14 8 8 9 9 10 13 11 10 12
REMARK SMILES IDX 12 13 11 14 77 15 74 16 76 17 75 18 6 19 1 20 2 21 3 22
REMARK SMILES IDX 79 23 4 25 78 26 5 27 7 28 21 29 22 30 23 31 24 32 25 34
REMARK SMILES IDX 26 35 27 36 73 37 28 38 72 39 29 40 30 41 31 42 66 43 32 44
REMARK SMILES IDX 71 45 65 46 67 47 33 48 70 49 64 50 63 51 34 53 56 54 41 55
REMARK SMILES IDX 55 56 42 57 45 58 54 59 68 60 43 61 44 62 53 64 69 65 46 66
REMARK SMILES IDX 35 67 36 68 40 69 37 70 39 71 38 72 57 73 58 74 62 75 59 76
REMARK SMILES IDX 61 77 60 78 47 79 48 80 52 81 49 82 51 83 50 84
REMARK H PARENT 18 6 2 24 23 33 67 52 45 63
REMARK Flexibility Score: inf
ROOT
ATOM      1  C   UNL A   1      35.951  23.441  23.704  1.00  0.00     0.023 C 
ENDROOT
BRANCH   1   2
ATOM      2  C   UNL A   1      34.789  23.322  22.720  1.00  0.00     0.116 C 
BRANCH   2   3
ATOM      3  N   UNL A   1      34.158  24.598  22.464  1.00  0.00    -0.355 N 
ATOM      4  C   UNL A   1      32.847  24.950  22.592  1.00  0.00     0.240 C 
ATOM      5  O   UNL A   1      32.560  26.139  22.430  1.00  0.00    -0.273 OA
ATOM      6  H   UNL A   1      34.759  25.314  22.153  1.00  0.00     0.163 HD
BRANCH   4   7
ATOM      7  C   UNL A   1      31.773  23.932  23.002  1.00  0.00     0.225 C 
BRANCH   7   8
ATOM      8  N   UNL A   1      31.514  23.861  24.441  1.00  0.00    -0.296 N 
ATOM      9  C   UNL A   1      33.722  21.062  25.605  1.00  0.00     0.042 A 
ATOM     10  C   UNL A   1      33.644  21.220  26.989  1.00  0.00     0.018 A 
ATOM     11  C   UNL A   1      32.984  21.890  24.747  1.00  0.00     0.044 A 
ATOM     12  C   UNL A   1      32.855  22.237  27.518  1.00  0.00     0.049 A 
ATOM     13  C   UNL A   1      32.202  22.929  25.271  1.00  0.00     0.087 A 
ATOM     14  C   UNL A   1      32.135  23.077  26.666  1.00  0.00     0.143 A 
ATOM     15  O   UNL A   1      31.439  24.079  27.286  1.00  0.00    -0.482 OA
ATOM     16  C   UNL A   1      30.594  24.737  25.003  1.00  0.00     0.265 C 
ATOM     17  C   UNL A   1      30.376  24.581  26.502  1.00  0.00     0.330 C 
ATOM     18  O   UNL A   1      29.948  25.557  24.351  1.00  0.00    -0.270 OA
BRANCH   9  19
ATOM     19  C   UNL A   1      34.551  19.960  25.070  1.00  0.00     0.254 C 
ATOM     20  C   UNL A   1      32.707  14.684  25.377  1.00  0.00     0.332 C 
ATOM     21  N   UNL A   1      32.998  15.976  24.758  1.00  0.00    -0.334 N 
ATOM     22  C   UNL A   1      34.445  16.277  24.841  1.00  0.00     0.283 C 
ATOM     23  C   UNL A   1      32.240  17.050  25.435  1.00  0.00     0.283 C 
ATOM     24  H   UNL A   1      32.720  15.929  23.778  1.00  0.00     0.347 HD
ATOM     25  C   UNL A   1      34.796  17.657  24.253  1.00  0.00     0.181 C 
ATOM     26  C   UNL A   1      32.528  18.427  24.812  1.00  0.00     0.181 C 
ATOM     27  N   UNL A   1      33.966  18.727  24.814  1.00  0.00    -0.327 N 
ATOM     28  O   UNL A   1      35.736  20.209  24.861  1.00  0.00    -0.269 OA
ENDBRANCH   9  19
ENDBRANCH   7   8
ENDBRANCH   4   7
ENDBRANCH   2   3
ENDBRANCH   1   2
BRANCH   1  29
ATOM     29  C   UNL A   1      35.633  24.229  24.978  1.00  0.00     0.023 C 
BRANCH  29  30
ATOM     30  C   UNL A   1      36.279  23.700  26.254  1.00  0.00     0.116 C 
BRANCH  30  31
ATOM     31  N   UNL A   1      37.292  22.686  26.010  1.00  0.00    -0.352 N 
ATOM     32  C   UNL A   1      38.653  22.767  26.179  1.00  0.00     0.251 C 
ATOM     33  H   UNL A   1      36.956  21.822  25.678  1.00  0.00     0.163 HD
ATOM     34  O   UNL A   1      39.378  21.846  25.817  1.00  0.00    -0.269 OA
BRANCH  32  35
ATOM     35  C   UNL A   1      39.246  23.989  26.763  1.00  0.00     0.039 A 
ATOM     36  C   UNL A   1      39.915  24.881  25.921  1.00  0.00     0.014 A 
ATOM     37  C   UNL A   1      39.126  24.265  28.127  1.00  0.00     0.014 A 
ATOM     38  C   UNL A   1      40.400  26.085  26.434  1.00  0.00     0.010 A 
ATOM     39  C   UNL A   1      39.545  25.496  28.622  1.00  0.00     0.010 A 
ATOM     40  C   UNL A   1      40.183  26.420  27.780  1.00  0.00    -0.014 A 
BRANCH  40  41
ATOM     41  C   UNL A   1      40.606  27.734  28.325  1.00  0.00     0.031 A 
ATOM     42  C   UNL A   1      42.048  27.980  28.675  1.00  0.00     0.074 A 
ATOM     43  C   UNL A   1      39.683  28.685  28.566  1.00  0.00     0.049 A 
ATOM     44  N   UNL A   1      42.597  29.039  29.216  1.00  0.00    -0.248 NA
ATOM     45  C   UNL A   1      42.992  26.884  28.406  1.00  0.00     0.031 C 
ATOM     46  C   UNL A   1      38.249  28.563  28.301  1.00  0.00     0.029 A 
ATOM     47  N   UNL A   1      39.817  29.946  29.093  1.00  0.00    -0.354 N 
ATOM     48  C   UNL A   1      43.944  28.731  29.362  1.00  0.00     0.074 A 
ATOM     49  C   UNL A   1      44.118  27.370  28.904  1.00  0.00     0.031 C 
ATOM     50  C   UNL A   1      37.641  29.712  28.635  1.00  0.00     0.029 A 
ATOM     51  C   UNL A   1      38.632  30.635  29.177  1.00  0.00     0.049 A 
ATOM     52  H   UNL A   1      40.680  30.319  29.383  1.00  0.00     0.167 HD
ATOM     53  C   UNL A   1      44.950  29.516  29.815  1.00  0.00     0.031 A 
ATOM     54  C   UNL A   1      38.373  31.872  29.641  1.00  0.00     0.031 A 
ATOM     55  C   UNL A   1      44.780  30.872  30.269  1.00  0.00     0.049 A 
ATOM     56  C   UNL A   1      39.500  32.712  30.173  1.00  0.00     0.074 A 
ATOM     57  C   UNL A   1      45.744  31.763  30.705  1.00  0.00     0.029 A 
ATOM     58  N   UNL A   1      43.561  31.529  30.348  1.00  0.00    -0.354 N 
ATOM     59  N   UNL A   1      40.777  32.427  30.249  1.00  0.00    -0.248 NA
ATOM     60  C   UNL A   1      39.148  34.048  30.673  1.00  0.00     0.031 C 
ATOM     61  C   UNL A   1      45.103  32.944  31.096  1.00  0.00     0.029 A 
ATOM     62  C   UNL A   1      43.746  32.807  30.849  1.00  0.00     0.049 A 
ATOM     63  H   UNL A   1      42.694  31.144  30.088  1.00  0.00     0.167 HD
ATOM     64  C   UNL A   1      41.386  33.558  30.778  1.00  0.00     0.074 A 
ATOM     65  C   UNL A   1      40.339  34.537  30.992  1.00  0.00     0.031 C 
ATOM     66  C   UNL A   1      42.695  33.768  31.058  1.00  0.00     0.031 A 
BRANCH  53  67
ATOM     67  C   UNL A   1      46.328  28.916  29.848  1.00  0.00    -0.014 A 
ATOM     68  C   UNL A   1      47.154  28.927  28.711  1.00  0.00     0.009 A 
ATOM     69  C   UNL A   1      46.815  28.344  31.034  1.00  0.00     0.009 A 
ATOM     70  C   UNL A   1      48.419  28.339  28.750  1.00  0.00     0.001 A 
ATOM     71  C   UNL A   1      48.094  27.785  31.077  1.00  0.00     0.001 A 
ATOM     72  C   UNL A   1      48.889  27.772  29.933  1.00  0.00     0.000 A 
ENDBRANCH  53  67
BRANCH  54  73
ATOM     73  C   UNL A   1      36.986  32.405  29.602  1.00  0.00    -0.014 A 
ATOM     74  C   UNL A   1      36.533  33.116  28.482  1.00  0.00     0.009 A 
ATOM     75  C   UNL A   1      36.110  32.211  30.682  1.00  0.00     0.009 A 
ATOM     76  C   UNL A   1      35.240  33.643  28.452  1.00  0.00     0.001 A 
ATOM     77  C   UNL A   1      34.809  32.714  30.638  1.00  0.00     0.001 A 
ATOM     78  C   UNL A   1      34.378  33.437  29.528  1.00  0.00     0.000 A 
ENDBRANCH  54  73
BRANCH  66  79
ATOM     79  C   UNL A   1      43.075  35.122  31.591  1.00  0.00    -0.014 A 
ATOM     80  C   UNL A   1      43.000  35.415  32.962  1.00  0.00     0.009 A 
ATOM     81  C   UNL A   1      43.550  36.105  30.710  1.00  0.00     0.009 A 
ATOM     82  C   UNL A   1      43.363  36.678  33.433  1.00  0.00     0.001 A 
ATOM     83  C   UNL A   1      43.941  37.357  31.187  1.00  0.00     0.001 A 
ATOM     84  C   UNL A   1      43.837  37.645  32.547  1.00  0.00     0.000 A 
ENDBRANCH  66  79
ENDBRANCH  40  41
ENDBRANCH  32  35
ENDBRANCH  30  31
ENDBRANCH  29  30
ENDBRANCH   1  29
TORSDOF 13
ENDMDL
MODEL 3
REMARK VINA RESULT:     -12.3      1.612      2.390
REMARK SMILES C[NH+]1CCN(C(=O)c2ccc3c(c2)N(CC(=O)NCCCCNC(=O)c2ccc(-c4c5nc(c(-c6ccccc6)c6ccc([nH]6)c(-c6ccccc6)c6nc(c(-c7ccccc7)c7ccc4[nH]7)C=C6)C=C5)cc2)C(=O)CO3)CC1
REMARK SMILES IDX 20 1 19 2 18 3 16 4 17 5 15 7 14 8 8 9 9 10 13 11 10 12
REMARK SMILES IDX 12 13 11 14 77 15 74 16 76 17 75 18 6 19 1 20 2 21 3 22
REMARK SMILES IDX 79 23 4 25 78 26 5 27 7 28 21 29 22 30 23 31 24 32 25 34
REMARK SMILES IDX 26 35 27 36 73 37 28 38 72 39 29 40 30 41 31 42 66 43 32 44
REMARK SMILES IDX 71 45 65 46 67 47 33 48 70 49 64 50 63 51 34 53 56 54 41 55
REMARK SMILES IDX 55 56 42 57 45 58 54 59 68 60 43 61 44 62 53 64 69 65 46 66
REMARK SMILES IDX 35 67 36 68 40 69 37 70 39 71 38 72 57 73 58 74 62 75 59 76
REMARK SMILES IDX 61 77 60 78 47 79 48 80 52 81 49 82 51 83 50 84
REMARK H PARENT 18 6 2 24 23 33 67 52 45 63
REMARK Flexibility Score: inf
ROOT
ATOM      1  C   UNL A   1      32.928  29.304  24.803  1.00  0.00     0.023 C 
ENDROOT
BRANCH   1   2
ATOM      2  C   UNL A   1      33.004  28.959  23.317  1.00  0.00     0.116 C 
BRANCH   2   3
ATOM      3  N   UNL A   1      33.827  27.795  23.069  1.00  0.00    -0.355 N 
ATOM      4  C   UNL A   1      33.504  26.633  22.434  1.00  0.00     0.240 C 
ATOM      5  O   UNL A   1      34.413  25.823  22.234  1.00  0.00    -0.273 OA
ATOM      6  H   UNL A   1      34.751  27.849  23.406  1.00  0.00     0.163 HD
BRANCH   4   7
ATOM      7  C   UNL A   1      32.086  26.365  21.909  1.00  0.00     0.225 C 
BRANCH   7   8
ATOM      8  N   UNL A   1      31.078  26.152  22.949  1.00  0.00    -0.296 N 
ATOM      9  C   UNL A   1      32.221  23.021  24.667  1.00  0.00     0.042 A 
ATOM     10  C   UNL A   1      31.399  23.021  25.795  1.00  0.00     0.018 A 
ATOM     11  C   UNL A   1      32.093  24.016  23.688  1.00  0.00     0.044 A 
ATOM     12  C   UNL A   1      30.473  24.045  25.965  1.00  0.00     0.049 A 
ATOM     13  C   UNL A   1      31.176  25.062  23.862  1.00  0.00     0.087 A 
ATOM     14  C   UNL A   1      30.358  25.051  25.003  1.00  0.00     0.143 A 
ATOM     15  O   UNL A   1      29.459  26.039  25.296  1.00  0.00    -0.482 OA
ATOM     16  C   UNL A   1      30.021  27.046  23.055  1.00  0.00     0.265 C 
ATOM     17  C   UNL A   1      29.012  26.739  24.152  1.00  0.00     0.330 C 
ATOM     18  O   UNL A   1      29.857  28.001  22.294  1.00  0.00    -0.270 OA
BRANCH   9  19
ATOM     19  C   UNL A   1      33.182  21.908  24.500  1.00  0.00     0.254 C 
ATOM     20  C   UNL A   1      38.547  22.618  25.929  1.00  0.00     0.332 C 
ATOM     21  N   UNL A   1      37.163  22.169  26.069  1.00  0.00    -0.334 N 
ATOM     22  C   UNL A   1      36.791  21.275  24.949  1.00  0.00     0.283 C 
ATOM     23  C   UNL A   1      36.248  23.329  26.088  1.00  0.00     0.283 C 
ATOM     24  H   UNL A   1      37.083  21.657  26.948  1.00  0.00     0.347 HD
ATOM     25  C   UNL A   1      35.321  20.820  25.019  1.00  0.00     0.181 C 
ATOM     26  C   UNL A   1      34.779  22.892  26.229  1.00  0.00     0.181 C 
ATOM     27  N   UNL A   1      34.397  21.947  25.171  1.00  0.00    -0.327 N 
ATOM     28  O   UNL A   1      32.834  20.980  23.773  1.00  0.00    -0.269 OA
ENDBRANCH   9  19
ENDBRANCH   7   8
ENDBRANCH   4   7
ENDBRANCH   2   3
ENDBRANCH   1   2
BRANCH   1  29
ATOM     29  C   UNL A   1      33.776  28.410  25.712  1.00  0.00     0.023 C 
BRANCH  29  30
ATOM     30  C   UNL A   1      33.555  28.601  27.210  1.00  0.00     0.116 C 
BRANCH  30  31
ATOM     31  N   UNL A   1      33.546  29.997  27.617  1.00  0.00    -0.352 N 
ATOM     32  C   UNL A   1      34.549  30.732  28.202  1.00  0.00     0.251 C 
ATOM     33  H   UNL A   1      32.705  30.482  27.452  1.00  0.00     0.163 HD
ATOM     34  O   UNL A   1      34.335  31.877  28.586  1.00  0.00    -0.269 OA
BRANCH  32  35
ATOM     35  C   UNL A   1      35.880  30.121  28.404  1.00  0.00     0.039 A 
ATOM     36  C   UNL A   1      36.796  30.141  27.349  1.00  0.00     0.014 A 
ATOM     37  C   UNL A   1      36.231  29.552  29.631  1.00  0.00     0.014 A 
ATOM     38  C   UNL A   1      38.090  29.656  27.548  1.00  0.00     0.010 A 
ATOM     39  C   UNL A   1      37.541  29.135  29.849  1.00  0.00     0.010 A 
ATOM     40  C   UNL A   1      38.484  29.186  28.811  1.00  0.00    -0.014 A 
BRANCH  40  41
ATOM     41  C   UNL A   1      39.880  28.753  29.071  1.00  0.00     0.031 A 
ATOM     42  C   UNL A   1      40.857  29.695  29.718  1.00  0.00     0.074 A 
ATOM     43  C   UNL A   1      40.287  27.534  28.665  1.00  0.00     0.049 A 
ATOM     44  N   UNL A   1      42.130  29.518  29.971  1.00  0.00    -0.248 NA
ATOM     45  C   UNL A   1      40.343  31.017  30.110  1.00  0.00     0.031 C 
ATOM     46  C   UNL A   1      39.449  26.538  27.998  1.00  0.00     0.029 A 
ATOM     47  N   UNL A   1      41.516  26.929  28.755  1.00  0.00    -0.354 N 
ATOM     48  C   UNL A   1      42.569  30.708  30.538  1.00  0.00     0.074 A 
ATOM     49  C   UNL A   1      41.442  31.615  30.542  1.00  0.00     0.031 C 
ATOM     50  C   UNL A   1      40.177  25.434  27.768  1.00  0.00     0.029 A 
ATOM     51  C   UNL A   1      41.542  25.659  28.231  1.00  0.00     0.049 A 
ATOM     52  H   UNL A   1      42.303  27.364  29.154  1.00  0.00     0.167 HD
ATOM     53  C   UNL A   1      43.794  31.013  31.031  1.00  0.00     0.031 A 
ATOM     54  C   UNL A   1      42.553  24.776  28.133  1.00  0.00     0.031 A 
ATOM     55  C   UNL A   1      44.915  30.111  31.031  1.00  0.00     0.049 A 
ATOM     56  C   UNL A   1      43.912  25.149  28.655  1.00  0.00     0.074 A 
ATOM     57  C   UNL A   1      46.183  30.311  31.547  1.00  0.00     0.029 A 
ATOM     58  N   UNL A   1      44.903  28.838  30.482  1.00  0.00    -0.354 N 
ATOM     59  N   UNL A   1      44.295  26.257  29.242  1.00  0.00    -0.248 NA
ATOM     60  C   UNL A   1      44.974  24.144  28.508  1.00  0.00     0.031 C 
ATOM     61  C   UNL A   1      46.954  29.178  31.266  1.00  0.00     0.029 A 
ATOM     62  C   UNL A   1      46.149  28.250  30.625  1.00  0.00     0.049 A 
ATOM     63  H   UNL A   1      44.124  28.415  30.053  1.00  0.00     0.167 HD
ATOM     64  C   UNL A   1      45.634  26.071  29.561  1.00  0.00     0.074 A 
ATOM     65  C   UNL A   1      45.992  24.740  29.114  1.00  0.00     0.031 C 
ATOM     66  C   UNL A   1      46.490  26.926  30.173  1.00  0.00     0.031 A 
BRANCH  53  67
ATOM     67  C   UNL A   1      43.979  32.389  31.606  1.00  0.00    -0.014 A 
ATOM     68  C   UNL A   1      43.792  32.636  32.978  1.00  0.00     0.009 A 
ATOM     69  C   UNL A   1      44.360  33.452  30.772  1.00  0.00     0.009 A 
ATOM     70  C   UNL A   1      43.939  33.926  33.491  1.00  0.00     0.001 A 
ATOM     71  C   UNL A   1      44.537  34.734  31.296  1.00  0.00     0.001 A 
ATOM     72  C   UNL A   1      44.314  34.972  32.651  1.00  0.00     0.000 A 
ENDBRANCH  53  67
BRANCH  54  73
ATOM     73  C   UNL A   1      42.315  23.436  27.535  1.00  0.00    -0.014 A 
ATOM     74  C   UNL A   1      41.770  22.402  28.310  1.00  0.00     0.009 A 
ATOM     75  C   UNL A   1      42.632  23.181  26.191  1.00  0.00     0.009 A 
ATOM     76  C   UNL A   1      41.570  21.134  27.761  1.00  0.00     0.001 A 
ATOM     77  C   UNL A   1      42.405  21.921  25.636  1.00  0.00     0.001 A 
ATOM     78  C   UNL A   1      41.884  20.896  26.424  1.00  0.00     0.000 A 
ENDBRANCH  54  73
BRANCH  66  79
ATOM     79  C   UNL A   1      47.887  26.433  30.429  1.00  0.00    -0.014 A 
ATOM     80  C   UNL A   1      48.237  25.826  31.645  1.00  0.00     0.009 A 
ATOM     81  C   UNL A   1      48.857  26.545  29.420  1.00  0.00     0.009 A 
ATOM     82  C   UNL A   1      49.539  25.371  31.856  1.00  0.00     0.001 A 
ATOM     83  C   UNL A   1      50.151  26.063  29.624  1.00  0.00     0.001 A 
ATOM     84  C   UNL A   1      50.493  25.485  30.845  1.00  0.00     0.000 A 
ENDBRANCH  66  79
ENDBRANCH  40  41
ENDBRANCH  32  35
ENDBRANCH  30  31
ENDBRANCH  29  30
ENDBRANCH   1  29
TORSDOF 13
ENDMDL
