MODEL 1
REMARK VINA RESULT:     -10.3      0.000      0.000
REMARK SMILES Cc1nnc(S[C@@H](C)CCO)c(C(=O)NCCCCNC(=O)c2ccc(-c3c4nc(c(-c5ccccc5)c5ccc([nH]5)c(-c5ccccc5)c5nc(c(-c6ccccc6)c6ccc3[nH]6)C=C5)C=C4)cc2)c1C
REMARK SMILES IDX 16 1 15 2 13 3 14 4 12 6 1 7 2 8 3 9 71 10 4 11 72 12 5 13
REMARK SMILES IDX 6 14 7 15 8 16 9 17 10 18 11 19 17 21 18 22 19 23 20 24
REMARK SMILES IDX 21 25 22 27 23 28 24 29 70 30 25 31 69 32 26 33 27 34 28 35
REMARK SMILES IDX 63 36 29 37 68 38 62 39 64 40 30 41 67 42 61 43 60 44 31 46
REMARK SMILES IDX 53 47 38 48 52 49 39 50 42 51 51 52 65 53 40 54 41 55 50 57
REMARK SMILES IDX 66 58 43 59 32 60 33 61 37 62 34 63 36 64 35 65 54 66 55 67
REMARK SMILES IDX 59 68 56 69 58 70 57 71 44 72 45 73 49 74 46 75 48 76 47 77
REMARK H PARENT 15 5 11 20 20 26 64 45 42 56
REMARK Flexibility Score: inf
ROOT
ATOM      1  C   UNL A   1      32.532  29.651  26.404  1.00  0.00     0.116 C 
ENDROOT
BRANCH   1   2
ATOM      2  N   UNL A   1      33.456  29.110  25.422  1.00  0.00    -0.352 N 
ATOM      3  C   UNL A   1      33.259  28.161  24.429  1.00  0.00     0.254 C 
ATOM      4  O   UNL A   1      34.034  28.169  23.481  1.00  0.00    -0.269 OA
ATOM      5  H   UNL A   1      34.370  29.474  25.468  1.00  0.00     0.163 HD
BRANCH   3   6
ATOM      6  C   UNL A   1      32.184  27.143  24.500  1.00  0.00     0.078 A 
ATOM      7  C   UNL A   1      28.424  26.702  23.872  1.00  0.00     0.069 C 
ATOM      8  C   UNL A   1      29.860  26.508  24.255  1.00  0.00     0.064 A 
ATOM      9  N   UNL A   1      30.111  25.367  24.916  1.00  0.00    -0.155 NA
ATOM     10  C   UNL A   1      30.879  27.433  24.013  1.00  0.00    -0.012 A 
ATOM     11  N   UNL A   1      31.396  25.029  25.234  1.00  0.00    -0.143 NA
ATOM     12  C   UNL A   1      30.570  28.643  23.169  1.00  0.00     0.047 C 
ATOM     13  C   UNL A   1      32.445  25.852  24.989  1.00  0.00     0.132 A 
BRANCH  13  14
ATOM     14  S   UNL A   1      33.924  24.849  25.006  1.00  0.00    -0.101 SA
BRANCH  14  15
ATOM     15  C   UNL A   1      34.364  24.153  23.366  1.00  0.00     0.052 C 
ATOM     16  C   UNL A   1      35.487  23.124  23.530  1.00  0.00     0.020 C 
BRANCH  15  17
ATOM     17  C   UNL A   1      33.237  23.763  22.405  1.00  0.00     0.043 C 
BRANCH  17  18
ATOM     18  C   UNL A   1      32.832  24.907  21.473  1.00  0.00     0.157 C 
BRANCH  18  19
ATOM     19  O   UNL A   1      33.721  26.010  21.621  1.00  0.00    -0.396 OA
ATOM     20  H   UNL A   1      34.604  25.684  21.856  1.00  0.00     0.210 HD
ENDBRANCH  18  19
ENDBRANCH  17  18
ENDBRANCH  15  17
ENDBRANCH  14  15
ENDBRANCH  13  14
ENDBRANCH   3   6
ENDBRANCH   1   2
BRANCH   1  21
ATOM     21  C   UNL A   1      31.640  30.801  25.948  1.00  0.00     0.023 C 
BRANCH  21  22
ATOM     22  C   UNL A   1      31.422  31.969  26.908  1.00  0.00     0.023 C 
BRANCH  22  23
ATOM     23  C   UNL A   1      32.623  32.845  27.252  1.00  0.00     0.116 C 
BRANCH  23  24
ATOM     24  N   UNL A   1      32.289  34.205  27.644  1.00  0.00    -0.352 N 
ATOM     25  C   UNL A   1      32.937  35.037  28.534  1.00  0.00     0.251 C 
ATOM     26  H   UNL A   1      31.489  34.586  27.215  1.00  0.00     0.163 HD
ATOM     27  O   UNL A   1      32.526  36.163  28.754  1.00  0.00    -0.269 OA
BRANCH  25  28
ATOM     28  C   UNL A   1      34.116  34.522  29.260  1.00  0.00     0.039 A 
ATOM     29  C   UNL A   1      33.923  33.907  30.500  1.00  0.00     0.014 A 
ATOM     30  C   UNL A   1      35.387  34.580  28.683  1.00  0.00     0.014 A 
ATOM     31  C   UNL A   1      34.992  33.261  31.122  1.00  0.00     0.010 A 
ATOM     32  C   UNL A   1      36.438  33.891  29.277  1.00  0.00     0.010 A 
ATOM     33  C   UNL A   1      36.245  33.213  30.493  1.00  0.00    -0.014 A 
BRANCH  33  34
ATOM     34  C   UNL A   1      37.379  32.466  31.086  1.00  0.00     0.031 A 
ATOM     35  C   UNL A   1      37.971  32.933  32.382  1.00  0.00     0.074 A 
ATOM     36  C   UNL A   1      37.916  31.422  30.428  1.00  0.00     0.049 A 
ATOM     37  N   UNL A   1      39.036  32.496  33.004  1.00  0.00    -0.248 NA
ATOM     38  C   UNL A   1      37.288  34.047  33.059  1.00  0.00     0.031 C 
ATOM     39  C   UNL A   1      37.435  30.879  29.156  1.00  0.00     0.029 A 
ATOM     40  N   UNL A   1      38.996  30.633  30.739  1.00  0.00    -0.354 N 
ATOM     41  C   UNL A   1      39.158  33.292  34.135  1.00  0.00     0.074 A 
ATOM     42  C   UNL A   1      38.083  34.259  34.098  1.00  0.00     0.031 C 
ATOM     43  C   UNL A   1      38.206  29.836  28.805  1.00  0.00     0.029 A 
ATOM     44  C   UNL A   1      39.255  29.660  29.804  1.00  0.00     0.049 A 
ATOM     45  H   UNL A   1      39.535  30.753  31.553  1.00  0.00     0.167 HD
ATOM     46  C   UNL A   1      40.076  33.211  35.124  1.00  0.00     0.031 A 
ATOM     47  C   UNL A   1      40.232  28.733  29.754  1.00  0.00     0.031 A 
ATOM     48  C   UNL A   1      41.133  32.241  35.172  1.00  0.00     0.049 A 
ATOM     49  C   UNL A   1      41.251  28.676  30.857  1.00  0.00     0.074 A 
ATOM     50  C   UNL A   1      42.096  32.068  36.148  1.00  0.00     0.029 A 
ATOM     51  N   UNL A   1      41.358  31.274  34.205  1.00  0.00    -0.354 N 
ATOM     52  N   UNL A   1      41.352  29.434  31.922  1.00  0.00    -0.248 NA
ATOM     53  C   UNL A   1      42.286  27.638  30.755  1.00  0.00     0.031 C 
ATOM     54  C   UNL A   1      42.925  31.013  35.759  1.00  0.00     0.029 A 
ATOM     55  C   UNL A   1      42.448  30.502  34.562  1.00  0.00     0.049 A 
ATOM     56  H   UNL A   1      40.822  31.155  33.388  1.00  0.00     0.167 HD
ATOM     57  C   UNL A   1      42.443  28.948  32.630  1.00  0.00     0.074 A 
ATOM     58  C   UNL A   1      42.972  27.831  31.875  1.00  0.00     0.031 C 
ATOM     59  C   UNL A   1      42.955  29.389  33.803  1.00  0.00     0.031 A 
BRANCH  46  60
ATOM     60  C   UNL A   1      39.971  34.196  36.250  1.00  0.00    -0.014 A 
ATOM     61  C   UNL A   1      40.598  35.450  36.167  1.00  0.00     0.009 A 
ATOM     62  C   UNL A   1      39.183  33.899  37.372  1.00  0.00     0.009 A 
ATOM     63  C   UNL A   1      40.448  36.382  37.195  1.00  0.00     0.001 A 
ATOM     64  C   UNL A   1      39.019  34.841  38.388  1.00  0.00     0.001 A 
ATOM     65  C   UNL A   1      39.652  36.080  38.300  1.00  0.00     0.000 A 
ENDBRANCH  46  60
BRANCH  47  66
ATOM     66  C   UNL A   1      40.268  27.764  28.630  1.00  0.00    -0.014 A 
ATOM     67  C   UNL A   1      40.962  28.077  27.452  1.00  0.00     0.009 A 
ATOM     68  C   UNL A   1      39.643  26.513  28.740  1.00  0.00     0.009 A 
ATOM     69  C   UNL A   1      41.026  27.156  26.403  1.00  0.00     0.001 A 
ATOM     70  C   UNL A   1      39.725  25.587  27.696  1.00  0.00     0.001 A 
ATOM     71  C   UNL A   1      40.414  25.911  26.529  1.00  0.00     0.000 A 
ENDBRANCH  47  66
BRANCH  59  72
ATOM     72  C   UNL A   1      44.128  28.651  34.377  1.00  0.00    -0.014 A 
ATOM     73  C   UNL A   1      45.442  29.073  34.127  1.00  0.00     0.009 A 
ATOM     74  C   UNL A   1      43.907  27.589  35.269  1.00  0.00     0.009 A 
ATOM     75  C   UNL A   1      46.514  28.437  34.755  1.00  0.00     0.001 A 
ATOM     76  C   UNL A   1      44.979  26.969  35.910  1.00  0.00     0.001 A 
ATOM     77  C   UNL A   1      46.282  27.392  35.650  1.00  0.00     0.000 A 
ENDBRANCH  59  72
ENDBRANCH  33  34
ENDBRANCH  25  28
ENDBRANCH  23  24
ENDBRANCH  22  23
ENDBRANCH  21  22
ENDBRANCH   1  21
TORSDOF 16
ENDMDL
MODEL 2
REMARK VINA RESULT:     -10.3      4.632      9.120
REMARK SMILES Cc1nnc(S[C@@H](C)CCO)c(C(=O)NCCCCNC(=O)c2ccc(-c3c4nc(c(-c5ccccc5)c5ccc([nH]5)c(-c5ccccc5)c5nc(c(-c6ccccc6)c6ccc3[nH]6)C=C5)C=C4)cc2)c1C
REMARK SMILES IDX 16 1 15 2 13 3 14 4 12 6 1 7 2 8 3 9 71 10 4 11 72 12 5 13
REMARK SMILES IDX 6 14 7 15 8 16 9 17 10 18 11 19 17 21 18 22 19 23 20 24
REMARK SMILES IDX 21 25 22 27 23 28 24 29 70 30 25 31 69 32 26 33 27 34 28 35
REMARK SMILES IDX 63 36 29 37 68 38 62 39 64 40 30 41 67 42 61 43 60 44 31 46
REMARK SMILES IDX 53 47 38 48 52 49 39 50 42 51 51 52 65 53 40 54 41 55 50 57
REMARK SMILES IDX 66 58 43 59 32 60 33 61 37 62 34 63 36 64 35 65 54 66 55 67
REMARK SMILES IDX 59 68 56 69 58 70 57 71 44 72 45 73 49 74 46 75 48 76 47 77
REMARK H PARENT 15 5 11 20 20 26 64 45 42 56
REMARK Flexibility Score: inf
ROOT
ATOM      1  C   UNL A   1      36.877  23.358  24.505  1.00  0.00     0.116 C 
ENDROOT
BRANCH   1   2
ATOM      2  N   UNL A   1      36.051  23.554  25.685  1.00  0.00    -0.352 N 
ATOM      3  C   UNL A   1      34.742  23.172  25.938  1.00  0.00     0.254 C 
ATOM      4  O   UNL A   1      34.403  23.071  27.110  1.00  0.00    -0.269 OA
ATOM      5  H   UNL A   1      36.490  24.036  26.423  1.00  0.00     0.163 HD
BRANCH   3   6
ATOM      6  C   UNL A   1      33.759  22.921  24.857  1.00  0.00     0.078 A 
ATOM      7  C   UNL A   1      32.146  20.059  22.873  1.00  0.00     0.069 C 
ATOM      8  C   UNL A   1      32.576  21.398  23.394  1.00  0.00     0.064 A 
ATOM      9  N   UNL A   1      32.177  22.439  22.647  1.00  0.00    -0.155 NA
ATOM     10  C   UNL A   1      33.370  21.593  24.526  1.00  0.00    -0.012 A 
ATOM     11  N   UNL A   1      32.422  23.717  23.067  1.00  0.00    -0.143 NA
ATOM     12  C   UNL A   1      33.697  20.404  25.392  1.00  0.00     0.047 C 
ATOM     13  C   UNL A   1      33.144  23.988  24.181  1.00  0.00     0.132 A 
BRANCH  13  14
ATOM     14  S   UNL A   1      32.750  25.659  24.677  1.00  0.00    -0.101 SA
BRANCH  14  15
ATOM     15  C   UNL A   1      31.599  25.753  26.104  1.00  0.00     0.052 C 
ATOM     16  C   UNL A   1      31.436  27.214  26.536  1.00  0.00     0.020 C 
BRANCH  15  17
ATOM     17  C   UNL A   1      30.316  24.918  26.073  1.00  0.00     0.043 C 
BRANCH  17  18
ATOM     18  C   UNL A   1      30.531  23.483  26.558  1.00  0.00     0.157 C 
BRANCH  18  19
ATOM     19  O   UNL A   1      31.490  23.451  27.611  1.00  0.00    -0.396 OA
ATOM     20  H   UNL A   1      32.001  24.275  27.608  1.00  0.00     0.210 HD
ENDBRANCH  18  19
ENDBRANCH  17  18
ENDBRANCH  15  17
ENDBRANCH  14  15
ENDBRANCH  13  14
ENDBRANCH   3   6
ENDBRANCH   1   2
BRANCH   1  21
ATOM     21  C   UNL A   1      37.025  21.927  24.001  1.00  0.00     0.023 C 
BRANCH  21  22
ATOM     22  C   UNL A   1      37.439  20.849  25.002  1.00  0.00     0.023 C 
BRANCH  22  23
ATOM     23  C   UNL A   1      38.750  21.041  25.758  1.00  0.00     0.116 C 
BRANCH  23  24
ATOM     24  N   UNL A   1      39.695  19.944  25.623  1.00  0.00    -0.352 N 
ATOM     25  C   UNL A   1      41.021  19.887  26.000  1.00  0.00     0.251 C 
ATOM     26  H   UNL A   1      39.338  19.127  25.206  1.00  0.00     0.163 HD
ATOM     27  O   UNL A   1      41.683  18.880  25.817  1.00  0.00    -0.269 OA
BRANCH  25  28
ATOM     28  C   UNL A   1      41.647  21.090  26.586  1.00  0.00     0.039 A 
ATOM     29  C   UNL A   1      42.137  22.076  25.725  1.00  0.00     0.014 A 
ATOM     30  C   UNL A   1      41.676  21.273  27.971  1.00  0.00     0.014 A 
ATOM     31  C   UNL A   1      42.572  23.293  26.251  1.00  0.00     0.010 A 
ATOM     32  C   UNL A   1      42.059  22.505  28.488  1.00  0.00     0.010 A 
ATOM     33  C   UNL A   1      42.495  23.531  27.632  1.00  0.00    -0.014 A 
BRANCH  33  34
ATOM     34  C   UNL A   1      42.871  24.840  28.213  1.00  0.00     0.031 A 
ATOM     35  C   UNL A   1      41.814  25.883  28.427  1.00  0.00     0.074 A 
ATOM     36  C   UNL A   1      44.162  25.114  28.478  1.00  0.00     0.049 A 
ATOM     37  N   UNL A   1      41.951  27.126  28.808  1.00  0.00    -0.248 NA
ATOM     38  C   UNL A   1      40.423  25.480  28.161  1.00  0.00     0.031 C 
ATOM     39  C   UNL A   1      45.281  24.186  28.305  1.00  0.00     0.029 A 
ATOM     40  N   UNL A   1      44.751  26.262  28.946  1.00  0.00    -0.354 N 
ATOM     41  C   UNL A   1      40.669  27.657  28.812  1.00  0.00     0.074 A 
ATOM     42  C   UNL A   1      39.771  26.615  28.364  1.00  0.00     0.031 C 
ATOM     43  C   UNL A   1      46.419  24.797  28.677  1.00  0.00     0.029 A 
ATOM     44  C   UNL A   1      46.116  26.167  29.079  1.00  0.00     0.049 A 
ATOM     45  H   UNL A   1      44.245  27.078  29.165  1.00  0.00     0.167 HD
ATOM     46  C   UNL A   1      40.274  28.898  29.174  1.00  0.00     0.031 A 
ATOM     47  C   UNL A   1      47.021  27.082  29.475  1.00  0.00     0.031 A 
ATOM     48  C   UNL A   1      41.161  29.928  29.637  1.00  0.00     0.049 A 
ATOM     49  C   UNL A   1      46.559  28.461  29.855  1.00  0.00     0.074 A 
ATOM     50  C   UNL A   1      40.847  31.210  30.049  1.00  0.00     0.029 A 
ATOM     51  N   UNL A   1      42.534  29.788  29.757  1.00  0.00    -0.354 N 
ATOM     52  N   UNL A   1      45.342  28.947  29.857  1.00  0.00    -0.248 NA
ATOM     53  C   UNL A   1      47.590  29.413  30.290  1.00  0.00     0.031 C 
ATOM     54  C   UNL A   1      42.036  31.859  30.392  1.00  0.00     0.029 A 
ATOM     55  C   UNL A   1      43.083  30.964  30.235  1.00  0.00     0.049 A 
ATOM     56  H   UNL A   1      43.042  28.975  29.535  1.00  0.00     0.167 HD
ATOM     57  C   UNL A   1      45.456  30.252  30.318  1.00  0.00     0.074 A 
ATOM     58  C   UNL A   1      46.861  30.482  30.586  1.00  0.00     0.031 C 
ATOM     59  C   UNL A   1      44.482  31.173  30.504  1.00  0.00     0.031 A 
BRANCH  46  60
ATOM     60  C   UNL A   1      38.809  29.211  29.097  1.00  0.00    -0.014 A 
ATOM     61  C   UNL A   1      37.982  29.055  30.220  1.00  0.00     0.009 A 
ATOM     62  C   UNL A   1      38.265  29.732  27.914  1.00  0.00     0.009 A 
ATOM     63  C   UNL A   1      36.632  29.402  30.155  1.00  0.00     0.001 A 
ATOM     64  C   UNL A   1      36.919  30.098  27.859  1.00  0.00     0.001 A 
ATOM     65  C   UNL A   1      36.104  29.932  28.978  1.00  0.00     0.000 A 
ENDBRANCH  46  60
BRANCH  47  66
ATOM     66  C   UNL A   1      48.455  26.706  29.562  1.00  0.00    -0.014 A 
ATOM     67  C   UNL A   1      49.300  26.893  28.459  1.00  0.00     0.009 A 
ATOM     68  C   UNL A   1      48.993  26.196  30.753  1.00  0.00     0.009 A 
ATOM     69  C   UNL A   1      50.657  26.570  28.544  1.00  0.00     0.001 A 
ATOM     70  C   UNL A   1      50.354  25.892  30.841  1.00  0.00     0.001 A 
ATOM     71  C   UNL A   1      51.183  26.078  29.736  1.00  0.00     0.000 A 
ENDBRANCH  47  66
BRANCH  59  72
ATOM     72  C   UNL A   1      44.877  32.510  31.057  1.00  0.00    -0.014 A 
ATOM     73  C   UNL A   1      45.163  33.588  30.208  1.00  0.00     0.009 A 
ATOM     74  C   UNL A   1      44.851  32.718  32.445  1.00  0.00     0.009 A 
ATOM     75  C   UNL A   1      45.426  34.851  30.742  1.00  0.00     0.001 A 
ATOM     76  C   UNL A   1      45.094  33.985  32.975  1.00  0.00     0.001 A 
ATOM     77  C   UNL A   1      45.385  35.050  32.122  1.00  0.00     0.000 A 
ENDBRANCH  59  72
ENDBRANCH  33  34
ENDBRANCH  25  28
ENDBRANCH  23  24
ENDBRANCH  22  23
ENDBRANCH  21  22
ENDBRANCH   1  21
TORSDOF 16
ENDMDL
MODEL 3
REMARK VINA RESULT:     -10.2      4.406      9.451
REMARK SMILES Cc1nnc(S[C@@H](C)CCO)c(C(=O)NCCCCNC(=O)c2ccc(-c3c4nc(c(-c5ccccc5)c5ccc([nH]5)c(-c5ccccc5)c5nc(c(-c6ccccc6)c6ccc3[nH]6)C=C5)C=C4)cc2)c1C
REMARK SMILES IDX 16 1 15 2 13 3 14 4 12 6 1 7 2 8 3 9 71 10 4 11 72 12 5 13
REMARK SMILES IDX 6 14 7 15 8 16 9 17 10 18 11 19 17 21 18 22 19 23 20 24
REMARK SMILES IDX 21 25 22 27 23 28 24 29 70 30 25 31 69 32 26 33 27 34 28 35
REMARK SMILES IDX 63 36 29 37 68 38 62 39 64 40 30 41 67 42 61 43 60 44 31 46
REMARK SMILES IDX 53 47 38 48 52 49 39 50 42 51 51 52 65 53 40 54 41 55 50 57
REMARK SMILES IDX 66 58 43 59 32 60 33 61 37 62 34 63 36 64 35 65 54 66 55 67
REMARK SMILES IDX 59 68 56 69 58 70 57 71 44 72 45 73 49 74 46 75 48 76 47 77
REMARK H PARENT 15 5 11 20 20 26 64 45 42 56
REMARK Flexibility Score: inf
ROOT
ATOM      1  C   UNL A   1      36.527  22.448  25.793  1.00  0.00     0.116 C 
ENDROOT
BRANCH   1   2
ATOM      2  N   UNL A   1      35.431  22.895  26.636  1.00  0.00    -0.352 N 
ATOM      3  C   UNL A   1      34.184  23.399  26.297  1.00  0.00     0.254 C 
ATOM      4  O   UNL A   1      33.296  23.316  27.136  1.00  0.00    -0.269 OA
ATOM      5  H   UNL A   1      35.600  22.830  27.604  1.00  0.00     0.163 HD
BRANCH   3   6
ATOM      6  C   UNL A   1      33.914  24.051  24.993  1.00  0.00     0.078 A 
ATOM      7  C   UNL A   1      33.169  23.219  21.321  1.00  0.00     0.069 C 
ATOM      8  C   UNL A   1      33.469  23.910  22.617  1.00  0.00     0.064 A 
ATOM      9  N   UNL A   1      33.719  25.224  22.501  1.00  0.00    -0.155 NA
ATOM     10  C   UNL A   1      33.547  23.274  23.858  1.00  0.00    -0.012 A 
ATOM     11  N   UNL A   1      33.910  25.986  23.620  1.00  0.00    -0.143 NA
ATOM     12  C   UNL A   1      33.147  21.824  23.952  1.00  0.00     0.047 C 
ATOM     13  C   UNL A   1      33.951  25.449  24.865  1.00  0.00     0.132 A 
BRANCH  13  14
ATOM     14  S   UNL A   1      33.641  26.772  26.025  1.00  0.00    -0.101 SA
BRANCH  14  15
ATOM     15  C   UNL A   1      31.901  26.854  26.603  1.00  0.00     0.052 C 
ATOM     16  C   UNL A   1      31.650  28.202  27.286  1.00  0.00     0.020 C 
BRANCH  15  17
ATOM     17  C   UNL A   1      30.791  26.360  25.672  1.00  0.00     0.043 C 
BRANCH  17  18
ATOM     18  C   UNL A   1      30.351  24.928  25.982  1.00  0.00     0.157 C 
BRANCH  18  19
ATOM     19  O   UNL A   1      30.330  24.144  24.793  1.00  0.00    -0.396 OA
ATOM     20  H   UNL A   1      30.503  23.215  25.015  1.00  0.00     0.210 HD
ENDBRANCH  18  19
ENDBRANCH  17  18
ENDBRANCH  15  17
ENDBRANCH  14  15
ENDBRANCH  13  14
ENDBRANCH   3   6
ENDBRANCH   1   2
BRANCH   1  21
ATOM     21  C   UNL A   1      36.417  21.041  25.213  1.00  0.00     0.023 C 
BRANCH  21  22
ATOM     22  C   UNL A   1      37.709  20.294  24.884  1.00  0.00     0.023 C 
BRANCH  22  23
ATOM     23  C   UNL A   1      38.933  20.567  25.753  1.00  0.00     0.116 C 
BRANCH  23  24
ATOM     24  N   UNL A   1      39.946  19.524  25.719  1.00  0.00    -0.352 N 
ATOM     25  C   UNL A   1      41.265  19.580  26.121  1.00  0.00     0.251 C 
ATOM     26  H   UNL A   1      39.649  18.657  25.359  1.00  0.00     0.163 HD
ATOM     27  O   UNL A   1      41.991  18.606  26.026  1.00  0.00    -0.269 OA
BRANCH  25  28
ATOM     28  C   UNL A   1      41.802  20.861  26.624  1.00  0.00     0.039 A 
ATOM     29  C   UNL A   1      42.295  21.788  25.702  1.00  0.00     0.014 A 
ATOM     30  C   UNL A   1      41.746  21.169  27.986  1.00  0.00     0.014 A 
ATOM     31  C   UNL A   1      42.645  23.068  26.134  1.00  0.00     0.010 A 
ATOM     32  C   UNL A   1      42.044  22.461  28.405  1.00  0.00     0.010 A 
ATOM     33  C   UNL A   1      42.480  23.425  27.480  1.00  0.00    -0.014 A 
BRANCH  33  34
ATOM     34  C   UNL A   1      42.764  24.798  27.956  1.00  0.00     0.031 A 
ATOM     35  C   UNL A   1      44.169  25.176  28.323  1.00  0.00     0.074 A 
ATOM     36  C   UNL A   1      41.757  25.675  28.125  1.00  0.00     0.049 A 
ATOM     37  N   UNL A   1      44.607  26.280  28.871  1.00  0.00    -0.248 NA
ATOM     38  C   UNL A   1      45.214  24.175  28.057  1.00  0.00     0.031 C 
ATOM     39  C   UNL A   1      40.349  25.424  27.812  1.00  0.00     0.029 A 
ATOM     40  N   UNL A   1      41.765  26.959  28.611  1.00  0.00    -0.354 N 
ATOM     41  C   UNL A   1      45.974  26.100  29.028  1.00  0.00     0.074 A 
ATOM     42  C   UNL A   1      46.289  24.770  28.552  1.00  0.00     0.031 C 
ATOM     43  C   UNL A   1      39.632  26.524  28.098  1.00  0.00     0.029 A 
ATOM     44  C   UNL A   1      40.521  27.543  28.648  1.00  0.00     0.049 A 
ATOM     45  H   UNL A   1      42.583  27.419  28.907  1.00  0.00     0.167 HD
ATOM     46  C   UNL A   1      46.887  26.972  29.511  1.00  0.00     0.031 A 
ATOM     47  C   UNL A   1      40.139  28.759  29.082  1.00  0.00     0.031 A 
ATOM     48  C   UNL A   1      46.579  28.298  29.968  1.00  0.00     0.049 A 
ATOM     49  C   UNL A   1      41.171  29.704  29.632  1.00  0.00     0.074 A 
ATOM     50  C   UNL A   1      47.444  29.261  30.451  1.00  0.00     0.029 A 
ATOM     51  N   UNL A   1      45.308  28.847  29.986  1.00  0.00    -0.354 N 
ATOM     52  N   UNL A   1      42.461  29.520  29.771  1.00  0.00    -0.248 NA
ATOM     53  C   UNL A   1      40.697  31.021  30.079  1.00  0.00     0.031 C 
ATOM     54  C   UNL A   1      46.691  30.388  30.792  1.00  0.00     0.029 A 
ATOM     55  C   UNL A   1      45.365  30.139  30.477  1.00  0.00     0.049 A 
ATOM     56  H   UNL A   1      44.487  28.388  29.694  1.00  0.00     0.167 HD
ATOM     57  C   UNL A   1      42.958  30.706  30.296  1.00  0.00     0.074 A 
ATOM     58  C   UNL A   1      41.831  31.603  30.450  1.00  0.00     0.031 C 
ATOM     59  C   UNL A   1      44.235  31.020  30.616  1.00  0.00     0.031 A 
BRANCH  46  60
ATOM     60  C   UNL A   1      48.317  26.523  29.560  1.00  0.00    -0.014 A 
ATOM     61  C   UNL A   1      49.196  26.810  28.503  1.00  0.00     0.009 A 
ATOM     62  C   UNL A   1      48.810  25.872  30.701  1.00  0.00     0.009 A 
ATOM     63  C   UNL A   1      50.538  26.439  28.582  1.00  0.00     0.001 A 
ATOM     64  C   UNL A   1      50.158  25.521  30.785  1.00  0.00     0.001 A 
ATOM     65  C   UNL A   1      51.020  25.802  29.726  1.00  0.00     0.000 A 
ENDBRANCH  46  60
BRANCH  47  66
ATOM     66  C   UNL A   1      38.713  29.160  28.981  1.00  0.00    -0.014 A 
ATOM     67  C   UNL A   1      38.205  29.657  27.771  1.00  0.00     0.009 A 
ATOM     68  C   UNL A   1      37.847  29.015  30.074  1.00  0.00     0.009 A 
ATOM     69  C   UNL A   1      36.857  30.007  27.661  1.00  0.00     0.001 A 
ATOM     70  C   UNL A   1      36.495  29.348  29.954  1.00  0.00     0.001 A 
ATOM     71  C   UNL A   1      36.003  29.845  28.749  1.00  0.00     0.000 A 
ENDBRANCH  47  66
BRANCH  59  72
ATOM     72  C   UNL A   1      44.508  32.401  31.134  1.00  0.00    -0.014 A 
ATOM     73  C   UNL A   1      44.496  32.674  32.510  1.00  0.00     0.009 A 
ATOM     74  C   UNL A   1      44.891  33.412  30.238  1.00  0.00     0.009 A 
ATOM     75  C   UNL A   1      44.855  33.939  32.977  1.00  0.00     0.001 A 
ATOM     76  C   UNL A   1      45.269  34.669  30.710  1.00  0.00     0.001 A 
ATOM     77  C   UNL A   1      45.248  34.932  32.079  1.00  0.00     0.000 A 
ENDBRANCH  59  72
ENDBRANCH  33  34
ENDBRANCH  25  28
ENDBRANCH  23  24
ENDBRANCH  22  23
ENDBRANCH  21  22
ENDBRANCH   1  21
TORSDOF 16
ENDMDL
