MODEL 1
REMARK VINA RESULT:     -10.3      0.000      0.000
REMARK SMILES O=C(CCc1nc(-c2ccccc2)c(-c2ccccc2)o1)NCCCCNC(=O)c1ccc(-c2c3nc(c(-c4ccccc4)c4ccc([nH]4)c(-c4ccccc4)c4nc(c(-c5ccccc5)c5ccc2[nH]5)C=C4)C=C3)cc1
REMARK SMILES IDX 24 1 23 2 22 3 1 4 2 5 3 7 4 8 5 9 6 10 21 11 7 12 14 13
REMARK SMILES IDX 8 14 9 15 13 16 10 17 12 18 11 19 15 20 16 21 20 22 17 23
REMARK SMILES IDX 19 24 18 25 25 26 26 27 27 28 28 29 29 31 30 32 31 33 77 34
REMARK SMILES IDX 32 35 76 36 33 37 34 38 35 39 70 40 36 41 75 42 69 43 71 44
REMARK SMILES IDX 37 45 74 46 68 47 67 48 38 50 60 51 45 52 59 53 46 54 49 55
REMARK SMILES IDX 58 56 72 57 47 58 48 59 57 61 73 62 50 63 39 64 40 65 44 66
REMARK SMILES IDX 41 67 43 68 42 69 61 70 62 71 66 72 63 73 65 74 64 75 51 76
REMARK SMILES IDX 52 77 56 78 53 79 55 80 54 81
REMARK H PARENT 22 6 27 30 71 49 49 60
REMARK Flexibility Score: inf
ROOT
ATOM      1  C   UNL A   1      41.715  19.414  26.247  1.00  0.00     0.023 C 
ENDROOT
BRANCH   1   2
ATOM      2  C   UNL A   1      42.802  18.349  26.066  1.00  0.00     0.116 C 
BRANCH   2   3
ATOM      3  N   UNL A   1      44.152  18.886  26.077  1.00  0.00    -0.356 N 
ATOM      4  O   UNL A   1      44.331  19.136  23.799  1.00  0.00    -0.275 OA
ATOM      5  C   UNL A   1      44.812  19.246  24.920  1.00  0.00     0.220 C 
ATOM      6  H   UNL A   1      44.612  18.998  26.940  1.00  0.00     0.163 HD
BRANCH   5   7
ATOM      7  C   UNL A   1      46.209  19.802  25.130  1.00  0.00     0.110 C 
BRANCH   7   8
ATOM      8  C   UNL A   1      46.464  21.046  24.288  1.00  0.00     0.107 C 
BRANCH   8   9
ATOM      9  C   UNL A   1      45.987  22.285  24.956  1.00  0.00     0.196 A 
ATOM     10  N   UNL A   1      45.704  23.460  24.431  1.00  0.00    -0.213 NA
ATOM     11  O   UNL A   1      45.851  22.221  26.313  1.00  0.00    -0.440 OA
ATOM     12  C   UNL A   1      45.327  24.217  25.517  1.00  0.00     0.117 A 
ATOM     13  C   UNL A   1      45.411  23.468  26.676  1.00  0.00     0.162 A 
BRANCH  12  14
ATOM     14  C   UNL A   1      44.947  25.610  25.449  1.00  0.00     0.004 A 
ATOM     15  C   UNL A   1      45.868  26.613  25.777  1.00  0.00     0.010 A 
ATOM     16  C   UNL A   1      43.628  25.956  25.139  1.00  0.00     0.010 A 
ATOM     17  C   UNL A   1      45.461  27.947  25.835  1.00  0.00     0.001 A 
ATOM     18  C   UNL A   1      43.221  27.291  25.207  1.00  0.00     0.001 A 
ATOM     19  C   UNL A   1      44.134  28.283  25.564  1.00  0.00     0.000 A 
ENDBRANCH  12  14
BRANCH  13  20
ATOM     20  C   UNL A   1      45.211  23.689  28.100  1.00  0.00     0.020 A 
ATOM     21  C   UNL A   1      46.060  24.560  28.793  1.00  0.00     0.012 A 
ATOM     22  C   UNL A   1      44.150  23.101  28.800  1.00  0.00     0.012 A 
ATOM     23  C   UNL A   1      45.811  24.912  30.120  1.00  0.00     0.001 A 
ATOM     24  C   UNL A   1      43.917  23.424  30.141  1.00  0.00     0.001 A 
ATOM     25  C   UNL A   1      44.731  24.348  30.792  1.00  0.00     0.000 A 
ENDBRANCH  13  20
ENDBRANCH   8   9
ENDBRANCH   7   8
ENDBRANCH   5   7
ENDBRANCH   2   3
ENDBRANCH   1   2
BRANCH   1  26
ATOM     26  C   UNL A   1      42.053  20.601  27.158  1.00  0.00     0.023 C 
BRANCH  26  27
ATOM     27  C   UNL A   1      40.879  21.406  27.714  1.00  0.00     0.116 C 
BRANCH  27  28
ATOM     28  N   UNL A   1      39.741  21.521  26.823  1.00  0.00    -0.352 N 
ATOM     29  C   UNL A   1      39.040  22.629  26.389  1.00  0.00     0.251 C 
ATOM     30  H   UNL A   1      39.412  20.664  26.467  1.00  0.00     0.163 HD
ATOM     31  O   UNL A   1      38.086  22.440  25.633  1.00  0.00    -0.269 OA
BRANCH  29  32
ATOM     32  C   UNL A   1      39.348  24.031  26.814  1.00  0.00     0.039 A 
ATOM     33  C   UNL A   1      38.868  24.457  28.064  1.00  0.00     0.014 A 
ATOM     34  C   UNL A   1      40.050  24.951  26.033  1.00  0.00     0.014 A 
ATOM     35  C   UNL A   1      39.147  25.745  28.546  1.00  0.00     0.010 A 
ATOM     36  C   UNL A   1      40.349  26.231  26.516  1.00  0.00     0.010 A 
ATOM     37  C   UNL A   1      39.923  26.631  27.786  1.00  0.00    -0.014 A 
BRANCH  37  38
ATOM     38  C   UNL A   1      40.437  27.897  28.363  1.00  0.00     0.031 A 
ATOM     39  C   UNL A   1      41.858  28.051  28.814  1.00  0.00     0.074 A 
ATOM     40  C   UNL A   1      39.554  28.893  28.571  1.00  0.00     0.049 A 
ATOM     41  N   UNL A   1      42.451  29.108  29.313  1.00  0.00    -0.248 NA
ATOM     42  C   UNL A   1      42.723  26.868  28.707  1.00  0.00     0.031 C 
ATOM     43  C   UNL A   1      38.130  28.835  28.233  1.00  0.00     0.029 A 
ATOM     44  N   UNL A   1      39.715  30.135  29.127  1.00  0.00    -0.354 N 
ATOM     45  C   UNL A   1      43.763  28.727  29.565  1.00  0.00     0.074 A 
ATOM     46  C   UNL A   1      43.866  27.327  29.206  1.00  0.00     0.031 C 
ATOM     47  C   UNL A   1      37.548  29.991  28.586  1.00  0.00     0.029 A 
ATOM     48  C   UNL A   1      38.552  30.864  29.185  1.00  0.00     0.049 A 
ATOM     49  H   UNL A   1      40.579  30.473  29.454  1.00  0.00     0.167 HD
ATOM     50  C   UNL A   1      44.785  29.481  30.043  1.00  0.00     0.031 A 
ATOM     51  C   UNL A   1      38.316  32.100  29.662  1.00  0.00     0.031 A 
ATOM     52  C   UNL A   1      44.659  30.864  30.435  1.00  0.00     0.049 A 
ATOM     53  C   UNL A   1      39.460  32.904  30.207  1.00  0.00     0.074 A 
ATOM     54  C   UNL A   1      45.650  31.734  30.864  1.00  0.00     0.029 A 
ATOM     55  N   UNL A   1      43.468  31.574  30.471  1.00  0.00    -0.354 N 
ATOM     56  N   UNL A   1      40.723  32.573  30.317  1.00  0.00    -0.248 NA
ATOM     57  C   UNL A   1      39.150  34.265  30.667  1.00  0.00     0.031 C 
ATOM     58  C   UNL A   1      45.048  32.943  31.225  1.00  0.00     0.029 A 
ATOM     59  C   UNL A   1      43.692  32.854  30.954  1.00  0.00     0.049 A 
ATOM     60  H   UNL A   1      42.592  31.220  30.195  1.00  0.00     0.167 HD
ATOM     61  C   UNL A   1      41.365  33.694  30.826  1.00  0.00     0.074 A 
ATOM     62  C   UNL A   1      40.353  34.718  30.988  1.00  0.00     0.031 C 
ATOM     63  C   UNL A   1      42.676  33.862  31.125  1.00  0.00     0.031 A 
BRANCH  50  64
ATOM     64  C   UNL A   1      46.136  28.831  30.181  1.00  0.00    -0.014 A 
ATOM     65  C   UNL A   1      47.074  28.874  29.135  1.00  0.00     0.009 A 
ATOM     66  C   UNL A   1      46.513  28.240  31.398  1.00  0.00     0.009 A 
ATOM     67  C   UNL A   1      48.344  28.314  29.297  1.00  0.00     0.001 A 
ATOM     68  C   UNL A   1      47.793  27.707  31.567  1.00  0.00     0.001 A 
ATOM     69  C   UNL A   1      48.704  27.736  30.513  1.00  0.00     0.000 A 
ENDBRANCH  50  64
BRANCH  51  70
ATOM     70  C   UNL A   1      36.943  32.664  29.603  1.00  0.00    -0.014 A 
ATOM     71  C   UNL A   1      36.546  33.452  28.513  1.00  0.00     0.009 A 
ATOM     72  C   UNL A   1      36.020  32.409  30.628  1.00  0.00     0.009 A 
ATOM     73  C   UNL A   1      35.261  33.997  28.464  1.00  0.00     0.001 A 
ATOM     74  C   UNL A   1      34.725  32.927  30.561  1.00  0.00     0.001 A 
ATOM     75  C   UNL A   1      34.350  33.730  29.484  1.00  0.00     0.000 A 
ENDBRANCH  51  70
BRANCH  63  76
ATOM     76  C   UNL A   1      43.095  35.215  31.632  1.00  0.00    -0.014 A 
ATOM     77  C   UNL A   1      43.605  36.196  30.766  1.00  0.00     0.009 A 
ATOM     78  C   UNL A   1      42.957  35.519  32.995  1.00  0.00     0.009 A 
ATOM     79  C   UNL A   1      44.005  37.439  31.263  1.00  0.00     0.001 A 
ATOM     80  C   UNL A   1      43.328  36.773  33.484  1.00  0.00     0.001 A 
ATOM     81  C   UNL A   1      43.862  37.728  32.619  1.00  0.00     0.000 A 
ENDBRANCH  63  76
ENDBRANCH  37  38
ENDBRANCH  29  32
ENDBRANCH  27  28
ENDBRANCH  26  27
ENDBRANCH   1  26
TORSDOF 15
ENDMDL
MODEL 2
REMARK VINA RESULT:     -10.3      0.559      2.296
REMARK SMILES O=C(CCc1nc(-c2ccccc2)c(-c2ccccc2)o1)NCCCCNC(=O)c1ccc(-c2c3nc(c(-c4ccccc4)c4ccc([nH]4)c(-c4ccccc4)c4nc(c(-c5ccccc5)c5ccc2[nH]5)C=C4)C=C3)cc1
REMARK SMILES IDX 24 1 23 2 22 3 1 4 2 5 3 7 4 8 5 9 6 10 21 11 7 12 14 13
REMARK SMILES IDX 8 14 9 15 13 16 10 17 12 18 11 19 15 20 16 21 20 22 17 23
REMARK SMILES IDX 19 24 18 25 25 26 26 27 27 28 28 29 29 31 30 32 31 33 77 34
REMARK SMILES IDX 32 35 76 36 33 37 34 38 35 39 70 40 36 41 75 42 69 43 71 44
REMARK SMILES IDX 37 45 74 46 68 47 67 48 38 50 60 51 45 52 59 53 46 54 49 55
REMARK SMILES IDX 58 56 72 57 47 58 48 59 57 61 73 62 50 63 39 64 40 65 44 66
REMARK SMILES IDX 41 67 43 68 42 69 61 70 62 71 66 72 63 73 65 74 64 75 51 76
REMARK SMILES IDX 52 77 56 78 53 79 55 80 54 81
REMARK H PARENT 22 6 27 30 71 49 49 60
REMARK Flexibility Score: inf
ROOT
ATOM      1  C   UNL A   1      42.045  19.478  26.102  1.00  0.00     0.023 C 
ENDROOT
BRANCH   1   2
ATOM      2  C   UNL A   1      43.247  18.561  25.860  1.00  0.00     0.116 C 
BRANCH   2   3
ATOM      3  N   UNL A   1      44.508  19.272  25.734  1.00  0.00    -0.356 N 
ATOM      4  O   UNL A   1      44.773  18.898  23.481  1.00  0.00    -0.275 OA
ATOM      5  C   UNL A   1      45.174  19.387  24.531  1.00  0.00     0.220 C 
ATOM      6  H   UNL A   1      44.901  19.687  26.535  1.00  0.00     0.163 HD
BRANCH   5   7
ATOM      7  C   UNL A   1      46.466  20.180  24.590  1.00  0.00     0.110 C 
BRANCH   7   8
ATOM      8  C   UNL A   1      46.282  21.617  24.121  1.00  0.00     0.107 C 
BRANCH   8   9
ATOM      9  C   UNL A   1      45.935  22.533  25.239  1.00  0.00     0.196 A 
ATOM     10  N   UNL A   1      45.814  22.271  26.525  1.00  0.00    -0.213 NA
ATOM     11  O   UNL A   1      45.668  23.827  24.896  1.00  0.00    -0.440 OA
ATOM     12  C   UNL A   1      45.469  23.486  27.072  1.00  0.00     0.117 A 
ATOM     13  C   UNL A   1      45.379  24.448  26.084  1.00  0.00     0.162 A 
BRANCH  12  14
ATOM     14  C   UNL A   1      45.195  23.701  28.475  1.00  0.00     0.004 A 
ATOM     15  C   UNL A   1      44.092  23.089  29.084  1.00  0.00     0.010 A 
ATOM     16  C   UNL A   1      45.982  24.595  29.208  1.00  0.00     0.010 A 
ATOM     17  C   UNL A   1      43.756  23.402  30.403  1.00  0.00     0.001 A 
ATOM     18  C   UNL A   1      45.638  24.912  30.524  1.00  0.00     0.001 A 
ATOM     19  C   UNL A   1      44.521  24.324  31.116  1.00  0.00     0.000 A 
ENDBRANCH  12  14
BRANCH  13  20
ATOM     20  C   UNL A   1      45.020  25.856  26.001  1.00  0.00     0.020 A 
ATOM     21  C   UNL A   1      43.788  26.226  25.448  1.00  0.00     0.012 A 
ATOM     22  C   UNL A   1      45.846  26.862  26.515  1.00  0.00     0.012 A 
ATOM     23  C   UNL A   1      43.345  27.549  25.488  1.00  0.00     0.001 A 
ATOM     24  C   UNL A   1      45.421  28.195  26.525  1.00  0.00     0.001 A 
ATOM     25  C   UNL A   1      44.161  28.533  26.034  1.00  0.00     0.000 A 
ENDBRANCH  13  20
ENDBRANCH   8   9
ENDBRANCH   7   8
ENDBRANCH   5   7
ENDBRANCH   2   3
ENDBRANCH   1   2
BRANCH   1  26
ATOM     26  C   UNL A   1      42.332  20.842  26.742  1.00  0.00     0.023 C 
BRANCH  26  27
ATOM     27  C   UNL A   1      41.168  21.537  27.449  1.00  0.00     0.116 C 
BRANCH  27  28
ATOM     28  N   UNL A   1      39.949  21.630  26.671  1.00  0.00    -0.352 N 
ATOM     29  C   UNL A   1      39.149  22.713  26.369  1.00  0.00     0.251 C 
ATOM     30  H   UNL A   1      39.638  20.775  26.293  1.00  0.00     0.163 HD
ATOM     31  O   UNL A   1      38.142  22.508  25.690  1.00  0.00    -0.269 OA
BRANCH  29  32
ATOM     32  C   UNL A   1      39.413  24.106  26.850  1.00  0.00     0.039 A 
ATOM     33  C   UNL A   1      38.971  24.450  28.139  1.00  0.00     0.014 A 
ATOM     34  C   UNL A   1      40.038  25.094  26.088  1.00  0.00     0.014 A 
ATOM     35  C   UNL A   1      39.214  25.724  28.673  1.00  0.00     0.010 A 
ATOM     36  C   UNL A   1      40.302  26.362  26.620  1.00  0.00     0.010 A 
ATOM     37  C   UNL A   1      39.916  26.681  27.926  1.00  0.00    -0.014 A 
BRANCH  37  38
ATOM     38  C   UNL A   1      40.399  27.939  28.544  1.00  0.00     0.031 A 
ATOM     39  C   UNL A   1      41.789  28.081  29.088  1.00  0.00     0.074 A 
ATOM     40  C   UNL A   1      39.510  28.940  28.700  1.00  0.00     0.049 A 
ATOM     41  N   UNL A   1      42.354  29.131  29.631  1.00  0.00    -0.248 NA
ATOM     42  C   UNL A   1      42.651  26.893  29.030  1.00  0.00     0.031 C 
ATOM     43  C   UNL A   1      38.111  28.894  28.269  1.00  0.00     0.029 A 
ATOM     44  N   UNL A   1      39.642  30.178  29.273  1.00  0.00    -0.354 N 
ATOM     45  C   UNL A   1      43.644  28.740  29.966  1.00  0.00     0.074 A 
ATOM     46  C   UNL A   1      43.762  27.341  29.606  1.00  0.00     0.031 C 
ATOM     47  C   UNL A   1      37.515  30.052  28.590  1.00  0.00     0.029 A 
ATOM     48  C   UNL A   1      38.483  30.914  29.260  1.00  0.00     0.049 A 
ATOM     49  H   UNL A   1      40.486  30.508  29.658  1.00  0.00     0.167 HD
ATOM     50  C   UNL A   1      44.637  29.485  30.515  1.00  0.00     0.031 A 
ATOM     51  C   UNL A   1      38.224  32.149  29.728  1.00  0.00     0.031 A 
ATOM     52  C   UNL A   1      44.495  30.866  30.907  1.00  0.00     0.049 A 
ATOM     53  C   UNL A   1      39.335  32.942  30.351  1.00  0.00     0.074 A 
ATOM     54  C   UNL A   1      45.461  31.726  31.405  1.00  0.00     0.029 A 
ATOM     55  N   UNL A   1      43.309  31.583  30.869  1.00  0.00    -0.354 N 
ATOM     56  N   UNL A   1      40.586  32.602  30.542  1.00  0.00    -0.248 NA
ATOM     57  C   UNL A   1      39.004  34.302  30.798  1.00  0.00     0.031 C 
ATOM     58  C   UNL A   1      44.844  32.938  31.733  1.00  0.00     0.029 A 
ATOM     59  C   UNL A   1      43.509  32.859  31.374  1.00  0.00     0.049 A 
ATOM     60  H   UNL A   1      42.451  31.237  30.534  1.00  0.00     0.167 HD
ATOM     61  C   UNL A   1      41.200  33.716  31.099  1.00  0.00     0.074 A 
ATOM     62  C   UNL A   1      40.186  34.746  31.201  1.00  0.00     0.031 C 
ATOM     63  C   UNL A   1      42.490  33.873  31.484  1.00  0.00     0.031 A 
BRANCH  50  64
ATOM     64  C   UNL A   1      45.973  28.824  30.737  1.00  0.00    -0.014 A 
ATOM     65  C   UNL A   1      46.300  28.244  31.974  1.00  0.00     0.009 A 
ATOM     66  C   UNL A   1      46.883  28.703  29.675  1.00  0.00     0.009 A 
ATOM     67  C   UNL A   1      47.521  27.586  32.149  1.00  0.00     0.001 A 
ATOM     68  C   UNL A   1      48.090  28.020  29.844  1.00  0.00     0.001 A 
ATOM     69  C   UNL A   1      48.412  27.470  31.083  1.00  0.00     0.000 A 
ENDBRANCH  50  64
BRANCH  51  70
ATOM     70  C   UNL A   1      36.861  32.723  29.582  1.00  0.00    -0.014 A 
ATOM     71  C   UNL A   1      36.503  33.413  28.415  1.00  0.00     0.009 A 
ATOM     72  C   UNL A   1      35.909  32.573  30.603  1.00  0.00     0.009 A 
ATOM     73  C   UNL A   1      35.228  33.967  28.284  1.00  0.00     0.001 A 
ATOM     74  C   UNL A   1      34.624  33.100  30.455  1.00  0.00     0.001 A 
ATOM     75  C   UNL A   1      34.288  33.805  29.301  1.00  0.00     0.000 A 
ENDBRANCH  51  70
BRANCH  63  76
ATOM     76  C   UNL A   1      42.883  35.221  32.026  1.00  0.00    -0.014 A 
ATOM     77  C   UNL A   1      43.512  36.180  31.217  1.00  0.00     0.009 A 
ATOM     78  C   UNL A   1      42.600  35.541  33.363  1.00  0.00     0.009 A 
ATOM     79  C   UNL A   1      43.886  37.417  31.747  1.00  0.00     0.001 A 
ATOM     80  C   UNL A   1      42.945  36.790  33.881  1.00  0.00     0.001 A 
ATOM     81  C   UNL A   1      43.598  37.723  33.077  1.00  0.00     0.000 A 
ENDBRANCH  63  76
ENDBRANCH  37  38
ENDBRANCH  29  32
ENDBRANCH  27  28
ENDBRANCH  26  27
ENDBRANCH   1  26
TORSDOF 15
ENDMDL
MODEL 3
REMARK VINA RESULT:     -10.2      0.329      5.882
REMARK SMILES O=C(CCc1nc(-c2ccccc2)c(-c2ccccc2)o1)NCCCCNC(=O)c1ccc(-c2c3nc(c(-c4ccccc4)c4ccc([nH]4)c(-c4ccccc4)c4nc(c(-c5ccccc5)c5ccc2[nH]5)C=C4)C=C3)cc1
REMARK SMILES IDX 24 1 23 2 22 3 1 4 2 5 3 7 4 8 5 9 6 10 21 11 7 12 14 13
REMARK SMILES IDX 8 14 9 15 13 16 10 17 12 18 11 19 15 20 16 21 20 22 17 23
REMARK SMILES IDX 19 24 18 25 25 26 26 27 27 28 28 29 29 31 30 32 31 33 77 34
REMARK SMILES IDX 32 35 76 36 33 37 34 38 35 39 70 40 36 41 75 42 69 43 71 44
REMARK SMILES IDX 37 45 74 46 68 47 67 48 38 50 60 51 45 52 59 53 46 54 49 55
REMARK SMILES IDX 58 56 72 57 47 58 48 59 57 61 73 62 50 63 39 64 40 65 44 66
REMARK SMILES IDX 41 67 43 68 42 69 61 70 62 71 66 72 63 73 65 74 64 75 51 76
REMARK SMILES IDX 52 77 56 78 53 79 55 80 54 81
REMARK H PARENT 22 6 27 30 71 49 49 60
REMARK Flexibility Score: inf
ROOT
ATOM      1  C   UNL A   1      41.854  19.387  26.162  1.00  0.00     0.023 C 
ENDROOT
BRANCH   1   2
ATOM      2  C   UNL A   1      42.939  18.307  26.085  1.00  0.00     0.116 C 
BRANCH   2   3
ATOM      3  N   UNL A   1      44.291  18.839  26.061  1.00  0.00    -0.356 N 
ATOM      4  O   UNL A   1      44.474  18.930  23.771  1.00  0.00    -0.275 OA
ATOM      5  C   UNL A   1      44.954  19.116  24.883  1.00  0.00     0.220 C 
ATOM      6  H   UNL A   1      44.750  19.009  26.914  1.00  0.00     0.163 HD
BRANCH   5   7
ATOM      7  C   UNL A   1      46.352  19.681  25.055  1.00  0.00     0.110 C 
BRANCH   7   8
ATOM      8  C   UNL A   1      46.581  20.921  24.201  1.00  0.00     0.107 C 
BRANCH   8   9
ATOM      9  C   UNL A   1      46.052  22.152  24.845  1.00  0.00     0.196 A 
ATOM     10  N   UNL A   1      45.725  23.305  24.298  1.00  0.00    -0.213 NA
ATOM     11  O   UNL A   1      45.912  22.108  26.202  1.00  0.00    -0.440 OA
ATOM     12  C   UNL A   1      45.313  24.066  25.368  1.00  0.00     0.117 A 
ATOM     13  C   UNL A   1      45.422  23.342  26.541  1.00  0.00     0.162 A 
BRANCH  12  14
ATOM     14  C   UNL A   1      44.879  25.442  25.273  1.00  0.00     0.004 A 
ATOM     15  C   UNL A   1      45.784  26.488  25.495  1.00  0.00     0.010 A 
ATOM     16  C   UNL A   1      43.530  25.731  25.045  1.00  0.00     0.010 A 
ATOM     17  C   UNL A   1      45.333  27.809  25.531  1.00  0.00     0.001 A 
ATOM     18  C   UNL A   1      43.081  27.053  25.090  1.00  0.00     0.001 A 
ATOM     19  C   UNL A   1      43.980  28.089  25.342  1.00  0.00     0.000 A 
ENDBRANCH  12  14
BRANCH  13  20
ATOM     20  C   UNL A   1      45.206  23.581  27.960  1.00  0.00     0.020 A 
ATOM     21  C   UNL A   1      46.041  24.469  28.649  1.00  0.00     0.012 A 
ATOM     22  C   UNL A   1      44.144  22.993  28.657  1.00  0.00     0.012 A 
ATOM     23  C   UNL A   1      45.776  24.837  29.968  1.00  0.00     0.001 A 
ATOM     24  C   UNL A   1      43.895  23.332  29.992  1.00  0.00     0.001 A 
ATOM     25  C   UNL A   1      44.695  24.272  30.637  1.00  0.00     0.000 A 
ENDBRANCH  13  20
ENDBRANCH   8   9
ENDBRANCH   7   8
ENDBRANCH   5   7
ENDBRANCH   2   3
ENDBRANCH   1   2
BRANCH   1  26
ATOM     26  C   UNL A   1      42.128  20.578  27.090  1.00  0.00     0.023 C 
BRANCH  26  27
ATOM     27  C   UNL A   1      40.912  21.324  27.639  1.00  0.00     0.116 C 
BRANCH  27  28
ATOM     28  N   UNL A   1      39.795  21.429  26.722  1.00  0.00    -0.352 N 
ATOM     29  C   UNL A   1      39.068  22.525  26.303  1.00  0.00     0.251 C 
ATOM     30  H   UNL A   1      39.504  20.573  26.332  1.00  0.00     0.163 HD
ATOM     31  O   UNL A   1      38.141  22.328  25.517  1.00  0.00    -0.269 OA
BRANCH  29  32
ATOM     32  C   UNL A   1      39.318  23.923  26.777  1.00  0.00     0.039 A 
ATOM     33  C   UNL A   1      38.851  24.275  28.055  1.00  0.00     0.014 A 
ATOM     34  C   UNL A   1      39.952  24.908  26.018  1.00  0.00     0.014 A 
ATOM     35  C   UNL A   1      39.078  25.555  28.582  1.00  0.00     0.010 A 
ATOM     36  C   UNL A   1      40.200  26.181  26.545  1.00  0.00     0.010 A 
ATOM     37  C   UNL A   1      39.789  26.508  27.840  1.00  0.00    -0.014 A 
BRANCH  37  38
ATOM     38  C   UNL A   1      40.255  27.775  28.457  1.00  0.00     0.031 A 
ATOM     39  C   UNL A   1      39.341  28.945  28.666  1.00  0.00     0.074 A 
ATOM     40  C   UNL A   1      41.567  27.887  28.738  1.00  0.00     0.049 A 
ATOM     41  N   UNL A   1      39.607  30.105  29.216  1.00  0.00    -0.248 NA
ATOM     42  C   UNL A   1      37.960  28.807  28.185  1.00  0.00     0.031 C 
ATOM     43  C   UNL A   1      42.565  26.837  28.517  1.00  0.00     0.029 A 
ATOM     44  N   UNL A   1      42.290  28.932  29.251  1.00  0.00    -0.354 N 
ATOM     45  C   UNL A   1      38.424  30.831  29.165  1.00  0.00     0.074 A 
ATOM     46  C   UNL A   1      37.452  29.997  28.488  1.00  0.00     0.031 C 
ATOM     47  C   UNL A   1      43.769  27.291  28.895  1.00  0.00     0.029 A 
ATOM     48  C   UNL A   1      43.632  28.663  29.371  1.00  0.00     0.049 A 
ATOM     49  H   UNL A   1      41.888  29.793  29.509  1.00  0.00     0.167 HD
ATOM     50  C   UNL A   1      38.174  32.075  29.648  1.00  0.00     0.031 A 
ATOM     51  C   UNL A   1      44.642  29.430  29.820  1.00  0.00     0.031 A 
ATOM     52  C   UNL A   1      39.162  32.912  30.285  1.00  0.00     0.049 A 
ATOM     53  C   UNL A   1      44.342  30.811  30.327  1.00  0.00     0.074 A 
ATOM     54  C   UNL A   1      38.991  34.156  30.871  1.00  0.00     0.029 A 
ATOM     55  N   UNL A   1      40.509  32.603  30.399  1.00  0.00    -0.354 N 
ATOM     56  N   UNL A   1      43.191  31.435  30.391  1.00  0.00    -0.248 NA
ATOM     57  C   UNL A   1      45.478  31.582  30.850  1.00  0.00     0.031 C 
ATOM     58  C   UNL A   1      40.245  34.629  31.274  1.00  0.00     0.029 A 
ATOM     59  C   UNL A   1      41.187  33.650  31.006  1.00  0.00     0.049 A 
ATOM     60  H   UNL A   1      40.924  31.764  30.094  1.00  0.00     0.167 HD
ATOM     61  C   UNL A   1      43.457  32.658  30.993  1.00  0.00     0.074 A 
ATOM     62  C   UNL A   1      44.876  32.680  31.287  1.00  0.00     0.031 C 
ATOM     63  C   UNL A   1      42.602  33.668  31.282  1.00  0.00     0.031 A 
BRANCH  50  64
ATOM     64  C   UNL A   1      36.778  32.620  29.503  1.00  0.00    -0.014 A 
ATOM     65  C   UNL A   1      35.841  32.506  30.543  1.00  0.00     0.009 A 
ATOM     66  C   UNL A   1      36.417  33.332  28.347  1.00  0.00     0.009 A 
ATOM     67  C   UNL A   1      34.566  33.065  30.416  1.00  0.00     0.001 A 
ATOM     68  C   UNL A   1      35.152  33.914  28.234  1.00  0.00     0.001 A 
ATOM     69  C   UNL A   1      34.225  33.773  29.264  1.00  0.00     0.000 A 
ENDBRANCH  50  64
BRANCH  51  70
ATOM     70  C   UNL A   1      46.025  28.888  29.848  1.00  0.00    -0.014 A 
ATOM     71  C   UNL A   1      46.514  28.251  30.997  1.00  0.00     0.009 A 
ATOM     72  C   UNL A   1      46.857  28.994  28.723  1.00  0.00     0.009 A 
ATOM     73  C   UNL A   1      47.819  27.755  31.030  1.00  0.00     0.001 A 
ATOM     74  C   UNL A   1      48.151  28.468  28.748  1.00  0.00     0.001 A 
ATOM     75  C   UNL A   1      48.634  27.859  29.904  1.00  0.00     0.000 A 
ENDBRANCH  51  70
BRANCH  63  76
ATOM     76  C   UNL A   1      43.175  34.872  31.979  1.00  0.00    -0.014 A 
ATOM     77  C   UNL A   1      43.197  34.967  33.379  1.00  0.00     0.009 A 
ATOM     78  C   UNL A   1      43.720  35.919  31.219  1.00  0.00     0.009 A 
ATOM     79  C   UNL A   1      43.716  36.104  34.003  1.00  0.00     0.001 A 
ATOM     80  C   UNL A   1      44.268  37.040  31.845  1.00  0.00     0.001 A 
ATOM     81  C   UNL A   1      44.256  37.136  33.236  1.00  0.00     0.000 A 
ENDBRANCH  63  76
ENDBRANCH  37  38
ENDBRANCH  29  32
ENDBRANCH  27  28
ENDBRANCH  26  27
ENDBRANCH   1  26
TORSDOF 15
ENDMDL
