MODEL 1
REMARK VINA RESULT:     -12.8      0.000      0.000
REMARK SMILES O=C(NCCCCNC(=O)[C@H]1[C@H]2CC[C@H](CC2)[C@@H]1C(=O)Nc1ccc(Cc2ccncc2)cc1)c1ccc(-c2c3nc(c(-c4ccccc4)c4ccc([nH]4)c(-c4ccccc4)c4nc(c(-c5ccccc5)c5ccc2[nH]5)C=C4)C=C3)cc1
REMARK SMILES IDX 6 1 5 2 4 3 3 4 1 5 2 6 35 8 36 9 82 10 37 11 81 12 38 13
REMARK SMILES IDX 39 14 40 15 75 16 41 17 80 18 74 19 76 20 42 21 79 22 73 23
REMARK SMILES IDX 72 24 43 26 65 27 50 28 64 29 51 30 54 31 63 32 77 33 52 34
REMARK SMILES IDX 53 35 62 37 78 38 55 39 44 40 45 41 49 42 46 43 48 44 47 45
REMARK SMILES IDX 66 46 67 47 71 48 68 49 70 50 69 51 56 52 57 53 61 54 58 55
REMARK SMILES IDX 60 56 59 57 7 58 8 59 9 60 10 62 11 63 12 64 18 65 13 66
REMARK SMILES IDX 17 67 15 68 14 69 16 70 19 71 20 72 21 73 22 75 23 76 34 77
REMARK SMILES IDX 24 78 33 79 25 80 26 81 27 82 28 83 32 84 29 85 31 86 30 87
REMARK H PARENT 3 7 76 25 54 36 8 61 21 74
REMARK Flexibility Score: inf
ROOT
ATOM      1  C   UNL A   1      34.937  23.769  23.570  1.00  0.00     0.023 C 
ENDROOT
BRANCH   1   2
ATOM      2  C   UNL A   1      36.163  22.883  23.715  1.00  0.00     0.023 C 
BRANCH   2   3
ATOM      3  C   UNL A   1      36.586  22.610  25.150  1.00  0.00     0.116 C 
BRANCH   3   4
ATOM      4  N   UNL A   1      37.514  21.490  25.285  1.00  0.00    -0.352 N 
ATOM      5  O   UNL A   1      39.444  20.426  25.794  1.00  0.00    -0.269 OA
ATOM      6  C   UNL A   1      38.758  21.441  25.869  1.00  0.00     0.251 C 
ATOM      7  H   UNL A   1      37.200  20.640  24.899  1.00  0.00     0.163 HD
BRANCH   6   8
ATOM      8  C   UNL A   1      39.277  22.645  26.541  1.00  0.00     0.039 A 
ATOM      9  C   UNL A   1      38.750  23.894  26.221  1.00  0.00     0.014 A 
ATOM     10  C   UNL A   1      40.366  22.535  27.409  1.00  0.00     0.014 A 
ATOM     11  C   UNL A   1      39.462  25.032  26.563  1.00  0.00     0.010 A 
ATOM     12  C   UNL A   1      41.001  23.693  27.863  1.00  0.00     0.010 A 
ATOM     13  C   UNL A   1      40.597  24.949  27.387  1.00  0.00    -0.014 A 
BRANCH  13  14
ATOM     14  C   UNL A   1      41.321  26.200  27.730  1.00  0.00     0.031 A 
ATOM     15  C   UNL A   1      42.632  26.552  27.077  1.00  0.00     0.074 A 
ATOM     16  C   UNL A   1      40.740  27.064  28.584  1.00  0.00     0.049 A 
ATOM     17  N   UNL A   1      43.357  27.635  27.225  1.00  0.00    -0.248 NA
ATOM     18  C   UNL A   1      43.215  25.569  26.150  1.00  0.00     0.031 C 
ATOM     19  C   UNL A   1      39.467  26.837  29.275  1.00  0.00     0.029 A 
ATOM     20  N   UNL A   1      41.109  28.323  28.977  1.00  0.00    -0.354 N 
ATOM     21  C   UNL A   1      44.495  27.442  26.451  1.00  0.00     0.074 A 
ATOM     22  C   UNL A   1      44.372  26.138  25.837  1.00  0.00     0.031 C 
ATOM     23  C   UNL A   1      39.115  27.954  29.927  1.00  0.00     0.029 A 
ATOM     24  C   UNL A   1      40.175  28.941  29.772  1.00  0.00     0.049 A 
ATOM     25  H   UNL A   1      41.960  28.744  28.715  1.00  0.00     0.167 HD
ATOM     26  C   UNL A   1      45.548  28.277  26.268  1.00  0.00     0.031 A 
ATOM     27  C   UNL A   1      40.170  30.166  30.326  1.00  0.00     0.031 A 
ATOM     28  C   UNL A   1      45.654  29.588  26.853  1.00  0.00     0.049 A 
ATOM     29  C   UNL A   1      41.343  31.069  30.102  1.00  0.00     0.074 A 
ATOM     30  C   UNL A   1      46.666  30.521  26.701  1.00  0.00     0.029 A 
ATOM     31  N   UNL A   1      44.712  30.156  27.696  1.00  0.00    -0.354 N 
ATOM     32  N   UNL A   1      42.408  30.868  29.366  1.00  0.00    -0.248 NA
ATOM     33  C   UNL A   1      41.317  32.363  30.795  1.00  0.00     0.031 C 
ATOM     34  C   UNL A   1      46.355  31.637  27.486  1.00  0.00     0.029 A 
ATOM     35  C   UNL A   1      45.127  31.417  28.089  1.00  0.00     0.049 A 
ATOM     36  H   UNL A   1      43.872  29.725  27.975  1.00  0.00     0.167 HD
ATOM     37  C   UNL A   1      43.178  32.014  29.500  1.00  0.00     0.074 A 
ATOM     38  C   UNL A   1      42.443  32.914  30.367  1.00  0.00     0.031 C 
ATOM     39  C   UNL A   1      44.388  32.294  28.958  1.00  0.00     0.031 A 
BRANCH  26  40
ATOM     40  C   UNL A   1      46.694  27.781  25.430  1.00  0.00    -0.014 A 
ATOM     41  C   UNL A   1      46.749  28.015  24.047  1.00  0.00     0.009 A 
ATOM     42  C   UNL A   1      47.761  27.108  26.048  1.00  0.00     0.009 A 
ATOM     43  C   UNL A   1      47.836  27.558  23.297  1.00  0.00     0.001 A 
ATOM     44  C   UNL A   1      48.856  26.674  25.299  1.00  0.00     0.001 A 
ATOM     45  C   UNL A   1      48.889  26.892  23.923  1.00  0.00     0.000 A 
ENDBRANCH  26  40
BRANCH  27  46
ATOM     46  C   UNL A   1      39.013  30.594  31.152  1.00  0.00    -0.014 A 
ATOM     47  C   UNL A   1      37.926  31.258  30.565  1.00  0.00     0.009 A 
ATOM     48  C   UNL A   1      38.979  30.314  32.527  1.00  0.00     0.009 A 
ATOM     49  C   UNL A   1      36.832  31.643  31.342  1.00  0.00     0.001 A 
ATOM     50  C   UNL A   1      37.871  30.675  33.295  1.00  0.00     0.001 A 
ATOM     51  C   UNL A   1      36.802  31.345  32.703  1.00  0.00     0.000 A 
ENDBRANCH  27  46
BRANCH  39  52
ATOM     52  C   UNL A   1      44.972  33.639  29.276  1.00  0.00    -0.014 A 
ATOM     53  C   UNL A   1      44.698  34.757  28.474  1.00  0.00     0.009 A 
ATOM     54  C   UNL A   1      45.802  33.787  30.397  1.00  0.00     0.009 A 
ATOM     55  C   UNL A   1      45.277  35.992  28.768  1.00  0.00     0.001 A 
ATOM     56  C   UNL A   1      46.360  35.029  30.702  1.00  0.00     0.001 A 
ATOM     57  C   UNL A   1      46.105  36.127  29.882  1.00  0.00     0.000 A 
ENDBRANCH  39  52
ENDBRANCH  13  14
ENDBRANCH   6   8
ENDBRANCH   3   4
ENDBRANCH   2   3
ENDBRANCH   1   2
BRANCH   1  58
ATOM     58  C   UNL A   1      34.393  24.333  24.873  1.00  0.00     0.116 C 
BRANCH  58  59
ATOM     59  N   UNL A   1      34.480  25.773  24.971  1.00  0.00    -0.356 N 
ATOM     60  C   UNL A   1      33.561  26.754  25.144  1.00  0.00     0.224 C 
ATOM     61  H   UNL A   1      35.401  26.113  24.897  1.00  0.00     0.163 HD
ATOM     62  O   UNL A   1      34.035  27.882  25.334  1.00  0.00    -0.275 OA
BRANCH  60  63
ATOM     63  C   UNL A   1      32.042  26.605  24.994  1.00  0.00     0.094 C 
ATOM     64  C   UNL A   1      31.545  27.472  23.801  1.00  0.00     0.002 C 
ATOM     65  C   UNL A   1      31.401  25.189  24.943  1.00  0.00     0.094 C 
ATOM     66  C   UNL A   1      31.996  26.850  22.473  1.00  0.00     0.005 C 
ATOM     67  C   UNL A   1      29.999  27.503  23.819  1.00  0.00     0.005 C 
ATOM     68  C   UNL A   1      30.594  25.084  23.604  1.00  0.00     0.002 C 
ATOM     69  C   UNL A   1      31.449  25.430  22.365  1.00  0.00     0.005 C 
ATOM     70  C   UNL A   1      29.436  26.091  23.637  1.00  0.00     0.005 C 
BRANCH  65  71
ATOM     71  C   UNL A   1      30.577  24.886  26.220  1.00  0.00     0.228 C 
ATOM     72  O   UNL A   1      29.689  25.640  26.625  1.00  0.00    -0.274 OA
ATOM     73  N   UNL A   1      30.814  23.764  26.975  1.00  0.00    -0.326 N 
ATOM     74  H   UNL A   1      30.395  23.738  27.866  1.00  0.00     0.169 HD
BRANCH  73  75
ATOM     75  C   UNL A   1      31.583  22.656  26.618  1.00  0.00     0.041 A 
ATOM     76  C   UNL A   1      31.208  21.985  25.456  1.00  0.00     0.026 A 
ATOM     77  C   UNL A   1      32.750  22.300  27.295  1.00  0.00     0.026 A 
ATOM     78  C   UNL A   1      32.086  21.072  24.880  1.00  0.00     0.006 A 
ATOM     79  C   UNL A   1      33.602  21.336  26.744  1.00  0.00     0.006 A 
ATOM     80  C   UNL A   1      33.303  20.755  25.502  1.00  0.00    -0.043 A 
BRANCH  80  81
ATOM     81  C   UNL A   1      34.287  19.835  24.813  1.00  0.00     0.071 C 
BRANCH  81  82
ATOM     82  C   UNL A   1      33.856  18.392  24.760  1.00  0.00    -0.041 A 
ATOM     83  C   UNL A   1      32.935  17.877  25.679  1.00  0.00     0.024 A 
ATOM     84  C   UNL A   1      34.366  17.532  23.786  1.00  0.00     0.024 A 
ATOM     85  C   UNL A   1      32.586  16.539  25.600  1.00  0.00     0.111 A 
ATOM     86  C   UNL A   1      33.945  16.211  23.780  1.00  0.00     0.111 A 
ATOM     87  N   UNL A   1      33.069  15.694  24.668  1.00  0.00    -0.265 NA
ENDBRANCH  81  82
ENDBRANCH  80  81
ENDBRANCH  73  75
ENDBRANCH  65  71
ENDBRANCH  60  63
ENDBRANCH  58  59
ENDBRANCH   1  58
TORSDOF 15
ENDMDL
MODEL 2
REMARK VINA RESULT:     -12.5      2.340      2.952
REMARK SMILES O=C(NCCCCNC(=O)[C@H]1[C@H]2CC[C@H](CC2)[C@@H]1C(=O)Nc1ccc(Cc2ccncc2)cc1)c1ccc(-c2c3nc(c(-c4ccccc4)c4ccc([nH]4)c(-c4ccccc4)c4nc(c(-c5ccccc5)c5ccc2[nH]5)C=C4)C=C3)cc1
REMARK SMILES IDX 6 1 5 2 4 3 3 4 1 5 2 6 35 8 36 9 82 10 37 11 81 12 38 13
REMARK SMILES IDX 39 14 40 15 75 16 41 17 80 18 74 19 76 20 42 21 79 22 73 23
REMARK SMILES IDX 72 24 43 26 65 27 50 28 64 29 51 30 54 31 63 32 77 33 52 34
REMARK SMILES IDX 53 35 62 37 78 38 55 39 44 40 45 41 49 42 46 43 48 44 47 45
REMARK SMILES IDX 66 46 67 47 71 48 68 49 70 50 69 51 56 52 57 53 61 54 58 55
REMARK SMILES IDX 60 56 59 57 7 58 8 59 9 60 10 62 11 63 12 64 18 65 13 66
REMARK SMILES IDX 17 67 15 68 14 69 16 70 19 71 20 72 21 73 22 75 23 76 34 77
REMARK SMILES IDX 24 78 33 79 25 80 26 81 27 82 28 83 32 84 29 85 31 86 30 87
REMARK H PARENT 3 7 76 25 54 36 8 61 21 74
REMARK Flexibility Score: inf
ROOT
ATOM      1  C   UNL A   1      37.296  22.558  23.949  1.00  0.00     0.023 C 
ENDROOT
BRANCH   1   2
ATOM      2  C   UNL A   1      37.406  21.214  24.650  1.00  0.00     0.023 C 
BRANCH   2   3
ATOM      3  C   UNL A   1      38.459  21.153  25.746  1.00  0.00     0.116 C 
BRANCH   3   4
ATOM      4  N   UNL A   1      39.347  19.997  25.641  1.00  0.00    -0.352 N 
ATOM      5  O   UNL A   1      41.294  18.846  25.698  1.00  0.00    -0.269 OA
ATOM      6  C   UNL A   1      40.681  19.879  25.953  1.00  0.00     0.251 C 
ATOM      7  H   UNL A   1      38.925  19.177  25.294  1.00  0.00     0.163 HD
BRANCH   6   8
ATOM      8  C   UNL A   1      41.377  21.031  26.552  1.00  0.00     0.039 A 
ATOM      9  C   UNL A   1      41.376  21.194  27.935  1.00  0.00     0.014 A 
ATOM     10  C   UNL A   1      41.935  22.007  25.722  1.00  0.00     0.014 A 
ATOM     11  C   UNL A   1      41.698  22.432  28.467  1.00  0.00     0.010 A 
ATOM     12  C   UNL A   1      42.386  23.205  26.280  1.00  0.00     0.010 A 
ATOM     13  C   UNL A   1      42.206  23.455  27.649  1.00  0.00    -0.014 A 
BRANCH  13  14
ATOM     14  C   UNL A   1      42.544  24.762  28.269  1.00  0.00     0.031 A 
ATOM     15  C   UNL A   1      43.968  25.136  28.586  1.00  0.00     0.074 A 
ATOM     16  C   UNL A   1      41.553  25.651  28.470  1.00  0.00     0.049 A 
ATOM     17  N   UNL A   1      44.431  26.262  29.073  1.00  0.00    -0.248 NA
ATOM     18  C   UNL A   1      45.007  24.123  28.340  1.00  0.00     0.031 C 
ATOM     19  C   UNL A   1      40.133  25.407  28.195  1.00  0.00     0.029 A 
ATOM     20  N   UNL A   1      41.586  26.952  28.899  1.00  0.00    -0.354 N 
ATOM     21  C   UNL A   1      45.799  26.076  29.233  1.00  0.00     0.074 A 
ATOM     22  C   UNL A   1      46.095  24.728  28.799  1.00  0.00     0.031 C 
ATOM     23  C   UNL A   1      39.449  26.546  28.369  1.00  0.00     0.029 A 
ATOM     24  C   UNL A   1      40.363  27.573  28.849  1.00  0.00     0.049 A 
ATOM     25  H   UNL A   1      42.407  27.398  29.212  1.00  0.00     0.167 HD
ATOM     26  C   UNL A   1      46.725  26.949  29.701  1.00  0.00     0.031 A 
ATOM     27  C   UNL A   1      40.007  28.832  29.163  1.00  0.00     0.031 A 
ATOM     28  C   UNL A   1      46.435  28.301  30.102  1.00  0.00     0.049 A 
ATOM     29  C   UNL A   1      41.052  29.777  29.671  1.00  0.00     0.074 A 
ATOM     30  C   UNL A   1      47.310  29.272  30.558  1.00  0.00     0.029 A 
ATOM     31  N   UNL A   1      45.174  28.876  30.088  1.00  0.00    -0.354 N 
ATOM     32  N   UNL A   1      42.340  29.581  29.814  1.00  0.00    -0.248 NA
ATOM     33  C   UNL A   1      40.591  31.112  30.070  1.00  0.00     0.031 C 
ATOM     34  C   UNL A   1      46.571  30.422  30.859  1.00  0.00     0.029 A 
ATOM     35  C   UNL A   1      45.243  30.181  30.545  1.00  0.00     0.049 A 
ATOM     36  H   UNL A   1      44.350  28.422  29.796  1.00  0.00     0.167 HD
ATOM     37  C   UNL A   1      42.846  30.772  30.313  1.00  0.00     0.074 A 
ATOM     38  C   UNL A   1      41.730  31.690  30.422  1.00  0.00     0.031 C 
ATOM     39  C   UNL A   1      44.121  31.076  30.656  1.00  0.00     0.031 A 
BRANCH  26  40
ATOM     40  C   UNL A   1      48.139  26.457  29.843  1.00  0.00    -0.014 A 
ATOM     41  C   UNL A   1      49.090  26.646  28.829  1.00  0.00     0.009 A 
ATOM     42  C   UNL A   1      48.535  25.833  31.038  1.00  0.00     0.009 A 
ATOM     43  C   UNL A   1      50.402  26.194  28.997  1.00  0.00     0.001 A 
ATOM     44  C   UNL A   1      49.853  25.404  31.212  1.00  0.00     0.001 A 
ATOM     45  C   UNL A   1      50.782  25.578  30.189  1.00  0.00     0.000 A 
ENDBRANCH  26  40
BRANCH  27  46
ATOM     46  C   UNL A   1      38.593  29.256  29.009  1.00  0.00    -0.014 A 
ATOM     47  C   UNL A   1      37.716  29.219  30.103  1.00  0.00     0.009 A 
ATOM     48  C   UNL A   1      38.122  29.727  27.774  1.00  0.00     0.009 A 
ATOM     49  C   UNL A   1      36.391  29.635  29.959  1.00  0.00     0.001 A 
ATOM     50  C   UNL A   1      36.806  30.169  27.640  1.00  0.00     0.001 A 
ATOM     51  C   UNL A   1      35.940  30.117  28.731  1.00  0.00     0.000 A 
ENDBRANCH  27  46
BRANCH  39  52
ATOM     52  C   UNL A   1      44.369  32.467  31.159  1.00  0.00    -0.014 A 
ATOM     53  C   UNL A   1      44.680  33.513  30.277  1.00  0.00     0.009 A 
ATOM     54  C   UNL A   1      44.282  32.734  32.534  1.00  0.00     0.009 A 
ATOM     55  C   UNL A   1      44.938  34.794  30.767  1.00  0.00     0.001 A 
ATOM     56  C   UNL A   1      44.517  34.021  33.017  1.00  0.00     0.001 A 
ATOM     57  C   UNL A   1      44.855  35.047  32.136  1.00  0.00     0.000 A 
ENDBRANCH  39  52
ENDBRANCH  13  14
ENDBRANCH   6   8
ENDBRANCH   3   4
ENDBRANCH   2   3
ENDBRANCH   1   2
BRANCH   1  58
ATOM     58  C   UNL A   1      36.098  23.400  24.357  1.00  0.00     0.116 C 
BRANCH  58  59
ATOM     59  N   UNL A   1      34.909  23.150  23.573  1.00  0.00    -0.356 N 
ATOM     60  C   UNL A   1      33.768  23.849  23.360  1.00  0.00     0.224 C 
ATOM     61  H   UNL A   1      34.935  22.292  23.091  1.00  0.00     0.163 HD
ATOM     62  O   UNL A   1      33.025  23.377  22.488  1.00  0.00    -0.275 OA
BRANCH  60  63
ATOM     63  C   UNL A   1      33.280  25.053  24.174  1.00  0.00     0.094 C 
ATOM     64  C   UNL A   1      33.524  26.364  23.370  1.00  0.00     0.002 C 
ATOM     65  C   UNL A   1      31.850  25.049  24.788  1.00  0.00     0.094 C 
ATOM     66  C   UNL A   1      32.553  26.444  22.185  1.00  0.00     0.005 C 
ATOM     67  C   UNL A   1      33.256  27.572  24.297  1.00  0.00     0.005 C 
ATOM     68  C   UNL A   1      31.098  26.310  24.242  1.00  0.00     0.002 C 
ATOM     69  C   UNL A   1      31.117  26.393  22.699  1.00  0.00     0.005 C 
ATOM     70  C   UNL A   1      31.797  27.574  24.761  1.00  0.00     0.005 C 
BRANCH  65  71
ATOM     71  C   UNL A   1      31.890  24.938  26.333  1.00  0.00     0.228 C 
ATOM     72  O   UNL A   1      31.584  25.879  27.069  1.00  0.00    -0.274 OA
ATOM     73  N   UNL A   1      32.291  23.783  26.957  1.00  0.00    -0.326 N 
ATOM     74  H   UNL A   1      32.480  23.848  27.921  1.00  0.00     0.169 HD
BRANCH  73  75
ATOM     75  C   UNL A   1      32.461  22.526  26.375  1.00  0.00     0.041 A 
ATOM     76  C   UNL A   1      31.463  22.105  25.500  1.00  0.00     0.026 A 
ATOM     77  C   UNL A   1      33.624  21.773  26.537  1.00  0.00     0.026 A 
ATOM     78  C   UNL A   1      31.700  21.018  24.665  1.00  0.00     0.006 A 
ATOM     79  C   UNL A   1      33.833  20.644  25.736  1.00  0.00     0.006 A 
ATOM     80  C   UNL A   1      32.896  20.290  24.754  1.00  0.00    -0.043 A 
BRANCH  80  81
ATOM     81  C   UNL A   1      33.177  19.174  23.773  1.00  0.00     0.071 C 
BRANCH  81  82
ATOM     82  C   UNL A   1      33.446  17.837  24.413  1.00  0.00    -0.041 A 
ATOM     83  C   UNL A   1      34.703  17.228  24.317  1.00  0.00     0.024 A 
ATOM     84  C   UNL A   1      32.445  17.171  25.122  1.00  0.00     0.024 A 
ATOM     85  C   UNL A   1      34.895  15.989  24.907  1.00  0.00     0.111 A 
ATOM     86  C   UNL A   1      32.738  15.940  25.689  1.00  0.00     0.111 A 
ATOM     87  N   UNL A   1      33.939  15.332  25.594  1.00  0.00    -0.265 NA
ENDBRANCH  81  82
ENDBRANCH  80  81
ENDBRANCH  73  75
ENDBRANCH  65  71
ENDBRANCH  60  63
ENDBRANCH  58  59
ENDBRANCH   1  58
TORSDOF 15
ENDMDL
MODEL 3
REMARK VINA RESULT:     -12.5      2.921      7.204
REMARK SMILES O=C(NCCCCNC(=O)[C@H]1[C@H]2CC[C@H](CC2)[C@@H]1C(=O)Nc1ccc(Cc2ccncc2)cc1)c1ccc(-c2c3nc(c(-c4ccccc4)c4ccc([nH]4)c(-c4ccccc4)c4nc(c(-c5ccccc5)c5ccc2[nH]5)C=C4)C=C3)cc1
REMARK SMILES IDX 6 1 5 2 4 3 3 4 1 5 2 6 35 8 36 9 82 10 37 11 81 12 38 13
REMARK SMILES IDX 39 14 40 15 75 16 41 17 80 18 74 19 76 20 42 21 79 22 73 23
REMARK SMILES IDX 72 24 43 26 65 27 50 28 64 29 51 30 54 31 63 32 77 33 52 34
REMARK SMILES IDX 53 35 62 37 78 38 55 39 44 40 45 41 49 42 46 43 48 44 47 45
REMARK SMILES IDX 66 46 67 47 71 48 68 49 70 50 69 51 56 52 57 53 61 54 58 55
REMARK SMILES IDX 60 56 59 57 7 58 8 59 9 60 10 62 11 63 12 64 18 65 13 66
REMARK SMILES IDX 17 67 15 68 14 69 16 70 19 71 20 72 21 73 22 75 23 76 34 77
REMARK SMILES IDX 24 78 33 79 25 80 26 81 27 82 28 83 32 84 29 85 31 86 30 87
REMARK H PARENT 3 7 76 25 54 36 8 61 21 74
REMARK Flexibility Score: inf
ROOT
ATOM      1  C   UNL A   1      32.950  27.350  25.527  1.00  0.00     0.023 C 
ENDROOT
BRANCH   1   2
ATOM      2  C   UNL A   1      33.595  28.637  26.014  1.00  0.00     0.023 C 
BRANCH   2   3
ATOM      3  C   UNL A   1      33.431  28.906  27.502  1.00  0.00     0.116 C 
BRANCH   3   4
ATOM      4  N   UNL A   1      33.653  30.303  27.872  1.00  0.00    -0.352 N 
ATOM      5  O   UNL A   1      34.764  32.097  28.685  1.00  0.00    -0.269 OA
ATOM      6  C   UNL A   1      34.794  30.926  28.321  1.00  0.00     0.251 C 
ATOM      7  H   UNL A   1      32.865  30.887  27.786  1.00  0.00     0.163 HD
BRANCH   6   8
ATOM      8  C   UNL A   1      36.043  30.148  28.405  1.00  0.00     0.039 A 
ATOM      9  C   UNL A   1      36.377  29.508  29.597  1.00  0.00     0.014 A 
ATOM     10  C   UNL A   1      36.932  30.153  27.328  1.00  0.00     0.014 A 
ATOM     11  C   UNL A   1      37.685  29.098  29.796  1.00  0.00     0.010 A 
ATOM     12  C   UNL A   1      38.210  29.613  27.490  1.00  0.00     0.010 A 
ATOM     13  C   UNL A   1      38.620  29.145  28.747  1.00  0.00    -0.014 A 
BRANCH  13  14
ATOM     14  C   UNL A   1      40.008  28.686  29.010  1.00  0.00     0.031 A 
ATOM     15  C   UNL A   1      40.488  27.333  28.552  1.00  0.00     0.074 A 
ATOM     16  C   UNL A   1      40.866  29.541  29.599  1.00  0.00     0.049 A 
ATOM     17  N   UNL A   1      41.686  26.811  28.652  1.00  0.00    -0.248 NA
ATOM     18  C   UNL A   1      39.505  26.446  27.911  1.00  0.00     0.031 C 
ATOM     19  C   UNL A   1      40.520  30.882  30.081  1.00  0.00     0.029 A 
ATOM     20  N   UNL A   1      42.209  29.438  29.846  1.00  0.00    -0.354 N 
ATOM     21  C   UNL A   1      41.589  25.526  28.133  1.00  0.00     0.074 A 
ATOM     22  C   UNL A   1      40.214  25.341  27.722  1.00  0.00     0.031 C 
ATOM     23  C   UNL A   1      41.637  31.510  30.474  1.00  0.00     0.029 A 
ATOM     24  C   UNL A   1      42.759  30.589  30.355  1.00  0.00     0.049 A 
ATOM     25  H   UNL A   1      42.730  28.619  29.676  1.00  0.00     0.167 HD
ATOM     26  C   UNL A   1      42.557  24.585  28.009  1.00  0.00     0.031 A 
ATOM     27  C   UNL A   1      44.027  30.876  30.698  1.00  0.00     0.031 A 
ATOM     28  C   UNL A   1      43.932  24.782  28.388  1.00  0.00     0.049 A 
ATOM     29  C   UNL A   1      45.078  29.819  30.544  1.00  0.00     0.074 A 
ATOM     30  C   UNL A   1      44.994  23.901  28.271  1.00  0.00     0.029 A 
ATOM     31  N   UNL A   1      44.438  25.944  28.949  1.00  0.00    -0.354 N 
ATOM     32  N   UNL A   1      44.964  28.611  30.050  1.00  0.00    -0.248 NA
ATOM     33  C   UNL A   1      46.427  30.164  31.007  1.00  0.00     0.031 C 
ATOM     34  C   UNL A   1      46.134  24.516  28.801  1.00  0.00     0.029 A 
ATOM     35  C   UNL A   1      45.792  25.796  29.204  1.00  0.00     0.049 A 
ATOM     36  H   UNL A   1      43.913  26.754  29.140  1.00  0.00     0.167 HD
ATOM     37  C   UNL A   1      46.231  28.052  30.134  1.00  0.00     0.074 A 
ATOM     38  C   UNL A   1      47.100  29.063  30.703  1.00  0.00     0.031 C 
ATOM     39  C   UNL A   1      46.637  26.810  29.778  1.00  0.00     0.031 A 
BRANCH  26  40
ATOM     40  C   UNL A   1      42.157  23.237  27.477  1.00  0.00    -0.014 A 
ATOM     41  C   UNL A   1      42.430  22.857  26.154  1.00  0.00     0.009 A 
ATOM     42  C   UNL A   1      41.535  22.314  28.333  1.00  0.00     0.009 A 
ATOM     43  C   UNL A   1      42.062  21.590  25.692  1.00  0.00     0.001 A 
ATOM     44  C   UNL A   1      41.190  21.040  27.875  1.00  0.00     0.001 A 
ATOM     45  C   UNL A   1      41.446  20.683  26.553  1.00  0.00     0.000 A 
ENDBRANCH  26  40
BRANCH  27  46
ATOM     46  C   UNL A   1      44.359  32.222  31.226  1.00  0.00    -0.014 A 
ATOM     47  C   UNL A   1      44.306  32.479  32.604  1.00  0.00     0.009 A 
ATOM     48  C   UNL A   1      44.759  33.249  30.357  1.00  0.00     0.009 A 
ATOM     49  C   UNL A   1      44.636  33.742  33.099  1.00  0.00     0.001 A 
ATOM     50  C   UNL A   1      45.116  34.502  30.857  1.00  0.00     0.001 A 
ATOM     51  C   UNL A   1      45.047  34.749  32.227  1.00  0.00     0.000 A 
ENDBRANCH  27  46
BRANCH  39  52
ATOM     52  C   UNL A   1      48.090  26.494  29.976  1.00  0.00    -0.014 A 
ATOM     53  C   UNL A   1      48.549  25.912  31.168  1.00  0.00     0.009 A 
ATOM     54  C   UNL A   1      49.008  26.778  28.955  1.00  0.00     0.009 A 
ATOM     55  C   UNL A   1      49.909  25.656  31.346  1.00  0.00     0.001 A 
ATOM     56  C   UNL A   1      50.364  26.498  29.128  1.00  0.00     0.001 A 
ATOM     57  C   UNL A   1      50.815  25.947  30.326  1.00  0.00     0.000 A 
ENDBRANCH  39  52
ENDBRANCH  13  14
ENDBRANCH   6   8
ENDBRANCH   3   4
ENDBRANCH   2   3
ENDBRANCH   1   2
BRANCH   1  58
ATOM     58  C   UNL A   1      33.908  26.187  25.322  1.00  0.00     0.116 C 
BRANCH  58  59
ATOM     59  N   UNL A   1      34.016  25.751  23.948  1.00  0.00    -0.356 N 
ATOM     60  C   UNL A   1      34.141  24.535  23.362  1.00  0.00     0.224 C 
ATOM     61  H   UNL A   1      33.995  26.492  23.302  1.00  0.00     0.163 HD
ATOM     62  O   UNL A   1      34.050  24.542  22.126  1.00  0.00    -0.275 OA
BRANCH  60  63
ATOM     63  C   UNL A   1      34.504  23.224  24.070  1.00  0.00     0.094 C 
ATOM     64  C   UNL A   1      36.020  22.926  23.878  1.00  0.00     0.002 C 
ATOM     65  C   UNL A   1      34.088  22.999  25.552  1.00  0.00     0.094 C 
ATOM     66  C   UNL A   1      36.858  23.907  24.707  1.00  0.00     0.005 C 
ATOM     67  C   UNL A   1      36.312  21.494  24.382  1.00  0.00     0.005 C 
ATOM     68  C   UNL A   1      35.391  22.701  26.368  1.00  0.00     0.002 C 
ATOM     69  C   UNL A   1      36.474  23.788  26.179  1.00  0.00     0.005 C 
ATOM     70  C   UNL A   1      36.000  21.381  25.876  1.00  0.00     0.005 C 
BRANCH  65  71
ATOM     71  C   UNL A   1      32.984  21.919  25.680  1.00  0.00     0.228 C 
ATOM     72  O   UNL A   1      33.219  20.782  26.095  1.00  0.00    -0.274 OA
ATOM     73  N   UNL A   1      31.685  22.177  25.314  1.00  0.00    -0.326 N 
ATOM     74  H   UNL A   1      31.089  21.398  25.236  1.00  0.00     0.169 HD
BRANCH  73  75
ATOM     75  C   UNL A   1      31.119  23.423  25.042  1.00  0.00     0.041 A 
ATOM     76  C   UNL A   1      30.817  23.692  23.709  1.00  0.00     0.026 A 
ATOM     77  C   UNL A   1      30.740  24.313  26.047  1.00  0.00     0.026 A 
ATOM     78  C   UNL A   1      29.991  24.768  23.399  1.00  0.00     0.006 A 
ATOM     79  C   UNL A   1      29.959  25.429  25.723  1.00  0.00     0.006 A 
ATOM     80  C   UNL A   1      29.532  25.634  24.403  1.00  0.00    -0.043 A 
BRANCH  80  81
ATOM     81  C   UNL A   1      28.557  26.739  24.060  1.00  0.00     0.071 C 
BRANCH  81  82
ATOM     82  C   UNL A   1      29.149  27.859  23.245  1.00  0.00    -0.041 A 
ATOM     83  C   UNL A   1      28.339  28.852  22.682  1.00  0.00     0.024 A 
ATOM     84  C   UNL A   1      30.527  27.936  23.034  1.00  0.00     0.024 A 
ATOM     85  C   UNL A   1      28.930  29.851  21.925  1.00  0.00     0.111 A 
ATOM     86  C   UNL A   1      31.026  28.983  22.273  1.00  0.00     0.111 A 
ATOM     87  N   UNL A   1      30.258  29.939  21.711  1.00  0.00    -0.265 NA
ENDBRANCH  81  82
ENDBRANCH  80  81
ENDBRANCH  73  75
ENDBRANCH  65  71
ENDBRANCH  60  63
ENDBRANCH  58  59
ENDBRANCH   1  58
TORSDOF 15
ENDMDL
