MODEL 1
REMARK VINA RESULT:     -11.9      0.000      0.000
REMARK SMILES CC[C@H](C)[C@H](NC(=O)[C@H](C)Oc1ccc2c(C)c(C)c(=O)oc2c1C)C(=O)NCCCCNC(=O)c1ccc(-c2c3nc(c(-c4ccccc4)c4ccc([nH]4)c(-c4ccccc4)c4nc(c(-c5ccccc5)c5ccc2[nH]5)C=C4)C=C3)cc1
REMARK SMILES IDX 29 1 28 2 26 3 27 4 5 6 3 7 4 8 2 9 1 10 6 11 7 12 8 14 9 15
REMARK SMILES IDX 10 16 11 17 12 18 13 19 24 20 14 21 23 22 25 23 15 24 22 25
REMARK SMILES IDX 16 26 20 27 17 28 18 29 21 30 19 31 30 32 31 33 32 34 33 35
REMARK SMILES IDX 34 36 35 38 36 39 37 40 83 41 38 42 82 43 39 44 40 45 41 46
REMARK SMILES IDX 76 47 42 48 81 49 75 50 77 51 43 52 80 53 74 54 73 55 44 57
REMARK SMILES IDX 66 58 51 59 65 60 52 61 55 62 64 63 78 64 53 65 54 66 63 68
REMARK SMILES IDX 79 69 56 70 45 71 46 72 50 73 47 74 49 75 48 76 67 77 68 78
REMARK SMILES IDX 72 79 69 80 71 81 70 82 57 83 58 84 62 85 59 86 61 87 60 88
REMARK H PARENT 28 5 6 13 33 37 77 56 55 67
REMARK Flexibility Score: inf
ROOT
ATOM      1  C   UNL A   1      31.864  26.620  26.499  1.00  0.00     0.116 C 
ENDROOT
BRANCH   1   2
ATOM      2  N   UNL A   1      30.748  26.141  25.706  1.00  0.00    -0.354 N 
ATOM      3  C   UNL A   1      30.096  26.621  24.618  1.00  0.00     0.242 C 
ATOM      4  O   UNL A   1      29.010  26.064  24.391  1.00  0.00    -0.273 OA
ATOM      5  H   UNL A   1      30.387  25.282  26.026  1.00  0.00     0.163 HD
BRANCH   3   6
ATOM      6  C   UNL A   1      30.531  27.823  23.713  1.00  0.00     0.174 C 
BRANCH   6   7
ATOM      7  C   UNL A   1      29.580  28.467  22.661  1.00  0.00     0.018 C 
ATOM      8  C   UNL A   1      28.163  28.746  23.126  1.00  0.00     0.010 C 
BRANCH   7   9
ATOM      9  C   UNL A   1      30.192  29.715  21.990  1.00  0.00     0.002 C 
ATOM     10  C   UNL A   1      29.122  30.678  21.480  1.00  0.00     0.004 C 
ENDBRANCH   7   9
ENDBRANCH   6   7
BRANCH   6  11
ATOM     11  N   UNL A   1      31.965  28.087  23.435  1.00  0.00    -0.341 N 
ATOM     12  C   UNL A   1      32.981  27.416  22.827  1.00  0.00     0.261 C 
ATOM     13  H   UNL A   1      32.252  28.965  23.775  1.00  0.00     0.164 HD
ATOM     14  O   UNL A   1      34.003  28.052  22.558  1.00  0.00    -0.271 OA
BRANCH  12  15
ATOM     15  C   UNL A   1      32.886  25.918  22.578  1.00  0.00     0.258 C 
ATOM     16  C   UNL A   1      31.816  25.649  21.530  1.00  0.00     0.064 C 
BRANCH  15  17
ATOM     17  O   UNL A   1      32.915  25.250  23.836  1.00  0.00    -0.480 OA
BRANCH  17  18
ATOM     18  C   UNL A   1      33.585  24.133  24.226  1.00  0.00     0.127 A 
ATOM     19  C   UNL A   1      34.963  23.953  24.253  1.00  0.00     0.047 A 
ATOM     20  C   UNL A   1      32.770  23.027  24.544  1.00  0.00     0.035 A 
ATOM     21  C   UNL A   1      35.532  22.697  24.526  1.00  0.00     0.016 A 
ATOM     22  C   UNL A   1      33.361  21.760  24.706  1.00  0.00     0.145 A 
ATOM     23  C   UNL A   1      31.277  23.157  24.658  1.00  0.00     0.052 C 
ATOM     24  C   UNL A   1      34.735  21.564  24.703  1.00  0.00     0.021 A 
ATOM     25  O   UNL A   1      32.490  20.657  24.785  1.00  0.00    -0.422 OA
ATOM     26  C   UNL A   1      35.266  20.193  24.787  1.00  0.00    -0.030 A 
ATOM     27  C   UNL A   1      32.942  19.373  24.557  1.00  0.00     0.339 A 
ATOM     28  C   UNL A   1      36.746  20.021  25.001  1.00  0.00     0.045 C 
ATOM     29  C   UNL A   1      34.413  19.159  24.626  1.00  0.00     0.038 A 
ATOM     30  O   UNL A   1      32.153  18.455  24.357  1.00  0.00    -0.246 OA
ATOM     31  C   UNL A   1      34.858  17.731  24.478  1.00  0.00     0.052 C 
ENDBRANCH  17  18
ENDBRANCH  15  17
ENDBRANCH  12  15
ENDBRANCH   6  11
ENDBRANCH   3   6
ENDBRANCH   1   2
BRANCH   1  32
ATOM     32  C   UNL A   1      31.570  28.000  27.106  1.00  0.00     0.023 C 
BRANCH  32  33
ATOM     33  C   UNL A   1      32.687  28.648  27.894  1.00  0.00     0.023 C 
BRANCH  33  34
ATOM     34  C   UNL A   1      33.402  29.765  27.155  1.00  0.00     0.116 C 
BRANCH  34  35
ATOM     35  N   UNL A   1      33.666  30.958  27.957  1.00  0.00    -0.352 N 
ATOM     36  C   UNL A   1      34.813  31.299  28.644  1.00  0.00     0.251 C 
ATOM     37  H   UNL A   1      32.925  31.604  28.017  1.00  0.00     0.163 HD
ATOM     38  O   UNL A   1      34.886  32.325  29.309  1.00  0.00    -0.269 OA
BRANCH  36  39
ATOM     39  C   UNL A   1      35.938  30.347  28.615  1.00  0.00     0.039 A 
ATOM     40  C   UNL A   1      36.761  30.316  27.489  1.00  0.00     0.014 A 
ATOM     41  C   UNL A   1      36.288  29.674  29.784  1.00  0.00     0.014 A 
ATOM     42  C   UNL A   1      38.020  29.725  27.585  1.00  0.00     0.010 A 
ATOM     43  C   UNL A   1      37.584  29.201  29.913  1.00  0.00     0.010 A 
ATOM     44  C   UNL A   1      38.470  29.237  28.821  1.00  0.00    -0.014 A 
BRANCH  44  45
ATOM     45  C   UNL A   1      39.850  28.739  29.025  1.00  0.00     0.031 A 
ATOM     46  C   UNL A   1      40.879  29.675  29.590  1.00  0.00     0.074 A 
ATOM     47  C   UNL A   1      40.212  27.507  28.611  1.00  0.00     0.049 A 
ATOM     48  N   UNL A   1      42.179  29.549  29.631  1.00  0.00    -0.248 NA
ATOM     49  C   UNL A   1      40.375  30.950  30.130  1.00  0.00     0.031 C 
ATOM     50  C   UNL A   1      39.321  26.503  28.024  1.00  0.00     0.029 A 
ATOM     51  N   UNL A   1      41.440  26.895  28.620  1.00  0.00    -0.354 N 
ATOM     52  C   UNL A   1      42.647  30.746  30.155  1.00  0.00     0.074 A 
ATOM     53  C   UNL A   1      41.501  31.603  30.363  1.00  0.00     0.031 C 
ATOM     54  C   UNL A   1      40.023  25.385  27.776  1.00  0.00     0.029 A 
ATOM     55  C   UNL A   1      41.419  25.609  28.136  1.00  0.00     0.049 A 
ATOM     56  H   UNL A   1      42.259  27.334  28.943  1.00  0.00     0.167 HD
ATOM     57  C   UNL A   1      43.916  31.095  30.466  1.00  0.00     0.031 A 
ATOM     58  C   UNL A   1      42.414  24.713  27.997  1.00  0.00     0.031 A 
ATOM     59  C   UNL A   1      45.046  30.225  30.312  1.00  0.00     0.049 A 
ATOM     60  C   UNL A   1      43.813  25.101  28.383  1.00  0.00     0.074 A 
ATOM     61  C   UNL A   1      46.373  30.474  30.609  1.00  0.00     0.029 A 
ATOM     62  N   UNL A   1      44.970  28.920  29.849  1.00  0.00    -0.354 N 
ATOM     63  N   UNL A   1      44.251  26.253  28.832  1.00  0.00    -0.248 NA
ATOM     64  C   UNL A   1      44.852  24.071  28.245  1.00  0.00     0.031 C 
ATOM     65  C   UNL A   1      47.104  29.317  30.322  1.00  0.00     0.029 A 
ATOM     66  C   UNL A   1      46.225  28.341  29.878  1.00  0.00     0.049 A 
ATOM     67  H   UNL A   1      44.148  28.474  29.545  1.00  0.00     0.167 HD
ATOM     68  C   UNL A   1      45.609  26.081  29.053  1.00  0.00     0.074 A 
ATOM     69  C   UNL A   1      45.925  24.714  28.689  1.00  0.00     0.031 C 
ATOM     70  C   UNL A   1      46.512  26.975  29.522  1.00  0.00     0.031 A 
BRANCH  57  71
ATOM     71  C   UNL A   1      44.123  32.470  31.027  1.00  0.00    -0.014 A 
ATOM     72  C   UNL A   1      44.055  32.698  32.412  1.00  0.00     0.009 A 
ATOM     73  C   UNL A   1      44.375  33.550  30.169  1.00  0.00     0.009 A 
ATOM     74  C   UNL A   1      44.193  33.989  32.922  1.00  0.00     0.001 A 
ATOM     75  C   UNL A   1      44.541  34.836  30.686  1.00  0.00     0.001 A 
ATOM     76  C   UNL A   1      44.439  35.055  32.060  1.00  0.00     0.000 A 
ENDBRANCH  57  71
BRANCH  58  77
ATOM     77  C   UNL A   1      42.099  23.340  27.529  1.00  0.00    -0.014 A 
ATOM     78  C   UNL A   1      41.544  22.411  28.423  1.00  0.00     0.009 A 
ATOM     79  C   UNL A   1      42.285  22.969  26.189  1.00  0.00     0.009 A 
ATOM     80  C   UNL A   1      41.180  21.136  27.984  1.00  0.00     0.001 A 
ATOM     81  C   UNL A   1      41.905  21.697  25.750  1.00  0.00     0.001 A 
ATOM     82  C   UNL A   1      41.354  20.782  26.647  1.00  0.00     0.000 A 
ENDBRANCH  58  77
BRANCH  70  83
ATOM     83  C   UNL A   1      47.923  26.508  29.715  1.00  0.00    -0.014 A 
ATOM     84  C   UNL A   1      48.342  25.955  30.933  1.00  0.00     0.009 A 
ATOM     85  C   UNL A   1      48.808  26.520  28.624  1.00  0.00     0.009 A 
ATOM     86  C   UNL A   1      49.629  25.427  31.057  1.00  0.00     0.001 A 
ATOM     87  C   UNL A   1      50.086  25.976  28.748  1.00  0.00     0.001 A 
ATOM     88  C   UNL A   1      50.495  25.430  29.964  1.00  0.00     0.000 A 
ENDBRANCH  70  83
ENDBRANCH  44  45
ENDBRANCH  36  39
ENDBRANCH  34  35
ENDBRANCH  33  34
ENDBRANCH  32  33
ENDBRANCH   1  32
TORSDOF 17
ENDMDL
MODEL 2
REMARK VINA RESULT:     -11.5      2.792      4.346
REMARK SMILES CC[C@H](C)[C@H](NC(=O)[C@H](C)Oc1ccc2c(C)c(C)c(=O)oc2c1C)C(=O)NCCCCNC(=O)c1ccc(-c2c3nc(c(-c4ccccc4)c4ccc([nH]4)c(-c4ccccc4)c4nc(c(-c5ccccc5)c5ccc2[nH]5)C=C4)C=C3)cc1
REMARK SMILES IDX 29 1 28 2 26 3 27 4 5 6 3 7 4 8 2 9 1 10 6 11 7 12 8 14 9 15
REMARK SMILES IDX 10 16 11 17 12 18 13 19 24 20 14 21 23 22 25 23 15 24 22 25
REMARK SMILES IDX 16 26 20 27 17 28 18 29 21 30 19 31 30 32 31 33 32 34 33 35
REMARK SMILES IDX 34 36 35 38 36 39 37 40 83 41 38 42 82 43 39 44 40 45 41 46
REMARK SMILES IDX 76 47 42 48 81 49 75 50 77 51 43 52 80 53 74 54 73 55 44 57
REMARK SMILES IDX 66 58 51 59 65 60 52 61 55 62 64 63 78 64 53 65 54 66 63 68
REMARK SMILES IDX 79 69 56 70 45 71 46 72 50 73 47 74 49 75 48 76 67 77 68 78
REMARK SMILES IDX 72 79 69 80 71 81 70 82 57 83 58 84 62 85 59 86 61 87 60 88
REMARK H PARENT 28 5 6 13 33 37 77 56 55 67
REMARK Flexibility Score: inf
ROOT
ATOM      1  C   UNL A   1      33.941  30.396  27.337  1.00  0.00     0.116 C 
ENDROOT
BRANCH   1   2
ATOM      2  N   UNL A   1      32.761  30.423  26.496  1.00  0.00    -0.354 N 
ATOM      3  C   UNL A   1      32.045  29.467  25.853  1.00  0.00     0.242 C 
ATOM      4  O   UNL A   1      31.257  29.910  25.003  1.00  0.00    -0.273 OA
ATOM      5  H   UNL A   1      32.401  31.331  26.365  1.00  0.00     0.163 HD
BRANCH   3   6
ATOM      6  C   UNL A   1      32.182  27.916  26.020  1.00  0.00     0.174 C 
BRANCH   6   7
ATOM      7  C   UNL A   1      33.420  27.124  25.506  1.00  0.00     0.018 C 
ATOM      8  C   UNL A   1      33.545  25.691  25.990  1.00  0.00     0.010 C 
BRANCH   7   9
ATOM      9  C   UNL A   1      33.582  27.199  23.972  1.00  0.00     0.002 C 
ATOM     10  C   UNL A   1      34.152  28.541  23.519  1.00  0.00     0.004 C 
ENDBRANCH   7   9
ENDBRANCH   6   7
BRANCH   6  11
ATOM     11  N   UNL A   1      30.983  27.061  26.201  1.00  0.00    -0.341 N 
ATOM     12  C   UNL A   1      30.216  26.272  25.401  1.00  0.00     0.261 C 
ATOM     13  H   UNL A   1      30.663  27.067  27.132  1.00  0.00     0.164 HD
ATOM     14  O   UNL A   1      29.425  25.501  25.950  1.00  0.00    -0.271 OA
BRANCH  12  15
ATOM     15  C   UNL A   1      30.275  26.408  23.886  1.00  0.00     0.258 C 
ATOM     16  C   UNL A   1      29.247  27.434  23.434  1.00  0.00     0.064 C 
BRANCH  15  17
ATOM     17  O   UNL A   1      30.361  25.104  23.320  1.00  0.00    -0.480 OA
BRANCH  17  18
ATOM     18  C   UNL A   1      31.213  24.080  23.590  1.00  0.00     0.127 A 
ATOM     19  C   UNL A   1      31.065  23.106  24.570  1.00  0.00     0.047 A 
ATOM     20  C   UNL A   1      32.409  24.085  22.842  1.00  0.00     0.035 A 
ATOM     21  C   UNL A   1      32.094  22.191  24.855  1.00  0.00     0.016 A 
ATOM     22  C   UNL A   1      33.462  23.230  23.220  1.00  0.00     0.145 A 
ATOM     23  C   UNL A   1      32.609  25.022  21.683  1.00  0.00     0.052 C 
ATOM     24  C   UNL A   1      33.334  22.276  24.219  1.00  0.00     0.021 A 
ATOM     25  O   UNL A   1      34.706  23.441  22.598  1.00  0.00    -0.422 OA
ATOM     26  C   UNL A   1      34.513  21.487  24.616  1.00  0.00    -0.030 A 
ATOM     27  C   UNL A   1      35.872  22.946  23.149  1.00  0.00     0.339 A 
ATOM     28  C   UNL A   1      34.302  20.318  25.539  1.00  0.00     0.045 C 
ATOM     29  C   UNL A   1      35.728  21.873  24.169  1.00  0.00     0.038 A 
ATOM     30  O   UNL A   1      36.967  23.350  22.770  1.00  0.00    -0.246 OA
ATOM     31  C   UNL A   1      37.019  21.287  24.666  1.00  0.00     0.052 C 
ENDBRANCH  17  18
ENDBRANCH  15  17
ENDBRANCH  12  15
ENDBRANCH   6  11
ENDBRANCH   3   6
ENDBRANCH   1   2
BRANCH   1  32
ATOM     32  C   UNL A   1      34.067  31.681  28.171  1.00  0.00     0.023 C 
BRANCH  32  33
ATOM     33  C   UNL A   1      35.352  32.465  28.022  1.00  0.00     0.023 C 
BRANCH  33  34
ATOM     34  C   UNL A   1      35.175  33.971  28.110  1.00  0.00     0.116 C 
BRANCH  34  35
ATOM     35  N   UNL A   1      34.105  34.409  29.005  1.00  0.00    -0.352 N 
ATOM     36  C   UNL A   1      34.047  34.338  30.381  1.00  0.00     0.251 C 
ATOM     37  H   UNL A   1      33.318  34.807  28.566  1.00  0.00     0.163 HD
ATOM     38  O   UNL A   1      33.065  34.717  31.007  1.00  0.00    -0.269 OA
BRANCH  36  39
ATOM     39  C   UNL A   1      35.185  33.717  31.083  1.00  0.00     0.039 A 
ATOM     40  C   UNL A   1      34.982  32.509  31.752  1.00  0.00     0.014 A 
ATOM     41  C   UNL A   1      36.469  34.218  30.873  1.00  0.00     0.014 A 
ATOM     42  C   UNL A   1      36.085  31.724  32.085  1.00  0.00     0.010 A 
ATOM     43  C   UNL A   1      37.551  33.381  31.091  1.00  0.00     0.010 A 
ATOM     44  C   UNL A   1      37.370  32.119  31.683  1.00  0.00    -0.014 A 
BRANCH  44  45
ATOM     45  C   UNL A   1      38.561  31.258  31.869  1.00  0.00     0.031 A 
ATOM     46  C   UNL A   1      39.495  31.555  33.006  1.00  0.00     0.074 A 
ATOM     47  C   UNL A   1      38.869  30.295  30.976  1.00  0.00     0.049 A 
ATOM     48  N   UNL A   1      40.703  31.107  33.225  1.00  0.00    -0.248 NA
ATOM     49  C   UNL A   1      39.022  32.534  34.001  1.00  0.00     0.031 C 
ATOM     50  C   UNL A   1      38.064  29.915  29.813  1.00  0.00     0.029 A 
ATOM     51  N   UNL A   1      39.957  29.461  30.912  1.00  0.00    -0.354 N 
ATOM     52  C   UNL A   1      41.149  31.786  34.350  1.00  0.00     0.074 A 
ATOM     53  C   UNL A   1      40.108  32.713  34.735  1.00  0.00     0.031 C 
ATOM     54  C   UNL A   1      38.661  28.892  29.181  1.00  0.00     0.029 A 
ATOM     55  C   UNL A   1      39.914  28.578  29.861  1.00  0.00     0.049 A 
ATOM     56  H   UNL A   1      40.699  29.492  31.558  1.00  0.00     0.167 HD
ATOM     57  C   UNL A   1      42.310  31.632  35.026  1.00  0.00     0.031 A 
ATOM     58  C   UNL A   1      40.786  27.624  29.486  1.00  0.00     0.031 A 
ATOM     59  C   UNL A   1      43.319  30.674  34.678  1.00  0.00     0.049 A 
ATOM     60  C   UNL A   1      42.055  27.439  30.270  1.00  0.00     0.074 A 
ATOM     61  C   UNL A   1      44.526  30.427  35.304  1.00  0.00     0.029 A 
ATOM     62  N   UNL A   1      43.215  29.779  33.624  1.00  0.00    -0.354 N 
ATOM     63  N   UNL A   1      42.487  28.119  31.304  1.00  0.00    -0.248 NA
ATOM     64  C   UNL A   1      42.953  26.358  29.839  1.00  0.00     0.031 C 
ATOM     65  C   UNL A   1      45.158  29.380  34.625  1.00  0.00     0.029 A 
ATOM     66  C   UNL A   1      44.327  28.957  33.599  1.00  0.00     0.049 A 
ATOM     67  H   UNL A   1      42.464  29.734  32.990  1.00  0.00     0.167 HD
ATOM     68  C   UNL A   1      43.694  27.536  31.663  1.00  0.00     0.074 A 
ATOM     69  C   UNL A   1      43.926  26.446  30.737  1.00  0.00     0.031 C 
ATOM     70  C   UNL A   1      44.531  27.872  32.674  1.00  0.00     0.031 A 
BRANCH  57  71
ATOM     71  C   UNL A   1      42.519  32.512  36.223  1.00  0.00    -0.014 A 
ATOM     72  C   UNL A   1      42.119  32.091  37.502  1.00  0.00     0.009 A 
ATOM     73  C   UNL A   1      43.108  33.776  36.074  1.00  0.00     0.009 A 
ATOM     74  C   UNL A   1      42.265  32.936  38.601  1.00  0.00     0.001 A 
ATOM     75  C   UNL A   1      43.279  34.608  37.181  1.00  0.00     0.001 A 
ATOM     76  C   UNL A   1      42.848  34.192  38.440  1.00  0.00     0.000 A 
ENDBRANCH  57  71
BRANCH  58  77
ATOM     77  C   UNL A   1      40.448  26.732  28.350  1.00  0.00    -0.014 A 
ATOM     78  C   UNL A   1      41.040  26.949  27.095  1.00  0.00     0.009 A 
ATOM     79  C   UNL A   1      39.595  25.631  28.518  1.00  0.00     0.009 A 
ATOM     80  C   UNL A   1      40.784  26.081  26.031  1.00  0.00     0.001 A 
ATOM     81  C   UNL A   1      39.354  24.756  27.455  1.00  0.00     0.001 A 
ATOM     82  C   UNL A   1      39.948  24.982  26.213  1.00  0.00     0.000 A 
ENDBRANCH  58  77
BRANCH  70  83
ATOM     83  C   UNL A   1      45.758  27.035  32.872  1.00  0.00    -0.014 A 
ATOM     84  C   UNL A   1      45.736  25.903  33.699  1.00  0.00     0.009 A 
ATOM     85  C   UNL A   1      46.916  27.324  32.131  1.00  0.00     0.009 A 
ATOM     86  C   UNL A   1      46.858  25.077  33.785  1.00  0.00     0.001 A 
ATOM     87  C   UNL A   1      48.027  26.485  32.206  1.00  0.00     0.001 A 
ATOM     88  C   UNL A   1      47.997  25.363  33.033  1.00  0.00     0.000 A 
ENDBRANCH  70  83
ENDBRANCH  44  45
ENDBRANCH  36  39
ENDBRANCH  34  35
ENDBRANCH  33  34
ENDBRANCH  32  33
ENDBRANCH   1  32
TORSDOF 17
ENDMDL
MODEL 3
REMARK VINA RESULT:     -11.3      2.713      3.749
REMARK SMILES CC[C@H](C)[C@H](NC(=O)[C@H](C)Oc1ccc2c(C)c(C)c(=O)oc2c1C)C(=O)NCCCCNC(=O)c1ccc(-c2c3nc(c(-c4ccccc4)c4ccc([nH]4)c(-c4ccccc4)c4nc(c(-c5ccccc5)c5ccc2[nH]5)C=C4)C=C3)cc1
REMARK SMILES IDX 29 1 28 2 26 3 27 4 5 6 3 7 4 8 2 9 1 10 6 11 7 12 8 14 9 15
REMARK SMILES IDX 10 16 11 17 12 18 13 19 24 20 14 21 23 22 25 23 15 24 22 25
REMARK SMILES IDX 16 26 20 27 17 28 18 29 21 30 19 31 30 32 31 33 32 34 33 35
REMARK SMILES IDX 34 36 35 38 36 39 37 40 83 41 38 42 82 43 39 44 40 45 41 46
REMARK SMILES IDX 76 47 42 48 81 49 75 50 77 51 43 52 80 53 74 54 73 55 44 57
REMARK SMILES IDX 66 58 51 59 65 60 52 61 55 62 64 63 78 64 53 65 54 66 63 68
REMARK SMILES IDX 79 69 56 70 45 71 46 72 50 73 47 74 49 75 48 76 67 77 68 78
REMARK SMILES IDX 72 79 69 80 71 81 70 82 57 83 58 84 62 85 59 86 61 87 60 88
REMARK H PARENT 28 5 6 13 33 37 77 56 55 67
REMARK Flexibility Score: inf
ROOT
ATOM      1  C   UNL A   1      32.428  30.353  26.450  1.00  0.00     0.116 C 
ENDROOT
BRANCH   1   2
ATOM      2  N   UNL A   1      32.907  30.090  25.108  1.00  0.00    -0.354 N 
ATOM      3  C   UNL A   1      32.458  29.319  24.086  1.00  0.00     0.242 C 
ATOM      4  O   UNL A   1      33.291  29.138  23.184  1.00  0.00    -0.273 OA
ATOM      5  H   UNL A   1      33.735  30.576  24.891  1.00  0.00     0.163 HD
BRANCH   3   6
ATOM      6  C   UNL A   1      31.071  28.598  23.988  1.00  0.00     0.174 C 
BRANCH   6   7
ATOM      7  C   UNL A   1      29.881  29.178  23.166  1.00  0.00     0.018 C 
ATOM      8  C   UNL A   1      28.640  28.310  23.085  1.00  0.00     0.010 C 
BRANCH   7   9
ATOM      9  C   UNL A   1      29.516  30.619  23.582  1.00  0.00     0.002 C 
ATOM     10  C   UNL A   1      28.012  30.876  23.509  1.00  0.00     0.004 C 
ENDBRANCH   7   9
ENDBRANCH   6   7
BRANCH   6  11
ATOM     11  N   UNL A   1      30.639  27.634  25.029  1.00  0.00    -0.341 N 
ATOM     12  C   UNL A   1      31.189  26.554  25.648  1.00  0.00     0.261 C 
ATOM     13  H   UNL A   1      29.728  27.821  25.352  1.00  0.00     0.164 HD
ATOM     14  O   UNL A   1      30.625  26.127  26.658  1.00  0.00    -0.271 OA
BRANCH  12  15
ATOM     15  C   UNL A   1      32.402  25.851  25.056  1.00  0.00     0.258 C 
ATOM     16  C   UNL A   1      32.051  25.320  23.674  1.00  0.00     0.064 C 
BRANCH  15  17
ATOM     17  O   UNL A   1      32.988  25.037  26.067  1.00  0.00    -0.480 OA
BRANCH  17  18
ATOM     18  C   UNL A   1      33.686  23.875  25.969  1.00  0.00     0.127 A 
ATOM     19  C   UNL A   1      35.030  23.733  25.645  1.00  0.00     0.047 A 
ATOM     20  C   UNL A   1      32.920  22.701  26.127  1.00  0.00     0.035 A 
ATOM     21  C   UNL A   1      35.600  22.467  25.420  1.00  0.00     0.016 A 
ATOM     22  C   UNL A   1      33.486  21.457  25.791  1.00  0.00     0.145 A 
ATOM     23  C   UNL A   1      31.491  22.752  26.594  1.00  0.00     0.052 C 
ATOM     24  C   UNL A   1      34.819  21.310  25.436  1.00  0.00     0.021 A 
ATOM     25  O   UNL A   1      32.614  20.355  25.740  1.00  0.00    -0.422 OA
ATOM     26  C   UNL A   1      35.307  19.987  25.008  1.00  0.00    -0.030 A 
ATOM     27  C   UNL A   1      32.961  19.202  25.064  1.00  0.00     0.339 A 
ATOM     28  C   UNL A   1      36.791  19.803  24.839  1.00  0.00     0.045 C 
ATOM     29  C   UNL A   1      34.403  19.018  24.748  1.00  0.00     0.038 A 
ATOM     30  O   UNL A   1      32.115  18.357  24.786  1.00  0.00    -0.246 OA
ATOM     31  C   UNL A   1      34.754  17.705  24.108  1.00  0.00     0.052 C 
ENDBRANCH  17  18
ENDBRANCH  15  17
ENDBRANCH  12  15
ENDBRANCH   6  11
ENDBRANCH   3   6
ENDBRANCH   1   2
BRANCH   1  32
ATOM     32  C   UNL A   1      33.590  30.633  27.416  1.00  0.00     0.023 C 
BRANCH  32  33
ATOM     33  C   UNL A   1      33.868  32.083  27.743  1.00  0.00     0.023 C 
BRANCH  33  34
ATOM     34  C   UNL A   1      34.503  32.303  29.105  1.00  0.00     0.116 C 
BRANCH  34  35
ATOM     35  N   UNL A   1      33.989  33.458  29.840  1.00  0.00    -0.352 N 
ATOM     36  C   UNL A   1      34.498  34.053  30.975  1.00  0.00     0.251 C 
ATOM     37  H   UNL A   1      33.169  33.864  29.476  1.00  0.00     0.163 HD
ATOM     38  O   UNL A   1      33.942  35.005  31.509  1.00  0.00    -0.269 OA
BRANCH  36  39
ATOM     39  C   UNL A   1      35.705  33.459  31.578  1.00  0.00     0.039 A 
ATOM     40  C   UNL A   1      35.566  32.325  32.378  1.00  0.00     0.014 A 
ATOM     41  C   UNL A   1      36.960  33.896  31.157  1.00  0.00     0.014 A 
ATOM     42  C   UNL A   1      36.686  31.535  32.637  1.00  0.00     0.010 A 
ATOM     43  C   UNL A   1      38.043  33.046  31.309  1.00  0.00     0.010 A 
ATOM     44  C   UNL A   1      37.914  31.848  32.036  1.00  0.00    -0.014 A 
BRANCH  44  45
ATOM     45  C   UNL A   1      39.101  30.968  32.146  1.00  0.00     0.031 A 
ATOM     46  C   UNL A   1      40.080  31.212  33.257  1.00  0.00     0.074 A 
ATOM     47  C   UNL A   1      39.363  30.036  31.207  1.00  0.00     0.049 A 
ATOM     48  N   UNL A   1      41.289  30.743  33.413  1.00  0.00    -0.248 NA
ATOM     49  C   UNL A   1      39.657  32.158  34.304  1.00  0.00     0.031 C 
ATOM     50  C   UNL A   1      38.511  29.709  30.061  1.00  0.00     0.029 A 
ATOM     51  N   UNL A   1      40.437  29.192  31.071  1.00  0.00    -0.354 N 
ATOM     52  C   UNL A   1      41.785  31.373  34.546  1.00  0.00     0.074 A 
ATOM     53  C   UNL A   1      40.771  32.297  35.003  1.00  0.00     0.031 C 
ATOM     54  C   UNL A   1      39.071  28.703  29.370  1.00  0.00     0.029 A 
ATOM     55  C   UNL A   1      40.344  28.350  29.990  1.00  0.00     0.049 A 
ATOM     56  H   UNL A   1      41.203  29.190  31.690  1.00  0.00     0.167 HD
ATOM     57  C   UNL A   1      42.968  31.182  35.171  1.00  0.00     0.031 A 
ATOM     58  C   UNL A   1      41.190  27.400  29.548  1.00  0.00     0.031 A 
ATOM     59  C   UNL A   1      43.951  30.226  34.750  1.00  0.00     0.049 A 
ATOM     60  C   UNL A   1      42.484  27.172  30.276  1.00  0.00     0.074 A 
ATOM     61  C   UNL A   1      45.178  29.942  35.321  1.00  0.00     0.029 A 
ATOM     62  N   UNL A   1      43.797  29.371  33.669  1.00  0.00    -0.354 N 
ATOM     63  N   UNL A   1      42.963  27.808  31.318  1.00  0.00    -0.248 NA
ATOM     64  C   UNL A   1      43.352  26.098  29.772  1.00  0.00     0.031 C 
ATOM     65  C   UNL A   1      45.771  28.914  34.581  1.00  0.00     0.029 A 
ATOM     66  C   UNL A   1      44.897  28.539  33.572  1.00  0.00     0.049 A 
ATOM     67  H   UNL A   1      43.023  29.359  33.062  1.00  0.00     0.167 HD
ATOM     68  C   UNL A   1      44.174  27.199  31.610  1.00  0.00     0.074 A 
ATOM     69  C   UNL A   1      44.359  26.141  30.636  1.00  0.00     0.031 C 
ATOM     70  C   UNL A   1      45.052  27.487  32.600  1.00  0.00     0.031 A 
BRANCH  57  71
ATOM     71  C   UNL A   1      43.233  32.013  36.391  1.00  0.00    -0.014 A 
ATOM     72  C   UNL A   1      42.841  31.566  37.664  1.00  0.00     0.009 A 
ATOM     73  C   UNL A   1      43.866  33.259  36.270  1.00  0.00     0.009 A 
ATOM     74  C   UNL A   1      43.040  32.369  38.787  1.00  0.00     0.001 A 
ATOM     75  C   UNL A   1      44.088  34.048  37.400  1.00  0.00     0.001 A 
ATOM     76  C   UNL A   1      43.666  33.607  38.654  1.00  0.00     0.000 A 
ENDBRANCH  57  71
BRANCH  58  77
ATOM     77  C   UNL A   1      40.799  26.555  28.393  1.00  0.00    -0.014 A 
ATOM     78  C   UNL A   1      39.885  25.505  28.577  1.00  0.00     0.009 A 
ATOM     79  C   UNL A   1      41.275  26.824  27.101  1.00  0.00     0.009 A 
ATOM     80  C   UNL A   1      39.456  24.741  27.489  1.00  0.00     0.001 A 
ATOM     81  C   UNL A   1      40.831  26.067  26.013  1.00  0.00     0.001 A 
ATOM     82  C   UNL A   1      39.923  25.026  26.208  1.00  0.00     0.000 A 
ENDBRANCH  58  77
BRANCH  70  83
ATOM     83  C   UNL A   1      46.275  26.629  32.722  1.00  0.00    -0.014 A 
ATOM     84  C   UNL A   1      47.466  26.970  32.066  1.00  0.00     0.009 A 
ATOM     85  C   UNL A   1      46.261  25.529  33.595  1.00  0.00     0.009 A 
ATOM     86  C   UNL A   1      48.623  26.217  32.279  1.00  0.00     0.001 A 
ATOM     87  C   UNL A   1      47.423  24.792  33.818  1.00  0.00     0.001 A 
ATOM     88  C   UNL A   1      48.603  25.136  33.159  1.00  0.00     0.000 A 
ENDBRANCH  70  83
ENDBRANCH  44  45
ENDBRANCH  36  39
ENDBRANCH  34  35
ENDBRANCH  33  34
ENDBRANCH  32  33
ENDBRANCH   1  32
TORSDOF 17
ENDMDL
