MODEL 1
REMARK VINA RESULT:     -12.8      0.000      0.000
REMARK SMILES N#Cc1ccccc1C[C@@H](NC(=O)OCC1c2ccccc2-c2ccccc21)C(=O)NCCCCNC(=O)c1ccc(-c2c3nc(c(-c4ccccc4)c4ccc([nH]4)c(-c4ccccc4)c4nc(c(-c5ccccc5)c5ccc2[nH]5)C=C4)C=C3)cc1
REMARK SMILES IDX 32 1 31 2 29 3 30 4 10 6 9 7 8 8 3 9 4 10 5 11 7 12 6 13
REMARK SMILES IDX 2 14 1 15 11 16 12 17 13 19 14 20 15 21 16 22 17 23 28 24
REMARK SMILES IDX 18 25 22 26 23 27 27 28 19 29 21 30 24 31 26 32 20 33 25 34
REMARK SMILES IDX 33 35 34 36 35 37 36 38 37 39 38 41 39 42 40 43 86 44 41 45
REMARK SMILES IDX 85 46 42 47 43 48 44 49 79 50 45 51 84 52 78 53 80 54 46 55
REMARK SMILES IDX 83 56 77 57 76 58 47 60 69 61 54 62 68 63 55 64 58 65 67 66
REMARK SMILES IDX 81 67 56 68 57 69 66 71 82 72 59 73 48 74 49 75 53 76 50 77
REMARK SMILES IDX 52 78 51 79 70 80 71 81 75 82 72 83 74 84 73 85 60 86 61 87
REMARK SMILES IDX 65 88 62 89 64 90 63 91
REMARK H PARENT 31 5 11 18 36 40 80 59 58 70
REMARK Flexibility Score: inf
ROOT
ATOM      1  C   UNL A   1      32.324  29.488  27.189  1.00  0.00     0.116 C 
ENDROOT
BRANCH   1   2
ATOM      2  N   UNL A   1      33.267  28.509  26.672  1.00  0.00    -0.354 N 
ATOM      3  C   UNL A   1      33.028  27.307  26.059  1.00  0.00     0.243 C 
ATOM      4  O   UNL A   1      33.987  26.670  25.620  1.00  0.00    -0.273 OA
ATOM      5  H   UNL A   1      34.218  28.744  26.779  1.00  0.00     0.163 HD
BRANCH   3   6
ATOM      6  C   UNL A   1      31.589  26.754  25.978  1.00  0.00     0.179 C 
BRANCH   6   7
ATOM      7  C   UNL A   1      31.268  26.487  24.474  1.00  0.00     0.072 C 
BRANCH   7   8
ATOM      8  C   UNL A   1      30.425  27.506  23.730  1.00  0.00    -0.028 A 
ATOM      9  C   UNL A   1      31.003  28.559  22.993  1.00  0.00     0.055 A 
ATOM     10  C   UNL A   1      30.185  29.485  22.327  1.00  0.00     0.020 A 
ATOM     11  C   UNL A   1      28.797  29.362  22.366  1.00  0.00     0.001 A 
ATOM     12  C   UNL A   1      29.027  27.348  23.666  1.00  0.00     0.005 A 
ATOM     13  C   UNL A   1      28.219  28.284  23.022  1.00  0.00     0.000 A 
BRANCH   9  14
ATOM     14  C   UNL A   1      32.428  28.682  22.832  1.00  0.00     0.099 C 
ATOM     15  N   UNL A   1      33.574  28.808  22.728  1.00  0.00    -0.192 NA
ENDBRANCH   9  14
ENDBRANCH   7   8
ENDBRANCH   6   7
BRANCH   6  16
ATOM     16  N   UNL A   1      31.320  25.619  26.866  1.00  0.00    -0.309 N 
ATOM     17  C   UNL A   1      31.201  24.304  26.540  1.00  0.00     0.407 C 
ATOM     18  H   UNL A   1      31.210  25.836  27.820  1.00  0.00     0.167 HD
ATOM     19  O   UNL A   1      30.352  23.605  27.073  1.00  0.00    -0.225 OA
BRANCH  17  20
ATOM     20  O   UNL A   1      32.122  23.894  25.636  1.00  0.00    -0.449 OA
BRANCH  20  21
ATOM     21  C   UNL A   1      32.647  22.564  25.807  1.00  0.00     0.248 C 
BRANCH  21  22
ATOM     22  C   UNL A   1      33.436  22.098  24.570  1.00  0.00     0.088 C 
ATOM     23  C   UNL A   1      34.929  22.377  24.715  1.00  0.00    -0.029 A 
ATOM     24  C   UNL A   1      33.423  20.575  24.485  1.00  0.00    -0.029 A 
ATOM     25  C   UNL A   1      35.578  23.603  24.723  1.00  0.00     0.005 A 
ATOM     26  C   UNL A   1      35.629  21.174  24.927  1.00  0.00    -0.014 A 
ATOM     27  C   UNL A   1      34.722  20.067  24.720  1.00  0.00    -0.014 A 
ATOM     28  C   UNL A   1      32.355  19.731  24.220  1.00  0.00     0.005 A 
ATOM     29  C   UNL A   1      36.914  23.635  25.113  1.00  0.00     0.000 A 
ATOM     30  C   UNL A   1      36.964  21.204  25.292  1.00  0.00     0.009 A 
ATOM     31  C   UNL A   1      34.962  18.705  24.670  1.00  0.00     0.009 A 
ATOM     32  C   UNL A   1      32.600  18.356  24.174  1.00  0.00     0.000 A 
ATOM     33  C   UNL A   1      37.596  22.446  25.417  1.00  0.00     0.001 A 
ATOM     34  C   UNL A   1      33.892  17.848  24.392  1.00  0.00     0.001 A 
ENDBRANCH  21  22
ENDBRANCH  20  21
ENDBRANCH  17  20
ENDBRANCH   6  16
ENDBRANCH   3   6
ENDBRANCH   1   2
BRANCH   1  35
ATOM     35  C   UNL A   1      31.814  30.404  26.090  1.00  0.00     0.023 C 
BRANCH  35  36
ATOM     36  C   UNL A   1      31.518  31.812  26.592  1.00  0.00     0.023 C 
BRANCH  36  37
ATOM     37  C   UNL A   1      32.694  32.486  27.290  1.00  0.00     0.116 C 
BRANCH  37  38
ATOM     38  N   UNL A   1      32.431  33.882  27.607  1.00  0.00    -0.352 N 
ATOM     39  C   UNL A   1      33.077  34.684  28.516  1.00  0.00     0.251 C 
ATOM     40  H   UNL A   1      31.696  34.305  27.106  1.00  0.00     0.163 HD
ATOM     41  O   UNL A   1      32.623  35.779  28.826  1.00  0.00    -0.269 OA
BRANCH  39  42
ATOM     42  C   UNL A   1      34.318  34.184  29.136  1.00  0.00     0.039 A 
ATOM     43  C   UNL A   1      34.234  33.410  30.292  1.00  0.00     0.014 A 
ATOM     44  C   UNL A   1      35.552  34.426  28.525  1.00  0.00     0.014 A 
ATOM     45  C   UNL A   1      35.390  32.820  30.801  1.00  0.00     0.010 A 
ATOM     46  C   UNL A   1      36.682  33.758  28.977  1.00  0.00     0.010 A 
ATOM     47  C   UNL A   1      36.615  32.954  30.124  1.00  0.00    -0.014 A 
BRANCH  47  48
ATOM     48  C   UNL A   1      37.835  32.260  30.603  1.00  0.00     0.031 A 
ATOM     49  C   UNL A   1      38.634  32.838  31.739  1.00  0.00     0.074 A 
ATOM     50  C   UNL A   1      38.252  31.136  29.987  1.00  0.00     0.049 A 
ATOM     51  N   UNL A   1      39.742  32.397  32.277  1.00  0.00    -0.248 NA
ATOM     52  C   UNL A   1      38.136  34.090  32.335  1.00  0.00     0.031 C 
ATOM     53  C   UNL A   1      37.587  30.494  28.852  1.00  0.00     0.029 A 
ATOM     54  N   UNL A   1      39.338  30.334  30.232  1.00  0.00    -0.354 N 
ATOM     55  C   UNL A   1      40.075  33.317  33.262  1.00  0.00     0.074 A 
ATOM     56  C   UNL A   1      39.090  34.374  33.207  1.00  0.00     0.031 C 
ATOM     57  C   UNL A   1      38.254  29.375  28.526  1.00  0.00     0.029 A 
ATOM     58  C   UNL A   1      39.421  29.249  29.392  1.00  0.00     0.049 A 
ATOM     59  H   UNL A   1      39.993  30.517  30.943  1.00  0.00     0.167 HD
ATOM     60  C   UNL A   1      41.094  33.275  34.153  1.00  0.00     0.031 A 
ATOM     61  C   UNL A   1      40.341  28.268  29.320  1.00  0.00     0.031 A 
ATOM     62  C   UNL A   1      42.077  32.226  34.203  1.00  0.00     0.049 A 
ATOM     63  C   UNL A   1      41.493  28.274  30.288  1.00  0.00     0.074 A 
ATOM     64  C   UNL A   1      43.123  32.071  35.095  1.00  0.00     0.029 A 
ATOM     65  N   UNL A   1      42.139  31.158  33.322  1.00  0.00    -0.354 N 
ATOM     66  N   UNL A   1      41.753  29.112  31.261  1.00  0.00    -0.248 NA
ATOM     67  C   UNL A   1      42.474  27.188  30.152  1.00  0.00     0.031 C 
ATOM     68  C   UNL A   1      43.863  30.948  34.708  1.00  0.00     0.029 A 
ATOM     69  C   UNL A   1      43.229  30.359  33.626  1.00  0.00     0.049 A 
ATOM     70  H   UNL A   1      41.503  30.992  32.589  1.00  0.00     0.167 HD
ATOM     71  C   UNL A   1      42.906  28.637  31.874  1.00  0.00     0.074 A 
ATOM     72  C   UNL A   1      43.282  27.426  31.174  1.00  0.00     0.031 C 
ATOM     73  C   UNL A   1      43.592  29.156  32.921  1.00  0.00     0.031 A 
BRANCH  60  74
ATOM     74  C   UNL A   1      41.205  34.409  35.136  1.00  0.00    -0.014 A 
ATOM     75  C   UNL A   1      42.039  35.512  34.887  1.00  0.00     0.009 A 
ATOM     76  C   UNL A   1      40.439  34.394  36.310  1.00  0.00     0.009 A 
ATOM     77  C   UNL A   1      42.131  36.554  35.812  1.00  0.00     0.001 A 
ATOM     78  C   UNL A   1      40.505  35.453  37.216  1.00  0.00     0.001 A 
ATOM     79  C   UNL A   1      41.360  36.527  36.973  1.00  0.00     0.000 A 
ENDBRANCH  60  74
BRANCH  61  80
ATOM     80  C   UNL A   1      40.216  27.193  28.298  1.00  0.00    -0.014 A 
ATOM     81  C   UNL A   1      39.511  26.013  28.583  1.00  0.00     0.009 A 
ATOM     82  C   UNL A   1      40.822  27.332  27.039  1.00  0.00     0.009 A 
ATOM     83  C   UNL A   1      39.449  24.980  27.644  1.00  0.00     0.001 A 
ATOM     84  C   UNL A   1      40.727  26.312  26.089  1.00  0.00     0.001 A 
ATOM     85  C   UNL A   1      40.052  25.133  26.397  1.00  0.00     0.000 A 
ENDBRANCH  61  80
BRANCH  73  86
ATOM     86  C   UNL A   1      44.796  28.393  33.405  1.00  0.00    -0.014 A 
ATOM     87  C   UNL A   1      44.676  27.326  34.310  1.00  0.00     0.009 A 
ATOM     88  C   UNL A   1      46.068  28.725  32.913  1.00  0.00     0.009 A 
ATOM     89  C   UNL A   1      45.812  26.636  34.742  1.00  0.00     0.001 A 
ATOM     90  C   UNL A   1      47.196  28.010  33.317  1.00  0.00     0.001 A 
ATOM     91  C   UNL A   1      47.068  26.974  34.241  1.00  0.00     0.000 A 
ENDBRANCH  73  86
ENDBRANCH  47  48
ENDBRANCH  39  42
ENDBRANCH  37  38
ENDBRANCH  36  37
ENDBRANCH  35  36
ENDBRANCH   1  35
TORSDOF 18
ENDMDL
MODEL 2
REMARK VINA RESULT:     -12.3      1.859      4.183
REMARK SMILES N#Cc1ccccc1C[C@@H](NC(=O)OCC1c2ccccc2-c2ccccc21)C(=O)NCCCCNC(=O)c1ccc(-c2c3nc(c(-c4ccccc4)c4ccc([nH]4)c(-c4ccccc4)c4nc(c(-c5ccccc5)c5ccc2[nH]5)C=C4)C=C3)cc1
REMARK SMILES IDX 32 1 31 2 29 3 30 4 10 6 9 7 8 8 3 9 4 10 5 11 7 12 6 13
REMARK SMILES IDX 2 14 1 15 11 16 12 17 13 19 14 20 15 21 16 22 17 23 28 24
REMARK SMILES IDX 18 25 22 26 23 27 27 28 19 29 21 30 24 31 26 32 20 33 25 34
REMARK SMILES IDX 33 35 34 36 35 37 36 38 37 39 38 41 39 42 40 43 86 44 41 45
REMARK SMILES IDX 85 46 42 47 43 48 44 49 79 50 45 51 84 52 78 53 80 54 46 55
REMARK SMILES IDX 83 56 77 57 76 58 47 60 69 61 54 62 68 63 55 64 58 65 67 66
REMARK SMILES IDX 81 67 56 68 57 69 66 71 82 72 59 73 48 74 49 75 53 76 50 77
REMARK SMILES IDX 52 78 51 79 70 80 71 81 75 82 72 83 74 84 73 85 60 86 61 87
REMARK SMILES IDX 65 88 62 89 64 90 63 91
REMARK H PARENT 31 5 11 18 36 40 80 59 58 70
REMARK Flexibility Score: inf
ROOT
ATOM      1  C   UNL A   1      34.794  29.698  27.572  1.00  0.00     0.116 C 
ENDROOT
BRANCH   1   2
ATOM      2  N   UNL A   1      33.487  29.211  27.987  1.00  0.00    -0.354 N 
ATOM      3  C   UNL A   1      32.712  28.222  27.441  1.00  0.00     0.243 C 
ATOM      4  O   UNL A   1      31.664  27.914  28.011  1.00  0.00    -0.273 OA
ATOM      5  H   UNL A   1      33.102  29.659  28.775  1.00  0.00     0.163 HD
BRANCH   3   6
ATOM      6  C   UNL A   1      33.130  27.557  26.112  1.00  0.00     0.179 C 
BRANCH   6   7
ATOM      7  C   UNL A   1      32.530  26.117  26.093  1.00  0.00     0.072 C 
BRANCH   7   8
ATOM      8  C   UNL A   1      33.490  24.941  26.106  1.00  0.00    -0.028 A 
ATOM      9  C   UNL A   1      33.129  23.687  26.636  1.00  0.00     0.055 A 
ATOM     10  C   UNL A   1      34.051  22.630  26.636  1.00  0.00     0.020 A 
ATOM     11  C   UNL A   1      35.323  22.797  26.091  1.00  0.00     0.001 A 
ATOM     12  C   UNL A   1      34.743  25.051  25.470  1.00  0.00     0.005 A 
ATOM     13  C   UNL A   1      35.663  24.004  25.494  1.00  0.00     0.000 A 
BRANCH   9  14
ATOM     14  C   UNL A   1      31.800  23.421  27.122  1.00  0.00     0.099 C 
ATOM     15  N   UNL A   1      30.718  23.226  27.483  1.00  0.00    -0.192 NA
ENDBRANCH   9  14
ENDBRANCH   7   8
ENDBRANCH   6   7
BRANCH   6  16
ATOM     16  N   UNL A   1      32.840  28.351  24.913  1.00  0.00    -0.309 N 
ATOM     17  C   UNL A   1      33.431  28.277  23.691  1.00  0.00     0.407 C 
ATOM     18  H   UNL A   1      32.126  29.023  25.005  1.00  0.00     0.167 HD
ATOM     19  O   UNL A   1      33.675  29.292  23.056  1.00  0.00    -0.225 OA
BRANCH  17  20
ATOM     20  O   UNL A   1      33.656  27.006  23.284  1.00  0.00    -0.449 OA
BRANCH  20  21
ATOM     21  C   UNL A   1      33.598  26.762  21.866  1.00  0.00     0.248 C 
BRANCH  21  22
ATOM     22  C   UNL A   1      32.294  26.053  21.460  1.00  0.00     0.088 C 
ATOM     23  C   UNL A   1      32.248  24.618  21.976  1.00  0.00    -0.029 A 
ATOM     24  C   UNL A   1      31.110  26.674  22.196  1.00  0.00    -0.029 A 
ATOM     25  C   UNL A   1      33.014  23.535  21.573  1.00  0.00     0.005 A 
ATOM     26  C   UNL A   1      31.325  24.512  23.033  1.00  0.00    -0.014 A 
ATOM     27  C   UNL A   1      30.580  25.749  23.126  1.00  0.00    -0.014 A 
ATOM     28  C   UNL A   1      30.563  27.940  22.046  1.00  0.00     0.005 A 
ATOM     29  C   UNL A   1      32.974  22.379  22.349  1.00  0.00     0.000 A 
ATOM     30  C   UNL A   1      31.267  23.355  23.791  1.00  0.00     0.009 A 
ATOM     31  C   UNL A   1      29.480  26.081  23.897  1.00  0.00     0.009 A 
ATOM     32  C   UNL A   1      29.455  28.273  22.829  1.00  0.00     0.000 A 
ATOM     33  C   UNL A   1      32.124  22.298  23.463  1.00  0.00     0.001 A 
ATOM     34  C   UNL A   1      28.916  27.352  23.742  1.00  0.00     0.001 A 
ENDBRANCH  21  22
ENDBRANCH  20  21
ENDBRANCH  17  20
ENDBRANCH   6  16
ENDBRANCH   3   6
ENDBRANCH   1   2
BRANCH   1  35
ATOM     35  C   UNL A   1      35.035  31.120  28.048  1.00  0.00     0.023 C 
BRANCH  35  36
ATOM     36  C   UNL A   1      33.766  31.964  28.037  1.00  0.00     0.023 C 
BRANCH  36  37
ATOM     37  C   UNL A   1      34.010  33.454  27.831  1.00  0.00     0.116 C 
BRANCH  37  38
ATOM     38  N   UNL A   1      33.440  34.267  28.896  1.00  0.00    -0.352 N 
ATOM     39  C   UNL A   1      33.845  34.358  30.205  1.00  0.00     0.251 C 
ATOM     40  H   UNL A   1      32.665  34.821  28.646  1.00  0.00     0.163 HD
ATOM     41  O   UNL A   1      33.152  34.925  31.042  1.00  0.00    -0.269 OA
BRANCH  39  42
ATOM     42  C   UNL A   1      35.122  33.730  30.590  1.00  0.00     0.039 A 
ATOM     43  C   UNL A   1      35.112  32.678  31.505  1.00  0.00     0.014 A 
ATOM     44  C   UNL A   1      36.314  34.142  29.987  1.00  0.00     0.014 A 
ATOM     45  C   UNL A   1      36.297  31.990  31.765  1.00  0.00     0.010 A 
ATOM     46  C   UNL A   1      37.469  33.395  30.174  1.00  0.00     0.010 A 
ATOM     47  C   UNL A   1      37.475  32.315  31.070  1.00  0.00    -0.014 A 
BRANCH  47  48
ATOM     48  C   UNL A   1      38.721  31.537  31.270  1.00  0.00     0.031 A 
ATOM     49  C   UNL A   1      39.744  31.996  32.274  1.00  0.00     0.074 A 
ATOM     50  C   UNL A   1      38.957  30.444  30.517  1.00  0.00     0.049 A 
ATOM     51  N   UNL A   1      40.905  31.470  32.568  1.00  0.00    -0.248 NA
ATOM     52  C   UNL A   1      39.432  33.221  33.030  1.00  0.00     0.031 C 
ATOM     53  C   UNL A   1      38.062  29.916  29.485  1.00  0.00     0.029 A 
ATOM     54  N   UNL A   1      40.022  29.580  30.505  1.00  0.00    -0.354 N 
ATOM     55  C   UNL A   1      41.461  32.300  33.532  1.00  0.00     0.074 A 
ATOM     56  C   UNL A   1      40.543  33.399  33.727  1.00  0.00     0.031 C 
ATOM     57  C   UNL A   1      38.596  28.796  28.971  1.00  0.00     0.029 A 
ATOM     58  C   UNL A   1      39.892  28.558  29.596  1.00  0.00     0.049 A 
ATOM     59  H   UNL A   1      40.805  29.683  31.093  1.00  0.00     0.167 HD
ATOM     60  C   UNL A   1      42.621  32.149  34.215  1.00  0.00     0.031 A 
ATOM     61  C   UNL A   1      40.728  27.546  29.293  1.00  0.00     0.031 A 
ATOM     62  C   UNL A   1      43.537  31.058  34.015  1.00  0.00     0.049 A 
ATOM     63  C   UNL A   1      42.035  27.432  30.030  1.00  0.00     0.074 A 
ATOM     64  C   UNL A   1      44.717  30.794  34.686  1.00  0.00     0.029 A 
ATOM     65  N   UNL A   1      43.379  30.057  33.071  1.00  0.00    -0.354 N 
ATOM     66  N   UNL A   1      42.513  28.185  30.990  1.00  0.00    -0.248 NA
ATOM     67  C   UNL A   1      42.913  26.318  29.645  1.00  0.00     0.031 C 
ATOM     68  C   UNL A   1      45.311  29.673  34.098  1.00  0.00     0.029 A 
ATOM     69  C   UNL A   1      44.460  29.191  33.116  1.00  0.00     0.049 A 
ATOM     70  H   UNL A   1      42.613  29.972  32.459  1.00  0.00     0.167 HD
ATOM     71  C   UNL A   1      43.730  27.618  31.347  1.00  0.00     0.074 A 
ATOM     72  C   UNL A   1      43.905  26.446  30.514  1.00  0.00     0.031 C 
ATOM     73  C   UNL A   1      44.623  28.029  32.281  1.00  0.00     0.031 A 
BRANCH  60  74
ATOM     74  C   UNL A   1      42.971  33.203  35.230  1.00  0.00    -0.014 A 
ATOM     75  C   UNL A   1      43.677  34.363  34.867  1.00  0.00     0.009 A 
ATOM     76  C   UNL A   1      42.559  33.053  36.562  1.00  0.00     0.009 A 
ATOM     77  C   UNL A   1      43.995  35.328  35.824  1.00  0.00     0.001 A 
ATOM     78  C   UNL A   1      42.847  34.036  37.510  1.00  0.00     0.001 A 
ATOM     79  C   UNL A   1      43.575  35.167  37.144  1.00  0.00     0.000 A 
ENDBRANCH  60  74
BRANCH  61  80
ATOM     80  C   UNL A   1      40.360  26.555  28.245  1.00  0.00    -0.014 A 
ATOM     81  C   UNL A   1      39.529  25.466  28.550  1.00  0.00     0.009 A 
ATOM     82  C   UNL A   1      40.859  26.680  26.939  1.00  0.00     0.009 A 
ATOM     83  C   UNL A   1      39.237  24.504  27.580  1.00  0.00     0.001 A 
ATOM     84  C   UNL A   1      40.535  25.736  25.961  1.00  0.00     0.001 A 
ATOM     85  C   UNL A   1      39.736  24.643  26.286  1.00  0.00     0.000 A 
ENDBRANCH  61  80
BRANCH  73  86
ATOM     86  C   UNL A   1      45.849  27.182  32.484  1.00  0.00    -0.014 A 
ATOM     87  C   UNL A   1      45.848  26.080  33.354  1.00  0.00     0.009 A 
ATOM     88  C   UNL A   1      47.017  27.471  31.759  1.00  0.00     0.009 A 
ATOM     89  C   UNL A   1      47.003  25.312  33.523  1.00  0.00     0.001 A 
ATOM     90  C   UNL A   1      48.157  26.680  31.902  1.00  0.00     0.001 A 
ATOM     91  C   UNL A   1      48.153  25.608  32.793  1.00  0.00     0.000 A 
ENDBRANCH  73  86
ENDBRANCH  47  48
ENDBRANCH  39  42
ENDBRANCH  37  38
ENDBRANCH  36  37
ENDBRANCH  35  36
ENDBRANCH   1  35
TORSDOF 18
ENDMDL
MODEL 3
REMARK VINA RESULT:     -11.8      4.307      9.076
REMARK SMILES N#Cc1ccccc1C[C@@H](NC(=O)OCC1c2ccccc2-c2ccccc21)C(=O)NCCCCNC(=O)c1ccc(-c2c3nc(c(-c4ccccc4)c4ccc([nH]4)c(-c4ccccc4)c4nc(c(-c5ccccc5)c5ccc2[nH]5)C=C4)C=C3)cc1
REMARK SMILES IDX 32 1 31 2 29 3 30 4 10 6 9 7 8 8 3 9 4 10 5 11 7 12 6 13
REMARK SMILES IDX 2 14 1 15 11 16 12 17 13 19 14 20 15 21 16 22 17 23 28 24
REMARK SMILES IDX 18 25 22 26 23 27 27 28 19 29 21 30 24 31 26 32 20 33 25 34
REMARK SMILES IDX 33 35 34 36 35 37 36 38 37 39 38 41 39 42 40 43 86 44 41 45
REMARK SMILES IDX 85 46 42 47 43 48 44 49 79 50 45 51 84 52 78 53 80 54 46 55
REMARK SMILES IDX 83 56 77 57 76 58 47 60 69 61 54 62 68 63 55 64 58 65 67 66
REMARK SMILES IDX 81 67 56 68 57 69 66 71 82 72 59 73 48 74 49 75 53 76 50 77
REMARK SMILES IDX 52 78 51 79 70 80 71 81 75 82 72 83 74 84 73 85 60 86 61 87
REMARK SMILES IDX 65 88 62 89 64 90 63 91
REMARK H PARENT 31 5 11 18 36 40 80 59 58 70
REMARK Flexibility Score: inf
ROOT
ATOM      1  C   UNL A   1      35.591  20.593  25.366  1.00  0.00     0.116 C 
ENDROOT
BRANCH   1   2
ATOM      2  N   UNL A   1      34.371  19.801  25.390  1.00  0.00    -0.354 N 
ATOM      3  C   UNL A   1      33.075  20.191  25.179  1.00  0.00     0.243 C 
ATOM      4  O   UNL A   1      32.196  19.327  25.164  1.00  0.00    -0.273 OA
ATOM      5  H   UNL A   1      34.495  18.844  25.588  1.00  0.00     0.163 HD
BRANCH   3   6
ATOM      6  C   UNL A   1      32.733  21.688  25.020  1.00  0.00     0.179 C 
BRANCH   6   7
ATOM      7  C   UNL A   1      32.872  22.048  23.507  1.00  0.00     0.072 C 
BRANCH   7   8
ATOM      8  C   UNL A   1      32.878  23.515  23.119  1.00  0.00    -0.028 A 
ATOM      9  C   UNL A   1      33.986  24.349  23.368  1.00  0.00     0.055 A 
ATOM     10  C   UNL A   1      33.947  25.702  22.999  1.00  0.00     0.020 A 
ATOM     11  C   UNL A   1      32.825  26.232  22.363  1.00  0.00     0.001 A 
ATOM     12  C   UNL A   1      31.803  24.051  22.384  1.00  0.00     0.005 A 
ATOM     13  C   UNL A   1      31.760  25.402  22.041  1.00  0.00     0.000 A 
BRANCH   9  14
ATOM     14  C   UNL A   1      35.210  23.840  23.929  1.00  0.00     0.099 C 
ATOM     15  N   UNL A   1      36.196  23.461  24.403  1.00  0.00    -0.192 NA
ENDBRANCH   9  14
ENDBRANCH   7   8
ENDBRANCH   6   7
BRANCH   6  16
ATOM     16  N   UNL A   1      31.460  22.093  25.625  1.00  0.00    -0.309 N 
ATOM     17  C   UNL A   1      31.157  23.265  26.243  1.00  0.00     0.407 C 
ATOM     18  H   UNL A   1      30.732  21.432  25.578  1.00  0.00     0.167 HD
ATOM     19  O   UNL A   1      30.464  23.277  27.250  1.00  0.00    -0.225 OA
BRANCH  17  20
ATOM     20  O   UNL A   1      31.659  24.349  25.605  1.00  0.00    -0.449 OA
BRANCH  20  21
ATOM     21  C   UNL A   1      32.309  25.338  26.425  1.00  0.00     0.248 C 
BRANCH  21  22
ATOM     22  C   UNL A   1      31.416  26.571  26.650  1.00  0.00     0.088 C 
ATOM     23  C   UNL A   1      32.231  27.861  26.671  1.00  0.00    -0.029 A 
ATOM     24  C   UNL A   1      30.524  26.800  25.433  1.00  0.00    -0.029 A 
ATOM     25  C   UNL A   1      33.140  28.288  27.626  1.00  0.00     0.005 A 
ATOM     26  C   UNL A   1      32.001  28.598  25.494  1.00  0.00    -0.014 A 
ATOM     27  C   UNL A   1      30.909  27.987  24.768  1.00  0.00    -0.014 A 
ATOM     28  C   UNL A   1      29.471  26.023  24.972  1.00  0.00     0.005 A 
ATOM     29  C   UNL A   1      33.948  29.381  27.321  1.00  0.00     0.000 A 
ATOM     30  C   UNL A   1      32.788  29.699  25.200  1.00  0.00     0.009 A 
ATOM     31  C   UNL A   1      30.225  28.415  23.644  1.00  0.00     0.009 A 
ATOM     32  C   UNL A   1      28.785  26.456  23.836  1.00  0.00     0.000 A 
ATOM     33  C   UNL A   1      33.789  30.067  26.107  1.00  0.00     0.001 A 
ATOM     34  C   UNL A   1      29.154  27.643  23.181  1.00  0.00     0.001 A 
ENDBRANCH  21  22
ENDBRANCH  20  21
ENDBRANCH  17  20
ENDBRANCH   6  16
ENDBRANCH   3   6
ENDBRANCH   1   2
BRANCH   1  35
ATOM     35  C   UNL A   1      36.797  19.747  25.001  1.00  0.00     0.023 C 
BRANCH  35  36
ATOM     36  C   UNL A   1      38.063  20.577  24.822  1.00  0.00     0.023 C 
BRANCH  36  37
ATOM     37  C   UNL A   1      38.995  20.561  26.028  1.00  0.00     0.116 C 
BRANCH  37  38
ATOM     38  N   UNL A   1      39.893  19.415  26.026  1.00  0.00    -0.352 N 
ATOM     39  C   UNL A   1      41.264  19.409  26.100  1.00  0.00     0.251 C 
ATOM     40  H   UNL A   1      39.461  18.531  25.963  1.00  0.00     0.163 HD
ATOM     41  O   UNL A   1      41.903  18.386  25.885  1.00  0.00    -0.269 OA
BRANCH  39  42
ATOM     42  C   UNL A   1      41.955  20.673  26.416  1.00  0.00     0.039 A 
ATOM     43  C   UNL A   1      42.308  21.531  25.375  1.00  0.00     0.014 A 
ATOM     44  C   UNL A   1      42.185  21.030  27.747  1.00  0.00     0.014 A 
ATOM     45  C   UNL A   1      42.834  22.786  25.677  1.00  0.00     0.010 A 
ATOM     46  C   UNL A   1      42.616  22.316  28.045  1.00  0.00     0.010 A 
ATOM     47  C   UNL A   1      42.952  23.205  27.014  1.00  0.00    -0.014 A 
BRANCH  47  48
ATOM     48  C   UNL A   1      43.426  24.570  27.350  1.00  0.00     0.031 A 
ATOM     49  C   UNL A   1      42.443  25.626  27.775  1.00  0.00     0.074 A 
ATOM     50  C   UNL A   1      44.734  24.873  27.227  1.00  0.00     0.049 A 
ATOM     51  N   UNL A   1      42.660  26.881  28.077  1.00  0.00    -0.248 NA
ATOM     52  C   UNL A   1      41.027  25.228  27.846  1.00  0.00     0.031 C 
ATOM     53  C   UNL A   1      45.783  23.949  26.791  1.00  0.00     0.029 A 
ATOM     54  N   UNL A   1      45.404  26.048  27.462  1.00  0.00    -0.354 N 
ATOM     55  C   UNL A   1      41.413  27.419  28.365  1.00  0.00     0.074 A 
ATOM     56  C   UNL A   1      40.437  26.377  28.139  1.00  0.00     0.031 C 
ATOM     57  C   UNL A   1      46.968  24.579  26.830  1.00  0.00     0.029 A 
ATOM     58  C   UNL A   1      46.758  25.963  27.240  1.00  0.00     0.049 A 
ATOM     59  H   UNL A   1      44.957  26.872  27.761  1.00  0.00     0.167 HD
ATOM     60  C   UNL A   1      41.106  28.663  28.804  1.00  0.00     0.031 A 
ATOM     61  C   UNL A   1      47.721  26.898  27.346  1.00  0.00     0.031 A 
ATOM     62  C   UNL A   1      42.077  29.702  29.023  1.00  0.00     0.049 A 
ATOM     63  C   UNL A   1      47.346  28.287  27.785  1.00  0.00     0.074 A 
ATOM     64  C   UNL A   1      41.872  30.981  29.507  1.00  0.00     0.029 A 
ATOM     65  N   UNL A   1      43.434  29.582  28.766  1.00  0.00    -0.354 N 
ATOM     66  N   UNL A   1      46.171  28.761  28.123  1.00  0.00    -0.248 NA
ATOM     67  C   UNL A   1      48.436  29.270  27.867  1.00  0.00     0.031 C 
ATOM     68  C   UNL A   1      43.094  31.661  29.473  1.00  0.00     0.029 A 
ATOM     69  C   UNL A   1      44.074  30.778  29.046  1.00  0.00     0.049 A 
ATOM     70  H   UNL A   1      43.877  28.768  28.434  1.00  0.00     0.167 HD
ATOM     71  C   UNL A   1      46.386  30.083  28.489  1.00  0.00     0.074 A 
ATOM     72  C   UNL A   1      47.807  30.330  28.352  1.00  0.00     0.031 C 
ATOM     73  C   UNL A   1      45.489  31.011  28.904  1.00  0.00     0.031 A 
BRANCH  60  74
ATOM     74  C   UNL A   1      39.656  28.972  29.060  1.00  0.00    -0.014 A 
ATOM     75  C   UNL A   1      38.832  29.498  28.051  1.00  0.00     0.009 A 
ATOM     76  C   UNL A   1      39.095  28.701  30.317  1.00  0.00     0.009 A 
ATOM     77  C   UNL A   1      37.489  29.780  28.308  1.00  0.00     0.001 A 
ATOM     78  C   UNL A   1      37.744  28.950  30.561  1.00  0.00     0.001 A 
ATOM     79  C   UNL A   1      36.945  29.502  29.561  1.00  0.00     0.000 A 
ENDBRANCH  60  74
BRANCH  61  80
ATOM     80  C   UNL A   1      49.136  26.558  27.034  1.00  0.00    -0.014 A 
ATOM     81  C   UNL A   1      49.621  26.644  25.720  1.00  0.00     0.009 A 
ATOM     82  C   UNL A   1      50.004  26.122  28.048  1.00  0.00     0.009 A 
ATOM     83  C   UNL A   1      50.931  26.263  25.421  1.00  0.00     0.001 A 
ATOM     84  C   UNL A   1      51.325  25.777  27.752  1.00  0.00     0.001 A 
ATOM     85  C   UNL A   1      51.783  25.835  26.438  1.00  0.00     0.000 A 
ENDBRANCH  61  80
BRANCH  73  86
ATOM     86  C   UNL A   1      46.021  32.367  29.281  1.00  0.00    -0.014 A 
ATOM     87  C   UNL A   1      46.476  32.644  30.579  1.00  0.00     0.009 A 
ATOM     88  C   UNL A   1      46.103  33.373  28.304  1.00  0.00     0.009 A 
ATOM     89  C   UNL A   1      46.964  33.913  30.901  1.00  0.00     0.001 A 
ATOM     90  C   UNL A   1      46.627  34.627  28.619  1.00  0.00     0.001 A 
ATOM     91  C   UNL A   1      47.045  34.900  29.920  1.00  0.00     0.000 A 
ENDBRANCH  73  86
ENDBRANCH  47  48
ENDBRANCH  39  42
ENDBRANCH  37  38
ENDBRANCH  36  37
ENDBRANCH  35  36
ENDBRANCH   1  35
TORSDOF 18
ENDMDL
