MODEL 1
REMARK VINA RESULT:     -10.6      0.000      0.000
REMARK SMILES O=C(NCCCCNC(=O)[C@@H]1C[C@@H](O)CN1C(=O)CSc1ccc(F)cc1F)c1ccc(-c2c3nc(c(-c4ccccc4)c4ccc([nH]4)c(-c4ccccc4)c4nc(c(-c5ccccc5)c5ccc2[nH]5)C=C4)C=C3)cc1
REMARK SMILES IDX 6 1 5 2 4 3 3 4 1 5 2 6 29 8 30 9 76 10 31 11 75 12 32 13
REMARK SMILES IDX 33 14 34 15 69 16 35 17 74 18 68 19 70 20 36 21 73 22 67 23
REMARK SMILES IDX 66 24 37 26 59 27 44 28 58 29 45 30 48 31 57 32 71 33 46 34
REMARK SMILES IDX 47 35 56 37 72 38 49 39 38 40 39 41 43 42 40 43 42 44 41 45
REMARK SMILES IDX 60 46 61 47 65 48 62 49 64 50 63 51 50 52 51 53 55 54 52 55
REMARK SMILES IDX 54 56 53 57 7 58 8 59 9 60 10 62 11 63 12 64 16 65 13 66
REMARK SMILES IDX 15 67 17 68 18 69 19 70 20 71 21 72 22 73 27 74 23 75 26 76
REMARK SMILES IDX 28 77 24 78 25 79 14 80
REMARK H PARENT 3 7 70 25 48 36 8 61 14 81
REMARK Flexibility Score: inf
ROOT
ATOM      1  C   UNL A   1      38.465  22.824  25.950  1.00  0.00     0.023 C 
ENDROOT
BRANCH   1   2
ATOM      2  C   UNL A   1      38.544  21.446  25.291  1.00  0.00     0.023 C 
BRANCH   2   3
ATOM      3  C   UNL A   1      38.850  20.277  26.219  1.00  0.00     0.116 C 
BRANCH   3   4
ATOM      4  N   UNL A   1      40.010  19.497  25.813  1.00  0.00    -0.352 N 
ATOM      5  O   UNL A   1      42.161  19.017  25.350  1.00  0.00    -0.269 OA
ATOM      6  C   UNL A   1      41.356  19.783  25.864  1.00  0.00     0.251 C 
ATOM      7  H   UNL A   1      39.795  18.612  25.438  1.00  0.00     0.163 HD
BRANCH   6   8
ATOM      8  C   UNL A   1      41.837  21.034  26.493  1.00  0.00     0.039 A 
ATOM      9  C   UNL A   1      41.882  21.181  27.878  1.00  0.00     0.014 A 
ATOM     10  C   UNL A   1      42.268  22.081  25.672  1.00  0.00     0.014 A 
ATOM     11  C   UNL A   1      42.156  22.428  28.435  1.00  0.00     0.010 A 
ATOM     12  C   UNL A   1      42.641  23.306  26.238  1.00  0.00     0.010 A 
ATOM     13  C   UNL A   1      42.530  23.510  27.621  1.00  0.00    -0.014 A 
BRANCH  13  14
ATOM     14  C   UNL A   1      42.795  24.836  28.241  1.00  0.00     0.031 A 
ATOM     15  C   UNL A   1      44.193  25.249  28.622  1.00  0.00     0.074 A 
ATOM     16  C   UNL A   1      41.775  25.698  28.419  1.00  0.00     0.049 A 
ATOM     17  N   UNL A   1      44.611  26.390  29.113  1.00  0.00    -0.248 NA
ATOM     18  C   UNL A   1      45.261  24.254  28.436  1.00  0.00     0.031 C 
ATOM     19  C   UNL A   1      40.372  25.426  28.094  1.00  0.00     0.029 A 
ATOM     20  N   UNL A   1      41.762  26.986  28.889  1.00  0.00    -0.354 N 
ATOM     21  C   UNL A   1      45.978  26.240  29.319  1.00  0.00     0.074 A 
ATOM     22  C   UNL A   1      46.316  24.890  28.924  1.00  0.00     0.031 C 
ATOM     23  C   UNL A   1      39.648  26.532  28.315  1.00  0.00     0.029 A 
ATOM     24  C   UNL A   1      40.520  27.571  28.850  1.00  0.00     0.049 A 
ATOM     25  H   UNL A   1      42.566  27.447  29.221  1.00  0.00     0.167 HD
ATOM     26  C   UNL A   1      46.873  27.143  29.787  1.00  0.00     0.031 A 
ATOM     27  C   UNL A   1      40.122  28.806  29.206  1.00  0.00     0.031 A 
ATOM     28  C   UNL A   1      46.546  28.493  30.168  1.00  0.00     0.049 A 
ATOM     29  C   UNL A   1      41.130  29.781  29.739  1.00  0.00     0.074 A 
ATOM     30  C   UNL A   1      47.393  29.493  30.613  1.00  0.00     0.029 A 
ATOM     31  N   UNL A   1      45.268  29.031  30.153  1.00  0.00    -0.354 N 
ATOM     32  N   UNL A   1      42.423  29.634  29.890  1.00  0.00    -0.248 NA
ATOM     33  C   UNL A   1      40.620  31.098  30.148  1.00  0.00     0.031 C 
ATOM     34  C   UNL A   1      46.621  30.621  30.915  1.00  0.00     0.029 A 
ATOM     35  C   UNL A   1      45.301  30.341  30.604  1.00  0.00     0.049 A 
ATOM     36  H   UNL A   1      44.457  28.552  29.864  1.00  0.00     0.167 HD
ATOM     37  C   UNL A   1      42.887  30.846  30.382  1.00  0.00     0.074 A 
ATOM     38  C   UNL A   1      41.737  31.721  30.492  1.00  0.00     0.031 C 
ATOM     39  C   UNL A   1      44.152  31.202  30.710  1.00  0.00     0.031 A 
BRANCH  26  40
ATOM     40  C   UNL A   1      48.299  26.690  29.945  1.00  0.00    -0.014 A 
ATOM     41  C   UNL A   1      49.249  26.885  28.931  1.00  0.00     0.009 A 
ATOM     42  C   UNL A   1      48.705  26.088  31.148  1.00  0.00     0.009 A 
ATOM     43  C   UNL A   1      50.566  26.451  29.103  1.00  0.00     0.001 A 
ATOM     44  C   UNL A   1      50.029  25.682  31.328  1.00  0.00     0.001 A 
ATOM     45  C   UNL A   1      50.956  25.854  30.301  1.00  0.00     0.000 A 
ENDBRANCH  26  40
BRANCH  27  46
ATOM     46  C   UNL A   1      38.695  29.195  29.055  1.00  0.00    -0.014 A 
ATOM     47  C   UNL A   1      37.808  29.076  30.135  1.00  0.00     0.009 A 
ATOM     48  C   UNL A   1      38.218  29.695  27.834  1.00  0.00     0.009 A 
ATOM     49  C   UNL A   1      36.466  29.430  29.989  1.00  0.00     0.001 A 
ATOM     50  C   UNL A   1      36.881  30.076  27.699  1.00  0.00     0.001 A 
ATOM     51  C   UNL A   1      36.005  29.935  28.774  1.00  0.00     0.000 A 
ENDBRANCH  27  46
BRANCH  39  52
ATOM     52  C   UNL A   1      44.366  32.615  31.176  1.00  0.00    -0.014 A 
ATOM     53  C   UNL A   1      44.676  33.644  30.274  1.00  0.00     0.009 A 
ATOM     54  C   UNL A   1      44.238  32.920  32.540  1.00  0.00     0.009 A 
ATOM     55  C   UNL A   1      44.890  34.945  30.735  1.00  0.00     0.001 A 
ATOM     56  C   UNL A   1      44.424  34.226  32.994  1.00  0.00     0.001 A 
ATOM     57  C   UNL A   1      44.761  35.235  32.094  1.00  0.00     0.000 A 
ENDBRANCH  39  52
ENDBRANCH  13  14
ENDBRANCH   6   8
ENDBRANCH   3   4
ENDBRANCH   2   3
ENDBRANCH   1   2
BRANCH   1  58
ATOM     58  C   UNL A   1      37.189  23.623  25.702  1.00  0.00     0.116 C 
BRANCH  58  59
ATOM     59  N   UNL A   1      36.027  23.186  26.459  1.00  0.00    -0.354 N 
ATOM     60  C   UNL A   1      34.727  23.614  26.278  1.00  0.00     0.242 C 
ATOM     61  H   UNL A   1      36.182  22.522  27.168  1.00  0.00     0.163 HD
ATOM     62  O   UNL A   1      33.813  23.054  26.885  1.00  0.00    -0.273 OA
BRANCH  60  63
ATOM     63  C   UNL A   1      34.493  24.767  25.279  1.00  0.00     0.177 C 
ATOM     64  C   UNL A   1      33.491  25.784  25.848  1.00  0.00     0.069 C 
ATOM     65  N   UNL A   1      33.918  24.484  23.955  1.00  0.00    -0.327 N 
ATOM     66  C   UNL A   1      33.160  26.639  24.632  1.00  0.00     0.136 C 
ATOM     67  C   UNL A   1      33.149  25.633  23.475  1.00  0.00     0.152 C 
BRANCH  65  68
ATOM     68  C   UNL A   1      34.174  23.330  23.247  1.00  0.00     0.233 C 
ATOM     69  O   UNL A   1      35.320  22.990  22.952  1.00  0.00    -0.274 OA
BRANCH  68  70
ATOM     70  C   UNL A   1      33.014  22.452  22.813  1.00  0.00     0.175 C 
BRANCH  70  71
ATOM     71  S   UNL A   1      32.221  21.593  24.205  1.00  0.00    -0.113 SA
BRANCH  71  72
ATOM     72  C   UNL A   1      32.865  19.945  23.975  1.00  0.00     0.044 A 
ATOM     73  C   UNL A   1      32.225  19.085  23.073  1.00  0.00     0.021 A 
ATOM     74  C   UNL A   1      34.017  19.499  24.634  1.00  0.00     0.139 A 
ATOM     75  C   UNL A   1      32.728  17.802  22.848  1.00  0.00     0.040 A 
ATOM     76  C   UNL A   1      34.531  18.227  24.405  1.00  0.00     0.079 A 
ATOM     77  F   UNL A   1      34.656  20.298  25.504  1.00  0.00    -0.206 F 
ATOM     78  C   UNL A   1      33.877  17.388  23.512  1.00  0.00     0.126 A 
ATOM     79  F   UNL A   1      34.364  16.161  23.282  1.00  0.00    -0.207 F 
ENDBRANCH  71  72
ENDBRANCH  70  71
ENDBRANCH  68  70
ENDBRANCH  65  68
BRANCH  66  80
ATOM     80  O   UNL A   1      34.162  27.641  24.453  1.00  0.00    -0.391 OA
ATOM     81  H   UNL A   1      34.993  27.221  24.183  1.00  0.00     0.211 HD
ENDBRANCH  66  80
ENDBRANCH  60  63
ENDBRANCH  58  59
ENDBRANCH   1  58
TORSDOF 16
ENDMDL
MODEL 2
REMARK VINA RESULT:     -10.6      3.932      9.128
REMARK SMILES O=C(NCCCCNC(=O)[C@@H]1C[C@@H](O)CN1C(=O)CSc1ccc(F)cc1F)c1ccc(-c2c3nc(c(-c4ccccc4)c4ccc([nH]4)c(-c4ccccc4)c4nc(c(-c5ccccc5)c5ccc2[nH]5)C=C4)C=C3)cc1
REMARK SMILES IDX 6 1 5 2 4 3 3 4 1 5 2 6 29 8 30 9 76 10 31 11 75 12 32 13
REMARK SMILES IDX 33 14 34 15 69 16 35 17 74 18 68 19 70 20 36 21 73 22 67 23
REMARK SMILES IDX 66 24 37 26 59 27 44 28 58 29 45 30 48 31 57 32 71 33 46 34
REMARK SMILES IDX 47 35 56 37 72 38 49 39 38 40 39 41 43 42 40 43 42 44 41 45
REMARK SMILES IDX 60 46 61 47 65 48 62 49 64 50 63 51 50 52 51 53 55 54 52 55
REMARK SMILES IDX 54 56 53 57 7 58 8 59 9 60 10 62 11 63 12 64 16 65 13 66
REMARK SMILES IDX 15 67 17 68 18 69 19 70 20 71 21 72 22 73 27 74 23 75 26 76
REMARK SMILES IDX 28 77 24 78 25 79 14 80
REMARK H PARENT 3 7 70 25 48 36 8 61 14 81
REMARK Flexibility Score: inf
ROOT
ATOM      1  C   UNL A   1      34.226  30.166  27.575  1.00  0.00     0.023 C 
ENDROOT
BRANCH   1   2
ATOM      2  C   UNL A   1      32.891  30.912  27.593  1.00  0.00     0.023 C 
BRANCH   2   3
ATOM      3  C   UNL A   1      32.782  32.109  26.655  1.00  0.00     0.116 C 
BRANCH   3   4
ATOM      4  N   UNL A   1      32.402  33.344  27.326  1.00  0.00    -0.352 N 
ATOM      5  O   UNL A   1      32.472  35.033  28.814  1.00  0.00    -0.269 OA
ATOM      6  C   UNL A   1      33.039  34.075  28.303  1.00  0.00     0.251 C 
ATOM      7  H   UNL A   1      31.543  33.721  27.028  1.00  0.00     0.163 HD
BRANCH   6   8
ATOM      8  C   UNL A   1      34.386  33.685  28.779  1.00  0.00     0.039 A 
ATOM      9  C   UNL A   1      35.533  34.001  28.054  1.00  0.00     0.014 A 
ATOM     10  C   UNL A   1      34.502  32.996  29.991  1.00  0.00     0.014 A 
ATOM     11  C   UNL A   1      36.761  33.459  28.426  1.00  0.00     0.010 A 
ATOM     12  C   UNL A   1      35.753  32.536  30.418  1.00  0.00     0.010 A 
ATOM     13  C   UNL A   1      36.885  32.711  29.609  1.00  0.00    -0.014 A 
BRANCH  13  14
ATOM     14  C   UNL A   1      38.204  32.125  29.970  1.00  0.00     0.031 A 
ATOM     15  C   UNL A   1      39.110  32.806  30.962  1.00  0.00     0.074 A 
ATOM     16  C   UNL A   1      38.570  30.943  29.436  1.00  0.00     0.049 A 
ATOM     17  N   UNL A   1      40.263  32.403  31.438  1.00  0.00    -0.248 NA
ATOM     18  C   UNL A   1      38.673  34.110  31.484  1.00  0.00     0.031 C 
ATOM     19  C   UNL A   1      37.787  30.176  28.464  1.00  0.00     0.029 A 
ATOM     20  N   UNL A   1      39.677  30.165  29.658  1.00  0.00    -0.354 N 
ATOM     21  C   UNL A   1      40.700  33.412  32.289  1.00  0.00     0.074 A 
ATOM     22  C   UNL A   1      39.701  34.457  32.247  1.00  0.00     0.031 C 
ATOM     23  C   UNL A   1      38.407  29.012  28.221  1.00  0.00     0.029 A 
ATOM     24  C   UNL A   1      39.656  28.973  28.973  1.00  0.00     0.049 A 
ATOM     25  H   UNL A   1      40.415  30.432  30.251  1.00  0.00     0.167 HD
ATOM     26  C   UNL A   1      41.824  33.463  33.044  1.00  0.00     0.031 A 
ATOM     27  C   UNL A   1      40.541  27.961  28.949  1.00  0.00     0.031 A 
ATOM     28  C   UNL A   1      42.815  32.419  33.102  1.00  0.00     0.049 A 
ATOM     29  C   UNL A   1      41.788  28.051  29.779  1.00  0.00     0.074 A 
ATOM     30  C   UNL A   1      43.965  32.364  33.870  1.00  0.00     0.029 A 
ATOM     31  N   UNL A   1      42.774  31.250  32.360  1.00  0.00    -0.354 N 
ATOM     32  N   UNL A   1      42.163  28.995  30.606  1.00  0.00    -0.248 NA
ATOM     33  C   UNL A   1      42.732  26.929  29.673  1.00  0.00     0.031 C 
ATOM     34  C   UNL A   1      44.647  31.182  33.555  1.00  0.00     0.029 A 
ATOM     35  C   UNL A   1      43.892  30.477  32.634  1.00  0.00     0.049 A 
ATOM     36  H   UNL A   1      42.057  31.003  31.731  1.00  0.00     0.167 HD
ATOM     37  C   UNL A   1      43.370  28.569  31.143  1.00  0.00     0.074 A 
ATOM     38  C   UNL A   1      43.657  27.276  30.556  1.00  0.00     0.031 C 
ATOM     39  C   UNL A   1      44.168  29.193  32.043  1.00  0.00     0.031 A 
BRANCH  26  40
ATOM     40  C   UNL A   1      42.062  34.711  33.851  1.00  0.00    -0.014 A 
ATOM     41  C   UNL A   1      41.650  34.810  35.188  1.00  0.00     0.009 A 
ATOM     42  C   UNL A   1      42.745  35.792  33.269  1.00  0.00     0.009 A 
ATOM     43  C   UNL A   1      41.882  35.982  35.914  1.00  0.00     0.001 A 
ATOM     44  C   UNL A   1      43.000  36.950  34.005  1.00  0.00     0.001 A 
ATOM     45  C   UNL A   1      42.559  37.048  35.324  1.00  0.00     0.000 A 
ENDBRANCH  26  40
BRANCH  27  46
ATOM     46  C   UNL A   1      40.271  26.763  28.112  1.00  0.00    -0.014 A 
ATOM     47  C   UNL A   1      40.794  26.668  26.814  1.00  0.00     0.009 A 
ATOM     48  C   UNL A   1      39.496  25.705  28.613  1.00  0.00     0.009 A 
ATOM     49  C   UNL A   1      40.529  25.547  26.026  1.00  0.00     0.001 A 
ATOM     50  C   UNL A   1      39.257  24.572  27.833  1.00  0.00     0.001 A 
ATOM     51  C   UNL A   1      39.767  24.498  26.537  1.00  0.00     0.000 A 
ENDBRANCH  27  46
BRANCH  39  52
ATOM     52  C   UNL A   1      45.405  28.462  32.483  1.00  0.00    -0.014 A 
ATOM     53  C   UNL A   1      46.632  28.638  31.824  1.00  0.00     0.009 A 
ATOM     54  C   UNL A   1      45.342  27.597  33.586  1.00  0.00     0.009 A 
ATOM     55  C   UNL A   1      47.762  27.931  32.239  1.00  0.00     0.001 A 
ATOM     56  C   UNL A   1      46.481  26.914  34.017  1.00  0.00     0.001 A 
ATOM     57  C   UNL A   1      47.687  27.073  33.337  1.00  0.00     0.000 A 
ENDBRANCH  39  52
ENDBRANCH  13  14
ENDBRANCH   6   8
ENDBRANCH   3   4
ENDBRANCH   2   3
ENDBRANCH   1   2
BRANCH   1  58
ATOM     58  C   UNL A   1      34.211  28.761  26.979  1.00  0.00     0.116 C 
BRANCH  58  59
ATOM     59  N   UNL A   1      34.155  28.704  25.527  1.00  0.00    -0.354 N 
ATOM     60  C   UNL A   1      33.858  27.593  24.764  1.00  0.00     0.242 C 
ATOM     61  H   UNL A   1      34.347  29.539  25.042  1.00  0.00     0.163 HD
ATOM     62  O   UNL A   1      33.698  27.714  23.549  1.00  0.00    -0.273 OA
BRANCH  60  63
ATOM     63  C   UNL A   1      33.708  26.246  25.503  1.00  0.00     0.177 C 
ATOM     64  C   UNL A   1      34.393  25.116  24.717  1.00  0.00     0.069 C 
ATOM     65  N   UNL A   1      32.369  25.683  25.737  1.00  0.00    -0.327 N 
ATOM     66  C   UNL A   1      33.876  23.865  25.417  1.00  0.00     0.136 C 
ATOM     67  C   UNL A   1      32.427  24.222  25.769  1.00  0.00     0.152 C 
BRANCH  65  68
ATOM     68  C   UNL A   1      31.257  26.454  25.993  1.00  0.00     0.233 C 
ATOM     69  O   UNL A   1      31.218  27.250  26.931  1.00  0.00    -0.274 OA
BRANCH  68  70
ATOM     70  C   UNL A   1      30.038  26.320  25.097  1.00  0.00     0.175 C 
BRANCH  70  71
ATOM     71  S   UNL A   1      30.362  26.841  23.384  1.00  0.00    -0.113 SA
BRANCH  71  72
ATOM     72  C   UNL A   1      29.466  28.383  23.343  1.00  0.00     0.044 A 
ATOM     73  C   UNL A   1      28.125  28.379  22.939  1.00  0.00     0.021 A 
ATOM     74  C   UNL A   1      30.049  29.591  23.746  1.00  0.00     0.139 A 
ATOM     75  C   UNL A   1      27.391  29.567  22.930  1.00  0.00     0.040 A 
ATOM     76  C   UNL A   1      29.319  30.776  23.751  1.00  0.00     0.079 A 
ATOM     77  F   UNL A   1      31.332  29.630  24.140  1.00  0.00    -0.206 F 
ATOM     78  C   UNL A   1      27.993  30.751  23.341  1.00  0.00     0.126 A 
ATOM     79  F   UNL A   1      27.281  31.886  23.344  1.00  0.00    -0.207 F 
ENDBRANCH  71  72
ENDBRANCH  70  71
ENDBRANCH  68  70
ENDBRANCH  65  68
BRANCH  66  80
ATOM     80  O   UNL A   1      34.656  23.603  26.584  1.00  0.00    -0.391 OA
ATOM     81  H   UNL A   1      34.553  22.674  26.839  1.00  0.00     0.211 HD
ENDBRANCH  66  80
ENDBRANCH  60  63
ENDBRANCH  58  59
ENDBRANCH   1  58
TORSDOF 16
ENDMDL
MODEL 3
REMARK VINA RESULT:     -10.3      2.370      7.305
REMARK SMILES O=C(NCCCCNC(=O)[C@@H]1C[C@@H](O)CN1C(=O)CSc1ccc(F)cc1F)c1ccc(-c2c3nc(c(-c4ccccc4)c4ccc([nH]4)c(-c4ccccc4)c4nc(c(-c5ccccc5)c5ccc2[nH]5)C=C4)C=C3)cc1
REMARK SMILES IDX 6 1 5 2 4 3 3 4 1 5 2 6 29 8 30 9 76 10 31 11 75 12 32 13
REMARK SMILES IDX 33 14 34 15 69 16 35 17 74 18 68 19 70 20 36 21 73 22 67 23
REMARK SMILES IDX 66 24 37 26 59 27 44 28 58 29 45 30 48 31 57 32 71 33 46 34
REMARK SMILES IDX 47 35 56 37 72 38 49 39 38 40 39 41 43 42 40 43 42 44 41 45
REMARK SMILES IDX 60 46 61 47 65 48 62 49 64 50 63 51 50 52 51 53 55 54 52 55
REMARK SMILES IDX 54 56 53 57 7 58 8 59 9 60 10 62 11 63 12 64 16 65 13 66
REMARK SMILES IDX 15 67 17 68 18 69 19 70 20 71 21 72 22 73 27 74 23 75 26 76
REMARK SMILES IDX 28 77 24 78 25 79 14 80
REMARK H PARENT 3 7 70 25 48 36 8 61 14 81
REMARK Flexibility Score: inf
ROOT
ATOM      1  C   UNL A   1      33.621  27.526  25.193  1.00  0.00     0.023 C 
ENDROOT
BRANCH   1   2
ATOM      2  C   UNL A   1      33.792  28.888  25.867  1.00  0.00     0.023 C 
BRANCH   2   3
ATOM      3  C   UNL A   1      33.594  28.917  27.378  1.00  0.00     0.116 C 
BRANCH   3   4
ATOM      4  N   UNL A   1      33.690  30.250  27.954  1.00  0.00    -0.352 N 
ATOM      5  O   UNL A   1      34.544  31.980  29.116  1.00  0.00    -0.269 OA
ATOM      6  C   UNL A   1      34.727  30.885  28.600  1.00  0.00     0.251 C 
ATOM      7  H   UNL A   1      32.872  30.791  27.868  1.00  0.00     0.163 HD
BRANCH   6   8
ATOM      8  C   UNL A   1      36.052  30.233  28.718  1.00  0.00     0.039 A 
ATOM      9  C   UNL A   1      36.466  29.639  29.908  1.00  0.00     0.014 A 
ATOM     10  C   UNL A   1      36.894  30.206  27.602  1.00  0.00     0.014 A 
ATOM     11  C   UNL A   1      37.783  29.206  30.046  1.00  0.00     0.010 A 
ATOM     12  C   UNL A   1      38.186  29.678  27.712  1.00  0.00     0.010 A 
ATOM     13  C   UNL A   1      38.663  29.229  28.952  1.00  0.00    -0.014 A 
BRANCH  13  14
ATOM     14  C   UNL A   1      40.070  28.782  29.134  1.00  0.00     0.031 A 
ATOM     15  C   UNL A   1      40.515  27.416  28.681  1.00  0.00     0.074 A 
ATOM     16  C   UNL A   1      40.970  29.631  29.668  1.00  0.00     0.049 A 
ATOM     17  N   UNL A   1      41.715  26.889  28.704  1.00  0.00    -0.248 NA
ATOM     18  C   UNL A   1      39.482  26.520  28.136  1.00  0.00     0.031 C 
ATOM     19  C   UNL A   1      40.673  30.983  30.149  1.00  0.00     0.029 A 
ATOM     20  N   UNL A   1      42.319  29.496  29.870  1.00  0.00    -0.354 N 
ATOM     21  C   UNL A   1      41.576  25.597  28.208  1.00  0.00     0.074 A 
ATOM     22  C   UNL A   1      40.172  25.411  27.914  1.00  0.00     0.031 C 
ATOM     23  C   UNL A   1      41.815  31.574  30.530  1.00  0.00     0.029 A 
ATOM     24  C   UNL A   1      42.914  30.627  30.377  1.00  0.00     0.049 A 
ATOM     25  H   UNL A   1      42.815  28.670  29.670  1.00  0.00     0.167 HD
ATOM     26  C   UNL A   1      42.528  24.655  28.007  1.00  0.00     0.031 A 
ATOM     27  C   UNL A   1      44.199  30.877  30.686  1.00  0.00     0.031 A 
ATOM     28  C   UNL A   1      43.930  24.840  28.284  1.00  0.00     0.049 A 
ATOM     29  C   UNL A   1      45.231  29.809  30.472  1.00  0.00     0.074 A 
ATOM     30  C   UNL A   1      44.974  23.956  28.073  1.00  0.00     0.029 A 
ATOM     31  N   UNL A   1      44.481  25.985  28.836  1.00  0.00    -0.354 N 
ATOM     32  N   UNL A   1      45.086  28.610  29.966  1.00  0.00    -0.248 NA
ATOM     33  C   UNL A   1      46.608  30.135  30.870  1.00  0.00     0.031 C 
ATOM     34  C   UNL A   1      46.152  24.549  28.544  1.00  0.00     0.029 A 
ATOM     35  C   UNL A   1      45.848  25.822  28.996  1.00  0.00     0.049 A 
ATOM     36  H   UNL A   1      43.976  26.796  29.079  1.00  0.00     0.167 HD
ATOM     37  C   UNL A   1      46.355  28.048  29.956  1.00  0.00     0.074 A 
ATOM     38  C   UNL A   1      47.259  29.044  30.496  1.00  0.00     0.031 C 
ATOM     39  C   UNL A   1      46.737  26.818  29.535  1.00  0.00     0.031 A 
BRANCH  26  40
ATOM     40  C   UNL A   1      42.080  23.316  27.487  1.00  0.00    -0.014 A 
ATOM     41  C   UNL A   1      42.234  22.962  26.138  1.00  0.00     0.009 A 
ATOM     42  C   UNL A   1      41.528  22.377  28.375  1.00  0.00     0.009 A 
ATOM     43  C   UNL A   1      41.806  21.713  25.681  1.00  0.00     0.001 A 
ATOM     44  C   UNL A   1      41.129  21.119  27.921  1.00  0.00     0.001 A 
ATOM     45  C   UNL A   1      41.259  20.792  26.572  1.00  0.00     0.000 A 
ENDBRANCH  26  40
BRANCH  27  46
ATOM     46  C   UNL A   1      44.583  32.208  31.223  1.00  0.00    -0.014 A 
ATOM     47  C   UNL A   1      44.895  33.263  30.353  1.00  0.00     0.009 A 
ATOM     48  C   UNL A   1      44.631  32.431  32.608  1.00  0.00     0.009 A 
ATOM     49  C   UNL A   1      45.268  34.510  30.859  1.00  0.00     0.001 A 
ATOM     50  C   UNL A   1      44.975  33.688  33.111  1.00  0.00     0.001 A 
ATOM     51  C   UNL A   1      45.301  34.723  32.236  1.00  0.00     0.000 A 
ENDBRANCH  27  46
BRANCH  39  52
ATOM     52  C   UNL A   1      48.204  26.499  29.599  1.00  0.00    -0.014 A 
ATOM     53  C   UNL A   1      48.761  25.836  30.704  1.00  0.00     0.009 A 
ATOM     54  C   UNL A   1      49.037  26.853  28.526  1.00  0.00     0.009 A 
ATOM     55  C   UNL A   1      50.131  25.569  30.748  1.00  0.00     0.001 A 
ATOM     56  C   UNL A   1      50.401  26.559  28.561  1.00  0.00     0.001 A 
ATOM     57  C   UNL A   1      50.949  25.927  29.676  1.00  0.00     0.000 A 
ENDBRANCH  39  52
ENDBRANCH  13  14
ENDBRANCH   6   8
ENDBRANCH   3   4
ENDBRANCH   2   3
ENDBRANCH   1   2
BRANCH   1  58
ATOM     58  C   UNL A   1      32.327  27.311  24.413  1.00  0.00     0.116 C 
BRANCH  58  59
ATOM     59  N   UNL A   1      31.183  26.900  25.209  1.00  0.00    -0.354 N 
ATOM     60  C   UNL A   1      30.765  25.603  25.431  1.00  0.00     0.242 C 
ATOM     61  H   UNL A   1      30.654  27.616  25.631  1.00  0.00     0.163 HD
ATOM     62  O   UNL A   1      29.869  25.384  26.247  1.00  0.00    -0.273 OA
BRANCH  60  63
ATOM     63  C   UNL A   1      31.488  24.484  24.651  1.00  0.00     0.177 C 
ATOM     64  C   UNL A   1      30.581  23.919  23.547  1.00  0.00     0.069 C 
ATOM     65  N   UNL A   1      31.912  23.260  25.349  1.00  0.00    -0.327 N 
ATOM     66  C   UNL A   1      31.322  22.658  23.121  1.00  0.00     0.136 C 
ATOM     67  C   UNL A   1      31.901  22.119  24.434  1.00  0.00     0.152 C 
BRANCH  65  68
ATOM     68  C   UNL A   1      32.353  23.247  26.655  1.00  0.00     0.233 C 
ATOM     69  O   UNL A   1      31.587  23.045  27.598  1.00  0.00    -0.274 OA
BRANCH  68  70
ATOM     70  C   UNL A   1      33.823  23.492  26.946  1.00  0.00     0.175 C 
BRANCH  70  71
ATOM     71  S   UNL A   1      34.763  23.972  25.465  1.00  0.00    -0.113 SA
BRANCH  71  72
ATOM     72  C   UNL A   1      35.912  22.610  25.360  1.00  0.00     0.044 A 
ATOM     73  C   UNL A   1      35.430  21.338  25.028  1.00  0.00     0.021 A 
ATOM     74  C   UNL A   1      37.288  22.784  25.555  1.00  0.00     0.139 A 
ATOM     75  C   UNL A   1      36.311  20.262  24.906  1.00  0.00     0.040 A 
ATOM     76  C   UNL A   1      38.173  21.718  25.423  1.00  0.00     0.079 A 
ATOM     77  F   UNL A   1      37.785  23.990  25.873  1.00  0.00    -0.206 F 
ATOM     78  C   UNL A   1      37.674  20.464  25.099  1.00  0.00     0.126 A 
ATOM     79  F   UNL A   1      38.517  19.432  24.968  1.00  0.00    -0.207 F 
ENDBRANCH  71  72
ENDBRANCH  70  71
ENDBRANCH  68  70
ENDBRANCH  65  68
BRANCH  66  80
ATOM     80  O   UNL A   1      32.349  22.991  22.186  1.00  0.00    -0.391 OA
ATOM     81  H   UNL A   1      31.947  23.339  21.375  1.00  0.00     0.211 HD
ENDBRANCH  66  80
ENDBRANCH  60  63
ENDBRANCH  58  59
ENDBRANCH   1  58
TORSDOF 16
ENDMDL
