MODEL 1
REMARK VINA RESULT:     -11.3      0.000      0.000
REMARK SMILES COC(=O)[C@H]1Sc2nnc(CCC(=O)NCCCCNC(=O)c3ccc(-c4c5nc(c(-c6ccccc6)c6ccc([nH]6)c(-c6ccccc6)c6nc(c(-c7ccccc7)c7ccc4[nH]7)C=C6)C=C5)cc3)c(=O)n2N=C1C
REMARK SMILES IDX 16 1 15 2 13 3 14 4 12 6 11 7 10 8 5 9 6 10 75 11 7 12 74 13
REMARK SMILES IDX 76 14 8 15 73 16 9 17 71 18 72 19 3 20 4 21 2 22 1 23 17 24
REMARK SMILES IDX 18 25 19 26 20 27 21 28 22 30 23 31 24 32 70 33 25 34 69 35
REMARK SMILES IDX 26 36 27 37 28 38 63 39 29 40 68 41 62 42 64 43 30 44 67 45
REMARK SMILES IDX 61 46 60 47 31 49 53 50 38 51 52 52 39 53 42 54 51 55 65 56
REMARK SMILES IDX 40 57 41 58 50 60 66 61 43 62 32 63 33 64 37 65 34 66 36 67
REMARK SMILES IDX 35 68 54 69 55 70 59 71 56 72 58 73 57 74 44 75 45 76 49 77
REMARK SMILES IDX 46 78 48 79 47 80
REMARK H PARENT 15 5 20 29 64 48 42 59
REMARK Flexibility Score: inf
ROOT
ATOM      1  C   UNL A   1      35.580  20.816  25.022  1.00  0.00     0.116 C 
ENDROOT
BRANCH   1   2
ATOM      2  N   UNL A   1      34.453  19.907  25.009  1.00  0.00    -0.356 N 
ATOM      3  C   UNL A   1      33.181  20.112  25.452  1.00  0.00     0.220 C 
ATOM      4  O   UNL A   1      32.431  19.139  25.543  1.00  0.00    -0.275 OA
ATOM      5  H   UNL A   1      34.632  19.017  24.627  1.00  0.00     0.163 HD
BRANCH   3   6
ATOM      6  C   UNL A   1      32.705  21.506  25.815  1.00  0.00     0.106 C 
BRANCH   6   7
ATOM      7  C   UNL A   1      31.233  21.730  25.473  1.00  0.00     0.074 C 
BRANCH   7   8
ATOM      8  C   UNL A   1      30.944  23.154  25.044  1.00  0.00     0.131 A 
ATOM      9  C   UNL A   1      31.458  28.207  24.974  1.00  0.00     0.210 C 
ATOM     10  S   UNL A   1      30.269  27.362  23.904  1.00  0.00    -0.063 SA
ATOM     11  C   UNL A   1      31.389  27.625  26.366  1.00  0.00     0.061 C 
ATOM     12  C   UNL A   1      30.659  25.726  24.359  1.00  0.00     0.214 A 
ATOM     13  N   UNL A   1      31.060  26.407  26.676  1.00  0.00    -0.171 NA
ATOM     14  C   UNL A   1      31.681  28.527  27.547  1.00  0.00     0.065 C 
ATOM     15  N   UNL A   1      30.699  24.818  23.440  1.00  0.00    -0.123 NA
ATOM     16  N   UNL A   1      30.816  25.470  25.695  1.00  0.00    -0.169 N 
ATOM     17  N   UNL A   1      31.000  23.491  23.792  1.00  0.00    -0.147 NA
ATOM     18  C   UNL A   1      30.644  24.168  26.117  1.00  0.00     0.296 A 
ATOM     19  O   UNL A   1      30.331  23.783  27.236  1.00  0.00    -0.265 OA
BRANCH   9  20
ATOM     20  C   UNL A   1      32.782  28.274  24.246  1.00  0.00     0.325 C 
ATOM     21  O   UNL A   1      33.852  28.364  24.845  1.00  0.00    -0.250 OA
BRANCH  20  22
ATOM     22  O   UNL A   1      32.667  28.353  22.886  1.00  0.00    -0.468 OA
ATOM     23  C   UNL A   1      33.579  27.473  22.199  1.00  0.00     0.282 C 
ENDBRANCH  20  22
ENDBRANCH   9  20
ENDBRANCH   7   8
ENDBRANCH   6   7
ENDBRANCH   3   6
ENDBRANCH   1   2
BRANCH   1  24
ATOM     24  C   UNL A   1      36.877  20.023  24.977  1.00  0.00     0.023 C 
BRANCH  24  25
ATOM     25  C   UNL A   1      38.153  20.848  24.893  1.00  0.00     0.023 C 
BRANCH  25  26
ATOM     26  C   UNL A   1      39.070  20.722  26.102  1.00  0.00     0.116 C 
BRANCH  26  27
ATOM     27  N   UNL A   1      40.006  19.608  25.999  1.00  0.00    -0.352 N 
ATOM     28  C   UNL A   1      41.371  19.537  26.128  1.00  0.00     0.251 C 
ATOM     29  H   UNL A   1      39.578  18.745  25.797  1.00  0.00     0.163 HD
ATOM     30  O   UNL A   1      41.967  18.504  25.860  1.00  0.00    -0.269 OA
BRANCH  28  31
ATOM     31  C   UNL A   1      42.147  20.724  26.473  1.00  0.00     0.039 A 
ATOM     32  C   UNL A   1      42.535  21.568  25.425  1.00  0.00     0.014 A 
ATOM     33  C   UNL A   1      42.418  21.037  27.800  1.00  0.00     0.014 A 
ATOM     34  C   UNL A   1      43.082  22.801  25.723  1.00  0.00     0.010 A 
ATOM     35  C   UNL A   1      42.844  22.310  28.101  1.00  0.00     0.010 A 
ATOM     36  C   UNL A   1      43.169  23.194  27.061  1.00  0.00    -0.014 A 
BRANCH  36  37
ATOM     37  C   UNL A   1      43.651  24.528  27.423  1.00  0.00     0.031 A 
ATOM     38  C   UNL A   1      42.652  25.514  27.933  1.00  0.00     0.074 A 
ATOM     39  C   UNL A   1      44.941  24.829  27.200  1.00  0.00     0.049 A 
ATOM     40  N   UNL A   1      42.796  26.788  28.155  1.00  0.00    -0.248 NA
ATOM     41  C   UNL A   1      41.287  25.005  28.172  1.00  0.00     0.031 C 
ATOM     42  C   UNL A   1      45.952  23.902  26.675  1.00  0.00     0.029 A 
ATOM     43  N   UNL A   1      45.626  25.994  27.389  1.00  0.00    -0.354 N 
ATOM     44  C   UNL A   1      41.537  27.238  28.522  1.00  0.00     0.074 A 
ATOM     45  C   UNL A   1      40.628  26.120  28.435  1.00  0.00     0.031 C 
ATOM     46  C   UNL A   1      47.140  24.526  26.633  1.00  0.00     0.029 A 
ATOM     47  C   UNL A   1      46.962  25.901  27.080  1.00  0.00     0.049 A 
ATOM     48  H   UNL A   1      45.205  26.822  27.714  1.00  0.00     0.167 HD
ATOM     49  C   UNL A   1      41.187  28.478  28.925  1.00  0.00     0.031 A 
ATOM     50  C   UNL A   1      47.923  26.836  27.161  1.00  0.00     0.031 A 
ATOM     51  C   UNL A   1      42.137  29.547  29.033  1.00  0.00     0.049 A 
ATOM     52  C   UNL A   1      47.516  28.200  27.643  1.00  0.00     0.074 A 
ATOM     53  C   UNL A   1      41.937  30.848  29.446  1.00  0.00     0.029 A 
ATOM     54  N   UNL A   1      43.489  29.413  28.738  1.00  0.00    -0.354 N 
ATOM     55  N   UNL A   1      46.323  28.621  27.998  1.00  0.00    -0.248 NA
ATOM     56  C   UNL A   1      48.571  29.214  27.738  1.00  0.00     0.031 C 
ATOM     57  C   UNL A   1      43.169  31.507  29.384  1.00  0.00     0.029 A 
ATOM     58  C   UNL A   1      44.141  30.606  28.966  1.00  0.00     0.049 A 
ATOM     59  H   UNL A   1      43.918  28.587  28.415  1.00  0.00     0.167 HD
ATOM     60  C   UNL A   1      46.482  29.947  28.370  1.00  0.00     0.074 A 
ATOM     61  C   UNL A   1      47.893  30.251  28.214  1.00  0.00     0.031 C 
ATOM     62  C   UNL A   1      45.554  30.838  28.795  1.00  0.00     0.031 A 
BRANCH  49  63
ATOM     63  C   UNL A   1      39.743  28.703  29.267  1.00  0.00    -0.014 A 
ATOM     64  C   UNL A   1      38.837  29.177  28.304  1.00  0.00     0.009 A 
ATOM     65  C   UNL A   1      39.288  28.483  30.576  1.00  0.00     0.009 A 
ATOM     66  C   UNL A   1      37.519  29.474  28.655  1.00  0.00     0.001 A 
ATOM     67  C   UNL A   1      37.961  28.753  30.917  1.00  0.00     0.001 A 
ATOM     68  C   UNL A   1      37.081  29.259  29.960  1.00  0.00     0.000 A 
ENDBRANCH  49  63
BRANCH  50  69
ATOM     69  C   UNL A   1      49.330  26.490  26.835  1.00  0.00    -0.014 A 
ATOM     70  C   UNL A   1      50.173  25.967  27.828  1.00  0.00     0.009 A 
ATOM     71  C   UNL A   1      49.823  26.612  25.526  1.00  0.00     0.009 A 
ATOM     72  C   UNL A   1      51.482  25.584  27.519  1.00  0.00     0.001 A 
ATOM     73  C   UNL A   1      51.125  26.208  25.215  1.00  0.00     0.001 A 
ATOM     74  C   UNL A   1      51.954  25.698  26.213  1.00  0.00     0.000 A 
ENDBRANCH  50  69
BRANCH  62  75
ATOM     75  C   UNL A   1      46.043  32.212  29.128  1.00  0.00    -0.014 A 
ATOM     76  C   UNL A   1      46.027  33.227  28.161  1.00  0.00     0.009 A 
ATOM     77  C   UNL A   1      46.406  32.517  30.448  1.00  0.00     0.009 A 
ATOM     78  C   UNL A   1      46.374  34.529  28.511  1.00  0.00     0.001 A 
ATOM     79  C   UNL A   1      46.732  33.825  30.798  1.00  0.00     0.001 A 
ATOM     80  C   UNL A   1      46.716  34.829  29.830  1.00  0.00     0.000 A 
ENDBRANCH  62  75
ENDBRANCH  36  37
ENDBRANCH  28  31
ENDBRANCH  26  27
ENDBRANCH  25  26
ENDBRANCH  24  25
ENDBRANCH   1  24
TORSDOF 15
ENDMDL
MODEL 2
REMARK VINA RESULT:     -11.3      4.492      9.388
REMARK SMILES COC(=O)[C@H]1Sc2nnc(CCC(=O)NCCCCNC(=O)c3ccc(-c4c5nc(c(-c6ccccc6)c6ccc([nH]6)c(-c6ccccc6)c6nc(c(-c7ccccc7)c7ccc4[nH]7)C=C6)C=C5)cc3)c(=O)n2N=C1C
REMARK SMILES IDX 16 1 15 2 13 3 14 4 12 6 11 7 10 8 5 9 6 10 75 11 7 12 74 13
REMARK SMILES IDX 76 14 8 15 73 16 9 17 71 18 72 19 3 20 4 21 2 22 1 23 17 24
REMARK SMILES IDX 18 25 19 26 20 27 21 28 22 30 23 31 24 32 70 33 25 34 69 35
REMARK SMILES IDX 26 36 27 37 28 38 63 39 29 40 68 41 62 42 64 43 30 44 67 45
REMARK SMILES IDX 61 46 60 47 31 49 53 50 38 51 52 52 39 53 42 54 51 55 65 56
REMARK SMILES IDX 40 57 41 58 50 60 66 61 43 62 32 63 33 64 37 65 34 66 36 67
REMARK SMILES IDX 35 68 54 69 55 70 59 71 56 72 58 73 57 74 44 75 45 76 49 77
REMARK SMILES IDX 46 78 48 79 47 80
REMARK H PARENT 15 5 20 29 64 48 42 59
REMARK Flexibility Score: inf
ROOT
ATOM      1  C   UNL A   1      32.634  29.645  25.750  1.00  0.00     0.116 C 
ENDROOT
BRANCH   1   2
ATOM      2  N   UNL A   1      33.231  29.549  24.435  1.00  0.00    -0.356 N 
ATOM      3  C   UNL A   1      32.771  28.899  23.329  1.00  0.00     0.220 C 
ATOM      4  O   UNL A   1      33.533  28.765  22.371  1.00  0.00    -0.275 OA
ATOM      5  H   UNL A   1      34.088  30.020  24.324  1.00  0.00     0.163 HD
BRANCH   3   6
ATOM      6  C   UNL A   1      31.352  28.363  23.283  1.00  0.00     0.106 C 
BRANCH   6   7
ATOM      7  C   UNL A   1      31.140  27.364  22.147  1.00  0.00     0.074 C 
BRANCH   7   8
ATOM      8  C   UNL A   1      31.522  25.950  22.534  1.00  0.00     0.131 A 
ATOM      9  C   UNL A   1      34.487  22.238  24.331  1.00  0.00     0.210 C 
ATOM     10  S   UNL A   1      32.807  21.908  23.749  1.00  0.00    -0.063 SA
ATOM     11  C   UNL A   1      35.189  23.155  23.358  1.00  0.00     0.061 C 
ATOM     12  C   UNL A   1      32.359  23.549  23.371  1.00  0.00     0.214 A 
ATOM     13  N   UNL A   1      34.627  24.050  22.601  1.00  0.00    -0.171 NA
ATOM     14  C   UNL A   1      36.687  23.022  23.183  1.00  0.00     0.065 C 
ATOM     15  N   UNL A   1      31.165  23.950  23.664  1.00  0.00    -0.123 NA
ATOM     16  N   UNL A   1      33.277  24.307  22.695  1.00  0.00    -0.169 N 
ATOM     17  N   UNL A   1      30.783  25.267  23.354  1.00  0.00    -0.147 NA
ATOM     18  C   UNL A   1      32.805  25.388  21.979  1.00  0.00     0.296 A 
ATOM     19  O   UNL A   1      33.330  25.929  21.015  1.00  0.00    -0.265 OA
BRANCH   9  20
ATOM     20  C   UNL A   1      34.415  22.602  25.797  1.00  0.00     0.325 C 
ATOM     21  O   UNL A   1      34.167  23.746  26.174  1.00  0.00    -0.250 OA
BRANCH  20  22
ATOM     22  O   UNL A   1      34.771  21.588  26.642  1.00  0.00    -0.468 OA
ATOM     23  C   UNL A   1      33.843  21.418  27.730  1.00  0.00     0.282 C 
ENDBRANCH  20  22
ENDBRANCH   9  20
ENDBRANCH   7   8
ENDBRANCH   6   7
ENDBRANCH   3   6
ENDBRANCH   1   2
BRANCH   1  24
ATOM     24  C   UNL A   1      31.539  30.699  25.740  1.00  0.00     0.023 C 
BRANCH  24  25
ATOM     25  C   UNL A   1      31.498  31.621  26.951  1.00  0.00     0.023 C 
BRANCH  25  26
ATOM     26  C   UNL A   1      32.792  32.376  27.216  1.00  0.00     0.116 C 
BRANCH  26  27
ATOM     27  N   UNL A   1      32.576  33.761  27.621  1.00  0.00    -0.352 N 
ATOM     28  C   UNL A   1      33.256  34.586  28.481  1.00  0.00     0.251 C 
ATOM     29  H   UNL A   1      31.794  34.182  27.198  1.00  0.00     0.163 HD
ATOM     30  O   UNL A   1      32.806  35.684  28.775  1.00  0.00    -0.269 OA
BRANCH  28  31
ATOM     31  C   UNL A   1      34.467  34.124  29.152  1.00  0.00     0.039 A 
ATOM     32  C   UNL A   1      34.308  33.361  30.315  1.00  0.00     0.014 A 
ATOM     33  C   UNL A   1      35.722  34.370  28.607  1.00  0.00     0.014 A 
ATOM     34  C   UNL A   1      35.409  32.728  30.860  1.00  0.00     0.010 A 
ATOM     35  C   UNL A   1      36.793  33.643  29.072  1.00  0.00     0.010 A 
ATOM     36  C   UNL A   1      36.634  32.817  30.194  1.00  0.00    -0.014 A 
BRANCH  36  37
ATOM     37  C   UNL A   1      37.808  32.087  30.677  1.00  0.00     0.031 A 
ATOM     38  C   UNL A   1      38.540  32.645  31.852  1.00  0.00     0.074 A 
ATOM     39  C   UNL A   1      38.219  31.005  29.993  1.00  0.00     0.049 A 
ATOM     40  N   UNL A   1      39.686  32.284  32.352  1.00  0.00    -0.248 NA
ATOM     41  C   UNL A   1      37.923  33.808  32.521  1.00  0.00     0.031 C 
ATOM     42  C   UNL A   1      37.548  30.437  28.817  1.00  0.00     0.029 A 
ATOM     43  N   UNL A   1      39.295  30.189  30.188  1.00  0.00    -0.354 N 
ATOM     44  C   UNL A   1      39.943  33.194  33.366  1.00  0.00     0.074 A 
ATOM     45  C   UNL A   1      38.871  34.161  33.373  1.00  0.00     0.031 C 
ATOM     46  C   UNL A   1      38.203  29.331  28.429  1.00  0.00     0.029 A 
ATOM     47  C   UNL A   1      39.360  29.147  29.294  1.00  0.00     0.049 A 
ATOM     48  H   UNL A   1      39.960  30.332  30.899  1.00  0.00     0.167 HD
ATOM     49  C   UNL A   1      40.978  33.196  34.233  1.00  0.00     0.031 A 
ATOM     50  C   UNL A   1      40.264  28.157  29.205  1.00  0.00     0.031 A 
ATOM     51  C   UNL A   1      42.000  32.189  34.211  1.00  0.00     0.049 A 
ATOM     52  C   UNL A   1      41.389  28.161  30.201  1.00  0.00     0.074 A 
ATOM     53  C   UNL A   1      43.096  32.047  35.036  1.00  0.00     0.029 A 
ATOM     54  N   UNL A   1      42.023  31.131  33.309  1.00  0.00    -0.354 N 
ATOM     55  N   UNL A   1      41.627  29.021  31.166  1.00  0.00    -0.248 NA
ATOM     56  C   UNL A   1      42.368  27.072  30.104  1.00  0.00     0.031 C 
ATOM     57  C   UNL A   1      43.794  30.908  34.621  1.00  0.00     0.029 A 
ATOM     58  C   UNL A   1      43.112  30.324  33.560  1.00  0.00     0.049 A 
ATOM     59  H   UNL A   1      41.359  30.980  32.598  1.00  0.00     0.167 HD
ATOM     60  C   UNL A   1      42.774  28.573  31.801  1.00  0.00     0.074 A 
ATOM     61  C   UNL A   1      43.173  27.355  31.120  1.00  0.00     0.031 C 
ATOM     62  C   UNL A   1      43.447  29.117  32.845  1.00  0.00     0.031 A 
BRANCH  49  63
ATOM     63  C   UNL A   1      41.022  34.305  35.242  1.00  0.00    -0.014 A 
ATOM     64  C   UNL A   1      40.341  34.196  36.467  1.00  0.00     0.009 A 
ATOM     65  C   UNL A   1      41.711  35.493  34.954  1.00  0.00     0.009 A 
ATOM     66  C   UNL A   1      40.308  35.269  37.359  1.00  0.00     0.001 A 
ATOM     67  C   UNL A   1      41.700  36.554  35.861  1.00  0.00     0.001 A 
ATOM     68  C   UNL A   1      40.989  36.447  37.056  1.00  0.00     0.000 A 
ENDBRANCH  49  63
BRANCH  50  69
ATOM     69  C   UNL A   1      40.099  27.085  28.190  1.00  0.00    -0.014 A 
ATOM     70  C   UNL A   1      40.733  27.194  26.943  1.00  0.00     0.009 A 
ATOM     71  C   UNL A   1      39.370  25.920  28.476  1.00  0.00     0.009 A 
ATOM     72  C   UNL A   1      40.631  26.166  26.002  1.00  0.00     0.001 A 
ATOM     73  C   UNL A   1      39.288  24.883  27.542  1.00  0.00     0.001 A 
ATOM     74  C   UNL A   1      39.916  25.009  26.304  1.00  0.00     0.000 A 
ENDBRANCH  50  69
BRANCH  62  75
ATOM     75  C   UNL A   1      44.668  28.389  33.312  1.00  0.00    -0.014 A 
ATOM     76  C   UNL A   1      44.578  27.433  34.333  1.00  0.00     0.009 A 
ATOM     77  C   UNL A   1      45.885  28.578  32.643  1.00  0.00     0.009 A 
ATOM     78  C   UNL A   1      45.696  26.679  34.681  1.00  0.00     0.001 A 
ATOM     79  C   UNL A   1      46.995  27.807  32.979  1.00  0.00     0.001 A 
ATOM     80  C   UNL A   1      46.899  26.859  33.998  1.00  0.00     0.000 A 
ENDBRANCH  62  75
ENDBRANCH  36  37
ENDBRANCH  28  31
ENDBRANCH  26  27
ENDBRANCH  25  26
ENDBRANCH  24  25
ENDBRANCH   1  24
TORSDOF 15
ENDMDL
MODEL 3
REMARK VINA RESULT:     -11.3      4.657      9.746
REMARK SMILES COC(=O)[C@H]1Sc2nnc(CCC(=O)NCCCCNC(=O)c3ccc(-c4c5nc(c(-c6ccccc6)c6ccc([nH]6)c(-c6ccccc6)c6nc(c(-c7ccccc7)c7ccc4[nH]7)C=C6)C=C5)cc3)c(=O)n2N=C1C
REMARK SMILES IDX 16 1 15 2 13 3 14 4 12 6 11 7 10 8 5 9 6 10 75 11 7 12 74 13
REMARK SMILES IDX 76 14 8 15 73 16 9 17 71 18 72 19 3 20 4 21 2 22 1 23 17 24
REMARK SMILES IDX 18 25 19 26 20 27 21 28 22 30 23 31 24 32 70 33 25 34 69 35
REMARK SMILES IDX 26 36 27 37 28 38 63 39 29 40 68 41 62 42 64 43 30 44 67 45
REMARK SMILES IDX 61 46 60 47 31 49 53 50 38 51 52 52 39 53 42 54 51 55 65 56
REMARK SMILES IDX 40 57 41 58 50 60 66 61 43 62 32 63 33 64 37 65 34 66 36 67
REMARK SMILES IDX 35 68 54 69 55 70 59 71 56 72 58 73 57 74 44 75 45 76 49 77
REMARK SMILES IDX 46 78 48 79 47 80
REMARK H PARENT 15 5 20 29 64 48 42 59
REMARK Flexibility Score: inf
ROOT
ATOM      1  C   UNL A   1      33.175  29.243  25.489  1.00  0.00     0.116 C 
ENDROOT
BRANCH   1   2
ATOM      2  N   UNL A   1      33.510  29.269  24.080  1.00  0.00    -0.356 N 
ATOM      3  C   UNL A   1      32.901  28.630  23.042  1.00  0.00     0.220 C 
ATOM      4  O   UNL A   1      33.471  28.616  21.950  1.00  0.00    -0.275 OA
ATOM      5  H   UNL A   1      34.286  29.825  23.840  1.00  0.00     0.163 HD
BRANCH   3   6
ATOM      6  C   UNL A   1      31.553  27.961  23.230  1.00  0.00     0.106 C 
BRANCH   6   7
ATOM      7  C   UNL A   1      31.227  26.973  22.112  1.00  0.00     0.074 C 
BRANCH   7   8
ATOM      8  C   UNL A   1      31.571  25.544  22.477  1.00  0.00     0.131 A 
ATOM      9  C   UNL A   1      34.354  21.755  24.400  1.00  0.00     0.210 C 
ATOM     10  S   UNL A   1      32.738  21.453  23.647  1.00  0.00    -0.063 SA
ATOM     11  C   UNL A   1      35.145  22.708  23.536  1.00  0.00     0.061 C 
ATOM     12  C   UNL A   1      32.326  23.109  23.294  1.00  0.00     0.214 A 
ATOM     13  N   UNL A   1      34.657  23.634  22.765  1.00  0.00    -0.171 NA
ATOM     14  C   UNL A   1      36.653  22.578  23.500  1.00  0.00     0.065 C 
ATOM     15  N   UNL A   1      31.109  23.502  23.487  1.00  0.00    -0.123 NA
ATOM     16  N   UNL A   1      33.304  23.891  22.739  1.00  0.00    -0.169 N 
ATOM     17  N   UNL A   1      30.758  24.831  23.194  1.00  0.00    -0.147 NA
ATOM     18  C   UNL A   1      32.902  25.001  22.026  1.00  0.00     0.296 A 
ATOM     19  O   UNL A   1      33.516  25.578  21.138  1.00  0.00    -0.265 OA
BRANCH   9  20
ATOM     20  C   UNL A   1      34.141  22.060  25.866  1.00  0.00     0.325 C 
ATOM     21  O   UNL A   1      33.626  21.250  26.633  1.00  0.00    -0.250 OA
BRANCH  20  22
ATOM     22  O   UNL A   1      34.452  23.344  26.219  1.00  0.00    -0.468 OA
ATOM     23  C   UNL A   1      33.286  24.141  26.501  1.00  0.00     0.282 C 
ENDBRANCH  20  22
ENDBRANCH   9  20
ENDBRANCH   7   8
ENDBRANCH   6   7
ENDBRANCH   3   6
ENDBRANCH   1   2
BRANCH   1  24
ATOM     24  C   UNL A   1      31.957  30.117  25.741  1.00  0.00     0.023 C 
BRANCH  24  25
ATOM     25  C   UNL A   1      31.944  30.868  27.065  1.00  0.00     0.023 C 
BRANCH  25  26
ATOM     26  C   UNL A   1      33.117  31.817  27.266  1.00  0.00     0.116 C 
BRANCH  26  27
ATOM     27  N   UNL A   1      32.705  33.169  27.628  1.00  0.00    -0.352 N 
ATOM     28  C   UNL A   1      33.242  34.098  28.483  1.00  0.00     0.251 C 
ATOM     29  H   UNL A   1      31.887  33.471  27.172  1.00  0.00     0.163 HD
ATOM     30  O   UNL A   1      32.640  35.131  28.736  1.00  0.00    -0.269 OA
BRANCH  28  31
ATOM     31  C   UNL A   1      34.483  33.817  29.200  1.00  0.00     0.039 A 
ATOM     32  C   UNL A   1      34.403  32.991  30.327  1.00  0.00     0.014 A 
ATOM     33  C   UNL A   1      35.700  34.294  28.728  1.00  0.00     0.014 A 
ATOM     34  C   UNL A   1      35.570  32.530  30.906  1.00  0.00     0.010 A 
ATOM     35  C   UNL A   1      36.858  33.738  29.222  1.00  0.00     0.010 A 
ATOM     36  C   UNL A   1      36.791  32.851  30.307  1.00  0.00    -0.014 A 
BRANCH  36  37
ATOM     37  C   UNL A   1      38.049  32.309  30.824  1.00  0.00     0.031 A 
ATOM     38  C   UNL A   1      38.598  31.083  30.173  1.00  0.00     0.074 A 
ATOM     39  C   UNL A   1      38.599  32.882  31.908  1.00  0.00     0.049 A 
ATOM     40  N   UNL A   1      39.587  30.326  30.550  1.00  0.00    -0.248 NA
ATOM     41  C   UNL A   1      37.901  30.613  28.959  1.00  0.00     0.031 C 
ATOM     42  C   UNL A   1      38.080  34.069  32.598  1.00  0.00     0.029 A 
ATOM     43  N   UNL A   1      39.717  32.548  32.617  1.00  0.00    -0.354 N 
ATOM     44  C   UNL A   1      39.607  29.275  29.645  1.00  0.00     0.074 A 
ATOM     45  C   UNL A   1      38.498  29.454  28.739  1.00  0.00     0.031 C 
ATOM     46  C   UNL A   1      38.911  34.392  33.602  1.00  0.00     0.029 A 
ATOM     47  C   UNL A   1      39.986  33.410  33.653  1.00  0.00     0.049 A 
ATOM     48  H   UNL A   1      40.276  31.766  32.407  1.00  0.00     0.167 HD
ATOM     49  C   UNL A   1      40.501  28.266  29.570  1.00  0.00     0.031 A 
ATOM     50  C   UNL A   1      41.000  33.393  34.534  1.00  0.00     0.031 A 
ATOM     51  C   UNL A   1      41.611  28.154  30.472  1.00  0.00     0.049 A 
ATOM     52  C   UNL A   1      42.000  32.279  34.409  1.00  0.00     0.074 A 
ATOM     53  C   UNL A   1      42.608  27.202  30.506  1.00  0.00     0.029 A 
ATOM     54  N   UNL A   1      41.871  29.059  31.494  1.00  0.00    -0.354 N 
ATOM     55  N   UNL A   1      42.020  31.289  33.547  1.00  0.00    -0.248 NA
ATOM     56  C   UNL A   1      43.110  32.271  35.369  1.00  0.00     0.031 C 
ATOM     57  C   UNL A   1      43.465  27.523  31.564  1.00  0.00     0.029 A 
ATOM     58  C   UNL A   1      43.018  28.694  32.165  1.00  0.00     0.049 A 
ATOM     59  H   UNL A   1      41.318  29.846  31.707  1.00  0.00     0.167 HD
ATOM     60  C   UNL A   1      43.150  30.544  33.848  1.00  0.00     0.074 A 
ATOM     61  C   UNL A   1      43.797  31.211  34.963  1.00  0.00     0.031 C 
ATOM     62  C   UNL A   1      43.612  29.410  33.267  1.00  0.00     0.031 A 
BRANCH  49  63
ATOM     63  C   UNL A   1      40.291  27.249  28.487  1.00  0.00    -0.014 A 
ATOM     64  C   UNL A   1      39.511  26.102  28.713  1.00  0.00     0.009 A 
ATOM     65  C   UNL A   1      40.915  27.409  27.241  1.00  0.00     0.009 A 
ATOM     66  C   UNL A   1      39.399  25.115  27.732  1.00  0.00     0.001 A 
ATOM     67  C   UNL A   1      40.778  26.433  26.251  1.00  0.00     0.001 A 
ATOM     68  C   UNL A   1      40.031  25.282  26.502  1.00  0.00     0.000 A 
ENDBRANCH  49  63
BRANCH  50  69
ATOM     69  C   UNL A   1      41.132  34.478  35.540  1.00  0.00    -0.014 A 
ATOM     70  C   UNL A   1      40.524  34.347  36.798  1.00  0.00     0.009 A 
ATOM     71  C   UNL A   1      41.915  35.614  35.285  1.00  0.00     0.009 A 
ATOM     72  C   UNL A   1      40.689  35.335  37.774  1.00  0.00     0.001 A 
ATOM     73  C   UNL A   1      42.097  36.590  36.270  1.00  0.00     0.001 A 
ATOM     74  C   UNL A   1      41.480  36.451  37.512  1.00  0.00     0.000 A 
ENDBRANCH  50  69
BRANCH  62  75
ATOM     75  C   UNL A   1      44.877  28.836  33.823  1.00  0.00    -0.014 A 
ATOM     76  C   UNL A   1      46.124  29.271  33.351  1.00  0.00     0.009 A 
ATOM     77  C   UNL A   1      44.816  27.945  34.904  1.00  0.00     0.009 A 
ATOM     78  C   UNL A   1      47.294  28.817  33.954  1.00  0.00     0.001 A 
ATOM     79  C   UNL A   1      45.989  27.511  35.518  1.00  0.00     0.001 A 
ATOM     80  C   UNL A   1      47.225  27.946  35.042  1.00  0.00     0.000 A 
ENDBRANCH  62  75
ENDBRANCH  36  37
ENDBRANCH  28  31
ENDBRANCH  26  27
ENDBRANCH  25  26
ENDBRANCH  24  25
ENDBRANCH   1  24
TORSDOF 15
ENDMDL
