MODEL 1
REMARK VINA RESULT:     -11.0      0.000      0.000
REMARK SMILES CCC[NH2+]C[C@H]1CCC[N@@H+](Cc2ccc(C(=O)NCCCCNC(=O)c3ccc(-c4c5nc(c(-c6ccccc6)c6ccc([nH]6)c(-c6ccccc6)c6nc(c(-c7ccccc7)c7ccc4[nH]7)C=C6)C=C5)cc3)cc2)C1
REMARK SMILES IDX 16 1 17 2 18 3 15 5 12 6 13 7 75 8 14 9 74 10 11 11 10 12
REMARK SMILES IDX 6 13 7 14 76 15 8 16 9 17 5 19 4 20 3 23 2 24 1 25 19 26
REMARK SMILES IDX 20 27 21 28 22 29 23 30 24 31 25 33 26 34 27 35 73 36 28 37
REMARK SMILES IDX 72 38 29 39 30 40 31 41 66 42 32 43 71 44 65 45 67 46 33 47
REMARK SMILES IDX 70 48 64 49 63 50 34 52 56 53 41 54 55 55 42 56 45 57 54 58
REMARK SMILES IDX 68 59 43 60 44 61 53 63 69 64 46 65 35 66 36 67 40 68 37 69
REMARK SMILES IDX 39 70 38 71 57 72 58 73 62 74 59 75 61 76 60 77 47 78 48 79
REMARK SMILES IDX 52 80 49 81 51 82 50 83
REMARK H PARENT 18 4 10 18 4 21 4 22 23 32 67 51 45 62
REMARK Flexibility Score: inf
ROOT
ATOM      1  C   UNL A   1      30.540  28.899  22.717  1.00  0.00     0.251 C 
ATOM      2  O   UNL A   1      29.936  29.249  21.705  1.00  0.00    -0.269 OA
ATOM      3  N   UNL A   1      30.722  29.814  23.726  1.00  0.00    -0.352 N 
ATOM      4  H   UNL A   1      30.456  30.734  23.498  1.00  0.00     0.163 HD
ENDROOT
BRANCH   1   5
ATOM      5  C   UNL A   1      31.007  27.494  22.831  1.00  0.00     0.039 A 
ATOM      6  C   UNL A   1      31.972  24.842  22.930  1.00  0.00     0.006 A 
ATOM      7  C   UNL A   1      32.753  25.864  22.374  1.00  0.00     0.010 A 
ATOM      8  C   UNL A   1      30.746  25.187  23.516  1.00  0.00     0.010 A 
ATOM      9  C   UNL A   1      32.277  27.180  22.330  1.00  0.00     0.014 A 
ATOM     10  C   UNL A   1      30.265  26.499  23.469  1.00  0.00     0.014 A 
BRANCH   6  11
ATOM     11  C   UNL A   1      32.418  23.389  22.868  1.00  0.00     0.299 C 
BRANCH  11  12
ATOM     12  N   UNL A   1      32.661  22.718  24.166  1.00  0.00    -0.331 N 
ATOM     13  C   UNL A   1      33.083  20.525  25.356  1.00  0.00     0.099 C 
ATOM     14  C   UNL A   1      34.202  21.205  26.156  1.00  0.00     0.021 C 
ATOM     15  C   UNL A   1      32.843  21.264  24.026  1.00  0.00     0.271 C 
ATOM     16  C   UNL A   1      33.928  22.699  26.290  1.00  0.00     0.062 C 
ATOM     17  C   UNL A   1      33.755  23.344  24.917  1.00  0.00     0.262 C 
ATOM     18  H   UNL A   1      31.814  22.848  24.720  1.00  0.00     0.348 HD
BRANCH  13  19
ATOM     19  C   UNL A   1      33.356  18.997  25.239  1.00  0.00     0.269 C 
BRANCH  19  20
ATOM     20  N   UNL A   1      32.732  18.078  26.190  1.00  0.00    -0.346 N 
ATOM     21  H   UNL A   1      33.191  18.194  27.094  1.00  0.00     0.346 HD
ATOM     22  H   UNL A   1      31.740  18.314  26.215  1.00  0.00     0.346 HD
BRANCH  20  23
ATOM     23  C   UNL A   1      32.818  16.674  25.812  1.00  0.00     0.260 C 
BRANCH  23  24
ATOM     24  C   UNL A   1      33.885  16.423  24.739  1.00  0.00     0.058 C 
ATOM     25  C   UNL A   1      35.193  15.833  25.254  1.00  0.00     0.010 C 
ENDBRANCH  23  24
ENDBRANCH  20  23
ENDBRANCH  19  20
ENDBRANCH  13  19
ENDBRANCH  11  12
ENDBRANCH   6  11
ENDBRANCH   1   5
BRANCH   3  26
ATOM     26  C   UNL A   1      31.240  29.651  25.073  1.00  0.00     0.116 C 
BRANCH  26  27
ATOM     27  C   UNL A   1      32.770  29.670  25.089  1.00  0.00     0.023 C 
BRANCH  27  28
ATOM     28  C   UNL A   1      33.421  28.530  25.875  1.00  0.00     0.023 C 
BRANCH  28  29
ATOM     29  C   UNL A   1      33.528  28.752  27.381  1.00  0.00     0.116 C 
BRANCH  29  30
ATOM     30  N   UNL A   1      33.587  30.155  27.765  1.00  0.00    -0.352 N 
ATOM     31  C   UNL A   1      34.646  30.867  28.290  1.00  0.00     0.251 C 
ATOM     32  H   UNL A   1      32.757  30.667  27.631  1.00  0.00     0.163 HD
ATOM     33  O   UNL A   1      34.500  32.026  28.636  1.00  0.00    -0.269 OA
BRANCH  31  34
ATOM     34  C   UNL A   1      35.956  30.198  28.473  1.00  0.00     0.039 A 
ATOM     35  C   UNL A   1      36.864  30.198  27.410  1.00  0.00     0.014 A 
ATOM     36  C   UNL A   1      36.299  29.603  29.688  1.00  0.00     0.014 A 
ATOM     37  C   UNL A   1      38.147  29.676  27.594  1.00  0.00     0.010 A 
ATOM     38  C   UNL A   1      37.599  29.147  29.892  1.00  0.00     0.010 A 
ATOM     39  C   UNL A   1      38.538  29.186  28.850  1.00  0.00    -0.014 A 
BRANCH  39  40
ATOM     40  C   UNL A   1      39.929  28.734  29.104  1.00  0.00     0.031 A 
ATOM     41  C   UNL A   1      40.931  29.665  29.729  1.00  0.00     0.074 A 
ATOM     42  C   UNL A   1      40.315  27.507  28.700  1.00  0.00     0.049 A 
ATOM     43  N   UNL A   1      42.204  29.471  29.966  1.00  0.00    -0.248 NA
ATOM     44  C   UNL A   1      40.444  30.999  30.111  1.00  0.00     0.031 C 
ATOM     45  C   UNL A   1      39.457  26.521  28.042  1.00  0.00     0.029 A 
ATOM     46  N   UNL A   1      41.538  26.885  28.776  1.00  0.00    -0.354 N 
ATOM     47  C   UNL A   1      42.673  30.662  30.503  1.00  0.00     0.074 A 
ATOM     48  C   UNL A   1      41.560  31.587  30.515  1.00  0.00     0.031 C 
ATOM     49  C   UNL A   1      40.170  25.408  27.803  1.00  0.00     0.029 A 
ATOM     50  C   UNL A   1      41.542  25.616  28.252  1.00  0.00     0.049 A 
ATOM     51  H   UNL A   1      42.334  27.310  29.169  1.00  0.00     0.167 HD
ATOM     52  C   UNL A   1      43.914  30.957  30.960  1.00  0.00     0.031 A 
ATOM     53  C   UNL A   1      42.540  24.718  28.143  1.00  0.00     0.031 A 
ATOM     54  C   UNL A   1      45.017  30.035  30.964  1.00  0.00     0.049 A 
ATOM     55  C   UNL A   1      43.909  25.071  28.651  1.00  0.00     0.074 A 
ATOM     56  C   UNL A   1      46.292  30.218  31.472  1.00  0.00     0.029 A 
ATOM     57  N   UNL A   1      44.979  28.756  30.430  1.00  0.00    -0.354 N 
ATOM     58  N   UNL A   1      44.318  26.176  29.223  1.00  0.00    -0.248 NA
ATOM     59  C   UNL A   1      44.952  24.045  28.505  1.00  0.00     0.031 C 
ATOM     60  C   UNL A   1      47.040  29.067  31.201  1.00  0.00     0.029 A 
ATOM     61  C   UNL A   1      46.215  28.148  30.572  1.00  0.00     0.049 A 
ATOM     62  H   UNL A   1      44.190  28.342  30.012  1.00  0.00     0.167 HD
ATOM     63  C   UNL A   1      45.657  25.970  29.532  1.00  0.00     0.074 A 
ATOM     64  C   UNL A   1      45.987  24.630  29.092  1.00  0.00     0.031 C 
ATOM     65  C   UNL A   1      46.532  26.816  30.128  1.00  0.00     0.031 A 
BRANCH  52  66
ATOM     66  C   UNL A   1      44.141  32.347  31.485  1.00  0.00    -0.014 A 
ATOM     67  C   UNL A   1      43.932  32.659  32.838  1.00  0.00     0.009 A 
ATOM     68  C   UNL A   1      44.592  33.354  30.619  1.00  0.00     0.009 A 
ATOM     69  C   UNL A   1      44.128  33.961  33.303  1.00  0.00     0.001 A 
ATOM     70  C   UNL A   1      44.816  34.649  31.092  1.00  0.00     0.001 A 
ATOM     71  C   UNL A   1      44.573  34.954  32.431  1.00  0.00     0.000 A 
ENDBRANCH  52  66
BRANCH  53  72
ATOM     72  C   UNL A   1      42.274  23.382  27.550  1.00  0.00    -0.014 A 
ATOM     73  C   UNL A   1      42.605  23.125  26.211  1.00  0.00     0.009 A 
ATOM     74  C   UNL A   1      41.691  22.360  28.314  1.00  0.00     0.009 A 
ATOM     75  C   UNL A   1      42.338  21.878  25.641  1.00  0.00     0.001 A 
ATOM     76  C   UNL A   1      41.449  21.105  27.749  1.00  0.00     0.001 A 
ATOM     77  C   UNL A   1      41.765  20.869  26.413  1.00  0.00     0.000 A 
ENDBRANCH  53  72
BRANCH  65  78
ATOM     78  C   UNL A   1      47.923  26.305  30.371  1.00  0.00    -0.014 A 
ATOM     79  C   UNL A   1      48.917  26.397  29.384  1.00  0.00     0.009 A 
ATOM     80  C   UNL A   1      48.254  25.759  31.621  1.00  0.00     0.009 A 
ATOM     81  C   UNL A   1      50.206  25.923  29.635  1.00  0.00     0.001 A 
ATOM     82  C   UNL A   1      49.550  25.312  31.878  1.00  0.00     0.001 A 
ATOM     83  C   UNL A   1      50.522  25.385  30.883  1.00  0.00     0.000 A 
ENDBRANCH  65  78
ENDBRANCH  39  40
ENDBRANCH  31  34
ENDBRANCH  29  30
ENDBRANCH  28  29
ENDBRANCH  27  28
ENDBRANCH  26  27
ENDBRANCH   3  26
TORSDOF 17
ENDMDL
MODEL 2
REMARK VINA RESULT:     -10.9      1.595      2.031
REMARK SMILES CCC[NH2+]C[C@H]1CCC[N@@H+](Cc2ccc(C(=O)NCCCCNC(=O)c3ccc(-c4c5nc(c(-c6ccccc6)c6ccc([nH]6)c(-c6ccccc6)c6nc(c(-c7ccccc7)c7ccc4[nH]7)C=C6)C=C5)cc3)cc2)C1
REMARK SMILES IDX 16 1 17 2 18 3 15 5 12 6 13 7 75 8 14 9 74 10 11 11 10 12
REMARK SMILES IDX 6 13 7 14 76 15 8 16 9 17 5 19 4 20 3 23 2 24 1 25 19 26
REMARK SMILES IDX 20 27 21 28 22 29 23 30 24 31 25 33 26 34 27 35 73 36 28 37
REMARK SMILES IDX 72 38 29 39 30 40 31 41 66 42 32 43 71 44 65 45 67 46 33 47
REMARK SMILES IDX 70 48 64 49 63 50 34 52 56 53 41 54 55 55 42 56 45 57 54 58
REMARK SMILES IDX 68 59 43 60 44 61 53 63 69 64 46 65 35 66 36 67 40 68 37 69
REMARK SMILES IDX 39 70 38 71 57 72 58 73 62 74 59 75 61 76 60 77 47 78 48 79
REMARK SMILES IDX 52 80 49 81 51 82 50 83
REMARK H PARENT 18 4 10 18 4 21 4 22 23 32 67 51 45 62
REMARK Flexibility Score: inf
ROOT
ATOM      1  C   UNL A   1      30.362  29.022  22.764  1.00  0.00     0.251 C 
ATOM      2  O   UNL A   1      29.746  29.480  21.804  1.00  0.00    -0.269 OA
ATOM      3  N   UNL A   1      30.800  29.886  23.740  1.00  0.00    -0.352 N 
ATOM      4  H   UNL A   1      30.690  30.840  23.522  1.00  0.00     0.163 HD
ENDROOT
BRANCH   1   5
ATOM      5  C   UNL A   1      30.570  27.555  22.857  1.00  0.00     0.039 A 
ATOM      6  C   UNL A   1      30.918  24.770  23.167  1.00  0.00     0.006 A 
ATOM      7  C   UNL A   1      29.904  25.443  23.862  1.00  0.00     0.010 A 
ATOM      8  C   UNL A   1      31.690  25.496  22.249  1.00  0.00     0.010 A 
ATOM      9  C   UNL A   1      29.728  26.823  23.704  1.00  0.00     0.014 A 
ATOM     10  C   UNL A   1      31.520  26.875  22.094  1.00  0.00     0.014 A 
BRANCH   6  11
ATOM     11  C   UNL A   1      31.206  23.298  23.426  1.00  0.00     0.299 C 
BRANCH  11  12
ATOM     12  N   UNL A   1      32.245  22.998  24.438  1.00  0.00    -0.331 N 
ATOM     13  C   UNL A   1      34.650  23.335  25.150  1.00  0.00     0.099 C 
ATOM     14  C   UNL A   1      34.160  23.609  26.578  1.00  0.00     0.021 C 
ATOM     15  C   UNL A   1      33.535  23.636  24.129  1.00  0.00     0.271 C 
ATOM     16  C   UNL A   1      32.841  22.890  26.836  1.00  0.00     0.062 C 
ATOM     17  C   UNL A   1      31.793  23.294  25.802  1.00  0.00     0.262 C 
ATOM     18  H   UNL A   1      32.406  21.992  24.394  1.00  0.00     0.348 HD
BRANCH  13  19
ATOM     19  C   UNL A   1      36.006  24.055  24.897  1.00  0.00     0.269 C 
BRANCH  19  20
ATOM     20  N   UNL A   1      37.056  23.371  24.143  1.00  0.00    -0.346 N 
ATOM     21  H   UNL A   1      36.951  23.614  23.158  1.00  0.00     0.346 HD
ATOM     22  H   UNL A   1      37.945  23.680  24.535  1.00  0.00     0.346 HD
BRANCH  20  23
ATOM     23  C   UNL A   1      37.030  21.920  24.260  1.00  0.00     0.260 C 
BRANCH  23  24
ATOM     24  C   UNL A   1      37.953  21.407  25.373  1.00  0.00     0.058 C 
ATOM     25  C   UNL A   1      38.717  22.487  26.129  1.00  0.00     0.010 C 
ENDBRANCH  23  24
ENDBRANCH  20  23
ENDBRANCH  19  20
ENDBRANCH  13  19
ENDBRANCH  11  12
ENDBRANCH   6  11
ENDBRANCH   1   5
BRANCH   3  26
ATOM     26  C   UNL A   1      31.396  29.627  25.038  1.00  0.00     0.116 C 
BRANCH  26  27
ATOM     27  C   UNL A   1      32.915  29.470  24.933  1.00  0.00     0.023 C 
BRANCH  27  28
ATOM     28  C   UNL A   1      33.506  28.336  25.773  1.00  0.00     0.023 C 
BRANCH  28  29
ATOM     29  C   UNL A   1      33.526  28.581  27.280  1.00  0.00     0.116 C 
BRANCH  29  30
ATOM     30  N   UNL A   1      33.550  29.989  27.646  1.00  0.00    -0.352 N 
ATOM     31  C   UNL A   1      34.585  30.730  28.177  1.00  0.00     0.251 C 
ATOM     32  H   UNL A   1      32.711  30.482  27.493  1.00  0.00     0.163 HD
ATOM     33  O   UNL A   1      34.409  31.890  28.506  1.00  0.00    -0.269 OA
BRANCH  31  34
ATOM     34  C   UNL A   1      35.906  30.091  28.389  1.00  0.00     0.039 A 
ATOM     35  C   UNL A   1      36.831  30.101  27.342  1.00  0.00     0.014 A 
ATOM     36  C   UNL A   1      36.241  29.516  29.616  1.00  0.00     0.014 A 
ATOM     37  C   UNL A   1      38.122  29.608  27.553  1.00  0.00     0.010 A 
ATOM     38  C   UNL A   1      37.547  29.090  29.847  1.00  0.00     0.010 A 
ATOM     39  C   UNL A   1      38.502  29.139  28.821  1.00  0.00    -0.014 A 
BRANCH  39  40
ATOM     40  C   UNL A   1      39.898  28.719  29.103  1.00  0.00     0.031 A 
ATOM     41  C   UNL A   1      40.859  29.667  29.764  1.00  0.00     0.074 A 
ATOM     42  C   UNL A   1      40.326  27.509  28.692  1.00  0.00     0.049 A 
ATOM     43  N   UNL A   1      42.131  29.503  30.030  1.00  0.00    -0.248 NA
ATOM     44  C   UNL A   1      40.329  30.983  30.151  1.00  0.00     0.031 C 
ATOM     45  C   UNL A   1      39.509  26.510  28.000  1.00  0.00     0.029 A 
ATOM     46  N   UNL A   1      41.562  26.918  28.790  1.00  0.00    -0.354 N 
ATOM     47  C   UNL A   1      42.556  30.698  30.593  1.00  0.00     0.074 A 
ATOM     48  C   UNL A   1      41.419  31.594  30.591  1.00  0.00     0.031 C 
ATOM     49  C   UNL A   1      40.257  25.419  27.763  1.00  0.00     0.029 A 
ATOM     50  C   UNL A   1      41.612  25.656  28.249  1.00  0.00     0.049 A 
ATOM     51  H   UNL A   1      42.337  27.357  29.207  1.00  0.00     0.167 HD
ATOM     52  C   UNL A   1      43.777  31.019  31.085  1.00  0.00     0.031 A 
ATOM     53  C   UNL A   1      42.635  24.786  28.153  1.00  0.00     0.031 A 
ATOM     54  C   UNL A   1      44.903  30.125  31.104  1.00  0.00     0.049 A 
ATOM     55  C   UNL A   1      43.982  25.167  28.699  1.00  0.00     0.074 A 
ATOM     56  C   UNL A   1      46.161  30.334  31.645  1.00  0.00     0.029 A 
ATOM     57  N   UNL A   1      44.912  28.854  30.552  1.00  0.00    -0.354 N 
ATOM     58  N   UNL A   1      44.348  26.274  29.296  1.00  0.00    -0.248 NA
ATOM     59  C   UNL A   1      45.055  24.171  28.565  1.00  0.00     0.031 C 
ATOM     60  C   UNL A   1      46.945  29.207  31.377  1.00  0.00     0.029 A 
ATOM     61  C   UNL A   1      46.159  28.276  30.716  1.00  0.00     0.049 A 
ATOM     62  H   UNL A   1      44.144  28.425  30.109  1.00  0.00     0.167 HD
ATOM     63  C   UNL A   1      45.684  26.099  29.634  1.00  0.00     0.074 A 
ATOM     64  C   UNL A   1      46.059  24.774  29.185  1.00  0.00     0.031 C 
ATOM     65  C   UNL A   1      46.521  26.958  30.263  1.00  0.00     0.031 A 
BRANCH  52  66
ATOM     66  C   UNL A   1      43.955  32.407  31.633  1.00  0.00    -0.014 A 
ATOM     67  C   UNL A   1      43.719  32.692  32.988  1.00  0.00     0.009 A 
ATOM     68  C   UNL A   1      44.387  33.440  30.789  1.00  0.00     0.009 A 
ATOM     69  C   UNL A   1      43.869  33.991  33.475  1.00  0.00     0.001 A 
ATOM     70  C   UNL A   1      44.565  34.734  31.284  1.00  0.00     0.001 A 
ATOM     71  C   UNL A   1      44.295  35.010  32.624  1.00  0.00     0.000 A 
ENDBRANCH  52  66
BRANCH  53  72
ATOM     72  C   UNL A   1      42.419  23.452  27.536  1.00  0.00    -0.014 A 
ATOM     73  C   UNL A   1      42.650  23.262  26.165  1.00  0.00     0.009 A 
ATOM     74  C   UNL A   1      41.982  22.365  28.308  1.00  0.00     0.009 A 
ATOM     75  C   UNL A   1      42.428  22.016  25.575  1.00  0.00     0.001 A 
ATOM     76  C   UNL A   1      41.786  21.113  27.721  1.00  0.00     0.001 A 
ATOM     77  C   UNL A   1      42.001  20.942  26.355  1.00  0.00     0.000 A 
ENDBRANCH  53  72
BRANCH  65  78
ATOM     78  C   UNL A   1      47.920  26.480  30.533  1.00  0.00    -0.014 A 
ATOM     79  C   UNL A   1      48.253  25.844  31.739  1.00  0.00     0.009 A 
ATOM     80  C   UNL A   1      48.908  26.634  29.548  1.00  0.00     0.009 A 
ATOM     81  C   UNL A   1      49.557  25.400  31.966  1.00  0.00     0.001 A 
ATOM     82  C   UNL A   1      50.203  26.164  29.767  1.00  0.00     0.001 A 
ATOM     83  C   UNL A   1      50.530  25.556  30.977  1.00  0.00     0.000 A 
ENDBRANCH  65  78
ENDBRANCH  39  40
ENDBRANCH  31  34
ENDBRANCH  29  30
ENDBRANCH  28  29
ENDBRANCH  27  28
ENDBRANCH  26  27
ENDBRANCH   3  26
TORSDOF 17
ENDMDL
MODEL 3
REMARK VINA RESULT:     -10.4      2.743      8.489
REMARK SMILES CCC[NH2+]C[C@H]1CCC[N@@H+](Cc2ccc(C(=O)NCCCCNC(=O)c3ccc(-c4c5nc(c(-c6ccccc6)c6ccc([nH]6)c(-c6ccccc6)c6nc(c(-c7ccccc7)c7ccc4[nH]7)C=C6)C=C5)cc3)cc2)C1
REMARK SMILES IDX 16 1 17 2 18 3 15 5 12 6 13 7 75 8 14 9 74 10 11 11 10 12
REMARK SMILES IDX 6 13 7 14 76 15 8 16 9 17 5 19 4 20 3 23 2 24 1 25 19 26
REMARK SMILES IDX 20 27 21 28 22 29 23 30 24 31 25 33 26 34 27 35 73 36 28 37
REMARK SMILES IDX 72 38 29 39 30 40 31 41 66 42 32 43 71 44 65 45 67 46 33 47
REMARK SMILES IDX 70 48 64 49 63 50 34 52 56 53 41 54 55 55 42 56 45 57 54 58
REMARK SMILES IDX 68 59 43 60 44 61 53 63 69 64 46 65 35 66 36 67 40 68 37 69
REMARK SMILES IDX 39 70 38 71 57 72 58 73 62 74 59 75 61 76 60 77 47 78 48 79
REMARK SMILES IDX 52 80 49 81 51 82 50 83
REMARK H PARENT 18 4 10 18 4 21 4 22 23 32 67 51 45 62
REMARK Flexibility Score: inf
ROOT
ATOM      1  C   UNL A   1      33.038  19.967  25.275  1.00  0.00     0.251 C 
ATOM      2  O   UNL A   1      32.181  19.088  25.200  1.00  0.00    -0.269 OA
ATOM      3  N   UNL A   1      34.343  19.641  24.993  1.00  0.00    -0.352 N 
ATOM      4  H   UNL A   1      34.508  18.677  24.874  1.00  0.00     0.163 HD
ENDROOT
BRANCH   1   5
ATOM      5  C   UNL A   1      32.627  21.352  25.618  1.00  0.00     0.039 A 
ATOM      6  C   UNL A   1      31.840  24.014  26.133  1.00  0.00     0.006 A 
ATOM      7  C   UNL A   1      31.414  23.358  24.970  1.00  0.00     0.010 A 
ATOM      8  C   UNL A   1      32.584  23.286  27.073  1.00  0.00     0.010 A 
ATOM      9  C   UNL A   1      31.801  22.036  24.718  1.00  0.00     0.014 A 
ATOM     10  C   UNL A   1      32.975  21.968  26.821  1.00  0.00     0.014 A 
BRANCH   6  11
ATOM     11  C   UNL A   1      31.538  25.488  26.359  1.00  0.00     0.299 C 
BRANCH  11  12
ATOM     12  N   UNL A   1      32.112  26.437  25.376  1.00  0.00    -0.331 N 
ATOM     13  C   UNL A   1      31.633  28.125  23.553  1.00  0.00     0.099 C 
ATOM     14  C   UNL A   1      32.661  29.067  24.193  1.00  0.00     0.021 C 
ATOM     15  C   UNL A   1      31.078  27.140  24.600  1.00  0.00     0.271 C 
ATOM     16  C   UNL A   1      33.717  28.268  24.948  1.00  0.00     0.062 C 
ATOM     17  C   UNL A   1      33.068  27.363  25.992  1.00  0.00     0.262 C 
ATOM     18  H   UNL A   1      32.638  25.874  24.707  1.00  0.00     0.348 HD
BRANCH  13  19
ATOM     19  C   UNL A   1      30.567  28.943  22.767  1.00  0.00     0.269 C 
BRANCH  19  20
ATOM     20  N   UNL A   1      30.085  30.211  23.314  1.00  0.00    -0.346 N 
ATOM     21  H   UNL A   1      30.217  30.193  24.325  1.00  0.00     0.346 HD
ATOM     22  H   UNL A   1      30.621  30.948  22.857  1.00  0.00     0.346 HD
BRANCH  20  23
ATOM     23  C   UNL A   1      28.681  30.486  23.042  1.00  0.00     0.260 C 
BRANCH  23  24
ATOM     24  C   UNL A   1      28.351  30.415  21.545  1.00  0.00     0.058 C 
ATOM     25  C   UNL A   1      28.166  31.764  20.860  1.00  0.00     0.010 C 
ENDBRANCH  23  24
ENDBRANCH  20  23
ENDBRANCH  19  20
ENDBRANCH  13  19
ENDBRANCH  11  12
ENDBRANCH   6  11
ENDBRANCH   1   5
BRANCH   3  26
ATOM     26  C   UNL A   1      35.519  20.478  24.842  1.00  0.00     0.116 C 
BRANCH  26  27
ATOM     27  C   UNL A   1      36.807  19.659  24.953  1.00  0.00     0.023 C 
BRANCH  27  28
ATOM     28  C   UNL A   1      38.099  20.472  24.855  1.00  0.00     0.023 C 
BRANCH  28  29
ATOM     29  C   UNL A   1      39.033  20.361  26.058  1.00  0.00     0.116 C 
BRANCH  29  30
ATOM     30  N   UNL A   1      40.119  19.409  25.872  1.00  0.00    -0.352 N 
ATOM     31  C   UNL A   1      41.473  19.589  26.062  1.00  0.00     0.251 C 
ATOM     32  H   UNL A   1      39.849  18.512  25.569  1.00  0.00     0.163 HD
ATOM     33  O   UNL A   1      42.260  18.704  25.778  1.00  0.00    -0.269 OA
BRANCH  31  34
ATOM     34  C   UNL A   1      41.971  20.888  26.573  1.00  0.00     0.039 A 
ATOM     35  C   UNL A   1      42.374  21.861  25.653  1.00  0.00     0.014 A 
ATOM     36  C   UNL A   1      42.012  21.158  27.942  1.00  0.00     0.014 A 
ATOM     37  C   UNL A   1      42.738  23.132  26.104  1.00  0.00     0.010 A 
ATOM     38  C   UNL A   1      42.307  22.445  28.385  1.00  0.00     0.010 A 
ATOM     39  C   UNL A   1      42.664  23.447  27.471  1.00  0.00    -0.014 A 
BRANCH  39  40
ATOM     40  C   UNL A   1      42.933  24.822  27.963  1.00  0.00     0.031 A 
ATOM     41  C   UNL A   1      44.329  25.240  28.332  1.00  0.00     0.074 A 
ATOM     42  C   UNL A   1      41.905  25.674  28.153  1.00  0.00     0.049 A 
ATOM     43  N   UNL A   1      44.746  26.372  28.839  1.00  0.00    -0.248 NA
ATOM     44  C   UNL A   1      45.392  24.244  28.129  1.00  0.00     0.031 C 
ATOM     45  C   UNL A   1      40.498  25.382  27.878  1.00  0.00     0.029 A 
ATOM     46  N   UNL A   1      41.889  26.960  28.635  1.00  0.00    -0.354 N 
ATOM     47  C   UNL A   1      46.111  26.217  29.037  1.00  0.00     0.074 A 
ATOM     48  C   UNL A   1      46.445  24.867  28.637  1.00  0.00     0.031 C 
ATOM     49  C   UNL A   1      39.760  26.467  28.165  1.00  0.00     0.029 A 
ATOM     50  C   UNL A   1      40.634  27.514  28.681  1.00  0.00     0.049 A 
ATOM     51  H   UNL A   1      42.701  27.439  28.919  1.00  0.00     0.167 HD
ATOM     52  C   UNL A   1      47.011  27.120  29.495  1.00  0.00     0.031 A 
ATOM     53  C   UNL A   1      40.229  28.730  29.096  1.00  0.00     0.031 A 
ATOM     54  C   UNL A   1      46.685  28.467  29.878  1.00  0.00     0.049 A 
ATOM     55  C   UNL A   1      41.245  29.712  29.607  1.00  0.00     0.074 A 
ATOM     56  C   UNL A   1      47.539  29.478  30.287  1.00  0.00     0.029 A 
ATOM     57  N   UNL A   1      45.402  28.992  29.906  1.00  0.00    -0.354 N 
ATOM     58  N   UNL A   1      42.543  29.574  29.718  1.00  0.00    -0.248 NA
ATOM     59  C   UNL A   1      40.738  31.022  30.040  1.00  0.00     0.031 C 
ATOM     60  C   UNL A   1      46.766  30.599  30.608  1.00  0.00     0.029 A 
ATOM     61  C   UNL A   1      45.438  30.303  30.349  1.00  0.00     0.049 A 
ATOM     62  H   UNL A   1      44.587  28.503  29.648  1.00  0.00     0.167 HD
ATOM     63  C   UNL A   1      43.012  30.787  30.207  1.00  0.00     0.074 A 
ATOM     64  C   UNL A   1      41.860  31.651  30.360  1.00  0.00     0.031 C 
ATOM     65  C   UNL A   1      44.284  31.151  30.500  1.00  0.00     0.031 A 
BRANCH  52  66
ATOM     66  C   UNL A   1      48.439  26.667  29.617  1.00  0.00    -0.014 A 
ATOM     67  C   UNL A   1      49.360  26.873  28.577  1.00  0.00     0.009 A 
ATOM     68  C   UNL A   1      48.876  26.046  30.796  1.00  0.00     0.009 A 
ATOM     69  C   UNL A   1      50.677  26.426  28.700  1.00  0.00     0.001 A 
ATOM     70  C   UNL A   1      50.201  25.626  30.928  1.00  0.00     0.001 A 
ATOM     71  C   UNL A   1      51.098  25.807  29.875  1.00  0.00     0.000 A 
ENDBRANCH  52  66
BRANCH  53  72
ATOM     72  C   UNL A   1      38.792  29.099  29.020  1.00  0.00    -0.014 A 
ATOM     73  C   UNL A   1      38.258  29.617  27.830  1.00  0.00     0.009 A 
ATOM     74  C   UNL A   1      37.948  28.939  30.129  1.00  0.00     0.009 A 
ATOM     75  C   UNL A   1      36.913  29.986  27.758  1.00  0.00     0.001 A 
ATOM     76  C   UNL A   1      36.598  29.284  30.047  1.00  0.00     0.001 A 
ATOM     77  C   UNL A   1      36.084  29.814  28.866  1.00  0.00     0.000 A 
ENDBRANCH  53  72
BRANCH  65  78
ATOM     78  C   UNL A   1      44.502  32.556  30.984  1.00  0.00    -0.014 A 
ATOM     79  C   UNL A   1      44.751  33.607  30.087  1.00  0.00     0.009 A 
ATOM     80  C   UNL A   1      44.417  32.839  32.356  1.00  0.00     0.009 A 
ATOM     81  C   UNL A   1      44.942  34.907  30.558  1.00  0.00     0.001 A 
ATOM     82  C   UNL A   1      44.581  34.143  32.822  1.00  0.00     0.001 A 
ATOM     83  C   UNL A   1      44.852  35.174  31.925  1.00  0.00     0.000 A 
ENDBRANCH  65  78
ENDBRANCH  39  40
ENDBRANCH  31  34
ENDBRANCH  29  30
ENDBRANCH  28  29
ENDBRANCH  27  28
ENDBRANCH  26  27
ENDBRANCH   3  26
TORSDOF 17
ENDMDL
