MODEL 1
REMARK VINA RESULT:     -13.0      0.000      0.000
REMARK SMILES CC1=NN(c2ccccc2)C(=O)/C1=C\c1ccc(-c2cc(C(=O)NCCCCNC(=O)c3ccc(-c4c5nc(c(-c6ccccc6)c6ccc([nH]6)c(-c6ccccc6)c6nc(c(-c7ccccc7)c7ccc4[nH]7)C=C6)C=C5)cc3)ccc2Cl)o1
REMARK SMILES IDX 26 1 25 2 24 3 22 4 23 5 21 7 19 8 20 9 82 10 81 11 83 12
REMARK SMILES IDX 80 13 18 14 15 15 16 16 84 17 17 18 14 19 1 20 2 21 3 22
REMARK SMILES IDX 13 23 4 24 11 25 12 26 5 27 6 28 10 29 7 30 9 31 8 32 27 33
REMARK SMILES IDX 28 34 29 35 30 36 31 38 32 39 33 40 79 41 34 42 78 43 35 44
REMARK SMILES IDX 36 45 37 46 72 47 38 48 77 49 71 50 73 51 39 52 76 53 70 54
REMARK SMILES IDX 69 55 40 57 62 58 47 59 61 60 48 61 51 62 60 63 74 64 49 65
REMARK SMILES IDX 50 66 59 68 75 69 52 70 41 71 42 72 46 73 43 74 45 75 44 76
REMARK SMILES IDX 63 77 64 78 68 79 65 80 67 81 66 82 53 83 54 84 58 85 55 86
REMARK SMILES IDX 57 87 56 88
REMARK H PARENT 24 6 29 37 73 56 51 67
REMARK Flexibility Score: inf
ROOT
ATOM      1  C   UNL A   1      37.794  22.522  25.635  1.00  0.00     0.023 C 
ENDROOT
BRANCH   1   2
ATOM      2  C   UNL A   1      36.687  21.477  25.653  1.00  0.00     0.116 C 
BRANCH   2   3
ATOM      3  N   UNL A   1      35.748  21.604  26.759  1.00  0.00    -0.352 N 
ATOM      4  C   UNL A   1      34.369  21.665  26.766  1.00  0.00     0.251 C 
ATOM      5  O   UNL A   1      33.783  21.803  27.836  1.00  0.00    -0.269 OA
ATOM      6  H   UNL A   1      36.166  21.655  27.649  1.00  0.00     0.163 HD
BRANCH   4   7
ATOM      7  C   UNL A   1      33.587  21.616  25.501  1.00  0.00     0.040 A 
ATOM      8  C   UNL A   1      32.947  22.661  23.390  1.00  0.00     0.037 A 
ATOM      9  C   UNL A   1      33.578  22.732  24.646  1.00  0.00     0.027 A 
ATOM     10  C   UNL A   1      32.415  21.422  22.979  1.00  0.00     0.052 A 
ATOM     11  C   UNL A   1      32.330  20.356  23.869  1.00  0.00     0.022 A 
ATOM     12  Cl  UNL A   1      31.852  21.125  21.366  1.00  0.00    -0.084 Cl
ATOM     13  C   UNL A   1      32.844  20.485  25.153  1.00  0.00     0.015 A 
BRANCH   8  14
ATOM     14  C   UNL A   1      32.709  23.863  22.599  1.00  0.00     0.136 A 
ATOM     15  C   UNL A   1      31.827  25.848  22.154  1.00  0.00     0.128 A 
ATOM     16  C   UNL A   1      32.634  25.486  21.081  1.00  0.00     0.051 A 
ATOM     17  O   UNL A   1      31.915  24.852  23.109  1.00  0.00    -0.457 OA
ATOM     18  C   UNL A   1      33.140  24.205  21.337  1.00  0.00     0.051 A 
BRANCH  15  19
ATOM     19  C   UNL A   1      31.054  27.038  22.263  1.00  0.00     0.063 C 
ATOM     20  C   UNL A   1      29.191  29.410  23.109  1.00  0.00     0.069 C 
ATOM     21  C   UNL A   1      30.506  29.035  23.706  1.00  0.00     0.071 C 
ATOM     22  N   UNL A   1      31.008  29.600  24.776  1.00  0.00    -0.169 NA
ATOM     23  C   UNL A   1      31.367  27.959  23.186  1.00  0.00     0.068 C 
ATOM     24  N   UNL A   1      32.263  29.026  24.949  1.00  0.00    -0.196 N 
ATOM     25  C   UNL A   1      32.598  28.045  24.010  1.00  0.00     0.280 C 
ATOM     26  O   UNL A   1      33.618  27.401  23.874  1.00  0.00    -0.267 OA
BRANCH  24  27
ATOM     27  C   UNL A   1      33.122  29.509  25.956  1.00  0.00     0.069 A 
ATOM     28  C   UNL A   1      34.293  28.821  26.288  1.00  0.00     0.028 A 
ATOM     29  C   UNL A   1      32.824  30.705  26.622  1.00  0.00     0.028 A 
ATOM     30  C   UNL A   1      35.171  29.350  27.240  1.00  0.00     0.002 A 
ATOM     31  C   UNL A   1      33.673  31.204  27.608  1.00  0.00     0.002 A 
ATOM     32  C   UNL A   1      34.856  30.534  27.907  1.00  0.00     0.000 A 
ENDBRANCH  24  27
ENDBRANCH  15  19
ENDBRANCH   8  14
ENDBRANCH   4   7
ENDBRANCH   2   3
ENDBRANCH   1   2
BRANCH   1  33
ATOM     33  C   UNL A   1      39.025  22.209  26.473  1.00  0.00     0.023 C 
BRANCH  33  34
ATOM     34  C   UNL A   1      39.777  23.416  27.017  1.00  0.00     0.116 C 
BRANCH  34  35
ATOM     35  N   UNL A   1      40.475  24.183  25.994  1.00  0.00    -0.352 N 
ATOM     36  C   UNL A   1      41.001  25.453  26.054  1.00  0.00     0.251 C 
ATOM     37  H   UNL A   1      40.589  23.723  25.131  1.00  0.00     0.163 HD
ATOM     38  O   UNL A   1      41.468  25.976  25.047  1.00  0.00    -0.269 OA
BRANCH  36  39
ATOM     39  C   UNL A   1      40.963  26.204  27.326  1.00  0.00     0.039 A 
ATOM     40  C   UNL A   1      41.937  27.176  27.568  1.00  0.00     0.014 A 
ATOM     41  C   UNL A   1      39.947  25.982  28.258  1.00  0.00     0.014 A 
ATOM     42  C   UNL A   1      41.840  27.983  28.702  1.00  0.00     0.010 A 
ATOM     43  C   UNL A   1      39.796  26.851  29.334  1.00  0.00     0.010 A 
ATOM     44  C   UNL A   1      40.740  27.862  29.568  1.00  0.00    -0.014 A 
BRANCH  44  45
ATOM     45  C   UNL A   1      40.555  28.787  30.716  1.00  0.00     0.031 A 
ATOM     46  C   UNL A   1      39.504  29.862  30.660  1.00  0.00     0.074 A 
ATOM     47  C   UNL A   1      41.375  28.704  31.782  1.00  0.00     0.049 A 
ATOM     48  N   UNL A   1      39.228  30.793  31.539  1.00  0.00    -0.248 NA
ATOM     49  C   UNL A   1      38.671  29.917  29.448  1.00  0.00     0.031 C 
ATOM     50  C   UNL A   1      42.463  27.736  31.944  1.00  0.00     0.029 A 
ATOM     51  N   UNL A   1      41.424  29.449  32.934  1.00  0.00    -0.354 N 
ATOM     52  C   UNL A   1      38.205  31.549  30.979  1.00  0.00     0.074 A 
ATOM     53  C   UNL A   1      37.950  31.006  29.663  1.00  0.00     0.031 C 
ATOM     54  C   UNL A   1      43.046  27.923  33.139  1.00  0.00     0.029 A 
ATOM     55  C   UNL A   1      42.410  29.053  33.807  1.00  0.00     0.049 A 
ATOM     56  H   UNL A   1      40.811  30.197  33.118  1.00  0.00     0.167 HD
ATOM     57  C   UNL A   1      37.521  32.586  31.519  1.00  0.00     0.031 A 
ATOM     58  C   UNL A   1      42.768  29.548  35.007  1.00  0.00     0.031 A 
ATOM     59  C   UNL A   1      37.773  33.124  32.830  1.00  0.00     0.049 A 
ATOM     60  C   UNL A   1      42.012  30.720  35.572  1.00  0.00     0.074 A 
ATOM     61  C   UNL A   1      37.100  34.138  33.487  1.00  0.00     0.029 A 
ATOM     62  N   UNL A   1      38.781  32.696  33.678  1.00  0.00    -0.354 N 
ATOM     63  N   UNL A   1      40.997  31.373  35.062  1.00  0.00    -0.248 NA
ATOM     64  C   UNL A   1      42.448  31.215  36.886  1.00  0.00     0.031 C 
ATOM     65  C   UNL A   1      37.742  34.369  34.707  1.00  0.00     0.029 A 
ATOM     66  C   UNL A   1      38.769  33.448  34.841  1.00  0.00     0.049 A 
ATOM     67  H   UNL A   1      39.414  31.967  33.483  1.00  0.00     0.167 HD
ATOM     68  C   UNL A   1      40.651  32.334  36.004  1.00  0.00     0.074 A 
ATOM     69  C   UNL A   1      41.554  32.165  37.124  1.00  0.00     0.031 C 
ATOM     70  C   UNL A   1      39.673  33.270  35.948  1.00  0.00     0.031 A 
BRANCH  57  71
ATOM     71  C   UNL A   1      36.439  33.213  30.682  1.00  0.00    -0.014 A 
ATOM     72  C   UNL A   1      35.088  33.135  31.056  1.00  0.00     0.009 A 
ATOM     73  C   UNL A   1      36.779  33.923  29.520  1.00  0.00     0.009 A 
ATOM     74  C   UNL A   1      34.098  33.718  30.263  1.00  0.00     0.001 A 
ATOM     75  C   UNL A   1      35.790  34.535  28.748  1.00  0.00     0.001 A 
ATOM     76  C   UNL A   1      34.450  34.422  29.113  1.00  0.00     0.000 A 
ENDBRANCH  57  71
BRANCH  58  77
ATOM     77  C   UNL A   1      43.890  28.933  35.767  1.00  0.00    -0.014 A 
ATOM     78  C   UNL A   1      45.206  29.388  35.592  1.00  0.00     0.009 A 
ATOM     79  C   UNL A   1      43.653  27.875  36.659  1.00  0.00     0.009 A 
ATOM     80  C   UNL A   1      46.263  28.778  36.270  1.00  0.00     0.001 A 
ATOM     81  C   UNL A   1      44.708  27.289  37.362  1.00  0.00     0.001 A 
ATOM     82  C   UNL A   1      46.014  27.733  37.158  1.00  0.00     0.000 A 
ENDBRANCH  58  77
BRANCH  70  83
ATOM     83  C   UNL A   1      39.499  34.159  37.149  1.00  0.00    -0.014 A 
ATOM     84  C   UNL A   1      39.990  35.474  37.167  1.00  0.00     0.009 A 
ATOM     85  C   UNL A   1      38.793  33.683  38.264  1.00  0.00     0.009 A 
ATOM     86  C   UNL A   1      39.810  36.279  38.295  1.00  0.00     0.001 A 
ATOM     87  C   UNL A   1      38.583  34.501  39.375  1.00  0.00     0.001 A 
ATOM     88  C   UNL A   1      39.101  35.795  39.394  1.00  0.00     0.000 A 
ENDBRANCH  70  83
ENDBRANCH  44  45
ENDBRANCH  36  39
ENDBRANCH  34  35
ENDBRANCH  33  34
ENDBRANCH   1  33
TORSDOF 14
ENDMDL
MODEL 2
REMARK VINA RESULT:     -12.6      6.978     11.241
REMARK SMILES CC1=NN(c2ccccc2)C(=O)/C1=C\c1ccc(-c2cc(C(=O)NCCCCNC(=O)c3ccc(-c4c5nc(c(-c6ccccc6)c6ccc([nH]6)c(-c6ccccc6)c6nc(c(-c7ccccc7)c7ccc4[nH]7)C=C6)C=C5)cc3)ccc2Cl)o1
REMARK SMILES IDX 26 1 25 2 24 3 22 4 23 5 21 7 19 8 20 9 82 10 81 11 83 12
REMARK SMILES IDX 80 13 18 14 15 15 16 16 84 17 17 18 14 19 1 20 2 21 3 22
REMARK SMILES IDX 13 23 4 24 11 25 12 26 5 27 6 28 10 29 7 30 9 31 8 32 27 33
REMARK SMILES IDX 28 34 29 35 30 36 31 38 32 39 33 40 79 41 34 42 78 43 35 44
REMARK SMILES IDX 36 45 37 46 72 47 38 48 77 49 71 50 73 51 39 52 76 53 70 54
REMARK SMILES IDX 69 55 40 57 62 58 47 59 61 60 48 61 51 62 60 63 74 64 49 65
REMARK SMILES IDX 50 66 59 68 75 69 52 70 41 71 42 72 46 73 43 74 45 75 44 76
REMARK SMILES IDX 63 77 64 78 68 79 65 80 67 81 66 82 53 83 54 84 58 85 55 86
REMARK SMILES IDX 57 87 56 88
REMARK H PARENT 24 6 29 37 73 56 51 67
REMARK Flexibility Score: inf
ROOT
ATOM      1  C   UNL A   1      40.515  28.010  27.007  1.00  0.00     0.023 C 
ENDROOT
BRANCH   1   2
ATOM      2  C   UNL A   1      39.451  29.029  27.389  1.00  0.00     0.116 C 
BRANCH   2   3
ATOM      3  N   UNL A   1      39.174  29.114  28.816  1.00  0.00    -0.352 N 
ATOM      4  C   UNL A   1      38.072  29.598  29.492  1.00  0.00     0.251 C 
ATOM      5  O   UNL A   1      38.076  29.592  30.721  1.00  0.00    -0.269 OA
ATOM      6  H   UNL A   1      39.891  28.767  29.395  1.00  0.00     0.163 HD
BRANCH   4   7
ATOM      7  C   UNL A   1      36.908  30.169  28.763  1.00  0.00     0.040 A 
ATOM      8  C   UNL A   1      34.689  29.867  27.793  1.00  0.00     0.037 A 
ATOM      9  C   UNL A   1      35.853  29.326  28.372  1.00  0.00     0.027 A 
ATOM     10  C   UNL A   1      34.574  31.268  27.707  1.00  0.00     0.052 A 
ATOM     11  C   UNL A   1      35.661  32.089  27.994  1.00  0.00     0.022 A 
ATOM     12  Cl  UNL A   1      33.101  32.070  27.265  1.00  0.00    -0.084 Cl
ATOM     13  C   UNL A   1      36.849  31.528  28.444  1.00  0.00     0.015 A 
BRANCH   8  14
ATOM     14  C   UNL A   1      33.697  29.007  27.156  1.00  0.00     0.136 A 
ATOM     15  C   UNL A   1      32.833  27.785  25.520  1.00  0.00     0.128 A 
ATOM     16  C   UNL A   1      31.952  27.747  26.596  1.00  0.00     0.051 A 
ATOM     17  O   UNL A   1      33.932  28.535  25.895  1.00  0.00    -0.457 OA
ATOM     18  C   UNL A   1      32.470  28.570  27.604  1.00  0.00     0.051 A 
BRANCH  15  19
ATOM     19  C   UNL A   1      32.648  27.155  24.257  1.00  0.00     0.063 C 
ATOM     20  C   UNL A   1      32.898  25.903  21.397  1.00  0.00     0.069 C 
ATOM     21  C   UNL A   1      33.525  25.410  22.657  1.00  0.00     0.071 C 
ATOM     22  N   UNL A   1      34.386  24.425  22.706  1.00  0.00    -0.169 NA
ATOM     23  C   UNL A   1      33.280  26.005  23.983  1.00  0.00     0.068 C 
ATOM     24  N   UNL A   1      34.660  24.232  24.056  1.00  0.00    -0.196 N 
ATOM     25  C   UNL A   1      34.006  25.114  24.923  1.00  0.00     0.280 C 
ATOM     26  O   UNL A   1      34.010  25.174  26.135  1.00  0.00    -0.267 OA
BRANCH  24  27
ATOM     27  C   UNL A   1      35.470  23.153  24.461  1.00  0.00     0.069 A 
ATOM     28  C   UNL A   1      36.819  23.347  24.770  1.00  0.00     0.028 A 
ATOM     29  C   UNL A   1      34.922  21.868  24.583  1.00  0.00     0.028 A 
ATOM     30  C   UNL A   1      37.592  22.279  25.238  1.00  0.00     0.002 A 
ATOM     31  C   UNL A   1      35.707  20.794  24.998  1.00  0.00     0.002 A 
ATOM     32  C   UNL A   1      37.039  21.002  25.341  1.00  0.00     0.000 A 
ENDBRANCH  24  27
ENDBRANCH  15  19
ENDBRANCH   8  14
ENDBRANCH   4   7
ENDBRANCH   2   3
ENDBRANCH   1   2
BRANCH   1  33
ATOM     33  C   UNL A   1      40.243  26.571  27.418  1.00  0.00     0.023 C 
BRANCH  33  34
ATOM     34  C   UNL A   1      40.143  25.566  26.278  1.00  0.00     0.116 C 
BRANCH  34  35
ATOM     35  N   UNL A   1      40.620  24.234  26.626  1.00  0.00    -0.352 N 
ATOM     36  C   UNL A   1      41.907  23.780  26.801  1.00  0.00     0.251 C 
ATOM     37  H   UNL A   1      39.915  23.558  26.756  1.00  0.00     0.163 HD
ATOM     38  O   UNL A   1      42.119  22.587  26.995  1.00  0.00    -0.269 OA
BRANCH  36  39
ATOM     39  C   UNL A   1      43.038  24.726  26.714  1.00  0.00     0.039 A 
ATOM     40  C   UNL A   1      43.450  25.175  25.457  1.00  0.00     0.014 A 
ATOM     41  C   UNL A   1      43.664  25.202  27.868  1.00  0.00     0.014 A 
ATOM     42  C   UNL A   1      44.427  26.167  25.364  1.00  0.00     0.010 A 
ATOM     43  C   UNL A   1      44.565  26.257  27.779  1.00  0.00     0.010 A 
ATOM     44  C   UNL A   1      44.956  26.754  26.526  1.00  0.00    -0.014 A 
BRANCH  44  45
ATOM     45  C   UNL A   1      45.911  27.890  26.452  1.00  0.00     0.031 A 
ATOM     46  C   UNL A   1      47.383  27.632  26.290  1.00  0.00     0.074 A 
ATOM     47  C   UNL A   1      45.462  29.152  26.598  1.00  0.00     0.049 A 
ATOM     48  N   UNL A   1      48.373  28.488  26.257  1.00  0.00    -0.248 NA
ATOM     49  C   UNL A   1      47.804  26.225  26.177  1.00  0.00     0.031 C 
ATOM     50  C   UNL A   1      44.064  29.539  26.804  1.00  0.00     0.029 A 
ATOM     51  N   UNL A   1      46.137  30.348  26.596  1.00  0.00    -0.354 N 
ATOM     52  C   UNL A   1      49.528  27.726  26.135  1.00  0.00     0.074 A 
ATOM     53  C   UNL A   1      49.123  26.338  26.160  1.00  0.00     0.031 C 
ATOM     54  C   UNL A   1      43.981  30.877  26.874  1.00  0.00     0.029 A 
ATOM     55  C   UNL A   1      45.323  31.442  26.766  1.00  0.00     0.049 A 
ATOM     56  H   UNL A   1      47.112  30.415  26.483  1.00  0.00     0.167 HD
ATOM     57  C   UNL A   1      50.809  28.140  25.991  1.00  0.00     0.031 A 
ATOM     58  C   UNL A   1      45.621  32.753  26.836  1.00  0.00     0.031 A 
ATOM     59  C   UNL A   1      51.213  29.522  25.963  1.00  0.00     0.049 A 
ATOM     60  C   UNL A   1      47.055  33.187  26.704  1.00  0.00     0.074 A 
ATOM     61  C   UNL A   1      52.478  30.045  25.769  1.00  0.00     0.029 A 
ATOM     62  N   UNL A   1      50.357  30.597  26.143  1.00  0.00    -0.354 N 
ATOM     63  N   UNL A   1      48.126  32.456  26.513  1.00  0.00    -0.248 NA
ATOM     64  C   UNL A   1      47.318  34.631  26.787  1.00  0.00     0.031 C 
ATOM     65  C   UNL A   1      52.400  31.434  25.896  1.00  0.00     0.029 A 
ATOM     66  C   UNL A   1      51.074  31.782  26.096  1.00  0.00     0.049 A 
ATOM     67  H   UNL A   1      49.385  30.530  26.284  1.00  0.00     0.167 HD
ATOM     68  C   UNL A   1      49.185  33.351  26.420  1.00  0.00     0.074 A 
ATOM     69  C   UNL A   1      48.623  34.679  26.558  1.00  0.00     0.031 C 
ATOM     70  C   UNL A   1      50.503  33.096  26.235  1.00  0.00     0.031 A 
BRANCH  57  71
ATOM     71  C   UNL A   1      51.871  27.081  25.863  1.00  0.00    -0.014 A 
ATOM     72  C   UNL A   1      52.533  26.569  26.992  1.00  0.00     0.009 A 
ATOM     73  C   UNL A   1      52.191  26.563  24.599  1.00  0.00     0.009 A 
ATOM     74  C   UNL A   1      53.520  25.591  26.851  1.00  0.00     0.001 A 
ATOM     75  C   UNL A   1      53.153  25.561  24.465  1.00  0.00     0.001 A 
ATOM     76  C   UNL A   1      53.825  25.084  25.589  1.00  0.00     0.000 A 
ENDBRANCH  57  71
BRANCH  58  77
ATOM     77  C   UNL A   1      44.540  33.758  27.031  1.00  0.00    -0.014 A 
ATOM     78  C   UNL A   1      44.093  34.087  28.320  1.00  0.00     0.009 A 
ATOM     79  C   UNL A   1      43.939  34.383  25.926  1.00  0.00     0.009 A 
ATOM     80  C   UNL A   1      43.046  34.994  28.498  1.00  0.00     0.001 A 
ATOM     81  C   UNL A   1      42.915  35.316  26.109  1.00  0.00     0.001 A 
ATOM     82  C   UNL A   1      42.462  35.612  27.393  1.00  0.00     0.000 A 
ENDBRANCH  58  77
BRANCH  70  83
ATOM     83  C   UNL A   1      51.426  34.279  26.129  1.00  0.00    -0.014 A 
ATOM     84  C   UNL A   1      51.672  34.912  24.900  1.00  0.00     0.009 A 
ATOM     85  C   UNL A   1      52.026  34.794  27.289  1.00  0.00     0.009 A 
ATOM     86  C   UNL A   1      52.531  36.011  24.831  1.00  0.00     0.001 A 
ATOM     87  C   UNL A   1      52.854  35.915  27.223  1.00  0.00     0.001 A 
ATOM     88  C   UNL A   1      53.115  36.516  25.993  1.00  0.00     0.000 A 
ENDBRANCH  70  83
ENDBRANCH  44  45
ENDBRANCH  36  39
ENDBRANCH  34  35
ENDBRANCH  33  34
ENDBRANCH   1  33
TORSDOF 14
ENDMDL
MODEL 3
REMARK VINA RESULT:     -12.4      7.067     10.241
REMARK SMILES CC1=NN(c2ccccc2)C(=O)/C1=C\c1ccc(-c2cc(C(=O)NCCCCNC(=O)c3ccc(-c4c5nc(c(-c6ccccc6)c6ccc([nH]6)c(-c6ccccc6)c6nc(c(-c7ccccc7)c7ccc4[nH]7)C=C6)C=C5)cc3)ccc2Cl)o1
REMARK SMILES IDX 26 1 25 2 24 3 22 4 23 5 21 7 19 8 20 9 82 10 81 11 83 12
REMARK SMILES IDX 80 13 18 14 15 15 16 16 84 17 17 18 14 19 1 20 2 21 3 22
REMARK SMILES IDX 13 23 4 24 11 25 12 26 5 27 6 28 10 29 7 30 9 31 8 32 27 33
REMARK SMILES IDX 28 34 29 35 30 36 31 38 32 39 33 40 79 41 34 42 78 43 35 44
REMARK SMILES IDX 36 45 37 46 72 47 38 48 77 49 71 50 73 51 39 52 76 53 70 54
REMARK SMILES IDX 69 55 40 57 62 58 47 59 61 60 48 61 51 62 60 63 74 64 49 65
REMARK SMILES IDX 50 66 59 68 75 69 52 70 41 71 42 72 46 73 43 74 45 75 44 76
REMARK SMILES IDX 63 77 64 78 68 79 65 80 67 81 66 82 53 83 54 84 58 85 55 86
REMARK SMILES IDX 57 87 56 88
REMARK H PARENT 24 6 29 37 73 56 51 67
REMARK Flexibility Score: inf
ROOT
ATOM      1  C   UNL A   1      40.471  28.132  26.804  1.00  0.00     0.023 C 
ENDROOT
BRANCH   1   2
ATOM      2  C   UNL A   1      39.549  29.192  27.390  1.00  0.00     0.116 C 
BRANCH   2   3
ATOM      3  N   UNL A   1      39.125  28.939  28.760  1.00  0.00    -0.352 N 
ATOM      4  C   UNL A   1      37.934  29.218  29.400  1.00  0.00     0.251 C 
ATOM      5  O   UNL A   1      37.814  28.932  30.588  1.00  0.00    -0.269 OA
ATOM      6  H   UNL A   1      39.800  28.495  29.323  1.00  0.00     0.163 HD
BRANCH   4   7
ATOM      7  C   UNL A   1      36.817  29.899  28.691  1.00  0.00     0.040 A 
ATOM      8  C   UNL A   1      34.597  29.790  27.685  1.00  0.00     0.037 A 
ATOM      9  C   UNL A   1      35.716  29.147  28.246  1.00  0.00     0.027 A 
ATOM     10  C   UNL A   1      34.571  31.199  27.673  1.00  0.00     0.052 A 
ATOM     11  C   UNL A   1      35.704  31.932  28.013  1.00  0.00     0.022 A 
ATOM     12  Cl  UNL A   1      33.158  32.114  27.260  1.00  0.00    -0.084 Cl
ATOM     13  C   UNL A   1      36.849  31.274  28.444  1.00  0.00     0.015 A 
BRANCH   8  14
ATOM     14  C   UNL A   1      33.560  29.029  26.995  1.00  0.00     0.136 A 
ATOM     15  C   UNL A   1      32.680  27.868  25.324  1.00  0.00     0.128 A 
ATOM     16  C   UNL A   1      31.727  27.959  26.333  1.00  0.00     0.051 A 
ATOM     17  O   UNL A   1      33.829  28.499  25.763  1.00  0.00    -0.457 OA
ATOM     18  C   UNL A   1      32.263  28.746  27.360  1.00  0.00     0.051 A 
BRANCH  15  19
ATOM     19  C   UNL A   1      32.515  27.227  24.063  1.00  0.00     0.063 C 
ATOM     20  C   UNL A   1      32.809  25.944  21.221  1.00  0.00     0.069 C 
ATOM     21  C   UNL A   1      33.405  25.458  22.499  1.00  0.00     0.071 C 
ATOM     22  N   UNL A   1      34.255  24.464  22.574  1.00  0.00    -0.169 NA
ATOM     23  C   UNL A   1      33.140  26.068  23.814  1.00  0.00     0.068 C 
ATOM     24  N   UNL A   1      34.500  24.282  23.932  1.00  0.00    -0.196 N 
ATOM     25  C   UNL A   1      33.837  25.179  24.776  1.00  0.00     0.280 C 
ATOM     26  O   UNL A   1      33.818  25.251  25.988  1.00  0.00    -0.267 OA
BRANCH  24  27
ATOM     27  C   UNL A   1      35.290  23.198  24.363  1.00  0.00     0.069 A 
ATOM     28  C   UNL A   1      34.737  21.922  24.506  1.00  0.00     0.028 A 
ATOM     29  C   UNL A   1      36.653  23.383  24.630  1.00  0.00     0.028 A 
ATOM     30  C   UNL A   1      35.549  20.842  24.866  1.00  0.00     0.002 A 
ATOM     31  C   UNL A   1      37.451  22.316  25.041  1.00  0.00     0.002 A 
ATOM     32  C   UNL A   1      36.902  21.041  25.144  1.00  0.00     0.000 A 
ENDBRANCH  24  27
ENDBRANCH  15  19
ENDBRANCH   8  14
ENDBRANCH   4   7
ENDBRANCH   2   3
ENDBRANCH   1   2
BRANCH   1  33
ATOM     33  C   UNL A   1      40.136  26.688  27.147  1.00  0.00     0.023 C 
BRANCH  33  34
ATOM     34  C   UNL A   1      40.290  25.687  26.009  1.00  0.00     0.116 C 
BRANCH  34  35
ATOM     35  N   UNL A   1      40.643  24.345  26.452  1.00  0.00    -0.352 N 
ATOM     36  C   UNL A   1      41.877  23.815  26.751  1.00  0.00     0.251 C 
ATOM     37  H   UNL A   1      39.885  23.725  26.553  1.00  0.00     0.163 HD
ATOM     38  O   UNL A   1      41.989  22.622  27.013  1.00  0.00    -0.269 OA
BRANCH  36  39
ATOM     39  C   UNL A   1      43.075  24.679  26.717  1.00  0.00     0.039 A 
ATOM     40  C   UNL A   1      43.568  25.104  25.480  1.00  0.00     0.014 A 
ATOM     41  C   UNL A   1      43.685  25.104  27.899  1.00  0.00     0.014 A 
ATOM     42  C   UNL A   1      44.616  26.024  25.434  1.00  0.00     0.010 A 
ATOM     43  C   UNL A   1      44.662  26.093  27.854  1.00  0.00     0.010 A 
ATOM     44  C   UNL A   1      45.138  26.566  26.621  1.00  0.00    -0.014 A 
BRANCH  44  45
ATOM     45  C   UNL A   1      46.173  27.632  26.594  1.00  0.00     0.031 A 
ATOM     46  C   UNL A   1      45.772  29.079  26.671  1.00  0.00     0.074 A 
ATOM     47  C   UNL A   1      47.470  27.301  26.434  1.00  0.00     0.049 A 
ATOM     48  N   UNL A   1      46.524  30.149  26.611  1.00  0.00    -0.248 NA
ATOM     49  C   UNL A   1      44.334  29.365  26.807  1.00  0.00     0.031 C 
ATOM     50  C   UNL A   1      47.990  25.938  26.303  1.00  0.00     0.029 A 
ATOM     51  N   UNL A   1      48.590  28.090  26.350  1.00  0.00    -0.354 N 
ATOM     52  C   UNL A   1      45.653  31.229  26.686  1.00  0.00     0.074 A 
ATOM     53  C   UNL A   1      44.313  30.687  26.735  1.00  0.00     0.031 C 
ATOM     54  C   UNL A   1      49.327  25.984  26.192  1.00  0.00     0.029 A 
ATOM     55  C   UNL A   1      49.757  27.379  26.194  1.00  0.00     0.049 A 
ATOM     56  H   UNL A   1      48.562  29.073  26.398  1.00  0.00     0.167 HD
ATOM     57  C   UNL A   1      45.939  32.551  26.733  1.00  0.00     0.031 A 
ATOM     58  C   UNL A   1      51.028  27.800  26.059  1.00  0.00     0.031 A 
ATOM     59  C   UNL A   1      47.273  33.090  26.687  1.00  0.00     0.049 A 
ATOM     60  C   UNL A   1      51.318  29.277  26.084  1.00  0.00     0.074 A 
ATOM     61  C   UNL A   1      47.671  34.412  26.782  1.00  0.00     0.029 A 
ATOM     62  N   UNL A   1      48.424  32.336  26.525  1.00  0.00    -0.354 N 
ATOM     63  N   UNL A   1      50.488  30.280  26.233  1.00  0.00    -0.248 NA
ATOM     64  C   UNL A   1      52.725  29.676  25.934  1.00  0.00     0.031 C 
ATOM     65  C   UNL A   1      49.057  34.464  26.611  1.00  0.00     0.029 A 
ATOM     66  C   UNL A   1      49.531  33.167  26.485  1.00  0.00     0.049 A 
ATOM     67  H   UNL A   1      48.451  31.354  26.448  1.00  0.00     0.167 HD
ATOM     68  C   UNL A   1      51.274  31.426  26.227  1.00  0.00     0.074 A 
ATOM     69  C   UNL A   1      52.647  30.991  26.078  1.00  0.00     0.031 C 
ATOM     70  C   UNL A   1      50.892  32.722  26.336  1.00  0.00     0.031 A 
BRANCH  57  71
ATOM     71  C   UNL A   1      44.783  33.509  26.830  1.00  0.00    -0.014 A 
ATOM     72  C   UNL A   1      44.145  34.004  25.681  1.00  0.00     0.009 A 
ATOM     73  C   UNL A   1      44.300  33.894  28.091  1.00  0.00     0.009 A 
ATOM     74  C   UNL A   1      43.077  34.897  25.792  1.00  0.00     0.001 A 
ATOM     75  C   UNL A   1      43.210  34.760  28.199  1.00  0.00     0.001 A 
ATOM     76  C   UNL A   1      42.608  35.270  27.050  1.00  0.00     0.000 A 
ENDBRANCH  57  71
BRANCH  58  77
ATOM     77  C   UNL A   1      52.131  26.814  25.899  1.00  0.00    -0.014 A 
ATOM     78  C   UNL A   1      52.906  26.423  27.002  1.00  0.00     0.009 A 
ATOM     79  C   UNL A   1      52.426  26.271  24.638  1.00  0.00     0.009 A 
ATOM     80  C   UNL A   1      53.972  25.535  26.840  1.00  0.00     0.001 A 
ATOM     81  C   UNL A   1      53.471  25.356  24.486  1.00  0.00     0.001 A 
ATOM     82  C   UNL A   1      54.250  24.998  25.584  1.00  0.00     0.000 A 
ENDBRANCH  58  77
BRANCH  70  83
ATOM     83  C   UNL A   1      51.978  33.763  26.341  1.00  0.00    -0.014 A 
ATOM     84  C   UNL A   1      52.674  34.092  27.515  1.00  0.00     0.009 A 
ATOM     85  C   UNL A   1      52.337  34.393  25.139  1.00  0.00     0.009 A 
ATOM     86  C   UNL A   1      53.681  35.060  27.490  1.00  0.00     0.001 A 
ATOM     87  C   UNL A   1      53.368  35.333  25.110  1.00  0.00     0.001 A 
ATOM     88  C   UNL A   1      54.032  35.674  26.288  1.00  0.00     0.000 A 
ENDBRANCH  70  83
ENDBRANCH  44  45
ENDBRANCH  36  39
ENDBRANCH  34  35
ENDBRANCH  33  34
ENDBRANCH   1  33
TORSDOF 14
ENDMDL
