MODEL 1
REMARK VINA RESULT:     -10.9      0.000      0.000
REMARK SMILES CCC(CC)(NC(=O)N[C@@H](C)[C@@H]1CCCO1)C(=O)NCCCCNC(=O)c1ccc(-c2c3nc(c(-c4ccccc4)c4ccc([nH]4)c(-c4ccccc4)c4nc(c(-c5ccccc5)c5ccc2[nH]5)C=C4)C=C3)cc1
REMARK SMILES IDX 21 1 20 2 19 3 17 4 18 5 3 7 2 8 1 9 4 10 5 11 6 12 7 13
REMARK SMILES IDX 8 15 9 16 10 18 11 19 12 20 13 21 16 22 14 23 15 24 22 25
REMARK SMILES IDX 23 26 24 27 25 28 26 30 27 31 28 32 74 33 29 34 73 35 30 36
REMARK SMILES IDX 31 37 32 38 67 39 33 40 72 41 66 42 68 43 34 44 71 45 65 46
REMARK SMILES IDX 64 47 35 49 57 50 42 51 56 52 43 53 46 54 55 55 69 56 44 57
REMARK SMILES IDX 45 58 54 60 70 61 47 62 36 63 37 64 41 65 38 66 40 67 39 68
REMARK SMILES IDX 58 69 59 70 63 71 60 72 62 73 61 74 48 75 49 76 53 77 50 78
REMARK SMILES IDX 52 79 51 80
REMARK H PARENT 19 6 6 14 9 17 24 29 68 48 46 59
REMARK Flexibility Score: inf
ROOT
ATOM      1  C   UNL A   1      31.222  30.602  25.396  1.00  0.00     0.023 C 
ENDROOT
BRANCH   1   2
ATOM      2  C   UNL A   1      32.389  29.615  25.503  1.00  0.00     0.116 C 
BRANCH   2   3
ATOM      3  N   UNL A   1      33.369  29.567  24.425  1.00  0.00    -0.354 N 
ATOM      4  C   UNL A   1      33.585  28.674  23.401  1.00  0.00     0.245 C 
ATOM      5  O   UNL A   1      34.260  29.096  22.455  1.00  0.00    -0.272 OA
ATOM      6  H   UNL A   1      34.001  30.322  24.431  1.00  0.00     0.163 HD
BRANCH   4   7
ATOM      7  C   UNL A   1      32.888  27.281  23.355  1.00  0.00     0.120 C 
BRANCH   7   8
ATOM      8  C   UNL A   1      31.434  27.174  23.897  1.00  0.00     0.035 C 
ATOM      9  C   UNL A   1      30.296  27.680  23.025  1.00  0.00     0.007 C 
ENDBRANCH   7   8
BRANCH   7  10
ATOM     10  C   UNL A   1      33.827  26.369  24.217  1.00  0.00     0.035 C 
ATOM     11  C   UNL A   1      33.559  26.301  25.714  1.00  0.00     0.007 C 
ENDBRANCH   7  10
BRANCH   7  12
ATOM     12  N   UNL A   1      32.836  26.866  21.942  1.00  0.00    -0.324 N 
ATOM     13  C   UNL A   1      32.814  25.671  21.333  1.00  0.00     0.315 C 
ATOM     14  H   UNL A   1      32.812  27.624  21.314  1.00  0.00     0.166 HD
ATOM     15  O   UNL A   1      33.044  25.675  20.119  1.00  0.00    -0.249 OA
ATOM     16  N   UNL A   1      32.537  24.495  21.899  1.00  0.00    -0.333 N 
ATOM     17  H   UNL A   1      32.563  23.785  21.218  1.00  0.00     0.165 HD
BRANCH  16  18
ATOM     18  C   UNL A   1      32.204  23.909  23.213  1.00  0.00     0.109 C 
ATOM     19  C   UNL A   1      30.693  23.761  23.410  1.00  0.00     0.034 C 
BRANCH  18  20
ATOM     20  C   UNL A   1      32.844  22.504  23.380  1.00  0.00     0.140 C 
ATOM     21  C   UNL A   1      32.035  21.398  22.716  1.00  0.00     0.036 C 
ATOM     22  O   UNL A   1      32.988  22.147  24.771  1.00  0.00    -0.376 OA
ATOM     23  C   UNL A   1      32.362  20.208  23.578  1.00  0.00     0.031 C 
ATOM     24  C   UNL A   1      32.434  20.837  24.952  1.00  0.00     0.160 C 
ENDBRANCH  18  20
ENDBRANCH  16  18
ENDBRANCH   7  12
ENDBRANCH   4   7
ENDBRANCH   2   3
ENDBRANCH   1   2
BRANCH   1  25
ATOM     25  C   UNL A   1      31.124  31.756  26.388  1.00  0.00     0.023 C 
BRANCH  25  26
ATOM     26  C   UNL A   1      32.441  32.292  26.923  1.00  0.00     0.116 C 
BRANCH  26  27
ATOM     27  N   UNL A   1      32.309  33.643  27.435  1.00  0.00    -0.352 N 
ATOM     28  C   UNL A   1      33.085  34.304  28.352  1.00  0.00     0.251 C 
ATOM     29  H   UNL A   1      31.554  34.161  27.072  1.00  0.00     0.163 HD
ATOM     30  O   UNL A   1      32.717  35.385  28.800  1.00  0.00    -0.269 OA
BRANCH  28  31
ATOM     31  C   UNL A   1      34.356  33.709  28.817  1.00  0.00     0.039 A 
ATOM     32  C   UNL A   1      34.352  32.961  29.998  1.00  0.00     0.014 A 
ATOM     33  C   UNL A   1      35.551  33.910  28.118  1.00  0.00     0.014 A 
ATOM     34  C   UNL A   1      35.536  32.384  30.459  1.00  0.00     0.010 A 
ATOM     35  C   UNL A   1      36.718  33.280  28.544  1.00  0.00     0.010 A 
ATOM     36  C   UNL A   1      36.725  32.522  29.725  1.00  0.00    -0.014 A 
BRANCH  36  37
ATOM     37  C   UNL A   1      37.986  31.898  30.191  1.00  0.00     0.031 A 
ATOM     38  C   UNL A   1      38.834  32.590  31.224  1.00  0.00     0.074 A 
ATOM     39  C   UNL A   1      38.395  30.733  29.653  1.00  0.00     0.049 A 
ATOM     40  N   UNL A   1      39.987  32.224  31.725  1.00  0.00    -0.248 NA
ATOM     41  C   UNL A   1      38.329  33.869  31.747  1.00  0.00     0.031 C 
ATOM     42  C   UNL A   1      37.682  29.981  28.620  1.00  0.00     0.029 A 
ATOM     43  N   UNL A   1      39.517  29.982  29.899  1.00  0.00    -0.354 N 
ATOM     44  C   UNL A   1      40.351  33.233  32.608  1.00  0.00     0.074 A 
ATOM     45  C   UNL A   1      39.322  34.247  32.538  1.00  0.00     0.031 C 
ATOM     46  C   UNL A   1      38.372  28.864  28.337  1.00  0.00     0.029 A 
ATOM     47  C   UNL A   1      39.590  28.840  29.141  1.00  0.00     0.049 A 
ATOM     48  H   UNL A   1      40.203  30.237  30.558  1.00  0.00     0.167 HD
ATOM     49  C   UNL A   1      41.434  33.302  33.418  1.00  0.00     0.031 A 
ATOM     50  C   UNL A   1      40.535  27.883  29.093  1.00  0.00     0.031 A 
ATOM     51  C   UNL A   1      42.454  32.291  33.493  1.00  0.00     0.049 A 
ATOM     52  C   UNL A   1      41.734  27.987  29.993  1.00  0.00     0.074 A 
ATOM     53  C   UNL A   1      43.565  32.246  34.318  1.00  0.00     0.029 A 
ATOM     54  N   UNL A   1      42.488  31.146  32.713  1.00  0.00    -0.354 N 
ATOM     55  N   UNL A   1      42.033  28.918  30.866  1.00  0.00    -0.248 NA
ATOM     56  C   UNL A   1      42.721  26.900  29.909  1.00  0.00     0.031 C 
ATOM     57  C   UNL A   1      44.295  31.095  34.004  1.00  0.00     0.029 A 
ATOM     58  C   UNL A   1      43.611  30.397  33.021  1.00  0.00     0.049 A 
ATOM     59  H   UNL A   1      41.812  30.900  32.040  1.00  0.00     0.167 HD
ATOM     60  C   UNL A   1      43.226  28.517  31.453  1.00  0.00     0.074 A 
ATOM     61  C   UNL A   1      43.587  27.252  30.848  1.00  0.00     0.031 C 
ATOM     62  C   UNL A   1      43.957  29.142  32.408  1.00  0.00     0.031 A 
BRANCH  49  63
ATOM     63  C   UNL A   1      41.570  34.522  34.285  1.00  0.00    -0.014 A 
ATOM     64  C   UNL A   1      41.008  34.566  35.571  1.00  0.00     0.009 A 
ATOM     65  C   UNL A   1      42.293  35.633  33.822  1.00  0.00     0.009 A 
ATOM     66  C   UNL A   1      41.134  35.712  36.360  1.00  0.00     0.001 A 
ATOM     67  C   UNL A   1      42.443  36.766  34.625  1.00  0.00     0.001 A 
ATOM     68  C   UNL A   1      41.854  36.809  35.887  1.00  0.00     0.000 A 
ENDBRANCH  49  63
BRANCH  50  69
ATOM     69  C   UNL A   1      40.378  26.731  28.167  1.00  0.00    -0.014 A 
ATOM     70  C   UNL A   1      39.648  25.599  28.556  1.00  0.00     0.009 A 
ATOM     71  C   UNL A   1      40.960  26.760  26.890  1.00  0.00     0.009 A 
ATOM     72  C   UNL A   1      39.522  24.508  27.694  1.00  0.00     0.001 A 
ATOM     73  C   UNL A   1      40.809  25.678  26.019  1.00  0.00     0.001 A 
ATOM     74  C   UNL A   1      40.098  24.550  26.425  1.00  0.00     0.000 A 
ENDBRANCH  50  69
BRANCH  62  75
ATOM     75  C   UNL A   1      45.204  28.450  32.879  1.00  0.00    -0.014 A 
ATOM     76  C   UNL A   1      46.449  28.706  32.283  1.00  0.00     0.009 A 
ATOM     77  C   UNL A   1      45.137  27.557  33.961  1.00  0.00     0.009 A 
ATOM     78  C   UNL A   1      47.597  28.057  32.742  1.00  0.00     0.001 A 
ATOM     79  C   UNL A   1      46.291  26.932  34.435  1.00  0.00     0.001 A 
ATOM     80  C   UNL A   1      47.517  27.175  33.820  1.00  0.00     0.000 A 
ENDBRANCH  62  75
ENDBRANCH  36  37
ENDBRANCH  28  31
ENDBRANCH  26  27
ENDBRANCH  25  26
ENDBRANCH   1  25
TORSDOF 16
ENDMDL
MODEL 2
REMARK VINA RESULT:     -10.8      3.599      8.753
REMARK SMILES CCC(CC)(NC(=O)N[C@@H](C)[C@@H]1CCCO1)C(=O)NCCCCNC(=O)c1ccc(-c2c3nc(c(-c4ccccc4)c4ccc([nH]4)c(-c4ccccc4)c4nc(c(-c5ccccc5)c5ccc2[nH]5)C=C4)C=C3)cc1
REMARK SMILES IDX 21 1 20 2 19 3 17 4 18 5 3 7 2 8 1 9 4 10 5 11 6 12 7 13
REMARK SMILES IDX 8 15 9 16 10 18 11 19 12 20 13 21 16 22 14 23 15 24 22 25
REMARK SMILES IDX 23 26 24 27 25 28 26 30 27 31 28 32 74 33 29 34 73 35 30 36
REMARK SMILES IDX 31 37 32 38 67 39 33 40 72 41 66 42 68 43 34 44 71 45 65 46
REMARK SMILES IDX 64 47 35 49 57 50 42 51 56 52 43 53 46 54 55 55 69 56 44 57
REMARK SMILES IDX 45 58 54 60 70 61 47 62 36 63 37 64 41 65 38 66 40 67 39 68
REMARK SMILES IDX 58 69 59 70 63 71 60 72 62 73 61 74 48 75 49 76 53 77 50 78
REMARK SMILES IDX 52 79 51 80
REMARK H PARENT 19 6 6 14 9 17 24 29 68 48 46 59
REMARK Flexibility Score: inf
ROOT
ATOM      1  C   UNL A   1      36.310  20.193  24.948  1.00  0.00     0.023 C 
ENDROOT
BRANCH   1   2
ATOM      2  C   UNL A   1      36.022  21.636  25.375  1.00  0.00     0.116 C 
BRANCH   2   3
ATOM      3  N   UNL A   1      35.480  21.881  26.705  1.00  0.00    -0.354 N 
ATOM      4  C   UNL A   1      34.250  22.312  27.144  1.00  0.00     0.245 C 
ATOM      5  O   UNL A   1      33.991  22.079  28.331  1.00  0.00    -0.272 OA
ATOM      6  H   UNL A   1      36.118  21.702  27.432  1.00  0.00     0.163 HD
BRANCH   4   7
ATOM      7  C   UNL A   1      33.184  22.907  26.175  1.00  0.00     0.120 C 
BRANCH   7   8
ATOM      8  C   UNL A   1      33.137  22.361  24.720  1.00  0.00     0.035 C 
ATOM      9  C   UNL A   1      32.321  21.109  24.441  1.00  0.00     0.007 C 
ENDBRANCH   7   8
BRANCH   7  10
ATOM     10  C   UNL A   1      33.528  24.436  26.139  1.00  0.00     0.035 C 
ATOM     11  C   UNL A   1      34.382  24.937  24.983  1.00  0.00     0.007 C 
ENDBRANCH   7  10
BRANCH   7  12
ATOM     12  N   UNL A   1      31.861  22.638  26.762  1.00  0.00    -0.324 N 
ATOM     13  C   UNL A   1      30.678  23.267  26.697  1.00  0.00     0.315 C 
ATOM     14  H   UNL A   1      31.839  21.826  27.318  1.00  0.00     0.166 HD
ATOM     15  O   UNL A   1      29.832  22.925  27.531  1.00  0.00    -0.249 OA
ATOM     16  N   UNL A   1      30.319  24.195  25.808  1.00  0.00    -0.333 N 
ATOM     17  H   UNL A   1      29.388  24.468  25.972  1.00  0.00     0.165 HD
BRANCH  16  18
ATOM     18  C   UNL A   1      30.860  24.946  24.658  1.00  0.00     0.109 C 
ATOM     19  C   UNL A   1      30.286  24.454  23.327  1.00  0.00     0.034 C 
BRANCH  18  20
ATOM     20  C   UNL A   1      30.545  26.462  24.778  1.00  0.00     0.140 C 
ATOM     21  C   UNL A   1      31.285  27.308  23.752  1.00  0.00     0.036 C 
ATOM     22  O   UNL A   1      30.893  26.977  26.081  1.00  0.00    -0.376 OA
ATOM     23  C   UNL A   1      31.439  28.618  24.476  1.00  0.00     0.031 C 
ATOM     24  C   UNL A   1      31.686  28.156  25.895  1.00  0.00     0.160 C 
ENDBRANCH  18  20
ENDBRANCH  16  18
ENDBRANCH   7  12
ENDBRANCH   4   7
ENDBRANCH   2   3
ENDBRANCH   1   2
BRANCH   1  25
ATOM     25  C   UNL A   1      37.750  19.758  24.702  1.00  0.00     0.023 C 
BRANCH  25  26
ATOM     26  C   UNL A   1      38.773  20.220  25.724  1.00  0.00     0.116 C 
BRANCH  26  27
ATOM     27  N   UNL A   1      39.911  19.322  25.797  1.00  0.00    -0.352 N 
ATOM     28  C   UNL A   1      41.219  19.602  26.098  1.00  0.00     0.251 C 
ATOM     29  H   UNL A   1      39.716  18.376  25.605  1.00  0.00     0.163 HD
ATOM     30  O   UNL A   1      42.081  18.743  25.936  1.00  0.00    -0.269 OA
BRANCH  28  31
ATOM     31  C   UNL A   1      41.599  20.940  26.597  1.00  0.00     0.039 A 
ATOM     32  C   UNL A   1      41.520  21.189  27.970  1.00  0.00     0.014 A 
ATOM     33  C   UNL A   1      41.997  21.955  25.721  1.00  0.00     0.014 A 
ATOM     34  C   UNL A   1      41.876  22.442  28.470  1.00  0.00     0.010 A 
ATOM     35  C   UNL A   1      42.414  23.184  26.228  1.00  0.00     0.010 A 
ATOM     36  C   UNL A   1      42.345  23.444  27.605  1.00  0.00    -0.014 A 
BRANCH  36  37
ATOM     37  C   UNL A   1      42.745  24.774  28.124  1.00  0.00     0.031 A 
ATOM     38  C   UNL A   1      41.710  25.844  28.336  1.00  0.00     0.074 A 
ATOM     39  C   UNL A   1      44.045  25.036  28.360  1.00  0.00     0.049 A 
ATOM     40  N   UNL A   1      41.871  27.080  28.741  1.00  0.00    -0.248 NA
ATOM     41  C   UNL A   1      40.315  25.487  28.035  1.00  0.00     0.031 C 
ATOM     42  C   UNL A   1      45.149  24.095  28.162  1.00  0.00     0.029 A 
ATOM     43  N   UNL A   1      44.657  26.177  28.814  1.00  0.00    -0.354 N 
ATOM     44  C   UNL A   1      40.603  27.648  28.728  1.00  0.00     0.074 A 
ATOM     45  C   UNL A   1      39.693  26.640  28.231  1.00  0.00     0.031 C 
ATOM     46  C   UNL A   1      46.300  24.690  28.514  1.00  0.00     0.029 A 
ATOM     47  C   UNL A   1      46.020  26.061  28.927  1.00  0.00     0.049 A 
ATOM     48  H   UNL A   1      44.165  27.000  29.039  1.00  0.00     0.167 HD
ATOM     49  C   UNL A   1      40.227  28.890  29.113  1.00  0.00     0.031 A 
ATOM     50  C   UNL A   1      46.943  26.961  29.315  1.00  0.00     0.031 A 
ATOM     51  C   UNL A   1      41.130  29.891  29.616  1.00  0.00     0.049 A 
ATOM     52  C   UNL A   1      46.502  28.338  29.727  1.00  0.00     0.074 A 
ATOM     53  C   UNL A   1      40.837  31.163  30.077  1.00  0.00     0.029 A 
ATOM     54  N   UNL A   1      42.502  29.732  29.721  1.00  0.00    -0.354 N 
ATOM     55  N   UNL A   1      45.292  28.839  29.766  1.00  0.00    -0.248 NA
ATOM     56  C   UNL A   1      47.556  29.268  30.159  1.00  0.00     0.031 C 
ATOM     57  C   UNL A   1      42.040  31.790  30.419  1.00  0.00     0.029 A 
ATOM     58  C   UNL A   1      43.075  30.889  30.220  1.00  0.00     0.049 A 
ATOM     59  H   UNL A   1      42.998  28.916  29.478  1.00  0.00     0.167 HD
ATOM     60  C   UNL A   1      45.435  30.133  30.251  1.00  0.00     0.074 A 
ATOM     61  C   UNL A   1      46.847  30.332  30.507  1.00  0.00     0.031 C 
ATOM     62  C   UNL A   1      44.481  31.072  30.466  1.00  0.00     0.031 A 
BRANCH  49  63
ATOM     63  C   UNL A   1      38.768  29.236  28.998  1.00  0.00    -0.014 A 
ATOM     64  C   UNL A   1      38.225  29.700  27.790  1.00  0.00     0.009 A 
ATOM     65  C   UNL A   1      37.920  29.068  30.104  1.00  0.00     0.009 A 
ATOM     66  C   UNL A   1      36.869  30.028  27.703  1.00  0.00     0.001 A 
ATOM     67  C   UNL A   1      36.560  29.369  30.005  1.00  0.00     0.001 A 
ATOM     68  C   UNL A   1      36.038  29.858  28.809  1.00  0.00     0.000 A 
ENDBRANCH  49  63
BRANCH  50  69
ATOM     69  C   UNL A   1      48.380  26.583  29.347  1.00  0.00    -0.014 A 
ATOM     70  C   UNL A   1      49.202  26.812  28.234  1.00  0.00     0.009 A 
ATOM     71  C   UNL A   1      48.936  25.992  30.493  1.00  0.00     0.009 A 
ATOM     72  C   UNL A   1      50.547  26.434  28.258  1.00  0.00     0.001 A 
ATOM     73  C   UNL A   1      50.287  25.641  30.524  1.00  0.00     0.001 A 
ATOM     74  C   UNL A   1      51.089  25.854  29.404  1.00  0.00     0.000 A 
ENDBRANCH  50  69
BRANCH  62  75
ATOM     75  C   UNL A   1      44.931  32.388  31.033  1.00  0.00    -0.014 A 
ATOM     76  C   UNL A   1      45.283  33.459  30.197  1.00  0.00     0.009 A 
ATOM     77  C   UNL A   1      44.964  32.570  32.425  1.00  0.00     0.009 A 
ATOM     78  C   UNL A   1      45.690  34.677  30.747  1.00  0.00     0.001 A 
ATOM     79  C   UNL A   1      45.345  33.796  32.969  1.00  0.00     0.001 A 
ATOM     80  C   UNL A   1      45.717  34.845  32.131  1.00  0.00     0.000 A 
ENDBRANCH  62  75
ENDBRANCH  36  37
ENDBRANCH  28  31
ENDBRANCH  26  27
ENDBRANCH  25  26
ENDBRANCH   1  25
TORSDOF 16
ENDMDL
MODEL 3
REMARK VINA RESULT:     -10.7      0.616      6.003
REMARK SMILES CCC(CC)(NC(=O)N[C@@H](C)[C@@H]1CCCO1)C(=O)NCCCCNC(=O)c1ccc(-c2c3nc(c(-c4ccccc4)c4ccc([nH]4)c(-c4ccccc4)c4nc(c(-c5ccccc5)c5ccc2[nH]5)C=C4)C=C3)cc1
REMARK SMILES IDX 21 1 20 2 19 3 17 4 18 5 3 7 2 8 1 9 4 10 5 11 6 12 7 13
REMARK SMILES IDX 8 15 9 16 10 18 11 19 12 20 13 21 16 22 14 23 15 24 22 25
REMARK SMILES IDX 23 26 24 27 25 28 26 30 27 31 28 32 74 33 29 34 73 35 30 36
REMARK SMILES IDX 31 37 32 38 67 39 33 40 72 41 66 42 68 43 34 44 71 45 65 46
REMARK SMILES IDX 64 47 35 49 57 50 42 51 56 52 43 53 46 54 55 55 69 56 44 57
REMARK SMILES IDX 45 58 54 60 70 61 47 62 36 63 37 64 41 65 38 66 40 67 39 68
REMARK SMILES IDX 58 69 59 70 63 71 60 72 62 73 61 74 48 75 49 76 53 77 50 78
REMARK SMILES IDX 52 79 51 80
REMARK H PARENT 19 6 6 14 9 17 24 29 68 48 46 59
REMARK Flexibility Score: inf
ROOT
ATOM      1  C   UNL A   1      31.256  30.739  25.423  1.00  0.00     0.023 C 
ENDROOT
BRANCH   1   2
ATOM      2  C   UNL A   1      32.286  29.606  25.467  1.00  0.00     0.116 C 
BRANCH   2   3
ATOM      3  N   UNL A   1      33.309  29.544  24.432  1.00  0.00    -0.354 N 
ATOM      4  C   UNL A   1      33.556  28.647  23.419  1.00  0.00     0.245 C 
ATOM      5  O   UNL A   1      34.275  29.058  22.500  1.00  0.00    -0.272 OA
ATOM      6  H   UNL A   1      33.949  30.291  24.462  1.00  0.00     0.163 HD
BRANCH   4   7
ATOM      7  C   UNL A   1      32.846  27.261  23.346  1.00  0.00     0.120 C 
BRANCH   7   8
ATOM      8  C   UNL A   1      31.383  27.164  23.864  1.00  0.00     0.035 C 
ATOM      9  C   UNL A   1      30.262  27.675  22.973  1.00  0.00     0.007 C 
ENDBRANCH   7   8
BRANCH   7  10
ATOM     10  C   UNL A   1      33.762  26.330  24.212  1.00  0.00     0.035 C 
ATOM     11  C   UNL A   1      33.419  26.183  25.688  1.00  0.00     0.007 C 
ENDBRANCH   7  10
BRANCH   7  12
ATOM     12  N   UNL A   1      32.812  26.863  21.928  1.00  0.00    -0.324 N 
ATOM     13  C   UNL A   1      32.820  25.675  21.304  1.00  0.00     0.315 C 
ATOM     14  H   UNL A   1      32.774  27.627  21.309  1.00  0.00     0.166 HD
ATOM     15  O   UNL A   1      33.057  25.699  20.092  1.00  0.00    -0.249 OA
ATOM     16  N   UNL A   1      32.567  24.486  21.855  1.00  0.00    -0.333 N 
ATOM     17  H   UNL A   1      32.613  23.786  21.165  1.00  0.00     0.165 HD
BRANCH  16  18
ATOM     18  C   UNL A   1      32.239  23.877  23.159  1.00  0.00     0.109 C 
ATOM     19  C   UNL A   1      30.748  23.553  23.285  1.00  0.00     0.034 C 
BRANCH  18  20
ATOM     20  C   UNL A   1      33.030  22.559  23.378  1.00  0.00     0.140 C 
ATOM     21  C   UNL A   1      32.846  21.977  24.772  1.00  0.00     0.036 C 
ATOM     22  O   UNL A   1      34.448  22.750  23.183  1.00  0.00    -0.376 OA
ATOM     23  C   UNL A   1      34.151  21.261  24.991  1.00  0.00     0.031 C 
ATOM     24  C   UNL A   1      35.130  22.198  24.317  1.00  0.00     0.160 C 
ENDBRANCH  18  20
ENDBRANCH  16  18
ENDBRANCH   7  12
ENDBRANCH   4   7
ENDBRANCH   2   3
ENDBRANCH   1   2
BRANCH   1  25
ATOM     25  C   UNL A   1      31.225  31.767  26.549  1.00  0.00     0.023 C 
BRANCH  25  26
ATOM     26  C   UNL A   1      32.559  32.390  26.923  1.00  0.00     0.116 C 
BRANCH  26  27
ATOM     27  N   UNL A   1      32.404  33.745  27.420  1.00  0.00    -0.352 N 
ATOM     28  C   UNL A   1      33.145  34.414  28.360  1.00  0.00     0.251 C 
ATOM     29  H   UNL A   1      31.661  34.257  27.026  1.00  0.00     0.163 HD
ATOM     30  O   UNL A   1      32.757  35.498  28.787  1.00  0.00    -0.269 OA
BRANCH  28  31
ATOM     31  C   UNL A   1      34.400  33.827  28.875  1.00  0.00     0.039 A 
ATOM     32  C   UNL A   1      35.607  34.198  28.278  1.00  0.00     0.014 A 
ATOM     33  C   UNL A   1      34.389  32.892  29.916  1.00  0.00     0.014 A 
ATOM     34  C   UNL A   1      36.808  33.662  28.747  1.00  0.00     0.010 A 
ATOM     35  C   UNL A   1      35.592  32.409  30.426  1.00  0.00     0.010 A 
ATOM     36  C   UNL A   1      36.811  32.778  29.837  1.00  0.00    -0.014 A 
BRANCH  36  37
ATOM     37  C   UNL A   1      38.081  32.216  30.359  1.00  0.00     0.031 A 
ATOM     38  C   UNL A   1      38.621  30.928  29.802  1.00  0.00     0.074 A 
ATOM     39  C   UNL A   1      38.723  32.838  31.366  1.00  0.00     0.049 A 
ATOM     40  N   UNL A   1      39.689  30.259  30.158  1.00  0.00    -0.248 NA
ATOM     41  C   UNL A   1      37.850  30.299  28.719  1.00  0.00     0.031 C 
ATOM     42  C   UNL A   1      38.284  34.074  32.016  1.00  0.00     0.029 A 
ATOM     43  N   UNL A   1      39.882  32.509  32.023  1.00  0.00    -0.354 N 
ATOM     44  C   UNL A   1      39.709  29.126  29.353  1.00  0.00     0.074 A 
ATOM     45  C   UNL A   1      38.523  29.174  28.527  1.00  0.00     0.031 C 
ATOM     46  C   UNL A   1      39.175  34.411  32.964  1.00  0.00     0.029 A 
ATOM     47  C   UNL A   1      40.225  33.399  33.011  1.00  0.00     0.049 A 
ATOM     48  H   UNL A   1      40.417  31.711  31.806  1.00  0.00     0.167 HD
ATOM     49  C   UNL A   1      40.639  28.144  29.293  1.00  0.00     0.031 A 
ATOM     50  C   UNL A   1      41.265  33.397  33.865  1.00  0.00     0.031 A 
ATOM     51  C   UNL A   1      41.823  28.100  30.109  1.00  0.00     0.049 A 
ATOM     52  C   UNL A   1      42.280  32.290  33.787  1.00  0.00     0.074 A 
ATOM     53  C   UNL A   1      42.851  27.172  30.088  1.00  0.00     0.029 A 
ATOM     54  N   UNL A   1      42.138  29.024  31.093  1.00  0.00    -0.354 N 
ATOM     55  N   UNL A   1      42.315  31.258  32.979  1.00  0.00    -0.248 NA
ATOM     56  C   UNL A   1      43.404  32.355  34.732  1.00  0.00     0.031 C 
ATOM     57  C   UNL A   1      43.764  27.510  31.092  1.00  0.00     0.029 A 
ATOM     58  C   UNL A   1      43.332  28.678  31.701  1.00  0.00     0.049 A 
ATOM     59  H   UNL A   1      41.592  29.811  31.324  1.00  0.00     0.167 HD
ATOM     60  C   UNL A   1      43.476  30.566  33.300  1.00  0.00     0.074 A 
ATOM     61  C   UNL A   1      44.123  31.304  34.365  1.00  0.00     0.031 C 
ATOM     62  C   UNL A   1      43.961  29.421  32.761  1.00  0.00     0.031 A 
BRANCH  49  63
ATOM     63  C   UNL A   1      40.405  27.031  28.310  1.00  0.00    -0.014 A 
ATOM     64  C   UNL A   1      39.668  25.891  28.667  1.00  0.00     0.009 A 
ATOM     65  C   UNL A   1      40.904  27.135  27.003  1.00  0.00     0.009 A 
ATOM     66  C   UNL A   1      39.469  24.860  27.745  1.00  0.00     0.001 A 
ATOM     67  C   UNL A   1      40.679  26.116  26.075  1.00  0.00     0.001 A 
ATOM     68  C   UNL A   1      39.971  24.976  26.450  1.00  0.00     0.000 A 
ENDBRANCH  49  63
BRANCH  50  69
ATOM     69  C   UNL A   1      41.411  34.490  34.860  1.00  0.00    -0.014 A 
ATOM     70  C   UNL A   1      42.144  35.645  34.548  1.00  0.00     0.009 A 
ATOM     71  C   UNL A   1      40.816  34.384  36.127  1.00  0.00     0.009 A 
ATOM     72  C   UNL A   1      42.299  36.661  35.494  1.00  0.00     0.001 A 
ATOM     73  C   UNL A   1      40.950  35.414  37.061  1.00  0.00     0.001 A 
ATOM     74  C   UNL A   1      41.699  36.547  36.747  1.00  0.00     0.000 A 
ENDBRANCH  50  69
BRANCH  62  75
ATOM     75  C   UNL A   1      45.271  28.915  33.293  1.00  0.00    -0.014 A 
ATOM     76  C   UNL A   1      46.490  29.284  32.703  1.00  0.00     0.009 A 
ATOM     77  C   UNL A   1      45.287  28.086  34.427  1.00  0.00     0.009 A 
ATOM     78  C   UNL A   1      47.696  28.807  33.220  1.00  0.00     0.001 A 
ATOM     79  C   UNL A   1      46.495  27.635  34.957  1.00  0.00     0.001 A 
ATOM     80  C   UNL A   1      47.698  27.988  34.348  1.00  0.00     0.000 A 
ENDBRANCH  62  75
ENDBRANCH  36  37
ENDBRANCH  28  31
ENDBRANCH  26  27
ENDBRANCH  25  26
ENDBRANCH   1  25
TORSDOF 16
ENDMDL
