MODEL 1
REMARK VINA RESULT:     -11.1      0.000      0.000
REMARK SMILES O=C(NCCCCNC(=O)[C@@]1([NH2+]C2CC2)CCC[C@@H](n2cncn2)C1)c1ccc(-c2c3nc(c(-c4ccccc4)c4ccc([nH]4)c(-c4ccccc4)c4nc(c(-c5ccccc5)c5ccc2[nH]5)C=C4)C=C3)cc1
REMARK SMILES IDX 5 1 4 2 3 3 1 4 2 5 26 7 27 8 73 9 28 10 72 11 29 12 30 13
REMARK SMILES IDX 31 14 66 15 32 16 71 17 65 18 67 19 33 20 70 21 64 22 63 23
REMARK SMILES IDX 34 25 56 26 41 27 55 28 42 29 45 30 54 31 68 32 43 33 44 34
REMARK SMILES IDX 53 36 69 37 46 38 35 39 36 40 40 41 37 42 39 43 38 44 57 45
REMARK SMILES IDX 58 46 62 47 59 48 61 49 60 50 47 51 48 52 52 53 49 54 51 55
REMARK SMILES IDX 50 56 6 57 7 58 8 59 9 60 10 62 11 63 16 64 25 65 17 66
REMARK SMILES IDX 19 67 18 68 12 69 13 72 14 73 15 74 20 75 21 76 24 77 22 78
REMARK SMILES IDX 23 79
REMARK H PARENT 3 6 67 24 45 35 8 61 12 70 12 71
REMARK Flexibility Score: inf
ROOT
ATOM      1  C   UNL A   1      40.015  22.394  26.626  1.00  0.00     0.023 C 
ENDROOT
BRANCH   1   2
ATOM      2  C   UNL A   1      41.442  21.852  26.541  1.00  0.00     0.116 C 
BRANCH   2   3
ATOM      3  N   UNL A   1      42.271  22.380  25.473  1.00  0.00    -0.352 N 
ATOM      4  O   UNL A   1      43.727  23.578  24.310  1.00  0.00    -0.269 OA
ATOM      5  C   UNL A   1      42.947  23.551  25.267  1.00  0.00     0.251 C 
ATOM      6  H   UNL A   1      42.372  21.747  24.725  1.00  0.00     0.163 HD
BRANCH   5   7
ATOM      7  C   UNL A   1      42.750  24.796  26.053  1.00  0.00     0.039 A 
ATOM      8  C   UNL A   1      43.421  25.122  27.231  1.00  0.00     0.014 A 
ATOM      9  C   UNL A   1      41.797  25.703  25.550  1.00  0.00     0.014 A 
ATOM     10  C   UNL A   1      43.070  26.263  27.950  1.00  0.00     0.010 A 
ATOM     11  C   UNL A   1      41.467  26.862  26.246  1.00  0.00     0.010 A 
ATOM     12  C   UNL A   1      42.079  27.123  27.470  1.00  0.00    -0.014 A 
BRANCH  12  13
ATOM     13  C   UNL A   1      41.802  28.345  28.222  1.00  0.00     0.031 A 
ATOM     14  C   UNL A   1      42.801  29.446  28.081  1.00  0.00     0.074 A 
ATOM     15  C   UNL A   1      40.647  28.584  28.875  1.00  0.00     0.049 A 
ATOM     16  N   UNL A   1      43.458  30.061  29.012  1.00  0.00    -0.248 NA
ATOM     17  C   UNL A   1      43.131  29.891  26.719  1.00  0.00     0.031 C 
ATOM     18  C   UNL A   1      39.422  27.782  28.855  1.00  0.00     0.029 A 
ATOM     19  N   UNL A   1      40.292  29.682  29.605  1.00  0.00    -0.354 N 
ATOM     20  C   UNL A   1      44.185  31.065  28.375  1.00  0.00     0.074 A 
ATOM     21  C   UNL A   1      44.016  30.859  26.959  1.00  0.00     0.031 C 
ATOM     22  C   UNL A   1      38.401  28.526  29.337  1.00  0.00     0.029 A 
ATOM     23  C   UNL A   1      38.926  29.795  29.815  1.00  0.00     0.049 A 
ATOM     24  H   UNL A   1      40.945  30.333  29.950  1.00  0.00     0.167 HD
ATOM     25  C   UNL A   1      44.747  32.108  29.046  1.00  0.00     0.031 A 
ATOM     26  C   UNL A   1      38.261  30.879  30.280  1.00  0.00     0.031 A 
ATOM     27  C   UNL A   1      44.842  31.875  30.459  1.00  0.00     0.049 A 
ATOM     28  C   UNL A   1      39.230  31.773  30.951  1.00  0.00     0.074 A 
ATOM     29  C   UNL A   1      45.482  30.956  31.262  1.00  0.00     0.029 A 
ATOM     30  N   UNL A   1      43.942  32.519  31.270  1.00  0.00    -0.354 N 
ATOM     31  N   UNL A   1      39.806  31.501  32.085  1.00  0.00    -0.248 NA
ATOM     32  C   UNL A   1      39.846  32.840  30.179  1.00  0.00     0.031 C 
ATOM     33  C   UNL A   1      44.609  30.765  32.373  1.00  0.00     0.029 A 
ATOM     34  C   UNL A   1      43.504  31.598  32.184  1.00  0.00     0.049 A 
ATOM     35  H   UNL A   1      43.664  33.461  31.208  1.00  0.00     0.167 HD
ATOM     36  C   UNL A   1      41.074  32.049  31.979  1.00  0.00     0.074 A 
ATOM     37  C   UNL A   1      40.995  32.968  30.848  1.00  0.00     0.031 C 
ATOM     38  C   UNL A   1      42.136  31.497  32.636  1.00  0.00     0.031 A 
BRANCH  25  39
ATOM     39  C   UNL A   1      44.910  33.492  28.468  1.00  0.00    -0.014 A 
ATOM     40  C   UNL A   1      43.763  34.268  28.216  1.00  0.00     0.009 A 
ATOM     41  C   UNL A   1      46.117  33.940  27.899  1.00  0.00     0.009 A 
ATOM     42  C   UNL A   1      43.813  35.397  27.390  1.00  0.00     0.001 A 
ATOM     43  C   UNL A   1      46.178  35.091  27.109  1.00  0.00     0.001 A 
ATOM     44  C   UNL A   1      45.019  35.804  26.832  1.00  0.00     0.000 A 
ENDBRANCH  25  39
BRANCH  26  45
ATOM     45  C   UNL A   1      36.880  31.308  29.982  1.00  0.00    -0.014 A 
ATOM     46  C   UNL A   1      36.035  31.778  31.000  1.00  0.00     0.009 A 
ATOM     47  C   UNL A   1      36.468  31.494  28.649  1.00  0.00     0.009 A 
ATOM     48  C   UNL A   1      34.838  32.437  30.690  1.00  0.00     0.001 A 
ATOM     49  C   UNL A   1      35.270  32.144  28.341  1.00  0.00     0.001 A 
ATOM     50  C   UNL A   1      34.462  32.629  29.363  1.00  0.00     0.000 A 
ENDBRANCH  26  45
BRANCH  38  51
ATOM     51  C   UNL A   1      41.853  30.461  33.694  1.00  0.00    -0.014 A 
ATOM     52  C   UNL A   1      41.675  29.099  33.394  1.00  0.00     0.009 A 
ATOM     53  C   UNL A   1      41.918  30.843  35.043  1.00  0.00     0.009 A 
ATOM     54  C   UNL A   1      41.525  28.154  34.412  1.00  0.00     0.001 A 
ATOM     55  C   UNL A   1      41.793  29.895  36.060  1.00  0.00     0.001 A 
ATOM     56  C   UNL A   1      41.589  28.553  35.745  1.00  0.00     0.000 A 
ENDBRANCH  38  51
ENDBRANCH  12  13
ENDBRANCH   5   7
ENDBRANCH   2   3
ENDBRANCH   1   2
BRANCH   1  57
ATOM     57  C   UNL A   1      38.904  21.504  26.065  1.00  0.00     0.023 C 
BRANCH  57  58
ATOM     58  C   UNL A   1      37.587  22.191  25.718  1.00  0.00     0.116 C 
BRANCH  58  59
ATOM     59  N   UNL A   1      37.384  22.418  24.300  1.00  0.00    -0.351 N 
ATOM     60  C   UNL A   1      36.228  22.710  23.626  1.00  0.00     0.281 C 
ATOM     61  H   UNL A   1      38.193  22.354  23.743  1.00  0.00     0.163 HD
ATOM     62  O   UNL A   1      36.371  23.128  22.470  1.00  0.00    -0.268 OA
BRANCH  60  63
ATOM     63  C   UNL A   1      34.798  22.408  24.199  1.00  0.00     0.177 C 
ATOM     64  C   UNL A   1      33.717  22.622  23.109  1.00  0.00     0.079 C 
ATOM     65  C   UNL A   1      34.800  20.884  24.527  1.00  0.00     0.106 C 
ATOM     66  C   UNL A   1      32.328  22.193  23.572  1.00  0.00     0.009 C 
ATOM     67  C   UNL A   1      33.425  20.281  24.895  1.00  0.00     0.116 C 
ATOM     68  C   UNL A   1      32.312  20.714  23.917  1.00  0.00     0.028 C 
BRANCH  63  69
ATOM     69  N   UNL A   1      34.484  23.182  25.423  1.00  0.00    -0.331 N 
ATOM     70  H   UNL A   1      35.064  22.792  26.164  1.00  0.00     0.347 HD
ATOM     71  H   UNL A   1      33.470  23.084  25.484  1.00  0.00     0.347 HD
BRANCH  69  72
ATOM     72  C   UNL A   1      34.658  24.639  25.487  1.00  0.00     0.183 C 
ATOM     73  C   UNL A   1      34.097  25.643  24.524  1.00  0.00     0.071 C 
ATOM     74  C   UNL A   1      33.530  25.535  25.909  1.00  0.00     0.071 C 
ENDBRANCH  69  72
ENDBRANCH  63  69
BRANCH  67  75
ATOM     75  N   UNL A   1      33.493  18.819  25.012  1.00  0.00    -0.250 N 
ATOM     76  C   UNL A   1      32.692  17.995  25.746  1.00  0.00     0.220 A 
ATOM     77  N   UNL A   1      34.396  18.094  24.319  1.00  0.00    -0.160 NA
ATOM     78  N   UNL A   1      33.065  16.746  25.581  1.00  0.00    -0.224 NA
ATOM     79  C   UNL A   1      34.107  16.852  24.708  1.00  0.00     0.246 A 
ENDBRANCH  67  75
ENDBRANCH  60  63
ENDBRANCH  58  59
ENDBRANCH  57  58
ENDBRANCH   1  57
TORSDOF 14
ENDMDL
MODEL 2
REMARK VINA RESULT:     -11.0      3.929      8.759
REMARK SMILES O=C(NCCCCNC(=O)[C@@]1([NH2+]C2CC2)CCC[C@@H](n2cncn2)C1)c1ccc(-c2c3nc(c(-c4ccccc4)c4ccc([nH]4)c(-c4ccccc4)c4nc(c(-c5ccccc5)c5ccc2[nH]5)C=C4)C=C3)cc1
REMARK SMILES IDX 5 1 4 2 3 3 1 4 2 5 26 7 27 8 73 9 28 10 72 11 29 12 30 13
REMARK SMILES IDX 31 14 66 15 32 16 71 17 65 18 67 19 33 20 70 21 64 22 63 23
REMARK SMILES IDX 34 25 56 26 41 27 55 28 42 29 45 30 54 31 68 32 43 33 44 34
REMARK SMILES IDX 53 36 69 37 46 38 35 39 36 40 40 41 37 42 39 43 38 44 57 45
REMARK SMILES IDX 58 46 62 47 59 48 61 49 60 50 47 51 48 52 52 53 49 54 51 55
REMARK SMILES IDX 50 56 6 57 7 58 8 59 9 60 10 62 11 63 16 64 25 65 17 66
REMARK SMILES IDX 19 67 18 68 12 69 13 72 14 73 15 74 20 75 21 76 24 77 22 78
REMARK SMILES IDX 23 79
REMARK H PARENT 3 6 67 24 45 35 8 61 12 70 12 71
REMARK Flexibility Score: inf
ROOT
ATOM      1  C   UNL A   1      35.846  30.682  27.585  1.00  0.00     0.023 C 
ENDROOT
BRANCH   1   2
ATOM      2  C   UNL A   1      34.901  31.798  28.031  1.00  0.00     0.116 C 
BRANCH   2   3
ATOM      3  N   UNL A   1      34.726  31.963  29.461  1.00  0.00    -0.352 N 
ATOM      4  O   UNL A   1      35.096  32.208  31.632  1.00  0.00    -0.269 OA
ATOM      5  C   UNL A   1      35.519  31.765  30.558  1.00  0.00     0.251 C 
ATOM      6  H   UNL A   1      33.830  32.296  29.696  1.00  0.00     0.163 HD
BRANCH   5   7
ATOM      7  C   UNL A   1      36.791  30.999  30.562  1.00  0.00     0.039 A 
ATOM      8  C   UNL A   1      38.055  31.533  30.317  1.00  0.00     0.014 A 
ATOM      9  C   UNL A   1      36.684  29.620  30.830  1.00  0.00     0.014 A 
ATOM     10  C   UNL A   1      39.168  30.698  30.228  1.00  0.00     0.010 A 
ATOM     11  C   UNL A   1      37.797  28.787  30.776  1.00  0.00     0.010 A 
ATOM     12  C   UNL A   1      39.037  29.322  30.435  1.00  0.00    -0.014 A 
BRANCH  12  13
ATOM     13  C   UNL A   1      40.246  28.501  30.405  1.00  0.00     0.031 A 
ATOM     14  C   UNL A   1      40.982  28.366  31.697  1.00  0.00     0.074 A 
ATOM     15  C   UNL A   1      40.621  27.750  29.352  1.00  0.00     0.049 A 
ATOM     16  N   UNL A   1      42.223  28.637  31.949  1.00  0.00    -0.248 NA
ATOM     17  C   UNL A   1      40.221  27.898  32.865  1.00  0.00     0.031 C 
ATOM     18  C   UNL A   1      39.867  27.483  28.125  1.00  0.00     0.029 A 
ATOM     19  N   UNL A   1      41.725  26.956  29.221  1.00  0.00    -0.354 N 
ATOM     20  C   UNL A   1      42.445  28.249  33.269  1.00  0.00     0.074 A 
ATOM     21  C   UNL A   1      41.160  27.885  33.811  1.00  0.00     0.031 C 
ATOM     22  C   UNL A   1      40.418  26.423  27.492  1.00  0.00     0.029 A 
ATOM     23  C   UNL A   1      41.626  26.027  28.196  1.00  0.00     0.049 A 
ATOM     24  H   UNL A   1      42.517  27.037  29.800  1.00  0.00     0.167 HD
ATOM     25  C   UNL A   1      43.691  28.088  33.792  1.00  0.00     0.031 A 
ATOM     26  C   UNL A   1      42.437  24.964  27.981  1.00  0.00     0.031 A 
ATOM     27  C   UNL A   1      44.713  28.706  32.996  1.00  0.00     0.049 A 
ATOM     28  C   UNL A   1      43.699  25.178  28.722  1.00  0.00     0.074 A 
ATOM     29  C   UNL A   1      45.000  29.993  32.592  1.00  0.00     0.029 A 
ATOM     30  N   UNL A   1      45.500  27.888  32.225  1.00  0.00    -0.354 N 
ATOM     31  N   UNL A   1      44.592  26.065  28.396  1.00  0.00    -0.248 NA
ATOM     32  C   UNL A   1      43.821  24.634  30.065  1.00  0.00     0.031 C 
ATOM     33  C   UNL A   1      45.571  29.853  31.293  1.00  0.00     0.029 A 
ATOM     34  C   UNL A   1      45.614  28.488  31.001  1.00  0.00     0.049 A 
ATOM     35  H   UNL A   1      45.904  27.033  32.500  1.00  0.00     0.167 HD
ATOM     36  C   UNL A   1      45.116  26.501  29.603  1.00  0.00     0.074 A 
ATOM     37  C   UNL A   1      44.702  25.497  30.578  1.00  0.00     0.031 C 
ATOM     38  C   UNL A   1      45.590  27.773  29.746  1.00  0.00     0.031 A 
BRANCH  25  39
ATOM     39  C   UNL A   1      44.034  27.077  34.858  1.00  0.00    -0.014 A 
ATOM     40  C   UNL A   1      43.944  25.706  34.556  1.00  0.00     0.009 A 
ATOM     41  C   UNL A   1      44.160  27.421  36.217  1.00  0.00     0.009 A 
ATOM     42  C   UNL A   1      43.920  24.736  35.565  1.00  0.00     0.001 A 
ATOM     43  C   UNL A   1      44.180  26.453  37.225  1.00  0.00     0.001 A 
ATOM     44  C   UNL A   1      44.032  25.111  36.900  1.00  0.00     0.000 A 
ENDBRANCH  25  39
BRANCH  26  45
ATOM     45  C   UNL A   1      42.104  23.664  27.364  1.00  0.00    -0.014 A 
ATOM     46  C   UNL A   1      42.765  23.225  26.206  1.00  0.00     0.009 A 
ATOM     47  C   UNL A   1      41.309  22.734  28.058  1.00  0.00     0.009 A 
ATOM     48  C   UNL A   1      42.655  21.896  25.779  1.00  0.00     0.001 A 
ATOM     49  C   UNL A   1      41.194  21.409  27.628  1.00  0.00     0.001 A 
ATOM     50  C   UNL A   1      41.879  20.987  26.495  1.00  0.00     0.000 A 
ENDBRANCH  26  45
BRANCH  38  51
ATOM     51  C   UNL A   1      45.794  28.597  28.499  1.00  0.00    -0.014 A 
ATOM     52  C   UNL A   1      44.767  29.362  27.919  1.00  0.00     0.009 A 
ATOM     53  C   UNL A   1      47.093  28.724  27.984  1.00  0.00     0.009 A 
ATOM     54  C   UNL A   1      45.024  30.198  26.830  1.00  0.00     0.001 A 
ATOM     55  C   UNL A   1      47.353  29.579  26.910  1.00  0.00     0.001 A 
ATOM     56  C   UNL A   1      46.319  30.309  26.329  1.00  0.00     0.000 A 
ENDBRANCH  38  51
ENDBRANCH  12  13
ENDBRANCH   5   7
ENDBRANCH   2   3
ENDBRANCH   1   2
BRANCH   1  57
ATOM     57  C   UNL A   1      35.236  29.291  27.405  1.00  0.00     0.023 C 
BRANCH  57  58
ATOM     58  C   UNL A   1      33.960  29.206  26.574  1.00  0.00     0.116 C 
BRANCH  58  59
ATOM     59  N   UNL A   1      32.756  28.968  27.346  1.00  0.00    -0.351 N 
ATOM     60  C   UNL A   1      31.795  28.006  27.179  1.00  0.00     0.281 C 
ATOM     61  H   UNL A   1      32.609  29.585  28.099  1.00  0.00     0.163 HD
ATOM     62  O   UNL A   1      31.022  27.847  28.132  1.00  0.00    -0.268 OA
BRANCH  60  63
ATOM     63  C   UNL A   1      31.569  27.241  25.828  1.00  0.00     0.177 C 
ATOM     64  C   UNL A   1      30.519  26.116  26.005  1.00  0.00     0.079 C 
ATOM     65  C   UNL A   1      30.936  28.289  24.862  1.00  0.00     0.106 C 
ATOM     66  C   UNL A   1      30.152  25.444  24.685  1.00  0.00     0.009 C 
ATOM     67  C   UNL A   1      30.403  27.725  23.526  1.00  0.00     0.116 C 
ATOM     68  C   UNL A   1      29.551  26.452  23.721  1.00  0.00     0.028 C 
BRANCH  63  69
ATOM     69  N   UNL A   1      32.823  26.713  25.239  1.00  0.00    -0.331 N 
ATOM     70  H   UNL A   1      33.571  27.323  25.567  1.00  0.00     0.347 HD
ATOM     71  H   UNL A   1      32.601  26.695  24.243  1.00  0.00     0.347 HD
BRANCH  69  72
ATOM     72  C   UNL A   1      33.276  25.338  25.480  1.00  0.00     0.183 C 
ATOM     73  C   UNL A   1      33.910  24.423  24.475  1.00  0.00     0.071 C 
ATOM     74  C   UNL A   1      34.738  25.011  25.579  1.00  0.00     0.071 C 
ENDBRANCH  69  72
ENDBRANCH  63  69
BRANCH  67  75
ATOM     75  N   UNL A   1      29.669  28.745  22.765  1.00  0.00    -0.250 N 
ATOM     76  C   UNL A   1      30.164  29.646  21.870  1.00  0.00     0.220 A 
ATOM     77  N   UNL A   1      28.328  28.868  22.857  1.00  0.00    -0.160 NA
ATOM     78  N   UNL A   1      29.187  30.385  21.393  1.00  0.00    -0.224 NA
ATOM     79  C   UNL A   1      28.088  29.880  22.023  1.00  0.00     0.246 A 
ENDBRANCH  67  75
ENDBRANCH  60  63
ENDBRANCH  58  59
ENDBRANCH  57  58
ENDBRANCH   1  57
TORSDOF 14
ENDMDL
MODEL 3
REMARK VINA RESULT:     -10.9      3.032      7.821
REMARK SMILES O=C(NCCCCNC(=O)[C@@]1([NH2+]C2CC2)CCC[C@@H](n2cncn2)C1)c1ccc(-c2c3nc(c(-c4ccccc4)c4ccc([nH]4)c(-c4ccccc4)c4nc(c(-c5ccccc5)c5ccc2[nH]5)C=C4)C=C3)cc1
REMARK SMILES IDX 5 1 4 2 3 3 1 4 2 5 26 7 27 8 73 9 28 10 72 11 29 12 30 13
REMARK SMILES IDX 31 14 66 15 32 16 71 17 65 18 67 19 33 20 70 21 64 22 63 23
REMARK SMILES IDX 34 25 56 26 41 27 55 28 42 29 45 30 54 31 68 32 43 33 44 34
REMARK SMILES IDX 53 36 69 37 46 38 35 39 36 40 40 41 37 42 39 43 38 44 57 45
REMARK SMILES IDX 58 46 62 47 59 48 61 49 60 50 47 51 48 52 52 53 49 54 51 55
REMARK SMILES IDX 50 56 6 57 7 58 8 59 9 60 10 62 11 63 16 64 25 65 17 66
REMARK SMILES IDX 19 67 18 68 12 69 13 72 14 73 15 74 20 75 21 76 24 77 22 78
REMARK SMILES IDX 23 79
REMARK H PARENT 3 6 67 24 45 35 8 61 12 70 12 71
REMARK Flexibility Score: inf
ROOT
ATOM      1  C   UNL A   1      34.362  29.421  27.497  1.00  0.00     0.023 C 
ENDROOT
BRANCH   1   2
ATOM      2  C   UNL A   1      34.383  30.949  27.470  1.00  0.00     0.116 C 
BRANCH   2   3
ATOM      3  N   UNL A   1      34.424  31.618  28.756  1.00  0.00    -0.352 N 
ATOM      4  O   UNL A   1      35.113  32.596  30.621  1.00  0.00    -0.269 OA
ATOM      5  C   UNL A   1      35.372  31.782  29.728  1.00  0.00     0.251 C 
ATOM      6  H   UNL A   1      33.571  32.057  28.981  1.00  0.00     0.163 HD
BRANCH   5   7
ATOM      7  C   UNL A   1      36.635  31.004  29.825  1.00  0.00     0.039 A 
ATOM      8  C   UNL A   1      37.888  31.444  29.402  1.00  0.00     0.014 A 
ATOM      9  C   UNL A   1      36.528  29.718  30.387  1.00  0.00     0.014 A 
ATOM     10  C   UNL A   1      38.984  30.583  29.432  1.00  0.00     0.010 A 
ATOM     11  C   UNL A   1      37.626  28.866  30.451  1.00  0.00     0.010 A 
ATOM     12  C   UNL A   1      38.850  29.287  29.936  1.00  0.00    -0.014 A 
BRANCH  12  13
ATOM     13  C   UNL A   1      40.046  28.450  30.015  1.00  0.00     0.031 A 
ATOM     14  C   UNL A   1      40.692  28.351  31.357  1.00  0.00     0.074 A 
ATOM     15  C   UNL A   1      40.479  27.657  29.016  1.00  0.00     0.049 A 
ATOM     16  N   UNL A   1      41.918  28.616  31.683  1.00  0.00    -0.248 NA
ATOM     17  C   UNL A   1      39.848  27.935  32.487  1.00  0.00     0.031 C 
ATOM     18  C   UNL A   1      39.805  27.357  27.751  1.00  0.00     0.029 A 
ATOM     19  N   UNL A   1      41.577  26.845  28.986  1.00  0.00    -0.354 N 
ATOM     20  C   UNL A   1      42.045  28.271  33.027  1.00  0.00     0.074 A 
ATOM     21  C   UNL A   1      40.722  27.943  33.494  1.00  0.00     0.031 C 
ATOM     22  C   UNL A   1      40.380  26.268  27.193  1.00  0.00     0.029 A 
ATOM     23  C   UNL A   1      41.533  25.882  27.990  1.00  0.00     0.049 A 
ATOM     24  H   UNL A   1      42.330  26.936  29.615  1.00  0.00     0.167 HD
ATOM     25  C   UNL A   1      43.252  28.114  33.638  1.00  0.00     0.031 A 
ATOM     26  C   UNL A   1      42.340  24.802  27.867  1.00  0.00     0.031 A 
ATOM     27  C   UNL A   1      44.333  28.690  32.891  1.00  0.00     0.049 A 
ATOM     28  C   UNL A   1      43.553  25.025  28.683  1.00  0.00     0.074 A 
ATOM     29  C   UNL A   1      44.666  29.958  32.463  1.00  0.00     0.029 A 
ATOM     30  N   UNL A   1      45.157  27.835  32.203  1.00  0.00    -0.354 N 
ATOM     31  N   UNL A   1      44.479  25.889  28.387  1.00  0.00    -0.248 NA
ATOM     32  C   UNL A   1      43.578  24.529  30.049  1.00  0.00     0.031 C 
ATOM     33  C   UNL A   1      45.319  29.764  31.211  1.00  0.00     0.029 A 
ATOM     34  C   UNL A   1      45.362  28.390  30.969  1.00  0.00     0.049 A 
ATOM     35  H   UNL A   1      45.529  26.986  32.534  1.00  0.00     0.167 HD
ATOM     36  C   UNL A   1      44.928  26.361  29.610  1.00  0.00     0.074 A 
ATOM     37  C   UNL A   1      44.435  25.397  30.590  1.00  0.00     0.031 C 
ATOM     38  C   UNL A   1      45.411  27.631  29.741  1.00  0.00     0.031 A 
BRANCH  25  39
ATOM     39  C   UNL A   1      43.507  27.137  34.759  1.00  0.00    -0.014 A 
ATOM     40  C   UNL A   1      43.401  25.757  34.503  1.00  0.00     0.009 A 
ATOM     41  C   UNL A   1      43.564  27.530  36.109  1.00  0.00     0.009 A 
ATOM     42  C   UNL A   1      43.294  24.828  35.544  1.00  0.00     0.001 A 
ATOM     43  C   UNL A   1      43.502  26.601  37.152  1.00  0.00     0.001 A 
ATOM     44  C   UNL A   1      43.339  25.251  36.868  1.00  0.00     0.000 A 
ENDBRANCH  25  39
BRANCH  26  45
ATOM     45  C   UNL A   1      42.030  23.485  27.274  1.00  0.00    -0.014 A 
ATOM     46  C   UNL A   1      42.886  22.899  26.329  1.00  0.00     0.009 A 
ATOM     47  C   UNL A   1      41.014  22.683  27.825  1.00  0.00     0.009 A 
ATOM     48  C   UNL A   1      42.747  21.552  25.973  1.00  0.00     0.001 A 
ATOM     49  C   UNL A   1      40.871  21.340  27.465  1.00  0.00     0.001 A 
ATOM     50  C   UNL A   1      41.747  20.770  26.549  1.00  0.00     0.000 A 
ENDBRANCH  26  45
BRANCH  38  51
ATOM     51  C   UNL A   1      45.709  28.408  28.483  1.00  0.00    -0.014 A 
ATOM     52  C   UNL A   1      44.755  29.223  27.850  1.00  0.00     0.009 A 
ATOM     53  C   UNL A   1      47.030  28.437  28.010  1.00  0.00     0.009 A 
ATOM     54  C   UNL A   1      45.102  30.012  26.751  1.00  0.00     0.001 A 
ATOM     55  C   UNL A   1      47.382  29.245  26.927  1.00  0.00     0.001 A 
ATOM     56  C   UNL A   1      46.417  30.026  26.293  1.00  0.00     0.000 A 
ENDBRANCH  38  51
ENDBRANCH  12  13
ENDBRANCH   5   7
ENDBRANCH   2   3
ENDBRANCH   1   2
BRANCH   1  57
ATOM     57  C   UNL A   1      33.036  28.742  27.147  1.00  0.00     0.023 C 
BRANCH  57  58
ATOM     58  C   UNL A   1      33.117  27.487  26.285  1.00  0.00     0.116 C 
BRANCH  58  59
ATOM     59  N   UNL A   1      32.104  26.491  26.580  1.00  0.00    -0.351 N 
ATOM     60  C   UNL A   1      32.102  25.149  26.304  1.00  0.00     0.281 C 
ATOM     61  H   UNL A   1      31.305  26.828  27.046  1.00  0.00     0.163 HD
ATOM     62  O   UNL A   1      31.252  24.479  26.903  1.00  0.00    -0.268 OA
BRANCH  60  63
ATOM     63  C   UNL A   1      33.005  24.497  25.198  1.00  0.00     0.177 C 
ATOM     64  C   UNL A   1      34.474  24.399  25.680  1.00  0.00     0.079 C 
ATOM     65  C   UNL A   1      32.487  23.033  25.056  1.00  0.00     0.106 C 
ATOM     66  C   UNL A   1      35.361  23.632  24.702  1.00  0.00     0.009 C 
ATOM     67  C   UNL A   1      33.361  22.100  24.187  1.00  0.00     0.116 C 
ATOM     68  C   UNL A   1      34.862  22.207  24.534  1.00  0.00     0.028 C 
BRANCH  63  69
ATOM     69  N   UNL A   1      32.916  25.187  23.890  1.00  0.00    -0.331 N 
ATOM     70  H   UNL A   1      33.543  24.687  23.260  1.00  0.00     0.347 HD
ATOM     71  H   UNL A   1      33.134  26.152  24.141  1.00  0.00     0.347 HD
BRANCH  69  72
ATOM     72  C   UNL A   1      31.643  25.334  23.174  1.00  0.00     0.183 C 
ATOM     73  C   UNL A   1      30.760  26.546  23.172  1.00  0.00     0.071 C 
ATOM     74  C   UNL A   1      31.541  26.187  21.942  1.00  0.00     0.071 C 
ENDBRANCH  69  72
ENDBRANCH  63  69
BRANCH  67  75
ATOM     75  N   UNL A   1      32.897  20.708  24.257  1.00  0.00    -0.250 N 
ATOM     76  C   UNL A   1      32.777  19.914  25.359  1.00  0.00     0.220 A 
ATOM     77  N   UNL A   1      32.473  20.048  23.158  1.00  0.00    -0.160 NA
ATOM     78  N   UNL A   1      32.317  18.734  25.010  1.00  0.00    -0.224 NA
ATOM     79  C   UNL A   1      32.149  18.857  23.663  1.00  0.00     0.246 A 
ENDBRANCH  67  75
ENDBRANCH  60  63
ENDBRANCH  58  59
ENDBRANCH  57  58
ENDBRANCH   1  57
TORSDOF 14
ENDMDL
